MODEL 1
REMARK VINA RESULT:     -12.9      0.000      0.000
REMARK SMILES COc1cccc(-c2nn(-c3cc4c(cc3C(N)=O)OCO4)cc2C(=O)NCCCCCCNC(=O)c2ccc(-c3c4nc(c(-c5c(F)cc(S(=O)(=O)[O-])cc5F)c5ccc([nH]5)c(-c5c(F)cc(S(=O)(=O)[O-])cc5F)c5nc(c(-c6c(F)cc(S(=O)(=O)[O-])cc6F)c6ccc3[nH]6)C=C5)C=C4)cc2)c1
REMARK SMILES IDX 31 1 30 2 29 3 28 4 27 5 25 6 26 7 24 9 8 10 9 11 10 12
REMARK SMILES IDX 23 13 7 14 3 15 4 16 103 17 5 18 6 19 2 20 1 21 11 22 12 23
REMARK SMILES IDX 16 24 13 25 15 26 14 27 22 28 20 29 21 30 17 31 18 32 19 33
REMARK SMILES IDX 32 36 33 37 34 38 35 39 36 41 37 42 38 43 102 44 39 45
REMARK SMILES IDX 101 46 40 47 41 48 42 49 95 50 43 51 100 52 94 53 96 54
REMARK SMILES IDX 44 55 99 56 93 57 92 58 45 60 79 61 58 62 78 63 59 64 62 65
REMARK SMILES IDX 77 66 97 67 60 68 61 69 76 71 98 72 63 73 46 74 47 75 56 76
REMARK SMILES IDX 48 77 49 78 55 79 57 80 50 81 51 82 52 83 53 84 54 85 80 86
REMARK SMILES IDX 81 87 90 88 82 89 83 90 89 91 91 92 84 93 85 94 86 95 87 96
REMARK SMILES IDX 88 97 64 98 65 99 74 100 66 101 67 102 73 103 75 104 68 105
REMARK SMILES IDX 69 106 70 107 71 108 72 109
REMARK H PARENT 27 8 18 34 18 35 34 40 96 59 62 70
REMARK Flexibility Score: inf
ROOT
ATOM      1  C   UNL A   1      40.583  21.055  26.852  1.00  0.00     0.002 C 
ENDROOT
BRANCH   1   2
ATOM      2  C   UNL A   1      39.293  21.581  26.202  1.00  0.00     0.002 C 
BRANCH   2   3
ATOM      3  C   UNL A   1      39.064  23.093  26.335  1.00  0.00     0.021 C 
BRANCH   3   4
ATOM      4  C   UNL A   1      37.647  23.517  25.956  1.00  0.00     0.116 C 
BRANCH   4   5
ATOM      5  N   UNL A   1      37.350  23.128  24.594  1.00  0.00    -0.352 N 
ATOM      6  C   UNL A   1      36.234  23.234  23.807  1.00  0.00     0.255 C 
ATOM      7  O   UNL A   1      36.364  22.803  22.661  1.00  0.00    -0.269 OA
ATOM      8  H   UNL A   1      38.109  22.696  24.139  1.00  0.00     0.163 HD
BRANCH   6   9
ATOM      9  C   UNL A   1      35.010  23.877  24.266  1.00  0.00     0.086 A 
ATOM     10  C   UNL A   1      33.673  23.345  24.240  1.00  0.00     0.106 A 
ATOM     11  N   UNL A   1      32.756  24.282  24.569  1.00  0.00    -0.167 NA
ATOM     12  N   UNL A   1      33.492  25.409  24.694  1.00  0.00    -0.239 N 
ATOM     13  C   UNL A   1      34.823  25.113  24.846  1.00  0.00     0.129 A 
BRANCH  10  14
ATOM     14  C   UNL A   1      33.278  21.975  23.914  1.00  0.00     0.007 A 
ATOM     15  C   UNL A   1      33.124  19.623  24.485  1.00  0.00     0.119 A 
ATOM     16  C   UNL A   1      32.385  19.394  23.320  1.00  0.00     0.046 A 
ATOM     17  C   UNL A   1      33.581  20.913  24.777  1.00  0.00     0.056 A 
ATOM     18  C   UNL A   1      32.091  20.442  22.451  1.00  0.00     0.005 A 
ATOM     19  C   UNL A   1      32.545  21.726  22.744  1.00  0.00     0.011 A 
BRANCH  15  20
ATOM     20  O   UNL A   1      33.372  18.504  25.234  1.00  0.00    -0.497 OA
ATOM     21  C   UNL A   1      32.650  17.338  24.858  1.00  0.00     0.278 C 
ENDBRANCH  15  20
ENDBRANCH  10  14
BRANCH  12  22
ATOM     22  C   UNL A   1      32.932  26.705  24.801  1.00  0.00     0.081 A 
ATOM     23  C   UNL A   1      32.567  27.162  26.081  1.00  0.00     0.079 A 
ATOM     24  C   UNL A   1      32.833  27.560  23.662  1.00  0.00     0.069 A 
ATOM     25  C   UNL A   1      32.192  28.484  26.198  1.00  0.00     0.167 A 
ATOM     26  C   UNL A   1      32.534  28.919  23.854  1.00  0.00     0.066 A 
ATOM     27  C   UNL A   1      32.204  29.339  25.121  1.00  0.00     0.166 A 
ATOM     28  O   UNL A   1      31.786  29.111  27.335  1.00  0.00    -0.454 OA
ATOM     29  O   UNL A   1      31.809  30.599  25.442  1.00  0.00    -0.454 OA
ATOM     30  C   UNL A   1      31.419  30.408  26.817  1.00  0.00     0.468 C 
BRANCH  24  31
ATOM     31  C   UNL A   1      32.828  27.030  22.253  1.00  0.00     0.251 C 
ATOM     32  N   UNL A   1      31.618  26.818  21.647  1.00  0.00    -0.366 N 
ATOM     33  O   UNL A   1      33.832  26.697  21.636  1.00  0.00    -0.269 OA
ATOM     34  H   UNL A   1      30.786  27.071  22.108  1.00  0.00     0.159 HD
ATOM     35  H   UNL A   1      31.580  26.413  20.750  1.00  0.00     0.159 HD
ENDBRANCH  24  31
ENDBRANCH  12  22
ENDBRANCH   6   9
ENDBRANCH   4   5
ENDBRANCH   3   4
ENDBRANCH   2   3
ENDBRANCH   1   2
BRANCH   1  36
ATOM     36  C   UNL A   1      41.216  19.828  26.179  1.00  0.00     0.021 C 
BRANCH  36  37
ATOM     37  C   UNL A   1      42.592  19.481  26.727  1.00  0.00     0.116 C 
BRANCH  37  38
ATOM     38  N   UNL A   1      43.568  19.333  25.653  1.00  0.00    -0.352 N 
ATOM     39  C   UNL A   1      44.162  20.311  24.886  1.00  0.00     0.251 C 
ATOM     40  H   UNL A   1      43.838  18.409  25.447  1.00  0.00     0.163 HD
ATOM     41  O   UNL A   1      44.644  20.032  23.799  1.00  0.00    -0.269 OA
BRANCH  39  42
ATOM     42  C   UNL A   1      44.208  21.695  25.393  1.00  0.00     0.039 A 
ATOM     43  C   UNL A   1      43.267  22.632  24.957  1.00  0.00     0.014 A 
ATOM     44  C   UNL A   1      45.203  22.054  26.301  1.00  0.00     0.014 A 
ATOM     45  C   UNL A   1      43.290  23.914  25.499  1.00  0.00     0.010 A 
ATOM     46  C   UNL A   1      45.160  23.284  26.915  1.00  0.00     0.010 A 
ATOM     47  C   UNL A   1      44.225  24.229  26.497  1.00  0.00    -0.014 A 
BRANCH  47  48
ATOM     48  C   UNL A   1      44.088  25.473  27.257  1.00  0.00     0.031 A 
ATOM     49  C   UNL A   1      45.175  26.450  26.955  1.00  0.00     0.074 A 
ATOM     50  C   UNL A   1      42.967  25.807  27.936  1.00  0.00     0.049 A 
ATOM     51  N   UNL A   1      46.109  26.880  27.739  1.00  0.00    -0.248 NA
ATOM     52  C   UNL A   1      45.367  26.851  25.546  1.00  0.00     0.031 C 
ATOM     53  C   UNL A   1      41.712  25.043  27.972  1.00  0.00     0.029 A 
ATOM     54  N   UNL A   1      42.639  26.944  28.620  1.00  0.00    -0.354 N 
ATOM     55  C   UNL A   1      46.803  27.837  26.994  1.00  0.00     0.074 A 
ATOM     56  C   UNL A   1      46.489  27.569  25.622  1.00  0.00     0.031 C 
ATOM     57  C   UNL A   1      40.709  25.835  28.406  1.00  0.00     0.029 A 
ATOM     58  C   UNL A   1      41.270  27.101  28.842  1.00  0.00     0.049 A 
ATOM     59  H   UNL A   1      43.310  27.594  28.931  1.00  0.00     0.167 HD
ATOM     60  C   UNL A   1      47.253  28.975  27.597  1.00  0.00     0.037 A 
ATOM     61  C   UNL A   1      40.629  28.196  29.327  1.00  0.00     0.037 A 
ATOM     62  C   UNL A   1      47.250  28.802  29.028  1.00  0.00     0.049 A 
ATOM     63  C   UNL A   1      41.636  29.014  30.043  1.00  0.00     0.074 A 
ATOM     64  C   UNL A   1      47.987  28.109  29.963  1.00  0.00     0.029 A 
ATOM     65  N   UNL A   1      46.056  29.136  29.612  1.00  0.00    -0.354 N 
ATOM     66  N   UNL A   1      42.252  28.615  31.123  1.00  0.00    -0.248 NA
ATOM     67  C   UNL A   1      42.241  30.156  29.364  1.00  0.00     0.031 C 
ATOM     68  C   UNL A   1      47.128  27.919  31.086  1.00  0.00     0.029 A 
ATOM     69  C   UNL A   1      45.910  28.546  30.834  1.00  0.00     0.049 A 
ATOM     70  H   UNL A   1      45.388  29.730  29.199  1.00  0.00     0.167 HD
ATOM     71  C   UNL A   1      43.517  29.155  31.014  1.00  0.00     0.074 A 
ATOM     72  C   UNL A   1      43.400  30.219  30.024  1.00  0.00     0.031 C 
ATOM     73  C   UNL A   1      44.608  28.472  31.464  1.00  0.00     0.037 A 
BRANCH  60  74
ATOM     74  C   UNL A   1      47.160  30.382  26.998  1.00  0.00     0.058 A 
ATOM     75  C   UNL A   1      48.309  31.208  27.042  1.00  0.00     0.135 A 
ATOM     76  C   UNL A   1      45.961  31.058  26.678  1.00  0.00     0.135 A 
ATOM     77  F   UNL A   1      49.519  30.689  27.304  1.00  0.00    -0.206 F 
ATOM     78  C   UNL A   1      48.251  32.598  26.892  1.00  0.00     0.059 A 
ATOM     79  C   UNL A   1      45.888  32.435  26.490  1.00  0.00     0.059 A 
ATOM     80  F   UNL A   1      44.777  30.447  26.598  1.00  0.00    -0.206 F 
ATOM     81  C   UNL A   1      47.027  33.204  26.637  1.00  0.00     0.060 A 
BRANCH  81  82
ATOM     82  S   UNL A   1      46.922  34.998  26.521  1.00  0.00     0.124 S 
ATOM     83  O   UNL A   1      45.537  35.183  26.108  1.00  0.00    -0.237 OA
ATOM     84  O   UNL A   1      47.247  35.405  27.884  1.00  0.00    -0.237 OA
ATOM     85  O   UNL A   1      47.933  35.326  25.519  1.00  0.00    -0.744 OA
ENDBRANCH  81  82
ENDBRANCH  60  74
BRANCH  61  86
ATOM     86  C   UNL A   1      39.263  28.706  29.019  1.00  0.00     0.058 A 
ATOM     87  C   UNL A   1      38.301  28.881  30.030  1.00  0.00     0.135 A 
ATOM     88  C   UNL A   1      38.968  29.303  27.777  1.00  0.00     0.135 A 
ATOM     89  F   UNL A   1      38.500  28.357  31.249  1.00  0.00    -0.206 F 
ATOM     90  C   UNL A   1      37.146  29.652  29.842  1.00  0.00     0.059 A 
ATOM     91  C   UNL A   1      37.820  30.067  27.562  1.00  0.00     0.059 A 
ATOM     92  F   UNL A   1      39.837  29.237  26.755  1.00  0.00    -0.206 F 
ATOM     93  C   UNL A   1      36.927  30.263  28.609  1.00  0.00     0.060 A 
BRANCH  93  94
ATOM     94  S   UNL A   1      35.539  31.409  28.416  1.00  0.00     0.124 S 
ATOM     95  O   UNL A   1      35.051  31.527  29.785  1.00  0.00    -0.237 OA
ATOM     96  O   UNL A   1      36.190  32.593  27.867  1.00  0.00    -0.237 OA
ATOM     97  O   UNL A   1      34.648  30.708  27.494  1.00  0.00    -0.744 OA
ENDBRANCH  93  94
ENDBRANCH  61  86
BRANCH  73  98
ATOM     98  C   UNL A   1      44.422  27.504  32.591  1.00  0.00     0.058 A 
ATOM     99  C   UNL A   1      44.271  27.843  33.944  1.00  0.00     0.135 A 
ATOM    100  C   UNL A   1      44.301  26.148  32.246  1.00  0.00     0.135 A 
ATOM    101  F   UNL A   1      44.298  29.124  34.343  1.00  0.00    -0.206 F 
ATOM    102  C   UNL A   1      44.037  26.867  34.917  1.00  0.00     0.059 A 
ATOM    103  C   UNL A   1      44.034  25.167  33.189  1.00  0.00     0.059 A 
ATOM    104  F   UNL A   1      44.396  25.770  30.960  1.00  0.00    -0.206 F 
ATOM    105  C   UNL A   1      43.916  25.531  34.527  1.00  0.00     0.060 A 
BRANCH 105 106
ATOM    106  S   UNL A   1      43.545  24.274  35.768  1.00  0.00     0.124 S 
ATOM    107  O   UNL A   1      43.736  25.008  37.014  1.00  0.00    -0.237 OA
ATOM    108  O   UNL A   1      42.168  23.912  35.448  1.00  0.00    -0.237 OA
ATOM    109  O   UNL A   1      44.533  23.230  35.501  1.00  0.00    -0.744 OA
ENDBRANCH 105 106
ENDBRANCH  73  98
ENDBRANCH  47  48
ENDBRANCH  39  42
ENDBRANCH  37  38
ENDBRANCH  36  37
ENDBRANCH   1  36
TORSDOF 20
ENDMDL
MODEL 2
REMARK VINA RESULT:     -12.7      1.553      2.299
REMARK SMILES COc1cccc(-c2nn(-c3cc4c(cc3C(N)=O)OCO4)cc2C(=O)NCCCCCCNC(=O)c2ccc(-c3c4nc(c(-c5c(F)cc(S(=O)(=O)[O-])cc5F)c5ccc([nH]5)c(-c5c(F)cc(S(=O)(=O)[O-])cc5F)c5nc(c(-c6c(F)cc(S(=O)(=O)[O-])cc6F)c6ccc3[nH]6)C=C5)C=C4)cc2)c1
REMARK SMILES IDX 31 1 30 2 29 3 28 4 27 5 25 6 26 7 24 9 8 10 9 11 10 12
REMARK SMILES IDX 23 13 7 14 3 15 4 16 103 17 5 18 6 19 2 20 1 21 11 22 12 23
REMARK SMILES IDX 16 24 13 25 15 26 14 27 22 28 20 29 21 30 17 31 18 32 19 33
REMARK SMILES IDX 32 36 33 37 34 38 35 39 36 41 37 42 38 43 102 44 39 45
REMARK SMILES IDX 101 46 40 47 41 48 42 49 95 50 43 51 100 52 94 53 96 54
REMARK SMILES IDX 44 55 99 56 93 57 92 58 45 60 79 61 58 62 78 63 59 64 62 65
REMARK SMILES IDX 77 66 97 67 60 68 61 69 76 71 98 72 63 73 46 74 47 75 56 76
REMARK SMILES IDX 48 77 49 78 55 79 57 80 50 81 51 82 52 83 53 84 54 85 80 86
REMARK SMILES IDX 81 87 90 88 82 89 83 90 89 91 91 92 84 93 85 94 86 95 87 96
REMARK SMILES IDX 88 97 64 98 65 99 74 100 66 101 67 102 73 103 75 104 68 105
REMARK SMILES IDX 69 106 70 107 71 108 72 109
REMARK H PARENT 27 8 18 34 18 35 34 40 96 59 62 70
REMARK Flexibility Score: inf
ROOT
ATOM      1  C   UNL A   1      40.457  20.872  26.705  1.00  0.00     0.002 C 
ENDROOT
BRANCH   1   2
ATOM      2  C   UNL A   1      39.380  21.696  25.981  1.00  0.00     0.002 C 
BRANCH   2   3
ATOM      3  C   UNL A   1      39.019  23.030  26.650  1.00  0.00     0.021 C 
BRANCH   3   4
ATOM      4  C   UNL A   1      37.776  23.681  26.047  1.00  0.00     0.116 C 
BRANCH   4   5
ATOM      5  N   UNL A   1      37.655  23.339  24.647  1.00  0.00    -0.352 N 
ATOM      6  C   UNL A   1      36.585  23.144  23.814  1.00  0.00     0.255 C 
ATOM      7  O   UNL A   1      36.875  22.882  22.647  1.00  0.00    -0.269 OA
ATOM      8  H   UNL A   1      38.524  23.221  24.198  1.00  0.00     0.163 HD
BRANCH   6   9
ATOM      9  C   UNL A   1      35.207  23.308  24.259  1.00  0.00     0.086 A 
ATOM     10  C   UNL A   1      34.239  22.277  24.526  1.00  0.00     0.106 A 
ATOM     11  N   UNL A   1      33.007  22.790  24.737  1.00  0.00    -0.167 NA
ATOM     12  N   UNL A   1      33.175  24.111  24.503  1.00  0.00    -0.239 N 
ATOM     13  C   UNL A   1      34.502  24.455  24.552  1.00  0.00     0.129 A 
BRANCH  10  14
ATOM     14  C   UNL A   1      34.483  20.835  24.582  1.00  0.00     0.007 A 
ATOM     15  C   UNL A   1      33.732  18.548  24.292  1.00  0.00     0.119 A 
ATOM     16  C   UNL A   1      35.027  18.094  24.565  1.00  0.00     0.046 A 
ATOM     17  C   UNL A   1      33.458  19.919  24.312  1.00  0.00     0.056 A 
ATOM     18  C   UNL A   1      36.049  18.997  24.846  1.00  0.00     0.005 A 
ATOM     19  C   UNL A   1      35.774  20.364  24.864  1.00  0.00     0.011 A 
BRANCH  15  20
ATOM     20  O   UNL A   1      32.816  17.557  24.065  1.00  0.00    -0.497 OA
ATOM     21  C   UNL A   1      33.179  16.262  24.528  1.00  0.00     0.278 C 
ENDBRANCH  15  20
ENDBRANCH  10  14
BRANCH  12  22
ATOM     22  C   UNL A   1      32.104  25.027  24.372  1.00  0.00     0.081 A 
ATOM     23  C   UNL A   1      32.257  26.095  23.468  1.00  0.00     0.079 A 
ATOM     24  C   UNL A   1      30.869  24.821  25.060  1.00  0.00     0.069 A 
ATOM     25  C   UNL A   1      31.147  26.875  23.216  1.00  0.00     0.167 A 
ATOM     26  C   UNL A   1      29.750  25.587  24.695  1.00  0.00     0.066 A 
ATOM     27  C   UNL A   1      29.927  26.608  23.792  1.00  0.00     0.166 A 
ATOM     28  O   UNL A   1      31.091  27.959  22.396  1.00  0.00    -0.454 OA
ATOM     29  O   UNL A   1      28.960  27.485  23.412  1.00  0.00    -0.454 OA
ATOM     30  C   UNL A   1      29.741  28.415  22.634  1.00  0.00     0.468 C 
BRANCH  24  31
ATOM     31  C   UNL A   1      30.768  23.968  26.297  1.00  0.00     0.251 C 
ATOM     32  N   UNL A   1      30.028  22.819  26.229  1.00  0.00    -0.366 N 
ATOM     33  O   UNL A   1      31.237  24.272  27.386  1.00  0.00    -0.269 OA
ATOM     34  H   UNL A   1      29.632  22.537  25.372  1.00  0.00     0.159 HD
ATOM     35  H   UNL A   1      29.891  22.272  27.037  1.00  0.00     0.159 HD
ENDBRANCH  24  31
ENDBRANCH  12  22
ENDBRANCH   6   9
ENDBRANCH   4   5
ENDBRANCH   3   4
ENDBRANCH   2   3
ENDBRANCH   1   2
BRANCH   1  36
ATOM     36  C   UNL A   1      41.123  19.767  25.872  1.00  0.00     0.021 C 
BRANCH  36  37
ATOM     37  C   UNL A   1      42.507  19.381  26.375  1.00  0.00     0.116 C 
BRANCH  37  38
ATOM     38  N   UNL A   1      43.542  19.753  25.417  1.00  0.00    -0.352 N 
ATOM     39  C   UNL A   1      43.898  21.008  24.975  1.00  0.00     0.251 C 
ATOM     40  H   UNL A   1      44.055  19.006  25.033  1.00  0.00     0.163 HD
ATOM     41  O   UNL A   1      44.492  21.142  23.917  1.00  0.00    -0.269 OA
BRANCH  39  42
ATOM     42  C   UNL A   1      43.554  22.185  25.795  1.00  0.00     0.039 A 
ATOM     43  C   UNL A   1      44.033  22.292  27.103  1.00  0.00     0.014 A 
ATOM     44  C   UNL A   1      42.740  23.177  25.250  1.00  0.00     0.014 A 
ATOM     45  C   UNL A   1      43.749  23.442  27.834  1.00  0.00     0.010 A 
ATOM     46  C   UNL A   1      42.550  24.358  25.930  1.00  0.00     0.010 A 
ATOM     47  C   UNL A   1      43.025  24.485  27.233  1.00  0.00    -0.014 A 
BRANCH  47  48
ATOM     48  C   UNL A   1      42.952  25.793  27.889  1.00  0.00     0.031 A 
ATOM     49  C   UNL A   1      44.087  26.685  27.512  1.00  0.00     0.074 A 
ATOM     50  C   UNL A   1      41.850  26.237  28.536  1.00  0.00     0.049 A 
ATOM     51  N   UNL A   1      45.042  27.130  28.260  1.00  0.00    -0.248 NA
ATOM     52  C   UNL A   1      44.297  26.960  26.075  1.00  0.00     0.031 C 
ATOM     53  C   UNL A   1      40.558  25.542  28.631  1.00  0.00     0.029 A 
ATOM     54  N   UNL A   1      41.581  27.441  29.124  1.00  0.00    -0.354 N 
ATOM     55  C   UNL A   1      45.783  27.987  27.442  1.00  0.00     0.074 A 
ATOM     56  C   UNL A   1      45.454  27.624  26.095  1.00  0.00     0.031 C 
ATOM     57  C   UNL A   1      39.598  26.418  28.995  1.00  0.00     0.029 A 
ATOM     58  C   UNL A   1      40.222  27.685  29.328  1.00  0.00     0.049 A 
ATOM     59  H   UNL A   1      42.285  28.079  29.382  1.00  0.00     0.167 HD
ATOM     60  C   UNL A   1      46.291  29.146  27.951  1.00  0.00     0.037 A 
ATOM     61  C   UNL A   1      39.638  28.847  29.721  1.00  0.00     0.037 A 
ATOM     62  C   UNL A   1      46.281  29.090  29.392  1.00  0.00     0.049 A 
ATOM     63  C   UNL A   1      40.686  29.669  30.370  1.00  0.00     0.074 A 
ATOM     64  C   UNL A   1      46.983  28.439  30.383  1.00  0.00     0.029 A 
ATOM     65  N   UNL A   1      45.107  29.531  29.943  1.00  0.00    -0.354 N 
ATOM     66  N   UNL A   1      41.283  29.328  31.481  1.00  0.00    -0.248 NA
ATOM     67  C   UNL A   1      41.348  30.719  29.603  1.00  0.00     0.031 C 
ATOM     68  C   UNL A   1      46.118  28.386  31.515  1.00  0.00     0.029 A 
ATOM     69  C   UNL A   1      44.932  29.051  31.209  1.00  0.00     0.049 A 
ATOM     70  H   UNL A   1      44.468  30.122  29.482  1.00  0.00     0.167 HD
ATOM     71  C   UNL A   1      42.573  29.793  31.332  1.00  0.00     0.074 A 
ATOM     72  C   UNL A   1      42.509  30.777  30.259  1.00  0.00     0.031 C 
ATOM     73  C   UNL A   1      43.629  29.094  31.839  1.00  0.00     0.037 A 
BRANCH  60  74
ATOM     74  C   UNL A   1      46.269  30.502  27.240  1.00  0.00     0.058 A 
ATOM     75  C   UNL A   1      47.467  31.255  27.191  1.00  0.00     0.135 A 
ATOM     76  C   UNL A   1      45.105  31.223  26.889  1.00  0.00     0.135 A 
ATOM     77  F   UNL A   1      48.649  30.684  27.470  1.00  0.00    -0.206 F 
ATOM     78  C   UNL A   1      47.490  32.629  26.927  1.00  0.00     0.059 A 
ATOM     79  C   UNL A   1      45.111  32.582  26.589  1.00  0.00     0.059 A 
ATOM     80  F   UNL A   1      43.884  30.684  26.885  1.00  0.00    -0.206 F 
ATOM     81  C   UNL A   1      46.299  33.288  26.648  1.00  0.00     0.060 A 
BRANCH  81  82
ATOM     82  S   UNL A   1      46.301  35.069  26.386  1.00  0.00     0.124 S 
ATOM     83  O   UNL A   1      46.775  35.554  27.677  1.00  0.00    -0.237 OA
ATOM     84  O   UNL A   1      47.228  35.206  25.267  1.00  0.00    -0.237 OA
ATOM     85  O   UNL A   1      44.905  35.361  26.072  1.00  0.00    -0.744 OA
ENDBRANCH  81  82
ENDBRANCH  60  74
BRANCH  61  86
ATOM     86  C   UNL A   1      38.300  29.398  29.368  1.00  0.00     0.058 A 
ATOM     87  C   UNL A   1      37.402  29.835  30.361  1.00  0.00     0.135 A 
ATOM     88  C   UNL A   1      37.989  29.776  28.046  1.00  0.00     0.135 A 
ATOM     89  F   UNL A   1      37.622  29.532  31.649  1.00  0.00    -0.206 F 
ATOM     90  C   UNL A   1      36.299  30.648  30.069  1.00  0.00     0.059 A 
ATOM     91  C   UNL A   1      36.890  30.576  27.730  1.00  0.00     0.059 A 
ATOM     92  F   UNL A   1      38.800  29.452  27.027  1.00  0.00    -0.206 F 
ATOM     93  C   UNL A   1      36.066  31.034  28.751  1.00  0.00     0.060 A 
BRANCH  93  94
ATOM     94  S   UNL A   1      34.756  32.232  28.392  1.00  0.00     0.124 S 
ATOM     95  O   UNL A   1      34.321  32.615  29.730  1.00  0.00    -0.237 OA
ATOM     96  O   UNL A   1      35.471  33.254  27.637  1.00  0.00    -0.237 OA
ATOM     97  O   UNL A   1      33.789  31.454  27.621  1.00  0.00    -0.744 OA
ENDBRANCH  93  94
ENDBRANCH  61  86
BRANCH  73  98
ATOM     98  C   UNL A   1      43.396  28.232  33.041  1.00  0.00     0.058 A 
ATOM     99  C   UNL A   1      43.386  26.829  33.052  1.00  0.00     0.135 A 
ATOM    100  C   UNL A   1      43.266  28.890  34.275  1.00  0.00     0.135 A 
ATOM    101  F   UNL A   1      43.582  26.127  31.924  1.00  0.00    -0.206 F 
ATOM    102  C   UNL A   1      43.225  26.112  34.241  1.00  0.00     0.059 A 
ATOM    103  C   UNL A   1      43.140  28.199  35.471  1.00  0.00     0.059 A 
ATOM    104  F   UNL A   1      43.309  30.232  34.329  1.00  0.00    -0.206 F 
ATOM    105  C   UNL A   1      43.107  26.808  35.446  1.00  0.00     0.060 A 
BRANCH 105 106
ATOM    106  S   UNL A   1      42.968  25.888  36.993  1.00  0.00     0.124 S 
ATOM    107  O   UNL A   1      43.403  26.874  37.976  1.00  0.00    -0.237 OA
ATOM    108  O   UNL A   1      41.551  25.540  37.027  1.00  0.00    -0.237 OA
ATOM    109  O   UNL A   1      43.874  24.757  36.800  1.00  0.00    -0.744 OA
ENDBRANCH 105 106
ENDBRANCH  73  98
ENDBRANCH  47  48
ENDBRANCH  39  42
ENDBRANCH  37  38
ENDBRANCH  36  37
ENDBRANCH   1  36
TORSDOF 20
ENDMDL
MODEL 3
REMARK VINA RESULT:     -12.7      3.157      9.708
REMARK SMILES COc1cccc(-c2nn(-c3cc4c(cc3C(N)=O)OCO4)cc2C(=O)NCCCCCCNC(=O)c2ccc(-c3c4nc(c(-c5c(F)cc(S(=O)(=O)[O-])cc5F)c5ccc([nH]5)c(-c5c(F)cc(S(=O)(=O)[O-])cc5F)c5nc(c(-c6c(F)cc(S(=O)(=O)[O-])cc6F)c6ccc3[nH]6)C=C5)C=C4)cc2)c1
REMARK SMILES IDX 31 1 30 2 29 3 28 4 27 5 25 6 26 7 24 9 8 10 9 11 10 12
REMARK SMILES IDX 23 13 7 14 3 15 4 16 103 17 5 18 6 19 2 20 1 21 11 22 12 23
REMARK SMILES IDX 16 24 13 25 15 26 14 27 22 28 20 29 21 30 17 31 18 32 19 33
REMARK SMILES IDX 32 36 33 37 34 38 35 39 36 41 37 42 38 43 102 44 39 45
REMARK SMILES IDX 101 46 40 47 41 48 42 49 95 50 43 51 100 52 94 53 96 54
REMARK SMILES IDX 44 55 99 56 93 57 92 58 45 60 79 61 58 62 78 63 59 64 62 65
REMARK SMILES IDX 77 66 97 67 60 68 61 69 76 71 98 72 63 73 46 74 47 75 56 76
REMARK SMILES IDX 48 77 49 78 55 79 57 80 50 81 51 82 52 83 53 84 54 85 80 86
REMARK SMILES IDX 81 87 90 88 82 89 83 90 89 91 91 92 84 93 85 94 86 95 87 96
REMARK SMILES IDX 88 97 64 98 65 99 74 100 66 101 67 102 73 103 75 104 68 105
REMARK SMILES IDX 69 106 70 107 71 108 72 109
REMARK H PARENT 27 8 18 34 18 35 34 40 96 59 62 70
REMARK Flexibility Score: inf
ROOT
ATOM      1  C   UNL A   1      34.610  31.209  27.772  1.00  0.00     0.002 C 
ENDROOT
BRANCH   1   2
ATOM      2  C   UNL A   1      34.000  30.080  26.925  1.00  0.00     0.002 C 
BRANCH   2   3
ATOM      3  C   UNL A   1      32.534  29.749  27.238  1.00  0.00     0.021 C 
BRANCH   3   4
ATOM      4  C   UNL A   1      31.796  29.136  26.050  1.00  0.00     0.116 C 
BRANCH   4   5
ATOM      5  N   UNL A   1      32.566  29.299  24.837  1.00  0.00    -0.352 N 
ATOM      6  C   UNL A   1      32.726  28.533  23.713  1.00  0.00     0.255 C 
ATOM      7  O   UNL A   1      33.462  29.018  22.853  1.00  0.00    -0.269 OA
ATOM      8  H   UNL A   1      33.084  30.136  24.814  1.00  0.00     0.163 HD
BRANCH   6   9
ATOM      9  C   UNL A   1      32.021  27.273  23.517  1.00  0.00     0.086 A 
ATOM     10  C   UNL A   1      30.614  27.078  23.282  1.00  0.00     0.106 A 
ATOM     11  N   UNL A   1      30.275  25.771  23.335  1.00  0.00    -0.167 NA
ATOM     12  N   UNL A   1      31.426  25.164  23.701  1.00  0.00    -0.239 N 
ATOM     13  C   UNL A   1      32.505  25.983  23.483  1.00  0.00     0.129 A 
BRANCH  10  14
ATOM     14  C   UNL A   1      29.617  28.113  23.011  1.00  0.00     0.007 A 
ATOM     15  C   UNL A   1      28.981  30.232  22.017  1.00  0.00     0.119 A 
ATOM     16  C   UNL A   1      27.652  30.002  22.391  1.00  0.00     0.046 A 
ATOM     17  C   UNL A   1      29.966  29.292  22.337  1.00  0.00     0.056 A 
ATOM     18  C   UNL A   1      27.300  28.839  23.071  1.00  0.00     0.005 A 
ATOM     19  C   UNL A   1      28.282  27.903  23.388  1.00  0.00     0.011 A 
BRANCH  15  20
ATOM     20  O   UNL A   1      29.198  31.426  21.384  1.00  0.00    -0.497 OA
ATOM     21  C   UNL A   1      28.042  32.060  20.850  1.00  0.00     0.278 C 
ENDBRANCH  15  20
ENDBRANCH  10  14
BRANCH  12  22
ATOM     22  C   UNL A   1      31.504  23.812  24.113  1.00  0.00     0.081 A 
ATOM     23  C   UNL A   1      31.810  22.843  23.139  1.00  0.00     0.079 A 
ATOM     24  C   UNL A   1      31.377  23.453  25.489  1.00  0.00     0.069 A 
ATOM     25  C   UNL A   1      32.059  21.559  23.579  1.00  0.00     0.167 A 
ATOM     26  C   UNL A   1      31.732  22.154  25.890  1.00  0.00     0.066 A 
ATOM     27  C   UNL A   1      32.048  21.237  24.915  1.00  0.00     0.166 A 
ATOM     28  O   UNL A   1      32.350  20.481  22.802  1.00  0.00    -0.454 OA
ATOM     29  O   UNL A   1      32.325  19.926  25.145  1.00  0.00    -0.454 OA
ATOM     30  C   UNL A   1      32.381  19.430  23.792  1.00  0.00     0.468 C 
BRANCH  24  31
ATOM     31  C   UNL A   1      30.683  24.336  26.492  1.00  0.00     0.251 C 
ATOM     32  N   UNL A   1      29.435  23.971  26.918  1.00  0.00    -0.366 N 
ATOM     33  O   UNL A   1      31.126  25.404  26.895  1.00  0.00    -0.269 OA
ATOM     34  H   UNL A   1      29.041  23.120  26.618  1.00  0.00     0.159 HD
ATOM     35  H   UNL A   1      28.930  24.560  27.526  1.00  0.00     0.159 HD
ENDBRANCH  24  31
ENDBRANCH  12  22
ENDBRANCH   6   9
ENDBRANCH   4   5
ENDBRANCH   3   4
ENDBRANCH   2   3
ENDBRANCH   1   2
BRANCH   1  36
ATOM     36  C   UNL A   1      33.813  32.521  27.807  1.00  0.00     0.021 C 
BRANCH  36  37
ATOM     37  C   UNL A   1      34.655  33.730  28.192  1.00  0.00     0.116 C 
BRANCH  37  38
ATOM     38  N   UNL A   1      34.210  34.303  29.457  1.00  0.00    -0.352 N 
ATOM     39  C   UNL A   1      34.540  33.923  30.739  1.00  0.00     0.251 C 
ATOM     40  H   UNL A   1      33.590  35.064  29.385  1.00  0.00     0.163 HD
ATOM     41  O   UNL A   1      33.815  34.224  31.675  1.00  0.00    -0.269 OA
BRANCH  39  42
ATOM     42  C   UNL A   1      35.774  33.149  30.967  1.00  0.00     0.039 A 
ATOM     43  C   UNL A   1      35.704  31.777  31.222  1.00  0.00     0.014 A 
ATOM     44  C   UNL A   1      37.004  33.805  30.932  1.00  0.00     0.014 A 
ATOM     45  C   UNL A   1      36.885  31.056  31.368  1.00  0.00     0.010 A 
ATOM     46  C   UNL A   1      38.171  33.078  30.968  1.00  0.00     0.010 A 
ATOM     47  C   UNL A   1      38.119  31.708  31.217  1.00  0.00    -0.014 A 
BRANCH  47  48
ATOM     48  C   UNL A   1      39.350  30.921  31.102  1.00  0.00     0.031 A 
ATOM     49  C   UNL A   1      40.036  30.739  32.415  1.00  0.00     0.074 A 
ATOM     50  C   UNL A   1      39.676  30.213  29.997  1.00  0.00     0.049 A 
ATOM     51  N   UNL A   1      41.182  31.202  32.793  1.00  0.00    -0.248 NA
ATOM     52  C   UNL A   1      39.262  30.129  33.516  1.00  0.00     0.031 C 
ATOM     53  C   UNL A   1      38.853  30.057  28.789  1.00  0.00     0.029 A 
ATOM     54  N   UNL A   1      40.724  29.372  29.749  1.00  0.00    -0.354 N 
ATOM     55  C   UNL A   1      41.392  30.670  34.067  1.00  0.00     0.074 A 
ATOM     56  C   UNL A   1      40.099  30.275  34.545  1.00  0.00     0.031 C 
ATOM     57  C   UNL A   1      39.292  29.001  28.073  1.00  0.00     0.029 A 
ATOM     58  C   UNL A   1      40.523  28.513  28.668  1.00  0.00     0.049 A 
ATOM     59  H   UNL A   1      41.549  29.373  30.286  1.00  0.00     0.167 HD
ATOM     60  C   UNL A   1      42.639  30.262  34.440  1.00  0.00     0.037 A 
ATOM     61  C   UNL A   1      41.292  27.458  28.291  1.00  0.00     0.037 A 
ATOM     62  C   UNL A   1      43.621  30.819  33.543  1.00  0.00     0.049 A 
ATOM     63  C   UNL A   1      42.630  27.652  28.897  1.00  0.00     0.074 A 
ATOM     64  C   UNL A   1      44.182  32.053  33.300  1.00  0.00     0.029 A 
ATOM     65  N   UNL A   1      43.851  30.039  32.441  1.00  0.00    -0.354 N 
ATOM     66  N   UNL A   1      43.427  28.639  28.582  1.00  0.00    -0.248 NA
ATOM     67  C   UNL A   1      42.964  26.950  30.131  1.00  0.00     0.031 C 
ATOM     68  C   UNL A   1      44.636  32.025  31.949  1.00  0.00     0.029 A 
ATOM     69  C   UNL A   1      44.392  30.761  31.416  1.00  0.00     0.049 A 
ATOM     70  H   UNL A   1      43.651  29.076  32.394  1.00  0.00     0.167 HD
ATOM     71  C   UNL A   1      44.072  28.947  29.762  1.00  0.00     0.074 A 
ATOM     72  C   UNL A   1      43.886  27.783  30.620  1.00  0.00     0.031 C 
ATOM     73  C   UNL A   1      44.391  30.237  30.066  1.00  0.00     0.037 A 
BRANCH  60  74
ATOM     74  C   UNL A   1      42.949  28.972  35.207  1.00  0.00     0.058 A 
ATOM     75  C   UNL A   1      43.875  29.033  36.276  1.00  0.00     0.135 A 
ATOM     76  C   UNL A   1      42.641  27.665  34.768  1.00  0.00     0.135 A 
ATOM     77  F   UNL A   1      44.231  30.212  36.811  1.00  0.00    -0.206 F 
ATOM     78  C   UNL A   1      44.520  27.901  36.787  1.00  0.00     0.059 A 
ATOM     79  C   UNL A   1      43.245  26.524  35.286  1.00  0.00     0.059 A 
ATOM     80  F   UNL A   1      41.796  27.411  33.766  1.00  0.00    -0.206 F 
ATOM     81  C   UNL A   1      44.212  26.651  36.267  1.00  0.00     0.060 A 
BRANCH  81  82
ATOM     82  S   UNL A   1      45.091  25.194  36.856  1.00  0.00     0.124 S 
ATOM     83  O   UNL A   1      44.283  24.811  38.008  1.00  0.00    -0.237 OA
ATOM     84  O   UNL A   1      45.019  24.311  35.697  1.00  0.00    -0.237 OA
ATOM     85  O   UNL A   1      46.423  25.710  37.160  1.00  0.00    -0.744 OA
ENDBRANCH  81  82
ENDBRANCH  60  74
BRANCH  61  86
ATOM     86  C   UNL A   1      40.891  26.178  27.643  1.00  0.00     0.058 A 
ATOM     87  C   UNL A   1      41.656  25.609  26.608  1.00  0.00     0.135 A 
ATOM     88  C   UNL A   1      39.912  25.343  28.217  1.00  0.00     0.135 A 
ATOM     89  F   UNL A   1      42.619  26.326  26.008  1.00  0.00    -0.206 F 
ATOM     90  C   UNL A   1      41.504  24.275  26.209  1.00  0.00     0.059 A 
ATOM     91  C   UNL A   1      39.735  24.013  27.830  1.00  0.00     0.059 A 
ATOM     92  F   UNL A   1      39.155  25.768  29.241  1.00  0.00    -0.206 F 
ATOM     93  C   UNL A   1      40.556  23.477  26.845  1.00  0.00     0.060 A 
BRANCH  93  94
ATOM     94  S   UNL A   1      40.481  21.708  26.466  1.00  0.00     0.124 S 
ATOM     95  O   UNL A   1      39.184  21.594  25.808  1.00  0.00    -0.237 OA
ATOM     96  O   UNL A   1      41.648  21.525  25.610  1.00  0.00    -0.237 OA
ATOM     97  O   UNL A   1      40.571  21.077  27.781  1.00  0.00    -0.744 OA
ENDBRANCH  93  94
ENDBRANCH  61  86
BRANCH  73  98
ATOM     98  C   UNL A   1      44.634  31.192  28.938  1.00  0.00     0.058 A 
ATOM     99  C   UNL A   1      45.754  31.190  28.092  1.00  0.00     0.135 A 
ATOM    100  C   UNL A   1      43.608  32.107  28.652  1.00  0.00     0.135 A 
ATOM    101  F   UNL A   1      46.741  30.295  28.253  1.00  0.00    -0.206 F 
ATOM    102  C   UNL A   1      45.859  32.084  27.023  1.00  0.00     0.059 A 
ATOM    103  C   UNL A   1      43.675  32.979  27.576  1.00  0.00     0.059 A 
ATOM    104  F   UNL A   1      42.494  32.125  29.405  1.00  0.00    -0.206 F 
ATOM    105  C   UNL A   1      44.810  32.971  26.771  1.00  0.00     0.060 A 
BRANCH 105 106
ATOM    106  S   UNL A   1      44.907  34.081  25.350  1.00  0.00     0.124 S 
ATOM    107  O   UNL A   1      43.919  35.099  25.689  1.00  0.00    -0.237 OA
ATOM    108  O   UNL A   1      46.301  34.512  25.382  1.00  0.00    -0.237 OA
ATOM    109  O   UNL A   1      44.555  33.221  24.221  1.00  0.00    -0.744 OA
ENDBRANCH 105 106
ENDBRANCH  73  98
ENDBRANCH  47  48
ENDBRANCH  39  42
ENDBRANCH  37  38
ENDBRANCH  36  37
ENDBRANCH   1  36
TORSDOF 20
ENDMDL
