MODEL 1
REMARK VINA RESULT:     -12.3      0.000      0.000
REMARK SMILES O=C(NCCCCCCNC(=O)c1cc2nn[nH]n2n1)c1ccc(-c2c3nc(c(-c4c(F)cc(S(=O)(=O)[O-])cc4F)c4ccc([nH]4)c(-c4c(F)cc(S(=O)(=O)[O-])cc4F)c4nc(c(-c5c(F)cc(S(=O)(=O)[O-])cc5F)c5ccc2[nH]5)C=C4)C=C3)cc1
REMARK SMILES IDX 5 1 4 2 3 3 1 4 2 5 21 7 22 8 86 9 23 10 85 11 24 12 25 13
REMARK SMILES IDX 26 14 79 15 27 16 84 17 78 18 80 19 28 20 83 21 77 22 76 23
REMARK SMILES IDX 29 25 63 26 42 27 62 28 43 29 46 30 61 31 81 32 44 33 45 34
REMARK SMILES IDX 60 36 82 37 47 38 30 39 31 40 40 41 32 42 33 43 39 44 41 45
REMARK SMILES IDX 34 46 35 47 36 48 37 49 38 50 64 51 65 52 74 53 66 54 67 55
REMARK SMILES IDX 73 56 75 57 68 58 69 59 70 60 71 61 72 62 48 63 49 64 58 65
REMARK SMILES IDX 50 66 51 67 57 68 59 69 52 70 53 71 54 72 55 73 56 74 6 75
REMARK SMILES IDX 7 76 8 77 9 78 10 79 11 80 12 82 13 83 14 84 20 85 15 86
REMARK SMILES IDX 19 87 16 88 18 89 17 90
REMARK H PARENT 3 6 80 24 46 35 10 81 18 91
REMARK Flexibility Score: inf
ROOT
ATOM      1  C   UNL A   1      33.662  29.026  25.588  1.00  0.00     0.021 C 
ENDROOT
BRANCH   1   2
ATOM      2  C   UNL A   1      33.455  29.129  27.099  1.00  0.00     0.116 C 
BRANCH   2   3
ATOM      3  N   UNL A   1      33.470  30.480  27.618  1.00  0.00    -0.352 N 
ATOM      4  O   UNL A   1      34.094  32.464  28.365  1.00  0.00    -0.269 OA
ATOM      5  C   UNL A   1      34.445  31.313  28.093  1.00  0.00     0.251 C 
ATOM      6  H   UNL A   1      32.577  30.892  27.631  1.00  0.00     0.163 HD
BRANCH   5   7
ATOM      7  C   UNL A   1      35.852  30.909  28.355  1.00  0.00     0.039 A 
ATOM      8  C   UNL A   1      36.882  31.762  28.757  1.00  0.00     0.014 A 
ATOM      9  C   UNL A   1      36.138  29.542  28.188  1.00  0.00     0.014 A 
ATOM     10  C   UNL A   1      38.180  31.280  28.910  1.00  0.00     0.010 A 
ATOM     11  C   UNL A   1      37.427  29.050  28.361  1.00  0.00     0.010 A 
ATOM     12  C   UNL A   1      38.455  29.928  28.695  1.00  0.00    -0.014 A 
BRANCH  12  13
ATOM     13  C   UNL A   1      39.808  29.444  28.968  1.00  0.00     0.031 A 
ATOM     14  C   UNL A   1      40.174  29.340  30.413  1.00  0.00     0.074 A 
ATOM     15  C   UNL A   1      40.618  28.942  28.014  1.00  0.00     0.049 A 
ATOM     16  N   UNL A   1      41.150  29.909  31.046  1.00  0.00    -0.248 NA
ATOM     17  C   UNL A   1      39.281  28.557  31.283  1.00  0.00     0.031 C 
ATOM     18  C   UNL A   1      40.290  28.671  26.612  1.00  0.00     0.029 A 
ATOM     19  N   UNL A   1      41.884  28.450  28.135  1.00  0.00    -0.354 N 
ATOM     20  C   UNL A   1      41.109  29.414  32.351  1.00  0.00     0.074 A 
ATOM     21  C   UNL A   1      39.866  28.697  32.472  1.00  0.00     0.031 C 
ATOM     22  C   UNL A   1      41.236  27.863  26.085  1.00  0.00     0.029 A 
ATOM     23  C   UNL A   1      42.291  27.664  27.064  1.00  0.00     0.049 A 
ATOM     24  H   UNL A   1      42.458  28.633  28.914  1.00  0.00     0.167 HD
ATOM     25  C   UNL A   1      42.182  29.467  33.190  1.00  0.00     0.037 A 
ATOM     26  C   UNL A   1      43.372  26.844  27.022  1.00  0.00     0.037 A 
ATOM     27  C   UNL A   1      43.173  30.401  32.730  1.00  0.00     0.049 A 
ATOM     28  C   UNL A   1      44.307  27.276  28.093  1.00  0.00     0.074 A 
ATOM     29  C   UNL A   1      43.196  31.760  32.490  1.00  0.00     0.029 A 
ATOM     30  N   UNL A   1      44.302  29.898  32.131  1.00  0.00    -0.354 N 
ATOM     31  N   UNL A   1      44.954  28.409  28.094  1.00  0.00    -0.248 NA
ATOM     32  C   UNL A   1      44.211  26.616  29.387  1.00  0.00     0.031 C 
ATOM     33  C   UNL A   1      44.053  31.922  31.363  1.00  0.00     0.029 A 
ATOM     34  C   UNL A   1      44.529  30.657  31.012  1.00  0.00     0.049 A 
ATOM     35  H   UNL A   1      44.844  29.139  32.444  1.00  0.00     0.167 HD
ATOM     36  C   UNL A   1      44.975  28.806  29.421  1.00  0.00     0.074 A 
ATOM     37  C   UNL A   1      44.596  27.618  30.180  1.00  0.00     0.031 C 
ATOM     38  C   UNL A   1      45.033  30.127  29.765  1.00  0.00     0.037 A 
BRANCH  25  39
ATOM     39  C   UNL A   1      42.491  28.445  34.260  1.00  0.00     0.058 A 
ATOM     40  C   UNL A   1      42.471  28.829  35.619  1.00  0.00     0.135 A 
ATOM     41  C   UNL A   1      43.085  27.194  33.989  1.00  0.00     0.135 A 
ATOM     42  F   UNL A   1      41.934  30.002  35.991  1.00  0.00    -0.206 F 
ATOM     43  C   UNL A   1      43.071  28.063  36.620  1.00  0.00     0.059 A 
ATOM     44  C   UNL A   1      43.640  26.390  34.979  1.00  0.00     0.059 A 
ATOM     45  F   UNL A   1      43.248  26.741  32.740  1.00  0.00    -0.206 F 
ATOM     46  C   UNL A   1      43.673  26.854  36.285  1.00  0.00     0.060 A 
BRANCH  46  47
ATOM     47  S   UNL A   1      44.563  25.928  37.549  1.00  0.00     0.124 S 
ATOM     48  O   UNL A   1      44.208  24.556  37.207  1.00  0.00    -0.237 OA
ATOM     49  O   UNL A   1      45.946  26.315  37.292  1.00  0.00    -0.237 OA
ATOM     50  O   UNL A   1      43.998  26.436  38.796  1.00  0.00    -0.744 OA
ENDBRANCH  46  47
ENDBRANCH  25  39
BRANCH  26  51
ATOM     51  C   UNL A   1      43.491  25.524  26.346  1.00  0.00     0.058 A 
ATOM     52  C   UNL A   1      44.453  25.298  25.345  1.00  0.00     0.135 A 
ATOM     53  C   UNL A   1      42.854  24.376  26.861  1.00  0.00     0.135 A 
ATOM     54  F   UNL A   1      45.130  26.328  24.815  1.00  0.00    -0.206 F 
ATOM     55  C   UNL A   1      44.794  24.011  24.912  1.00  0.00     0.059 A 
ATOM     56  C   UNL A   1      43.165  23.086  26.436  1.00  0.00     0.059 A 
ATOM     57  F   UNL A   1      41.971  24.465  27.867  1.00  0.00    -0.206 F 
ATOM     58  C   UNL A   1      44.156  22.908  25.480  1.00  0.00     0.060 A 
BRANCH  58  59
ATOM     59  S   UNL A   1      44.713  21.240  25.058  1.00  0.00     0.124 S 
ATOM     60  O   UNL A   1      44.583  21.237  23.605  1.00  0.00    -0.237 OA
ATOM     61  O   UNL A   1      46.076  21.229  25.577  1.00  0.00    -0.237 OA
ATOM     62  O   UNL A   1      43.772  20.378  25.770  1.00  0.00    -0.744 OA
ENDBRANCH  58  59
ENDBRANCH  26  51
BRANCH  38  63
ATOM     63  C   UNL A   1      45.394  31.131  28.704  1.00  0.00     0.058 A 
ATOM     64  C   UNL A   1      44.469  31.722  27.825  1.00  0.00     0.135 A 
ATOM     65  C   UNL A   1      46.704  31.633  28.689  1.00  0.00     0.135 A 
ATOM     66  F   UNL A   1      43.174  31.376  27.851  1.00  0.00    -0.206 F 
ATOM     67  C   UNL A   1      44.840  32.740  26.947  1.00  0.00     0.059 A 
ATOM     68  C   UNL A   1      47.089  32.671  27.845  1.00  0.00     0.059 A 
ATOM     69  F   UNL A   1      47.618  31.154  29.549  1.00  0.00    -0.206 F 
ATOM     70  C   UNL A   1      46.152  33.212  26.967  1.00  0.00     0.060 A 
BRANCH  70  71
ATOM     71  S   UNL A   1      46.602  34.598  25.899  1.00  0.00     0.124 S 
ATOM     72  O   UNL A   1      45.640  34.473  24.810  1.00  0.00    -0.237 OA
ATOM     73  O   UNL A   1      46.418  35.750  26.779  1.00  0.00    -0.237 OA
ATOM     74  O   UNL A   1      47.991  34.316  25.542  1.00  0.00    -0.744 OA
ENDBRANCH  70  71
ENDBRANCH  38  63
ENDBRANCH  12  13
ENDBRANCH   5   7
ENDBRANCH   2   3
ENDBRANCH   1   2
BRANCH   1  75
ATOM     75  C   UNL A   1      33.064  27.771  24.939  1.00  0.00     0.002 C 
BRANCH  75  76
ATOM     76  C   UNL A   1      33.459  27.520  23.479  1.00  0.00     0.002 C 
BRANCH  76  77
ATOM     77  C   UNL A   1      32.325  27.638  22.455  1.00  0.00     0.021 C 
BRANCH  77  78
ATOM     78  C   UNL A   1      31.211  28.613  22.834  1.00  0.00     0.116 C 
BRANCH  78  79
ATOM     79  N   UNL A   1      29.952  27.926  23.069  1.00  0.00    -0.351 N 
ATOM     80  C   UNL A   1      28.675  28.426  23.035  1.00  0.00     0.271 C 
ATOM     81  H   UNL A   1      30.026  26.967  23.282  1.00  0.00     0.163 HD
ATOM     82  O   UNL A   1      27.750  27.725  23.471  1.00  0.00    -0.267 OA
BRANCH  80  83
ATOM     83  C   UNL A   1      28.450  29.763  22.476  1.00  0.00     0.154 A 
ATOM     84  C   UNL A   1      28.451  31.017  23.195  1.00  0.00     0.089 A 
ATOM     85  N   UNL A   1      28.218  29.954  21.151  1.00  0.00    -0.143 NA
ATOM     86  C   UNL A   1      28.163  31.943  22.235  1.00  0.00     0.199 A 
ATOM     87  N   UNL A   1      28.064  31.260  21.094  1.00  0.00    -0.135 N 
ATOM     88  N   UNL A   1      27.943  33.255  21.990  1.00  0.00    -0.109 NA
ATOM     89  N   UNL A   1      27.742  32.133  20.160  1.00  0.00    -0.177 N 
ATOM     90  N   UNL A   1      27.735  33.392  20.733  1.00  0.00    -0.050 NA
ATOM     91  H   UNL A   1      27.542  31.924  19.219  1.00  0.00     0.216 HD
ENDBRANCH  80  83
ENDBRANCH  78  79
ENDBRANCH  77  78
ENDBRANCH  76  77
ENDBRANCH  75  76
ENDBRANCH   1  75
TORSDOF 16
ENDMDL
MODEL 2
REMARK VINA RESULT:     -12.2      4.969     10.280
REMARK SMILES O=C(NCCCCCCNC(=O)c1cc2nn[nH]n2n1)c1ccc(-c2c3nc(c(-c4c(F)cc(S(=O)(=O)[O-])cc4F)c4ccc([nH]4)c(-c4c(F)cc(S(=O)(=O)[O-])cc4F)c4nc(c(-c5c(F)cc(S(=O)(=O)[O-])cc5F)c5ccc2[nH]5)C=C4)C=C3)cc1
REMARK SMILES IDX 5 1 4 2 3 3 1 4 2 5 21 7 22 8 86 9 23 10 85 11 24 12 25 13
REMARK SMILES IDX 26 14 79 15 27 16 84 17 78 18 80 19 28 20 83 21 77 22 76 23
REMARK SMILES IDX 29 25 63 26 42 27 62 28 43 29 46 30 61 31 81 32 44 33 45 34
REMARK SMILES IDX 60 36 82 37 47 38 30 39 31 40 40 41 32 42 33 43 39 44 41 45
REMARK SMILES IDX 34 46 35 47 36 48 37 49 38 50 64 51 65 52 74 53 66 54 67 55
REMARK SMILES IDX 73 56 75 57 68 58 69 59 70 60 71 61 72 62 48 63 49 64 58 65
REMARK SMILES IDX 50 66 51 67 57 68 59 69 52 70 53 71 54 72 55 73 56 74 6 75
REMARK SMILES IDX 7 76 8 77 9 78 10 79 11 80 12 82 13 83 14 84 20 85 15 86
REMARK SMILES IDX 19 87 16 88 18 89 17 90
REMARK H PARENT 3 6 80 24 46 35 10 81 18 91
REMARK Flexibility Score: inf
ROOT
ATOM      1  C   UNL A   1      41.282  19.787  26.189  1.00  0.00     0.021 C 
ENDROOT
BRANCH   1   2
ATOM      2  C   UNL A   1      42.627  19.063  26.159  1.00  0.00     0.116 C 
BRANCH   2   3
ATOM      3  N   UNL A   1      43.494  19.446  25.065  1.00  0.00    -0.352 N 
ATOM      4  O   UNL A   1      44.880  20.533  23.731  1.00  0.00    -0.269 OA
ATOM      5  C   UNL A   1      44.118  20.606  24.699  1.00  0.00     0.251 C 
ATOM      6  H   UNL A   1      43.675  18.704  24.445  1.00  0.00     0.163 HD
BRANCH   5   7
ATOM      7  C   UNL A   1      43.892  21.930  25.338  1.00  0.00     0.039 A 
ATOM      8  C   UNL A   1      43.005  22.910  24.889  1.00  0.00     0.014 A 
ATOM      9  C   UNL A   1      44.643  22.184  26.501  1.00  0.00     0.014 A 
ATOM     10  C   UNL A   1      42.926  24.142  25.535  1.00  0.00     0.010 A 
ATOM     11  C   UNL A   1      44.553  23.402  27.163  1.00  0.00     0.010 A 
ATOM     12  C   UNL A   1      43.713  24.394  26.661  1.00  0.00    -0.014 A 
BRANCH  12  13
ATOM     13  C   UNL A   1      43.524  25.659  27.371  1.00  0.00     0.031 A 
ATOM     14  C   UNL A   1      44.559  26.704  27.107  1.00  0.00     0.074 A 
ATOM     15  C   UNL A   1      42.409  25.954  28.068  1.00  0.00     0.049 A 
ATOM     16  N   UNL A   1      45.335  27.309  27.949  1.00  0.00    -0.248 NA
ATOM     17  C   UNL A   1      44.816  27.063  25.702  1.00  0.00     0.031 C 
ATOM     18  C   UNL A   1      41.172  25.174  28.151  1.00  0.00     0.029 A 
ATOM     19  N   UNL A   1      42.103  27.090  28.758  1.00  0.00    -0.354 N 
ATOM     20  C   UNL A   1      46.047  28.257  27.210  1.00  0.00     0.074 A 
ATOM     21  C   UNL A   1      45.787  27.967  25.824  1.00  0.00     0.031 C 
ATOM     22  C   UNL A   1      40.188  25.955  28.648  1.00  0.00     0.029 A 
ATOM     23  C   UNL A   1      40.750  27.240  29.033  1.00  0.00     0.049 A 
ATOM     24  H   UNL A   1      42.782  27.747  29.035  1.00  0.00     0.167 HD
ATOM     25  C   UNL A   1      46.655  29.331  27.789  1.00  0.00     0.037 A 
ATOM     26  C   UNL A   1      40.127  28.366  29.463  1.00  0.00     0.037 A 
ATOM     27  C   UNL A   1      46.804  29.160  29.208  1.00  0.00     0.049 A 
ATOM     28  C   UNL A   1      41.162  29.256  30.051  1.00  0.00     0.074 A 
ATOM     29  C   UNL A   1      47.461  28.256  30.018  1.00  0.00     0.029 A 
ATOM     30  N   UNL A   1      45.941  29.840  30.032  1.00  0.00    -0.354 N 
ATOM     31  N   UNL A   1      41.819  28.997  31.147  1.00  0.00    -0.248 NA
ATOM     32  C   UNL A   1      41.767  30.259  29.188  1.00  0.00     0.031 C 
ATOM     33  C   UNL A   1      46.619  28.102  31.158  1.00  0.00     0.029 A 
ATOM     34  C   UNL A   1      45.524  28.951  30.989  1.00  0.00     0.049 A 
ATOM     35  H   UNL A   1      45.673  30.784  29.952  1.00  0.00     0.167 HD
ATOM     36  C   UNL A   1      43.100  29.474  30.917  1.00  0.00     0.074 A 
ATOM     37  C   UNL A   1      42.980  30.330  29.740  1.00  0.00     0.031 C 
ATOM     38  C   UNL A   1      44.185  28.920  31.533  1.00  0.00     0.037 A 
BRANCH  25  39
ATOM     39  C   UNL A   1      46.830  30.680  27.129  1.00  0.00     0.058 A 
ATOM     40  C   UNL A   1      48.107  31.283  27.101  1.00  0.00     0.135 A 
ATOM     41  C   UNL A   1      45.751  31.524  26.790  1.00  0.00     0.135 A 
ATOM     42  F   UNL A   1      49.205  30.575  27.411  1.00  0.00    -0.206 F 
ATOM     43  C   UNL A   1      48.286  32.642  26.835  1.00  0.00     0.059 A 
ATOM     44  C   UNL A   1      45.913  32.867  26.468  1.00  0.00     0.059 A 
ATOM     45  F   UNL A   1      44.479  31.110  26.854  1.00  0.00    -0.206 F 
ATOM     46  C   UNL A   1      47.177  33.430  26.541  1.00  0.00     0.060 A 
BRANCH  46  47
ATOM     47  S   UNL A   1      47.387  35.207  26.328  1.00  0.00     0.124 S 
ATOM     48  O   UNL A   1      47.959  35.586  27.615  1.00  0.00    -0.237 OA
ATOM     49  O   UNL A   1      48.289  35.273  25.182  1.00  0.00    -0.237 OA
ATOM     50  O   UNL A   1      46.028  35.677  26.076  1.00  0.00    -0.744 OA
ENDBRANCH  46  47
ENDBRANCH  25  39
BRANCH  26  51
ATOM     51  C   UNL A   1      38.771  28.856  29.098  1.00  0.00     0.058 A 
ATOM     52  C   UNL A   1      37.768  29.027  30.070  1.00  0.00     0.135 A 
ATOM     53  C   UNL A   1      38.513  29.432  27.837  1.00  0.00     0.135 A 
ATOM     54  F   UNL A   1      37.937  28.536  31.307  1.00  0.00    -0.206 F 
ATOM     55  C   UNL A   1      36.602  29.760  29.820  1.00  0.00     0.059 A 
ATOM     56  C   UNL A   1      37.354  30.154  27.560  1.00  0.00     0.059 A 
ATOM     57  F   UNL A   1      39.428  29.393  26.856  1.00  0.00    -0.206 F 
ATOM     58  C   UNL A   1      36.413  30.338  28.564  1.00  0.00     0.060 A 
BRANCH  58  59
ATOM     59  S   UNL A   1      35.001  31.433  28.288  1.00  0.00     0.124 S 
ATOM     60  O   UNL A   1      34.047  30.537  27.642  1.00  0.00    -0.237 OA
ATOM     61  O   UNL A   1      34.665  31.852  29.645  1.00  0.00    -0.237 OA
ATOM     62  O   UNL A   1      35.549  32.483  27.433  1.00  0.00    -0.744 OA
ENDBRANCH  58  59
ENDBRANCH  26  51
BRANCH  38  63
ATOM     63  C   UNL A   1      43.956  28.002  32.703  1.00  0.00     0.058 A 
ATOM     64  C   UNL A   1      43.806  26.608  32.599  1.00  0.00     0.135 A 
ATOM     65  C   UNL A   1      44.056  28.541  33.995  1.00  0.00     0.135 A 
ATOM     66  F   UNL A   1      43.811  26.000  31.405  1.00  0.00    -0.206 F 
ATOM     67  C   UNL A   1      43.723  25.793  33.729  1.00  0.00     0.059 A 
ATOM     68  C   UNL A   1      44.009  27.745  35.135  1.00  0.00     0.059 A 
ATOM     69  F   UNL A   1      44.263  29.858  34.161  1.00  0.00    -0.206 F 
ATOM     70  C   UNL A   1      43.831  26.370  34.994  1.00  0.00     0.060 A 
BRANCH  70  71
ATOM     71  S   UNL A   1      43.823  25.300  36.449  1.00  0.00     0.124 S 
ATOM     72  O   UNL A   1      44.819  24.294  36.098  1.00  0.00    -0.237 OA
ATOM     73  O   UNL A   1      44.200  26.219  37.521  1.00  0.00    -0.237 OA
ATOM     74  O   UNL A   1      42.444  24.820  36.512  1.00  0.00    -0.744 OA
ENDBRANCH  70  71
ENDBRANCH  38  63
ENDBRANCH  12  13
ENDBRANCH   5   7
ENDBRANCH   2   3
ENDBRANCH   1   2
BRANCH   1  75
ATOM     75  C   UNL A   1      40.993  20.560  27.482  1.00  0.00     0.002 C 
BRANCH  75  76
ATOM     76  C   UNL A   1      40.347  21.939  27.308  1.00  0.00     0.002 C 
BRANCH  76  77
ATOM     77  C   UNL A   1      39.586  22.155  25.995  1.00  0.00     0.021 C 
BRANCH  77  78
ATOM     78  C   UNL A   1      38.085  21.877  26.065  1.00  0.00     0.116 C 
BRANCH  78  79
ATOM     79  N   UNL A   1      37.313  23.106  26.143  1.00  0.00    -0.351 N 
ATOM     80  C   UNL A   1      35.988  23.313  25.856  1.00  0.00     0.271 C 
ATOM     81  H   UNL A   1      37.811  23.901  26.444  1.00  0.00     0.163 HD
ATOM     82  O   UNL A   1      35.569  24.478  25.785  1.00  0.00    -0.267 OA
BRANCH  80  83
ATOM     83  C   UNL A   1      35.114  22.153  25.657  1.00  0.00     0.154 A 
ATOM     84  C   UNL A   1      34.793  21.511  24.403  1.00  0.00     0.089 A 
ATOM     85  N   UNL A   1      34.499  21.533  26.699  1.00  0.00    -0.143 NA
ATOM     86  C   UNL A   1      33.927  20.517  24.756  1.00  0.00     0.199 A 
ATOM     87  N   UNL A   1      33.826  20.584  26.084  1.00  0.00    -0.135 N 
ATOM     88  N   UNL A   1      33.146  19.512  24.300  1.00  0.00    -0.109 NA
ATOM     89  N   UNL A   1      32.958  19.659  26.442  1.00  0.00    -0.177 N 
ATOM     90  N   UNL A   1      32.592  18.952  25.311  1.00  0.00    -0.050 NA
ATOM     91  H   UNL A   1      32.629  19.498  27.356  1.00  0.00     0.216 HD
ENDBRANCH  80  83
ENDBRANCH  78  79
ENDBRANCH  77  78
ENDBRANCH  76  77
ENDBRANCH  75  76
ENDBRANCH   1  75
TORSDOF 16
ENDMDL
MODEL 3
REMARK VINA RESULT:     -12.0      4.881     10.551
REMARK SMILES O=C(NCCCCCCNC(=O)c1cc2nn[nH]n2n1)c1ccc(-c2c3nc(c(-c4c(F)cc(S(=O)(=O)[O-])cc4F)c4ccc([nH]4)c(-c4c(F)cc(S(=O)(=O)[O-])cc4F)c4nc(c(-c5c(F)cc(S(=O)(=O)[O-])cc5F)c5ccc2[nH]5)C=C4)C=C3)cc1
REMARK SMILES IDX 5 1 4 2 3 3 1 4 2 5 21 7 22 8 86 9 23 10 85 11 24 12 25 13
REMARK SMILES IDX 26 14 79 15 27 16 84 17 78 18 80 19 28 20 83 21 77 22 76 23
REMARK SMILES IDX 29 25 63 26 42 27 62 28 43 29 46 30 61 31 81 32 44 33 45 34
REMARK SMILES IDX 60 36 82 37 47 38 30 39 31 40 40 41 32 42 33 43 39 44 41 45
REMARK SMILES IDX 34 46 35 47 36 48 37 49 38 50 64 51 65 52 74 53 66 54 67 55
REMARK SMILES IDX 73 56 75 57 68 58 69 59 70 60 71 61 72 62 48 63 49 64 58 65
REMARK SMILES IDX 50 66 51 67 57 68 59 69 52 70 53 71 54 72 55 73 56 74 6 75
REMARK SMILES IDX 7 76 8 77 9 78 10 79 11 80 12 82 13 83 14 84 20 85 15 86
REMARK SMILES IDX 19 87 16 88 18 89 17 90
REMARK H PARENT 3 6 80 24 46 35 10 81 18 91
REMARK Flexibility Score: inf
ROOT
ATOM      1  C   UNL A   1      39.423  21.193  26.276  1.00  0.00     0.021 C 
ENDROOT
BRANCH   1   2
ATOM      2  C   UNL A   1      40.228  19.897  26.372  1.00  0.00     0.116 C 
BRANCH   2   3
ATOM      3  N   UNL A   1      41.535  19.954  25.753  1.00  0.00    -0.352 N 
ATOM      4  O   UNL A   1      43.609  20.490  25.211  1.00  0.00    -0.269 OA
ATOM      5  C   UNL A   1      42.587  20.825  25.816  1.00  0.00     0.251 C 
ATOM      6  H   UNL A   1      41.705  19.193  25.153  1.00  0.00     0.163 HD
BRANCH   5   7
ATOM      7  C   UNL A   1      42.556  22.147  26.498  1.00  0.00     0.039 A 
ATOM      8  C   UNL A   1      42.786  22.367  27.856  1.00  0.00     0.014 A 
ATOM      9  C   UNL A   1      42.280  23.253  25.674  1.00  0.00     0.014 A 
ATOM     10  C   UNL A   1      42.666  23.646  28.396  1.00  0.00     0.010 A 
ATOM     11  C   UNL A   1      42.180  24.535  26.202  1.00  0.00     0.010 A 
ATOM     12  C   UNL A   1      42.345  24.727  27.572  1.00  0.00    -0.014 A 
BRANCH  12  13
ATOM     13  C   UNL A   1      42.331  26.066  28.158  1.00  0.00     0.031 A 
ATOM     14  C   UNL A   1      43.470  26.951  27.766  1.00  0.00     0.074 A 
ATOM     15  C   UNL A   1      41.284  26.557  28.851  1.00  0.00     0.049 A 
ATOM     16  N   UNL A   1      44.341  27.536  28.525  1.00  0.00    -0.248 NA
ATOM     17  C   UNL A   1      43.715  27.142  26.327  1.00  0.00     0.031 C 
ATOM     18  C   UNL A   1      39.969  25.941  29.042  1.00  0.00     0.029 A 
ATOM     19  N   UNL A   1      41.139  27.781  29.433  1.00  0.00    -0.354 N 
ATOM     20  C   UNL A   1      45.131  28.318  27.678  1.00  0.00     0.074 A 
ATOM     21  C   UNL A   1      44.789  27.931  26.335  1.00  0.00     0.031 C 
ATOM     22  C   UNL A   1      39.102  26.878  29.485  1.00  0.00     0.029 A 
ATOM     23  C   UNL A   1      39.823  28.117  29.726  1.00  0.00     0.049 A 
ATOM     24  H   UNL A   1      41.899  28.376  29.627  1.00  0.00     0.167 HD
ATOM     25  C   UNL A   1      45.881  29.362  28.133  1.00  0.00     0.037 A 
ATOM     26  C   UNL A   1      39.351  29.346  30.060  1.00  0.00     0.037 A 
ATOM     27  C   UNL A   1      46.061  29.310  29.558  1.00  0.00     0.049 A 
ATOM     28  C   UNL A   1      40.504  30.157  30.531  1.00  0.00     0.074 A 
ATOM     29  C   UNL A   1      46.638  28.415  30.436  1.00  0.00     0.029 A 
ATOM     30  N   UNL A   1      45.314  30.162  30.333  1.00  0.00    -0.354 N 
ATOM     31  N   UNL A   1      41.166  29.926  31.630  1.00  0.00    -0.248 NA
ATOM     32  C   UNL A   1      41.189  30.995  29.558  1.00  0.00     0.031 C 
ATOM     33  C   UNL A   1      45.827  28.471  31.606  1.00  0.00     0.029 A 
ATOM     34  C   UNL A   1      44.833  29.424  31.383  1.00  0.00     0.049 A 
ATOM     35  H   UNL A   1      45.155  31.119  30.167  1.00  0.00     0.167 HD
ATOM     36  C   UNL A   1      42.484  30.224  31.321  1.00  0.00     0.074 A 
ATOM     37  C   UNL A   1      42.422  30.972  30.069  1.00  0.00     0.031 C 
ATOM     38  C   UNL A   1      43.520  29.604  31.962  1.00  0.00     0.037 A 
BRANCH  25  39
ATOM     39  C   UNL A   1      46.187  30.612  27.339  1.00  0.00     0.058 A 
ATOM     40  C   UNL A   1      47.522  31.059  27.229  1.00  0.00     0.135 A 
ATOM     41  C   UNL A   1      45.200  31.537  26.937  1.00  0.00     0.135 A 
ATOM     42  F   UNL A   1      48.542  30.263  27.587  1.00  0.00    -0.206 F 
ATOM     43  C   UNL A   1      47.845  32.356  26.826  1.00  0.00     0.059 A 
ATOM     44  C   UNL A   1      45.503  32.816  26.481  1.00  0.00     0.059 A 
ATOM     45  F   UNL A   1      43.892  31.280  27.065  1.00  0.00    -0.206 F 
ATOM     46  C   UNL A   1      46.824  33.234  26.474  1.00  0.00     0.060 A 
BRANCH  46  47
ATOM     47  S   UNL A   1      47.226  34.946  26.083  1.00  0.00     0.124 S 
ATOM     48  O   UNL A   1      45.903  35.501  25.819  1.00  0.00    -0.237 OA
ATOM     49  O   UNL A   1      47.875  35.395  27.311  1.00  0.00    -0.237 OA
ATOM     50  O   UNL A   1      48.106  34.827  24.924  1.00  0.00    -0.744 OA
ENDBRANCH  46  47
ENDBRANCH  25  39
BRANCH  26  51
ATOM     51  C   UNL A   1      38.049  29.957  29.683  1.00  0.00     0.058 A 
ATOM     52  C   UNL A   1      37.229  30.582  30.641  1.00  0.00     0.135 A 
ATOM     53  C   UNL A   1      37.709  30.187  28.334  1.00  0.00     0.135 A 
ATOM     54  F   UNL A   1      37.493  30.442  31.948  1.00  0.00    -0.206 F 
ATOM     55  C   UNL A   1      36.167  31.420  30.283  1.00  0.00     0.059 A 
ATOM     56  C   UNL A   1      36.647  31.005  27.953  1.00  0.00     0.059 A 
ATOM     57  F   UNL A   1      38.461  29.699  27.336  1.00  0.00    -0.206 F 
ATOM     58  C   UNL A   1      35.895  31.640  28.932  1.00  0.00     0.060 A 
BRANCH  58  59
ATOM     59  S   UNL A   1      34.642  32.857  28.460  1.00  0.00     0.124 S 
ATOM     60  O   UNL A   1      35.387  33.718  27.549  1.00  0.00    -0.237 OA
ATOM     61  O   UNL A   1      33.613  32.020  27.851  1.00  0.00    -0.237 OA
ATOM     62  O   UNL A   1      34.269  33.469  29.733  1.00  0.00    -0.744 OA
ENDBRANCH  58  59
ENDBRANCH  26  51
BRANCH  38  63
ATOM     63  C   UNL A   1      43.229  28.836  33.222  1.00  0.00     0.058 A 
ATOM     64  C   UNL A   1      43.073  29.424  34.490  1.00  0.00     0.135 A 
ATOM     65  C   UNL A   1      42.936  27.468  33.108  1.00  0.00     0.135 A 
ATOM     66  F   UNL A   1      43.229  30.743  34.663  1.00  0.00    -0.206 F 
ATOM     67  C   UNL A   1      42.678  28.677  35.600  1.00  0.00     0.059 A 
ATOM     68  C   UNL A   1      42.509  26.711  34.195  1.00  0.00     0.059 A 
ATOM     69  F   UNL A   1      43.005  26.862  31.911  1.00  0.00    -0.206 F 
ATOM     70  C   UNL A   1      42.393  27.321  35.442  1.00  0.00     0.060 A 
BRANCH  70  71
ATOM     71  S   UNL A   1      41.787  26.381  36.861  1.00  0.00     0.124 S 
ATOM     72  O   UNL A   1      41.464  25.091  36.261  1.00  0.00    -0.237 OA
ATOM     73  O   UNL A   1      42.937  26.391  37.763  1.00  0.00    -0.237 OA
ATOM     74  O   UNL A   1      40.641  27.161  37.322  1.00  0.00    -0.744 OA
ENDBRANCH  70  71
ENDBRANCH  38  63
ENDBRANCH  12  13
ENDBRANCH   5   7
ENDBRANCH   2   3
ENDBRANCH   1   2
BRANCH   1  75
ATOM     75  C   UNL A   1      38.528  21.308  25.036  1.00  0.00     0.002 C 
BRANCH  75  76
ATOM     76  C   UNL A   1      37.161  20.622  25.129  1.00  0.00     0.002 C 
BRANCH  76  77
ATOM     77  C   UNL A   1      35.947  21.557  25.126  1.00  0.00     0.021 C 
BRANCH  77  78
ATOM     78  C   UNL A   1      34.654  20.939  25.657  1.00  0.00     0.116 C 
BRANCH  78  79
ATOM     79  N   UNL A   1      33.564  21.069  24.704  1.00  0.00    -0.351 N 
ATOM     80  C   UNL A   1      32.908  20.090  24.003  1.00  0.00     0.271 C 
ATOM     81  H   UNL A   1      33.253  21.989  24.540  1.00  0.00     0.163 HD
ATOM     82  O   UNL A   1      32.148  20.425  23.083  1.00  0.00    -0.267 OA
BRANCH  80  83
ATOM     83  C   UNL A   1      33.120  18.687  24.373  1.00  0.00     0.154 A 
ATOM     84  C   UNL A   1      34.352  17.937  24.270  1.00  0.00     0.089 A 
ATOM     85  N   UNL A   1      32.120  17.923  24.887  1.00  0.00    -0.143 NA
ATOM     86  C   UNL A   1      34.012  16.689  24.705  1.00  0.00     0.199 A 
ATOM     87  N   UNL A   1      32.728  16.768  25.057  1.00  0.00    -0.135 N 
ATOM     88  N   UNL A   1      34.455  15.429  24.916  1.00  0.00    -0.109 NA
ATOM     89  N   UNL A   1      32.368  15.559  25.438  1.00  0.00    -0.177 N 
ATOM     90  N   UNL A   1      33.486  14.746  25.404  1.00  0.00    -0.050 NA
ATOM     91  H   UNL A   1      31.460  15.283  25.703  1.00  0.00     0.216 HD
ENDBRANCH  80  83
ENDBRANCH  78  79
ENDBRANCH  77  78
ENDBRANCH  76  77
ENDBRANCH  75  76
ENDBRANCH   1  75
TORSDOF 16
ENDMDL
