MODEL 1
REMARK VINA RESULT:     -10.5      0.000      0.000
REMARK SMILES CCN(Cc1cccc(C)n1)C(=O)[C@@H]([NH3+])CC(=O)NCCCCCCNC(=O)c1ccc(-c2c3nc(c(-c4c(F)cc(S(=O)(=O)[O-])cc4F)c4ccc([nH]4)c(-c4c(F)cc(S(=O)(=O)[O-])cc4F)c4nc(c(-c5c(F)cc(S(=O)(=O)[O-])cc5F)c5ccc2[nH]5)C=C4)C=C3)cc1
REMARK SMILES IDX 21 1 20 2 19 3 17 4 18 5 16 7 14 8 12 9 13 10 3 11 2 12 1 13
REMARK SMILES IDX 4 14 5 15 6 16 11 17 7 18 9 19 8 20 10 21 15 22 22 26 23 27
REMARK SMILES IDX 24 28 25 29 26 30 27 31 28 33 29 34 30 35 94 36 31 37 93 38
REMARK SMILES IDX 32 39 33 40 34 41 87 42 35 43 92 44 86 45 88 46 36 47 91 48
REMARK SMILES IDX 85 49 84 50 37 52 71 53 50 54 70 55 51 56 54 57 69 58 89 59
REMARK SMILES IDX 52 60 53 61 68 63 90 64 55 65 38 66 39 67 48 68 40 69 41 70
REMARK SMILES IDX 47 71 49 72 42 73 43 74 44 75 45 76 46 77 72 78 73 79 82 80
REMARK SMILES IDX 74 81 75 82 81 83 83 84 76 85 77 86 78 87 79 88 80 89 56 90
REMARK SMILES IDX 57 91 66 92 58 93 59 94 65 95 67 96 60 97 61 98 62 99 63 100
REMARK SMILES IDX 64 101
REMARK H PARENT 19 6 15 23 15 24 15 25 26 32 88 51 54 62
REMARK Flexibility Score: inf
ROOT
ATOM      1  C   UNL A   1      34.709  24.108  23.890  1.00  0.00     0.021 C 
ENDROOT
BRANCH   1   2
ATOM      2  C   UNL A   1      33.500  23.326  23.373  1.00  0.00     0.116 C 
BRANCH   2   3
ATOM      3  N   UNL A   1      32.696  22.797  24.457  1.00  0.00    -0.356 N 
ATOM      4  C   UNL A   1      31.437  23.133  24.851  1.00  0.00     0.226 C 
ATOM      5  O   UNL A   1      30.953  22.551  25.824  1.00  0.00    -0.275 OA
ATOM      6  H   UNL A   1      33.126  22.088  24.989  1.00  0.00     0.163 HD
BRANCH   4   7
ATOM      7  C   UNL A   1      30.647  24.194  24.108  1.00  0.00     0.175 C 
BRANCH   7   8
ATOM      8  C   UNL A   1      30.432  25.434  24.975  1.00  0.00     0.280 C 
BRANCH   8   9
ATOM      9  C   UNL A   1      29.886  26.663  24.198  1.00  0.00     0.281 C 
ATOM     10  O   UNL A   1      28.675  26.663  23.939  1.00  0.00    -0.268 OA
BRANCH   9  11
ATOM     11  N   UNL A   1      30.697  27.728  23.811  1.00  0.00    -0.332 N 
BRANCH  11  12
ATOM     12  C   UNL A   1      31.277  27.721  22.457  1.00  0.00     0.116 C 
ATOM     13  C   UNL A   1      32.683  27.158  22.320  1.00  0.00     0.027 C 
ENDBRANCH  11  12
BRANCH  11  14
ATOM     14  C   UNL A   1      31.015  28.908  24.646  1.00  0.00     0.175 C 
BRANCH  14  15
ATOM     15  C   UNL A   1      32.281  28.854  25.502  1.00  0.00     0.060 A 
ATOM     16  C   UNL A   1      33.030  27.699  25.714  1.00  0.00     0.026 A 
ATOM     17  N   UNL A   1      32.632  30.026  26.095  1.00  0.00    -0.256 NA
ATOM     18  C   UNL A   1      34.165  27.746  26.520  1.00  0.00     0.004 A 
ATOM     19  C   UNL A   1      33.720  30.054  26.908  1.00  0.00     0.038 A 
ATOM     20  C   UNL A   1      34.515  28.939  27.132  1.00  0.00     0.023 A 
ATOM     21  C   UNL A   1      34.018  31.353  27.593  1.00  0.00     0.067 C 
ENDBRANCH  14  15
ENDBRANCH  11  14
ENDBRANCH   9  11
ENDBRANCH   8   9
BRANCH   8  22
ATOM     22  N   UNL A   1      29.572  25.174  26.155  1.00  0.00    -0.347 N 
ATOM     23  H   UNL A   1      30.004  24.459  26.740  1.00  0.00     0.345 HD
ATOM     24  H   UNL A   1      28.656  24.849  25.843  1.00  0.00     0.345 HD
ATOM     25  H   UNL A   1      29.462  26.034  26.693  1.00  0.00     0.345 HD
ENDBRANCH   8  22
ENDBRANCH   7   8
ENDBRANCH   4   7
ENDBRANCH   2   3
ENDBRANCH   1   2
BRANCH   1  26
ATOM     26  C   UNL A   1      34.771  24.215  25.412  1.00  0.00     0.002 C 
BRANCH  26  27
ATOM     27  C   UNL A   1      35.927  23.448  26.067  1.00  0.00     0.002 C 
BRANCH  27  28
ATOM     28  C   UNL A   1      37.328  23.737  25.515  1.00  0.00     0.021 C 
BRANCH  28  29
ATOM     29  C   UNL A   1      38.318  24.339  26.512  1.00  0.00     0.116 C 
BRANCH  29  30
ATOM     30  N   UNL A   1      39.690  24.235  26.046  1.00  0.00    -0.352 N 
ATOM     31  C   UNL A   1      40.799  24.972  26.379  1.00  0.00     0.251 C 
ATOM     32  H   UNL A   1      39.851  23.521  25.385  1.00  0.00     0.163 HD
ATOM     33  O   UNL A   1      41.817  24.876  25.701  1.00  0.00    -0.269 OA
BRANCH  31  34
ATOM     34  C   UNL A   1      40.770  25.890  27.539  1.00  0.00     0.039 A 
ATOM     35  C   UNL A   1      41.785  26.843  27.672  1.00  0.00     0.014 A 
ATOM     36  C   UNL A   1      39.772  25.793  28.513  1.00  0.00     0.014 A 
ATOM     37  C   UNL A   1      41.758  27.744  28.741  1.00  0.00     0.010 A 
ATOM     38  C   UNL A   1      39.713  26.729  29.544  1.00  0.00     0.010 A 
ATOM     39  C   UNL A   1      40.702  27.718  29.665  1.00  0.00    -0.014 A 
BRANCH  39  40
ATOM     40  C   UNL A   1      40.595  28.735  30.744  1.00  0.00     0.031 A 
ATOM     41  C   UNL A   1      41.443  28.628  31.981  1.00  0.00     0.074 A 
ATOM     42  C   UNL A   1      39.674  29.713  30.640  1.00  0.00     0.049 A 
ATOM     43  N   UNL A   1      41.423  29.366  33.061  1.00  0.00    -0.248 NA
ATOM     44  C   UNL A   1      42.430  27.537  32.018  1.00  0.00     0.031 C 
ATOM     45  C   UNL A   1      38.762  29.899  29.507  1.00  0.00     0.029 A 
ATOM     46  N   UNL A   1      39.337  30.726  31.503  1.00  0.00    -0.354 N 
ATOM     47  C   UNL A   1      42.380  28.823  33.911  1.00  0.00     0.074 A 
ATOM     48  C   UNL A   1      42.934  27.668  33.237  1.00  0.00     0.031 C 
ATOM     49  C   UNL A   1      37.980  30.965  29.741  1.00  0.00     0.029 A 
ATOM     50  C   UNL A   1      38.304  31.515  31.053  1.00  0.00     0.049 A 
ATOM     51  H   UNL A   1      39.791  30.874  32.363  1.00  0.00     0.167 HD
ATOM     52  C   UNL A   1      42.772  29.258  35.132  1.00  0.00     0.037 A 
ATOM     53  C   UNL A   1      37.674  32.553  31.638  1.00  0.00     0.037 A 
ATOM     54  C   UNL A   1      42.231  30.421  35.789  1.00  0.00     0.049 A 
ATOM     55  C   UNL A   1      38.116  33.007  33.002  1.00  0.00     0.074 A 
ATOM     56  C   UNL A   1      42.610  30.981  36.997  1.00  0.00     0.029 A 
ATOM     57  N   UNL A   1      41.194  31.198  35.297  1.00  0.00    -0.354 N 
ATOM     58  N   UNL A   1      39.068  32.521  33.762  1.00  0.00    -0.248 NA
ATOM     59  C   UNL A   1      37.399  34.147  33.589  1.00  0.00     0.031 C 
ATOM     60  C   UNL A   1      41.770  32.069  37.258  1.00  0.00     0.029 A 
ATOM     61  C   UNL A   1      40.898  32.216  36.191  1.00  0.00     0.049 A 
ATOM     62  H   UNL A   1      40.732  31.049  34.440  1.00  0.00     0.167 HD
ATOM     63  C   UNL A   1      39.077  33.307  34.909  1.00  0.00     0.074 A 
ATOM     64  C   UNL A   1      38.045  34.309  34.736  1.00  0.00     0.031 C 
ATOM     65  C   UNL A   1      39.866  33.206  36.006  1.00  0.00     0.037 A 
BRANCH  52  66
ATOM     66  C   UNL A   1      43.843  28.475  35.843  1.00  0.00     0.058 A 
ATOM     67  C   UNL A   1      45.204  28.787  35.696  1.00  0.00     0.135 A 
ATOM     68  C   UNL A   1      43.504  27.429  36.716  1.00  0.00     0.135 A 
ATOM     69  F   UNL A   1      45.586  29.770  34.865  1.00  0.00    -0.206 F 
ATOM     70  C   UNL A   1      46.192  28.071  36.364  1.00  0.00     0.059 A 
ATOM     71  C   UNL A   1      44.473  26.715  37.416  1.00  0.00     0.059 A 
ATOM     72  F   UNL A   1      42.217  27.089  36.895  1.00  0.00    -0.206 F 
ATOM     73  C   UNL A   1      45.816  27.035  37.221  1.00  0.00     0.060 A 
BRANCH  73  74
ATOM     74  S   UNL A   1      47.110  26.119  38.084  1.00  0.00     0.124 S 
ATOM     75  O   UNL A   1      46.391  24.916  38.491  1.00  0.00    -0.237 OA
ATOM     76  O   UNL A   1      48.113  25.934  37.040  1.00  0.00    -0.237 OA
ATOM     77  O   UNL A   1      47.496  27.015  39.170  1.00  0.00    -0.744 OA
ENDBRANCH  73  74
ENDBRANCH  52  66
BRANCH  53  78
ATOM     78  C   UNL A   1      36.560  33.237  30.929  1.00  0.00     0.058 A 
ATOM     79  C   UNL A   1      35.231  33.067  31.340  1.00  0.00     0.135 A 
ATOM     80  C   UNL A   1      36.805  34.089  29.840  1.00  0.00     0.135 A 
ATOM     81  F   UNL A   1      34.947  32.258  32.371  1.00  0.00    -0.206 F 
ATOM     82  C   UNL A   1      34.180  33.708  30.692  1.00  0.00     0.059 A 
ATOM     83  C   UNL A   1      35.774  34.759  29.190  1.00  0.00     0.059 A 
ATOM     84  F   UNL A   1      38.062  34.298  29.417  1.00  0.00    -0.206 F 
ATOM     85  C   UNL A   1      34.463  34.556  29.619  1.00  0.00     0.060 A 
BRANCH  85  86
ATOM     86  S   UNL A   1      33.098  35.429  28.821  1.00  0.00     0.124 S 
ATOM     87  O   UNL A   1      33.812  36.384  27.980  1.00  0.00    -0.237 OA
ATOM     88  O   UNL A   1      32.411  34.349  28.120  1.00  0.00    -0.237 OA
ATOM     89  O   UNL A   1      32.364  36.001  29.945  1.00  0.00    -0.744 OA
ENDBRANCH  85  86
ENDBRANCH  53  78
BRANCH  65  90
ATOM     90  C   UNL A   1      39.661  34.214  37.103  1.00  0.00     0.058 A 
ATOM     91  C   UNL A   1      38.932  33.898  38.261  1.00  0.00     0.135 A 
ATOM     92  C   UNL A   1      40.251  35.485  37.024  1.00  0.00     0.135 A 
ATOM     93  F   UNL A   1      38.340  32.700  38.381  1.00  0.00    -0.206 F 
ATOM     94  C   UNL A   1      38.783  34.814  39.296  1.00  0.00     0.059 A 
ATOM     95  C   UNL A   1      40.136  36.407  38.059  1.00  0.00     0.059 A 
ATOM     96  F   UNL A   1      40.964  35.834  35.942  1.00  0.00    -0.206 F 
ATOM     97  C   UNL A   1      39.392  36.066  39.188  1.00  0.00     0.060 A 
BRANCH  97  98
ATOM     98  S   UNL A   1      39.232  37.227  40.562  1.00  0.00     0.124 S 
ATOM     99  O   UNL A   1      40.618  37.636  40.764  1.00  0.00    -0.237 OA
ATOM    100  O   UNL A   1      38.345  38.245  40.009  1.00  0.00    -0.237 OA
ATOM    101  O   UNL A   1      38.656  36.414  41.629  1.00  0.00    -0.744 OA
ENDBRANCH  97  98
ENDBRANCH  65  90
ENDBRANCH  39  40
ENDBRANCH  31  34
ENDBRANCH  29  30
ENDBRANCH  28  29
ENDBRANCH  27  28
ENDBRANCH  26  27
ENDBRANCH   1  26
TORSDOF 23
ENDMDL
MODEL 2
REMARK VINA RESULT:     -10.3      1.219      2.414
REMARK SMILES CCN(Cc1cccc(C)n1)C(=O)[C@@H]([NH3+])CC(=O)NCCCCCCNC(=O)c1ccc(-c2c3nc(c(-c4c(F)cc(S(=O)(=O)[O-])cc4F)c4ccc([nH]4)c(-c4c(F)cc(S(=O)(=O)[O-])cc4F)c4nc(c(-c5c(F)cc(S(=O)(=O)[O-])cc5F)c5ccc2[nH]5)C=C4)C=C3)cc1
REMARK SMILES IDX 21 1 20 2 19 3 17 4 18 5 16 7 14 8 12 9 13 10 3 11 2 12 1 13
REMARK SMILES IDX 4 14 5 15 6 16 11 17 7 18 9 19 8 20 10 21 15 22 22 26 23 27
REMARK SMILES IDX 24 28 25 29 26 30 27 31 28 33 29 34 30 35 94 36 31 37 93 38
REMARK SMILES IDX 32 39 33 40 34 41 87 42 35 43 92 44 86 45 88 46 36 47 91 48
REMARK SMILES IDX 85 49 84 50 37 52 71 53 50 54 70 55 51 56 54 57 69 58 89 59
REMARK SMILES IDX 52 60 53 61 68 63 90 64 55 65 38 66 39 67 48 68 40 69 41 70
REMARK SMILES IDX 47 71 49 72 42 73 43 74 44 75 45 76 46 77 72 78 73 79 82 80
REMARK SMILES IDX 74 81 75 82 81 83 83 84 76 85 77 86 78 87 79 88 80 89 56 90
REMARK SMILES IDX 57 91 66 92 58 93 59 94 65 95 67 96 60 97 61 98 62 99 63 100
REMARK SMILES IDX 64 101
REMARK H PARENT 19 6 15 23 15 24 15 25 26 32 88 51 54 62
REMARK Flexibility Score: inf
ROOT
ATOM      1  C   UNL A   1      34.874  23.903  23.862  1.00  0.00     0.021 C 
ENDROOT
BRANCH   1   2
ATOM      2  C   UNL A   1      33.629  23.179  23.348  1.00  0.00     0.116 C 
BRANCH   2   3
ATOM      3  N   UNL A   1      32.803  22.689  24.434  1.00  0.00    -0.356 N 
ATOM      4  C   UNL A   1      31.551  23.066  24.815  1.00  0.00     0.226 C 
ATOM      5  O   UNL A   1      31.044  22.512  25.792  1.00  0.00    -0.275 OA
ATOM      6  H   UNL A   1      33.209  21.976  24.979  1.00  0.00     0.163 HD
BRANCH   4   7
ATOM      7  C   UNL A   1      30.797  24.138  24.051  1.00  0.00     0.175 C 
BRANCH   7   8
ATOM      8  C   UNL A   1      30.638  25.407  24.888  1.00  0.00     0.280 C 
BRANCH   8   9
ATOM      9  C   UNL A   1      29.961  26.583  24.133  1.00  0.00     0.281 C 
ATOM     10  O   UNL A   1      28.734  26.516  23.987  1.00  0.00    -0.268 OA
BRANCH   9  11
ATOM     11  N   UNL A   1      30.678  27.674  23.645  1.00  0.00    -0.332 N 
BRANCH  11  12
ATOM     12  C   UNL A   1      31.853  28.144  24.399  1.00  0.00     0.116 C 
ATOM     13  C   UNL A   1      33.182  28.148  23.659  1.00  0.00     0.027 C 
ENDBRANCH  11  12
BRANCH  11  14
ATOM     14  C   UNL A   1      30.377  28.405  22.394  1.00  0.00     0.175 C 
BRANCH  14  15
ATOM     15  C   UNL A   1      29.549  29.686  22.500  1.00  0.00     0.060 A 
ATOM     16  C   UNL A   1      29.143  30.254  23.705  1.00  0.00     0.026 A 
ATOM     17  N   UNL A   1      29.188  30.244  21.314  1.00  0.00    -0.256 NA
ATOM     18  C   UNL A   1      28.381  31.420  23.700  1.00  0.00     0.004 A 
ATOM     19  C   UNL A   1      28.416  31.361  21.319  1.00  0.00     0.038 A 
ATOM     20  C   UNL A   1      28.006  31.982  22.490  1.00  0.00     0.023 A 
ATOM     21  C   UNL A   1      27.986  31.892  19.985  1.00  0.00     0.067 C 
ENDBRANCH  14  15
ENDBRANCH  11  14
ENDBRANCH   9  11
ENDBRANCH   8   9
BRANCH   8  22
ATOM     22  N   UNL A   1      29.929  25.171  26.169  1.00  0.00    -0.347 N 
ATOM     23  H   UNL A   1      29.820  26.055  26.665  1.00  0.00     0.345 HD
ATOM     24  H   UNL A   1      30.471  24.525  26.744  1.00  0.00     0.345 HD
ATOM     25  H   UNL A   1      29.011  24.769  25.982  1.00  0.00     0.345 HD
ENDBRANCH   8  22
ENDBRANCH   7   8
ENDBRANCH   4   7
ENDBRANCH   2   3
ENDBRANCH   1   2
BRANCH   1  26
ATOM     26  C   UNL A   1      34.899  24.089  25.378  1.00  0.00     0.002 C 
BRANCH  26  27
ATOM     27  C   UNL A   1      36.021  23.334  26.103  1.00  0.00     0.002 C 
BRANCH  27  28
ATOM     28  C   UNL A   1      37.443  23.573  25.580  1.00  0.00     0.021 C 
BRANCH  28  29
ATOM     29  C   UNL A   1      38.452  24.064  26.618  1.00  0.00     0.116 C 
BRANCH  29  30
ATOM     30  N   UNL A   1      39.818  23.973  26.132  1.00  0.00    -0.352 N 
ATOM     31  C   UNL A   1      40.923  24.728  26.442  1.00  0.00     0.251 C 
ATOM     32  H   UNL A   1      39.979  23.255  25.477  1.00  0.00     0.163 HD
ATOM     33  O   UNL A   1      41.932  24.639  25.750  1.00  0.00    -0.269 OA
BRANCH  31  34
ATOM     34  C   UNL A   1      40.898  25.657  27.594  1.00  0.00     0.039 A 
ATOM     35  C   UNL A   1      42.009  26.474  27.825  1.00  0.00     0.014 A 
ATOM     36  C   UNL A   1      39.805  25.701  28.464  1.00  0.00     0.014 A 
ATOM     37  C   UNL A   1      41.995  27.384  28.886  1.00  0.00     0.010 A 
ATOM     38  C   UNL A   1      39.767  26.649  29.485  1.00  0.00     0.010 A 
ATOM     39  C   UNL A   1      40.858  27.505  29.703  1.00  0.00    -0.014 A 
BRANCH  39  40
ATOM     40  C   UNL A   1      40.778  28.541  30.766  1.00  0.00     0.031 A 
ATOM     41  C   UNL A   1      41.657  28.456  31.983  1.00  0.00     0.074 A 
ATOM     42  C   UNL A   1      39.854  29.518  30.667  1.00  0.00     0.049 A 
ATOM     43  N   UNL A   1      41.663  29.212  33.050  1.00  0.00    -0.248 NA
ATOM     44  C   UNL A   1      42.644  27.365  32.014  1.00  0.00     0.031 C 
ATOM     45  C   UNL A   1      38.915  29.683  29.554  1.00  0.00     0.029 A 
ATOM     46  N   UNL A   1      39.539  30.546  31.521  1.00  0.00    -0.354 N 
ATOM     47  C   UNL A   1      42.641  28.684  33.885  1.00  0.00     0.074 A 
ATOM     48  C   UNL A   1      43.178  27.517  33.218  1.00  0.00     0.031 C 
ATOM     49  C   UNL A   1      38.139  30.754  29.788  1.00  0.00     0.029 A 
ATOM     50  C   UNL A   1      38.495  31.327  31.083  1.00  0.00     0.049 A 
ATOM     51  H   UNL A   1      40.015  30.708  32.366  1.00  0.00     0.167 HD
ATOM     52  C   UNL A   1      43.063  29.141  35.089  1.00  0.00     0.037 A 
ATOM     53  C   UNL A   1      37.879  32.375  31.665  1.00  0.00     0.037 A 
ATOM     54  C   UNL A   1      42.539  30.316  35.737  1.00  0.00     0.049 A 
ATOM     55  C   UNL A   1      38.355  32.853  33.009  1.00  0.00     0.074 A 
ATOM     56  C   UNL A   1      42.947  30.897  36.926  1.00  0.00     0.029 A 
ATOM     57  N   UNL A   1      41.489  31.084  35.258  1.00  0.00    -0.354 N 
ATOM     58  N   UNL A   1      39.326  32.380  33.754  1.00  0.00    -0.248 NA
ATOM     59  C   UNL A   1      37.652  34.003  33.593  1.00  0.00     0.031 C 
ATOM     60  C   UNL A   1      42.114  31.989  37.188  1.00  0.00     0.029 A 
ATOM     61  C   UNL A   1      41.216  32.117  36.141  1.00  0.00     0.049 A 
ATOM     62  H   UNL A   1      41.007  30.920  34.415  1.00  0.00     0.167 HD
ATOM     63  C   UNL A   1      39.363  33.186  34.886  1.00  0.00     0.074 A 
ATOM     64  C   UNL A   1      38.327  34.186  34.721  1.00  0.00     0.031 C 
ATOM     65  C   UNL A   1      40.179  33.105  35.964  1.00  0.00     0.037 A 
BRANCH  52  66
ATOM     66  C   UNL A   1      44.151  28.370  35.786  1.00  0.00     0.058 A 
ATOM     67  C   UNL A   1      43.859  27.338  36.691  1.00  0.00     0.135 A 
ATOM     68  C   UNL A   1      45.503  28.636  35.513  1.00  0.00     0.135 A 
ATOM     69  F   UNL A   1      42.585  27.050  36.999  1.00  0.00    -0.206 F 
ATOM     70  C   UNL A   1      44.866  26.617  37.325  1.00  0.00     0.059 A 
ATOM     71  C   UNL A   1      46.528  27.910  36.114  1.00  0.00     0.059 A 
ATOM     72  F   UNL A   1      45.840  29.611  34.653  1.00  0.00    -0.206 F 
ATOM     73  C   UNL A   1      46.199  26.912  37.031  1.00  0.00     0.060 A 
BRANCH  73  74
ATOM     74  S   UNL A   1      47.494  25.964  37.857  1.00  0.00     0.124 S 
ATOM     75  O   UNL A   1      47.120  26.124  39.259  1.00  0.00    -0.237 OA
ATOM     76  O   UNL A   1      47.308  24.628  37.301  1.00  0.00    -0.237 OA
ATOM     77  O   UNL A   1      48.723  26.642  37.455  1.00  0.00    -0.744 OA
ENDBRANCH  73  74
ENDBRANCH  52  66
BRANCH  53  78
ATOM     78  C   UNL A   1      36.749  33.047  30.971  1.00  0.00     0.058 A 
ATOM     79  C   UNL A   1      35.429  32.872  31.408  1.00  0.00     0.135 A 
ATOM     80  C   UNL A   1      36.968  33.893  29.872  1.00  0.00     0.135 A 
ATOM     81  F   UNL A   1      35.168  32.068  32.450  1.00  0.00    -0.206 F 
ATOM     82  C   UNL A   1      34.361  33.502  30.775  1.00  0.00     0.059 A 
ATOM     83  C   UNL A   1      35.920  34.552  29.236  1.00  0.00     0.059 A 
ATOM     84  F   UNL A   1      38.215  34.106  29.424  1.00  0.00    -0.206 F 
ATOM     85  C   UNL A   1      34.618  34.343  29.691  1.00  0.00     0.060 A 
BRANCH  85  86
ATOM     86  S   UNL A   1      33.234  35.202  28.912  1.00  0.00     0.124 S 
ATOM     87  O   UNL A   1      32.452  35.612  30.073  1.00  0.00    -0.237 OA
ATOM     88  O   UNL A   1      33.907  36.273  28.185  1.00  0.00    -0.237 OA
ATOM     89  O   UNL A   1      32.629  34.171  28.074  1.00  0.00    -0.744 OA
ENDBRANCH  85  86
ENDBRANCH  53  78
BRANCH  65  90
ATOM     90  C   UNL A   1      40.001  34.131  37.048  1.00  0.00     0.058 A 
ATOM     91  C   UNL A   1      40.611  35.393  36.971  1.00  0.00     0.135 A 
ATOM     92  C   UNL A   1      39.163  33.873  38.144  1.00  0.00     0.135 A 
ATOM     93  F   UNL A   1      41.430  35.686  35.948  1.00  0.00    -0.206 F 
ATOM     94  C   UNL A   1      40.407  36.359  37.950  1.00  0.00     0.059 A 
ATOM     95  C   UNL A   1      38.925  34.834  39.122  1.00  0.00     0.059 A 
ATOM     96  F   UNL A   1      38.550  32.685  38.263  1.00  0.00    -0.206 F 
ATOM     97  C   UNL A   1      39.559  36.072  39.020  1.00  0.00     0.060 A 
BRANCH  97  98
ATOM     98  S   UNL A   1      39.264  37.353  40.258  1.00  0.00     0.124 S 
ATOM     99  O   UNL A   1      40.626  37.765  40.585  1.00  0.00    -0.237 OA
ATOM    100  O   UNL A   1      38.468  38.326  39.518  1.00  0.00    -0.237 OA
ATOM    101  O   UNL A   1      38.552  36.644  41.318  1.00  0.00    -0.744 OA
ENDBRANCH  97  98
ENDBRANCH  65  90
ENDBRANCH  39  40
ENDBRANCH  31  34
ENDBRANCH  29  30
ENDBRANCH  28  29
ENDBRANCH  27  28
ENDBRANCH  26  27
ENDBRANCH   1  26
TORSDOF 23
ENDMDL
MODEL 3
REMARK VINA RESULT:     -10.2      4.907     10.552
REMARK SMILES CCN(Cc1cccc(C)n1)C(=O)[C@@H]([NH3+])CC(=O)NCCCCCCNC(=O)c1ccc(-c2c3nc(c(-c4c(F)cc(S(=O)(=O)[O-])cc4F)c4ccc([nH]4)c(-c4c(F)cc(S(=O)(=O)[O-])cc4F)c4nc(c(-c5c(F)cc(S(=O)(=O)[O-])cc5F)c5ccc2[nH]5)C=C4)C=C3)cc1
REMARK SMILES IDX 21 1 20 2 19 3 17 4 18 5 16 7 14 8 12 9 13 10 3 11 2 12 1 13
REMARK SMILES IDX 4 14 5 15 6 16 11 17 7 18 9 19 8 20 10 21 15 22 22 26 23 27
REMARK SMILES IDX 24 28 25 29 26 30 27 31 28 33 29 34 30 35 94 36 31 37 93 38
REMARK SMILES IDX 32 39 33 40 34 41 87 42 35 43 92 44 86 45 88 46 36 47 91 48
REMARK SMILES IDX 85 49 84 50 37 52 71 53 50 54 70 55 51 56 54 57 69 58 89 59
REMARK SMILES IDX 52 60 53 61 68 63 90 64 55 65 38 66 39 67 48 68 40 69 41 70
REMARK SMILES IDX 47 71 49 72 42 73 43 74 44 75 45 76 46 77 72 78 73 79 82 80
REMARK SMILES IDX 74 81 75 82 81 83 83 84 76 85 77 86 78 87 79 88 80 89 56 90
REMARK SMILES IDX 57 91 66 92 58 93 59 94 65 95 67 96 60 97 61 98 62 99 63 100
REMARK SMILES IDX 64 101
REMARK H PARENT 19 6 15 23 15 24 15 25 26 32 88 51 54 62
REMARK Flexibility Score: inf
ROOT
ATOM      1  C   UNL A   1      32.553  26.721  23.410  1.00  0.00     0.021 C 
ENDROOT
BRANCH   1   2
ATOM      2  C   UNL A   1      31.282  25.924  23.113  1.00  0.00     0.116 C 
BRANCH   2   3
ATOM      3  N   UNL A   1      31.582  24.599  22.608  1.00  0.00    -0.356 N 
ATOM      4  C   UNL A   1      31.904  23.462  23.284  1.00  0.00     0.226 C 
ATOM      5  O   UNL A   1      32.136  22.440  22.635  1.00  0.00    -0.275 OA
ATOM      6  H   UNL A   1      31.549  24.507  21.628  1.00  0.00     0.163 HD
BRANCH   4   7
ATOM      7  C   UNL A   1      31.970  23.451  24.800  1.00  0.00     0.175 C 
BRANCH   7   8
ATOM      8  C   UNL A   1      31.581  22.084  25.363  1.00  0.00     0.280 C 
BRANCH   8   9
ATOM      9  C   UNL A   1      32.785  21.236  25.855  1.00  0.00     0.281 C 
ATOM     10  O   UNL A   1      33.186  21.457  27.006  1.00  0.00    -0.268 OA
BRANCH   9  11
ATOM     11  N   UNL A   1      33.392  20.263  25.064  1.00  0.00    -0.332 N 
BRANCH  11  12
ATOM     12  C   UNL A   1      32.537  19.310  24.334  1.00  0.00     0.116 C 
ATOM     13  C   UNL A   1      32.501  17.884  24.861  1.00  0.00     0.027 C 
ENDBRANCH  11  12
BRANCH  11  14
ATOM     14  C   UNL A   1      34.849  20.110  24.864  1.00  0.00     0.175 C 
BRANCH  14  15
ATOM     15  C   UNL A   1      35.700  21.381  24.827  1.00  0.00     0.060 A 
ATOM     16  C   UNL A   1      35.382  22.510  24.076  1.00  0.00     0.026 A 
ATOM     17  N   UNL A   1      36.841  21.337  25.565  1.00  0.00    -0.256 NA
ATOM     18  C   UNL A   1      36.226  23.618  24.099  1.00  0.00     0.004 A 
ATOM     19  C   UNL A   1      37.675  22.409  25.553  1.00  0.00     0.038 A 
ATOM     20  C   UNL A   1      37.394  23.568  24.844  1.00  0.00     0.023 A 
ATOM     21  C   UNL A   1      38.953  22.280  26.324  1.00  0.00     0.067 C 
ENDBRANCH  14  15
ENDBRANCH  11  14
ENDBRANCH   9  11
ENDBRANCH   8   9
BRANCH   8  22
ATOM     22  N   UNL A   1      30.564  22.170  26.439  1.00  0.00    -0.347 N 
ATOM     23  H   UNL A   1      30.079  21.277  26.520  1.00  0.00     0.345 HD
ATOM     24  H   UNL A   1      29.891  22.903  26.214  1.00  0.00     0.345 HD
ATOM     25  H   UNL A   1      31.022  22.390  27.324  1.00  0.00     0.345 HD
ENDBRANCH   8  22
ENDBRANCH   7   8
ENDBRANCH   4   7
ENDBRANCH   2   3
ENDBRANCH   1   2
BRANCH   1  26
ATOM     26  C   UNL A   1      32.330  28.230  23.495  1.00  0.00     0.002 C 
BRANCH  26  27
ATOM     27  C   UNL A   1      32.046  28.763  24.905  1.00  0.00     0.002 C 
BRANCH  27  28
ATOM     28  C   UNL A   1      32.490  27.866  26.068  1.00  0.00     0.021 C 
BRANCH  28  29
ATOM     29  C   UNL A   1      33.742  28.328  26.813  1.00  0.00     0.116 C 
BRANCH  29  30
ATOM     30  N   UNL A   1      33.622  29.700  27.277  1.00  0.00    -0.352 N 
ATOM     31  C   UNL A   1      34.479  30.457  28.038  1.00  0.00     0.251 C 
ATOM     32  H   UNL A   1      32.796  30.161  27.002  1.00  0.00     0.163 HD
ATOM     33  O   UNL A   1      34.089  31.518  28.515  1.00  0.00    -0.269 OA
BRANCH  31  34
ATOM     34  C   UNL A   1      35.861  29.996  28.297  1.00  0.00     0.039 A 
ATOM     35  C   UNL A   1      36.799  30.064  27.262  1.00  0.00     0.014 A 
ATOM     36  C   UNL A   1      36.226  29.465  29.537  1.00  0.00     0.014 A 
ATOM     37  C   UNL A   1      38.120  29.667  27.493  1.00  0.00     0.010 A 
ATOM     38  C   UNL A   1      37.556  29.126  29.784  1.00  0.00     0.010 A 
ATOM     39  C   UNL A   1      38.517  29.230  28.767  1.00  0.00    -0.014 A 
BRANCH  39  40
ATOM     40  C   UNL A   1      39.938  28.908  29.063  1.00  0.00     0.031 A 
ATOM     41  C   UNL A   1      40.853  29.952  29.640  1.00  0.00     0.074 A 
ATOM     42  C   UNL A   1      40.422  27.693  28.737  1.00  0.00     0.049 A 
ATOM     43  N   UNL A   1      42.137  29.883  29.879  1.00  0.00    -0.248 NA
ATOM     44  C   UNL A   1      40.250  31.252  29.976  1.00  0.00     0.031 C 
ATOM     45  C   UNL A   1      39.643  26.608  28.133  1.00  0.00     0.029 A 
ATOM     46  N   UNL A   1      41.685  27.168  28.850  1.00  0.00    -0.354 N 
ATOM     47  C   UNL A   1      42.500  31.129  30.377  1.00  0.00     0.074 A 
ATOM     48  C   UNL A   1      41.307  31.949  30.367  1.00  0.00     0.031 C 
ATOM     49  C   UNL A   1      40.443  25.546  27.940  1.00  0.00     0.029 A 
ATOM     50  C   UNL A   1      41.796  25.885  28.367  1.00  0.00     0.049 A 
ATOM     51  H   UNL A   1      42.441  27.664  29.240  1.00  0.00     0.167 HD
ATOM     52  C   UNL A   1      43.712  31.545  30.817  1.00  0.00     0.037 A 
ATOM     53  C   UNL A   1      42.870  25.078  28.262  1.00  0.00     0.037 A 
ATOM     54  C   UNL A   1      44.891  30.717  30.843  1.00  0.00     0.049 A 
ATOM     55  C   UNL A   1      44.209  25.568  28.742  1.00  0.00     0.074 A 
ATOM     56  C   UNL A   1      46.148  31.025  31.333  1.00  0.00     0.029 A 
ATOM     57  N   UNL A   1      44.961  29.421  30.354  1.00  0.00    -0.354 N 
ATOM     58  N   UNL A   1      44.518  26.728  29.272  1.00  0.00    -0.248 NA
ATOM     59  C   UNL A   1      45.343  24.644  28.609  1.00  0.00     0.031 C 
ATOM     60  C   UNL A   1      46.990  29.934  31.097  1.00  0.00     0.029 A 
ATOM     61  C   UNL A   1      46.247  28.927  30.503  1.00  0.00     0.049 A 
ATOM     62  H   UNL A   1      44.208  28.925  29.958  1.00  0.00     0.167 HD
ATOM     63  C   UNL A   1      45.878  26.666  29.552  1.00  0.00     0.074 A 
ATOM     64  C   UNL A   1      46.329  25.350  29.147  1.00  0.00     0.031 C 
ATOM     65  C   UNL A   1      46.682  27.614  30.094  1.00  0.00     0.037 A 
BRANCH  52  66
ATOM     66  C   UNL A   1      43.827  32.961  31.313  1.00  0.00     0.058 A 
ATOM     67  C   UNL A   1      43.729  33.274  32.677  1.00  0.00     0.135 A 
ATOM     68  C   UNL A   1      44.083  34.013  30.418  1.00  0.00     0.135 A 
ATOM     69  F   UNL A   1      43.474  32.310  33.576  1.00  0.00    -0.206 F 
ATOM     70  C   UNL A   1      43.850  34.583  33.135  1.00  0.00     0.059 A 
ATOM     71  C   UNL A   1      44.234  35.326  30.855  1.00  0.00     0.059 A 
ATOM     72  F   UNL A   1      44.188  33.770  29.102  1.00  0.00    -0.206 F 
ATOM     73  C   UNL A   1      44.100  35.602  32.215  1.00  0.00     0.060 A 
BRANCH  73  74
ATOM     74  S   UNL A   1      44.260  37.293  32.826  1.00  0.00     0.124 S 
ATOM     75  O   UNL A   1      45.531  37.226  33.539  1.00  0.00    -0.237 OA
ATOM     76  O   UNL A   1      44.267  38.073  31.592  1.00  0.00    -0.237 OA
ATOM     77  O   UNL A   1      43.078  37.466  33.666  1.00  0.00    -0.744 OA
ENDBRANCH  73  74
ENDBRANCH  52  66
BRANCH  53  78
ATOM     78  C   UNL A   1      42.718  23.717  27.682  1.00  0.00     0.058 A 
ATOM     79  C   UNL A   1      42.810  23.508  26.299  1.00  0.00     0.135 A 
ATOM     80  C   UNL A   1      42.499  22.597  28.500  1.00  0.00     0.135 A 
ATOM     81  F   UNL A   1      43.011  24.548  25.476  1.00  0.00    -0.206 F 
ATOM     82  C   UNL A   1      42.678  22.239  25.743  1.00  0.00     0.059 A 
ATOM     83  C   UNL A   1      42.388  21.316  27.971  1.00  0.00     0.059 A 
ATOM     84  F   UNL A   1      42.420  22.741  29.833  1.00  0.00    -0.206 F 
ATOM     85  C   UNL A   1      42.471  21.148  26.589  1.00  0.00     0.060 A 
BRANCH  85  86
ATOM     86  S   UNL A   1      42.361  19.498  25.864  1.00  0.00     0.124 S 
ATOM     87  O   UNL A   1      40.971  19.464  25.421  1.00  0.00    -0.237 OA
ATOM     88  O   UNL A   1      43.367  19.559  24.807  1.00  0.00    -0.237 OA
ATOM     89  O   UNL A   1      42.691  18.619  26.981  1.00  0.00    -0.744 OA
ENDBRANCH  85  86
ENDBRANCH  53  78
BRANCH  65  90
ATOM     90  C   UNL A   1      48.129  27.262  30.298  1.00  0.00     0.058 A 
ATOM     91  C   UNL A   1      49.112  27.631  29.365  1.00  0.00     0.135 A 
ATOM     92  C   UNL A   1      48.546  26.606  31.467  1.00  0.00     0.135 A 
ATOM     93  F   UNL A   1      48.763  28.251  28.227  1.00  0.00    -0.206 F 
ATOM     94  C   UNL A   1      50.456  27.348  29.578  1.00  0.00     0.059 A 
ATOM     95  C   UNL A   1      49.889  26.336  31.711  1.00  0.00     0.059 A 
ATOM     96  F   UNL A   1      47.648  26.239  32.394  1.00  0.00    -0.206 F 
ATOM     97  C   UNL A   1      50.836  26.703  30.756  1.00  0.00     0.060 A 
BRANCH  97  98
ATOM     98  S   UNL A   1      52.591  26.386  31.042  1.00  0.00     0.124 S 
ATOM     99  O   UNL A   1      52.545  25.143  31.805  1.00  0.00    -0.237 OA
ATOM    100  O   UNL A   1      53.114  26.278  29.684  1.00  0.00    -0.237 OA
ATOM    101  O   UNL A   1      53.032  27.563  31.786  1.00  0.00    -0.744 OA
ENDBRANCH  97  98
ENDBRANCH  65  90
ENDBRANCH  39  40
ENDBRANCH  31  34
ENDBRANCH  29  30
ENDBRANCH  28  29
ENDBRANCH  27  28
ENDBRANCH  26  27
ENDBRANCH   1  26
TORSDOF 23
ENDMDL
