MODEL 1
REMARK VINA RESULT:     -10.7      0.000      0.000
REMARK SMILES Cc1cccc(Cl)c1Nc1ccccc1CC(=O)NCCCCCCNC(=O)c1ccc(-c2c3nc(c(-c4c(F)cc(S(=O)(=O)[O-])cc4F)c4ccc([nH]4)c(-c4c(F)cc(S(=O)(=O)[O-])cc4F)c4nc(c(-c5c(F)cc(S(=O)(=O)[O-])cc5F)c5ccc2[nH]5)C=C4)C=C3)cc1
REMARK SMILES IDX 22 1 21 2 20 3 19 4 17 5 18 6 16 8 15 9 10 10 11 11 12 12
REMARK SMILES IDX 14 13 13 14 9 15 8 17 1 18 2 19 3 20 4 21 6 22 5 23 7 24
REMARK SMILES IDX 23 25 24 26 25 27 26 28 27 29 28 31 29 32 30 33 94 34 31 35
REMARK SMILES IDX 93 36 32 37 33 38 34 39 87 40 35 41 92 42 86 43 88 44 36 45
REMARK SMILES IDX 91 46 85 47 84 48 37 50 71 51 50 52 70 53 51 54 54 55 69 56
REMARK SMILES IDX 89 57 52 58 53 59 68 61 90 62 55 63 38 64 39 65 48 66 40 67
REMARK SMILES IDX 41 68 47 69 49 70 42 71 43 72 44 73 45 74 46 75 72 76 73 77
REMARK SMILES IDX 82 78 74 79 75 80 81 81 83 82 76 83 77 84 78 85 79 86 80 87
REMARK SMILES IDX 56 88 57 89 66 90 58 91 59 92 65 93 67 94 60 95 61 96 62 97
REMARK SMILES IDX 63 98 64 99
REMARK H PARENT 19 7 9 16 26 30 88 49 54 60
REMARK Flexibility Score: inf
ROOT
ATOM      1  C   UNL A   1      33.184  23.525  23.345  1.00  0.00     0.002 C 
ENDROOT
BRANCH   1   2
ATOM      2  C   UNL A   1      31.815  22.975  23.763  1.00  0.00     0.021 C 
BRANCH   2   3
ATOM      3  C   UNL A   1      31.620  22.915  25.278  1.00  0.00     0.116 C 
BRANCH   3   4
ATOM      4  N   UNL A   1      30.424  23.632  25.674  1.00  0.00    -0.356 N 
ATOM      5  C   UNL A   1      30.311  24.942  26.045  1.00  0.00     0.224 C 
ATOM      6  O   UNL A   1      29.232  25.334  26.496  1.00  0.00    -0.275 OA
ATOM      7  H   UNL A   1      29.590  23.110  25.676  1.00  0.00     0.163 HD
BRANCH   5   8
ATOM      8  C   UNL A   1      31.478  25.890  25.832  1.00  0.00     0.137 C 
BRANCH   8   9
ATOM      9  C   UNL A   1      31.245  26.960  24.784  1.00  0.00    -0.015 A 
ATOM     10  C   UNL A   1      31.288  28.343  25.068  1.00  0.00     0.042 A 
ATOM     11  C   UNL A   1      30.957  29.250  24.044  1.00  0.00     0.026 A 
ATOM     12  C   UNL A   1      30.626  28.815  22.762  1.00  0.00     0.002 A 
ATOM     13  C   UNL A   1      30.936  26.538  23.474  1.00  0.00     0.006 A 
ATOM     14  C   UNL A   1      30.628  27.457  22.473  1.00  0.00     0.000 A 
BRANCH  10  15
ATOM     15  N   UNL A   1      31.686  28.898  26.302  1.00  0.00    -0.354 N 
ATOM     16  H   UNL A   1      31.004  28.822  27.007  1.00  0.00     0.167 HD
BRANCH  15  17
ATOM     17  C   UNL A   1      32.872  29.544  26.728  1.00  0.00     0.060 A 
ATOM     18  C   UNL A   1      31.532  31.724  26.871  1.00  0.00     0.046 C 
ATOM     19  C   UNL A   1      32.803  30.929  27.043  1.00  0.00    -0.026 A 
ATOM     20  C   UNL A   1      33.929  31.592  27.565  1.00  0.00     0.005 A 
ATOM     21  C   UNL A   1      35.124  30.912  27.774  1.00  0.00     0.002 A 
ATOM     22  C   UNL A   1      34.108  28.885  26.921  1.00  0.00     0.064 A 
ATOM     23  C   UNL A   1      35.215  29.565  27.445  1.00  0.00     0.023 A 
ATOM     24  Cl  UNL A   1      34.397  27.247  26.432  1.00  0.00    -0.082 Cl
ENDBRANCH  15  17
ENDBRANCH  10  15
ENDBRANCH   8   9
ENDBRANCH   5   8
ENDBRANCH   3   4
ENDBRANCH   2   3
ENDBRANCH   1   2
BRANCH   1  25
ATOM     25  C   UNL A   1      34.348  23.099  24.244  1.00  0.00     0.002 C 
BRANCH  25  26
ATOM     26  C   UNL A   1      35.378  24.197  24.528  1.00  0.00     0.021 C 
BRANCH  26  27
ATOM     27  C   UNL A   1      36.062  24.085  25.889  1.00  0.00     0.116 C 
BRANCH  27  28
ATOM     28  N   UNL A   1      36.917  22.909  25.968  1.00  0.00    -0.352 N 
ATOM     29  C   UNL A   1      38.259  22.826  26.217  1.00  0.00     0.251 C 
ATOM     30  H   UNL A   1      36.462  22.048  25.820  1.00  0.00     0.163 HD
ATOM     31  O   UNL A   1      38.851  21.760  26.021  1.00  0.00    -0.269 OA
BRANCH  29  32
ATOM     32  C   UNL A   1      39.004  24.004  26.705  1.00  0.00     0.039 A 
ATOM     33  C   UNL A   1      39.737  24.767  25.794  1.00  0.00     0.014 A 
ATOM     34  C   UNL A   1      39.004  24.343  28.063  1.00  0.00     0.014 A 
ATOM     35  C   UNL A   1      40.429  25.897  26.235  1.00  0.00     0.010 A 
ATOM     36  C   UNL A   1      39.637  25.508  28.488  1.00  0.00     0.010 A 
ATOM     37  C   UNL A   1      40.363  26.292  27.580  1.00  0.00    -0.014 A 
BRANCH  37  38
ATOM     38  C   UNL A   1      41.049  27.525  28.046  1.00  0.00     0.031 A 
ATOM     39  C   UNL A   1      42.547  27.643  27.962  1.00  0.00     0.074 A 
ATOM     40  C   UNL A   1      40.321  28.521  28.589  1.00  0.00     0.049 A 
ATOM     41  N   UNL A   1      43.319  28.631  28.336  1.00  0.00    -0.248 NA
ATOM     42  C   UNL A   1      43.276  26.490  27.410  1.00  0.00     0.031 C 
ATOM     43  C   UNL A   1      38.869  28.498  28.781  1.00  0.00     0.029 A 
ATOM     44  N   UNL A   1      40.701  29.742  29.084  1.00  0.00    -0.354 N 
ATOM     45  C   UNL A   1      44.620  28.217  28.076  1.00  0.00     0.074 A 
ATOM     46  C   UNL A   1      44.538  26.866  27.564  1.00  0.00     0.031 C 
ATOM     47  C   UNL A   1      38.479  29.661  29.327  1.00  0.00     0.029 A 
ATOM     48  C   UNL A   1      39.653  30.498  29.555  1.00  0.00     0.049 A 
ATOM     49  H   UNL A   1      41.636  30.051  29.101  1.00  0.00     0.167 HD
ATOM     50  C   UNL A   1      45.776  28.907  28.229  1.00  0.00     0.037 A 
ATOM     51  C   UNL A   1      39.638  31.726  30.106  1.00  0.00     0.037 A 
ATOM     52  C   UNL A   1      45.848  30.261  28.717  1.00  0.00     0.049 A 
ATOM     53  C   UNL A   1      40.931  32.482  30.245  1.00  0.00     0.074 A 
ATOM     54  C   UNL A   1      46.962  31.072  28.845  1.00  0.00     0.029 A 
ATOM     55  N   UNL A   1      44.761  31.003  29.159  1.00  0.00    -0.354 N 
ATOM     56  N   UNL A   1      42.146  32.102  29.924  1.00  0.00    -0.248 NA
ATOM     57  C   UNL A   1      40.851  33.837  30.807  1.00  0.00     0.031 C 
ATOM     58  C   UNL A   1      46.557  32.288  29.408  1.00  0.00     0.029 A 
ATOM     59  C   UNL A   1      45.182  32.254  29.581  1.00  0.00     0.049 A 
ATOM     60  H   UNL A   1      43.830  30.687  29.171  1.00  0.00     0.167 HD
ATOM     61  C   UNL A   1      42.972  33.179  30.225  1.00  0.00     0.074 A 
ATOM     62  C   UNL A   1      42.115  34.231  30.735  1.00  0.00     0.031 C 
ATOM     63  C   UNL A   1      44.317  33.289  30.091  1.00  0.00     0.037 A 
BRANCH  50  64
ATOM     64  C   UNL A   1      47.059  28.212  27.859  1.00  0.00     0.058 A 
ATOM     65  C   UNL A   1      47.787  27.459  28.794  1.00  0.00     0.135 A 
ATOM     66  C   UNL A   1      47.552  28.275  26.546  1.00  0.00     0.135 A 
ATOM     67  F   UNL A   1      47.370  27.376  30.068  1.00  0.00    -0.206 F 
ATOM     68  C   UNL A   1      48.973  26.817  28.448  1.00  0.00     0.059 A 
ATOM     69  C   UNL A   1      48.720  27.617  26.170  1.00  0.00     0.059 A 
ATOM     70  F   UNL A   1      46.898  28.982  25.611  1.00  0.00    -0.206 F 
ATOM     71  C   UNL A   1      49.432  26.903  27.133  1.00  0.00     0.060 A 
BRANCH  71  72
ATOM     72  S   UNL A   1      50.970  26.063  26.701  1.00  0.00     0.124 S 
ATOM     73  O   UNL A   1      50.766  24.752  27.309  1.00  0.00    -0.237 OA
ATOM     74  O   UNL A   1      50.945  26.096  25.242  1.00  0.00    -0.237 OA
ATOM     75  O   UNL A   1      51.997  26.892  27.324  1.00  0.00    -0.744 OA
ENDBRANCH  71  72
ENDBRANCH  50  64
BRANCH  51  76
ATOM     76  C   UNL A   1      38.349  32.326  30.543  1.00  0.00     0.058 A 
ATOM     77  C   UNL A   1      37.597  33.133  29.677  1.00  0.00     0.135 A 
ATOM     78  C   UNL A   1      37.834  32.087  31.826  1.00  0.00     0.135 A 
ATOM     79  F   UNL A   1      38.050  33.393  28.440  1.00  0.00    -0.206 F 
ATOM     80  C   UNL A   1      36.387  33.695  30.070  1.00  0.00     0.059 A 
ATOM     81  C   UNL A   1      36.614  32.616  32.235  1.00  0.00     0.059 A 
ATOM     82  F   UNL A   1      38.506  31.306  32.686  1.00  0.00    -0.206 F 
ATOM     83  C   UNL A   1      35.902  33.427  31.352  1.00  0.00     0.060 A 
BRANCH  83  84
ATOM     84  S   UNL A   1      34.303  34.115  31.836  1.00  0.00     0.124 S 
ATOM     85  O   UNL A   1      33.786  33.070  32.710  1.00  0.00    -0.237 OA
ATOM     86  O   UNL A   1      34.690  35.362  32.487  1.00  0.00    -0.237 OA
ATOM     87  O   UNL A   1      33.609  34.273  30.560  1.00  0.00    -0.744 OA
ENDBRANCH  83  84
ENDBRANCH  51  76
BRANCH  63  88
ATOM     88  C   UNL A   1      44.942  34.601  30.480  1.00  0.00     0.058 A 
ATOM     89  C   UNL A   1      45.449  34.824  31.770  1.00  0.00     0.135 A 
ATOM     90  C   UNL A   1      45.056  35.640  29.542  1.00  0.00     0.135 A 
ATOM     91  F   UNL A   1      45.360  33.866  32.706  1.00  0.00    -0.206 F 
ATOM     92  C   UNL A   1      46.016  36.043  32.127  1.00  0.00     0.059 A 
ATOM     93  C   UNL A   1      45.646  36.857  29.869  1.00  0.00     0.059 A 
ATOM     94  F   UNL A   1      44.599  35.476  28.291  1.00  0.00    -0.206 F 
ATOM     95  C   UNL A   1      46.107  37.055  31.170  1.00  0.00     0.060 A 
BRANCH  95  96
ATOM     96  S   UNL A   1      46.851  38.630  31.642  1.00  0.00     0.124 S 
ATOM     97  O   UNL A   1      45.669  39.456  31.869  1.00  0.00    -0.237 OA
ATOM     98  O   UNL A   1      47.612  38.272  32.835  1.00  0.00    -0.237 OA
ATOM     99  O   UNL A   1      47.654  38.990  30.478  1.00  0.00    -0.744 OA
ENDBRANCH  95  96
ENDBRANCH  63  88
ENDBRANCH  37  38
ENDBRANCH  29  32
ENDBRANCH  27  28
ENDBRANCH  26  27
ENDBRANCH  25  26
ENDBRANCH   1  25
TORSDOF 19
ENDMDL
MODEL 2
REMARK VINA RESULT:     -10.6      3.229      9.502
REMARK SMILES Cc1cccc(Cl)c1Nc1ccccc1CC(=O)NCCCCCCNC(=O)c1ccc(-c2c3nc(c(-c4c(F)cc(S(=O)(=O)[O-])cc4F)c4ccc([nH]4)c(-c4c(F)cc(S(=O)(=O)[O-])cc4F)c4nc(c(-c5c(F)cc(S(=O)(=O)[O-])cc5F)c5ccc2[nH]5)C=C4)C=C3)cc1
REMARK SMILES IDX 22 1 21 2 20 3 19 4 17 5 18 6 16 8 15 9 10 10 11 11 12 12
REMARK SMILES IDX 14 13 13 14 9 15 8 17 1 18 2 19 3 20 4 21 6 22 5 23 7 24
REMARK SMILES IDX 23 25 24 26 25 27 26 28 27 29 28 31 29 32 30 33 94 34 31 35
REMARK SMILES IDX 93 36 32 37 33 38 34 39 87 40 35 41 92 42 86 43 88 44 36 45
REMARK SMILES IDX 91 46 85 47 84 48 37 50 71 51 50 52 70 53 51 54 54 55 69 56
REMARK SMILES IDX 89 57 52 58 53 59 68 61 90 62 55 63 38 64 39 65 48 66 40 67
REMARK SMILES IDX 41 68 47 69 49 70 42 71 43 72 44 73 45 74 46 75 72 76 73 77
REMARK SMILES IDX 82 78 74 79 75 80 81 81 83 82 76 83 77 84 78 85 79 86 80 87
REMARK SMILES IDX 56 88 57 89 66 90 58 91 59 92 65 93 67 94 60 95 61 96 62 97
REMARK SMILES IDX 63 98 64 99
REMARK H PARENT 19 7 9 16 26 30 88 49 54 60
REMARK Flexibility Score: inf
ROOT
ATOM      1  C   UNL A   1      33.054  29.308  24.846  1.00  0.00     0.002 C 
ENDROOT
BRANCH   1   2
ATOM      2  C   UNL A   1      32.555  28.627  23.565  1.00  0.00     0.021 C 
BRANCH   2   3
ATOM      3  C   UNL A   1      33.683  28.111  22.671  1.00  0.00     0.116 C 
BRANCH   3   4
ATOM      4  N   UNL A   1      33.294  26.883  22.007  1.00  0.00    -0.356 N 
ATOM      5  C   UNL A   1      33.567  25.598  22.382  1.00  0.00     0.224 C 
ATOM      6  O   UNL A   1      33.282  24.684  21.605  1.00  0.00    -0.275 OA
ATOM      7  H   UNL A   1      32.767  26.987  21.182  1.00  0.00     0.163 HD
BRANCH   5   8
ATOM      8  C   UNL A   1      34.146  25.322  23.760  1.00  0.00     0.137 C 
BRANCH   8   9
ATOM      9  C   UNL A   1      33.139  24.847  24.788  1.00  0.00    -0.015 A 
ATOM     10  C   UNL A   1      33.472  23.982  25.855  1.00  0.00     0.042 A 
ATOM     11  C   UNL A   1      32.441  23.521  26.694  1.00  0.00     0.026 A 
ATOM     12  C   UNL A   1      31.119  23.925  26.515  1.00  0.00     0.002 A 
ATOM     13  C   UNL A   1      31.801  25.268  24.639  1.00  0.00     0.006 A 
ATOM     14  C   UNL A   1      30.800  24.810  25.494  1.00  0.00     0.000 A 
BRANCH  10  15
ATOM     15  N   UNL A   1      34.783  23.574  26.178  1.00  0.00    -0.354 N 
ATOM     16  H   UNL A   1      35.201  24.114  26.887  1.00  0.00     0.167 HD
BRANCH  15  17
ATOM     17  C   UNL A   1      35.618  22.542  25.685  1.00  0.00     0.060 A 
ATOM     18  C   UNL A   1      37.618  24.103  26.048  1.00  0.00     0.046 C 
ATOM     19  C   UNL A   1      37.020  22.778  25.645  1.00  0.00    -0.026 A 
ATOM     20  C   UNL A   1      37.899  21.749  25.258  1.00  0.00     0.005 A 
ATOM     21  C   UNL A   1      37.415  20.495  24.899  1.00  0.00     0.002 A 
ATOM     22  C   UNL A   1      35.152  21.268  25.285  1.00  0.00     0.064 A 
ATOM     23  C   UNL A   1      36.046  20.259  24.906  1.00  0.00     0.023 A 
ATOM     24  Cl  UNL A   1      33.471  20.881  25.122  1.00  0.00    -0.082 Cl
ENDBRANCH  15  17
ENDBRANCH  10  15
ENDBRANCH   8   9
ENDBRANCH   5   8
ENDBRANCH   3   4
ENDBRANCH   2   3
ENDBRANCH   1   2
BRANCH   1  25
ATOM     25  C   UNL A   1      33.829  28.392  25.799  1.00  0.00     0.002 C 
BRANCH  25  26
ATOM     26  C   UNL A   1      33.919  28.893  27.243  1.00  0.00     0.021 C 
BRANCH  26  27
ATOM     27  C   UNL A   1      35.316  29.336  27.672  1.00  0.00     0.116 C 
BRANCH  27  28
ATOM     28  N   UNL A   1      35.297  29.996  28.970  1.00  0.00    -0.352 N 
ATOM     29  C   UNL A   1      36.310  30.163  29.874  1.00  0.00     0.251 C 
ATOM     30  H   UNL A   1      34.429  30.377  29.235  1.00  0.00     0.163 HD
ATOM     31  O   UNL A   1      36.049  30.550  31.017  1.00  0.00    -0.269 OA
BRANCH  29  32
ATOM     32  C   UNL A   1      37.707  29.871  29.495  1.00  0.00     0.039 A 
ATOM     33  C   UNL A   1      38.627  29.549  30.495  1.00  0.00     0.014 A 
ATOM     34  C   UNL A   1      38.119  29.939  28.159  1.00  0.00     0.014 A 
ATOM     35  C   UNL A   1      39.947  29.250  30.152  1.00  0.00     0.010 A 
ATOM     36  C   UNL A   1      39.417  29.572  27.813  1.00  0.00     0.010 A 
ATOM     37  C   UNL A   1      40.346  29.232  28.806  1.00  0.00    -0.014 A 
BRANCH  37  38
ATOM     38  C   UNL A   1      41.733  28.856  28.429  1.00  0.00     0.031 A 
ATOM     39  C   UNL A   1      42.817  29.899  28.372  1.00  0.00     0.074 A 
ATOM     40  C   UNL A   1      42.004  27.580  28.091  1.00  0.00     0.049 A 
ATOM     41  N   UNL A   1      44.077  29.762  28.046  1.00  0.00    -0.248 NA
ATOM     42  C   UNL A   1      42.431  31.280  28.698  1.00  0.00     0.031 C 
ATOM     43  C   UNL A   1      41.024  26.492  28.049  1.00  0.00     0.029 A 
ATOM     44  N   UNL A   1      43.179  26.981  27.715  1.00  0.00    -0.354 N 
ATOM     45  C   UNL A   1      44.629  31.036  28.116  1.00  0.00     0.074 A 
ATOM     46  C   UNL A   1      43.555  31.941  28.462  1.00  0.00     0.031 C 
ATOM     47  C   UNL A   1      41.644  25.355  27.695  1.00  0.00     0.029 A 
ATOM     48  C   UNL A   1      43.055  25.637  27.453  1.00  0.00     0.049 A 
ATOM     49  H   UNL A   1      44.032  27.467  27.641  1.00  0.00     0.167 HD
ATOM     50  C   UNL A   1      45.917  31.413  27.932  1.00  0.00     0.037 A 
ATOM     51  C   UNL A   1      43.975  24.733  27.062  1.00  0.00     0.037 A 
ATOM     52  C   UNL A   1      46.986  30.501  27.611  1.00  0.00     0.049 A 
ATOM     53  C   UNL A   1      45.402  25.171  26.886  1.00  0.00     0.074 A 
ATOM     54  C   UNL A   1      48.336  30.773  27.469  1.00  0.00     0.029 A 
ATOM     55  N   UNL A   1      46.826  29.142  27.379  1.00  0.00    -0.354 N 
ATOM     56  N   UNL A   1      45.921  26.368  27.030  1.00  0.00    -0.248 NA
ATOM     57  C   UNL A   1      46.372  24.135  26.507  1.00  0.00     0.031 C 
ATOM     58  C   UNL A   1      48.985  29.587  27.107  1.00  0.00     0.029 A 
ATOM     59  C   UNL A   1      48.048  28.566  27.074  1.00  0.00     0.049 A 
ATOM     60  H   UNL A   1      45.970  28.659  27.424  1.00  0.00     0.167 HD
ATOM     61  C   UNL A   1      47.281  26.225  26.781  1.00  0.00     0.074 A 
ATOM     62  C   UNL A   1      47.507  24.822  26.497  1.00  0.00     0.031 C 
ATOM     63  C   UNL A   1      48.256  27.168  26.788  1.00  0.00     0.037 A 
BRANCH  50  64
ATOM     64  C   UNL A   1      46.245  32.874  28.078  1.00  0.00     0.058 A 
ATOM     65  C   UNL A   1      46.128  33.769  27.002  1.00  0.00     0.135 A 
ATOM     66  C   UNL A   1      46.653  33.394  29.317  1.00  0.00     0.135 A 
ATOM     67  F   UNL A   1      45.756  33.325  25.791  1.00  0.00    -0.206 F 
ATOM     68  C   UNL A   1      46.431  35.120  27.141  1.00  0.00     0.059 A 
ATOM     69  C   UNL A   1      46.934  34.747  29.487  1.00  0.00     0.059 A 
ATOM     70  F   UNL A   1      46.783  32.585  30.380  1.00  0.00    -0.206 F 
ATOM     71  C   UNL A   1      46.835  35.600  28.388  1.00  0.00     0.060 A 
BRANCH  71  72
ATOM     72  S   UNL A   1      47.222  37.355  28.553  1.00  0.00     0.124 S 
ATOM     73  O   UNL A   1      48.464  37.452  27.792  1.00  0.00    -0.237 OA
ATOM     74  O   UNL A   1      46.056  37.991  27.948  1.00  0.00    -0.237 OA
ATOM     75  O   UNL A   1      47.354  37.541  29.995  1.00  0.00    -0.744 OA
ENDBRANCH  71  72
ENDBRANCH  50  64
BRANCH  51  76
ATOM     76  C   UNL A   1      43.573  23.319  26.838  1.00  0.00     0.058 A 
ATOM     77  C   UNL A   1      43.248  22.481  27.915  1.00  0.00     0.135 A 
ATOM     78  C   UNL A   1      43.485  22.784  25.544  1.00  0.00     0.135 A 
ATOM     79  F   UNL A   1      43.320  22.946  29.172  1.00  0.00    -0.206 F 
ATOM     80  C   UNL A   1      42.865  21.157  27.720  1.00  0.00     0.059 A 
ATOM     81  C   UNL A   1      43.081  21.472  25.321  1.00  0.00     0.059 A 
ATOM     82  F   UNL A   1      43.768  23.550  24.479  1.00  0.00    -0.206 F 
ATOM     83  C   UNL A   1      42.781  20.663  26.416  1.00  0.00     0.060 A 
BRANCH  83  84
ATOM     84  S   UNL A   1      42.230  18.961  26.169  1.00  0.00     0.124 S 
ATOM     85  O   UNL A   1      42.511  18.369  27.471  1.00  0.00    -0.237 OA
ATOM     86  O   UNL A   1      40.820  19.140  25.838  1.00  0.00    -0.237 OA
ATOM     87  O   UNL A   1      43.070  18.495  25.068  1.00  0.00    -0.744 OA
ENDBRANCH  83  84
ENDBRANCH  51  76
BRANCH  63  88
ATOM     88  C   UNL A   1      49.660  26.708  26.503  1.00  0.00     0.058 A 
ATOM     89  C   UNL A   1      50.136  26.563  25.190  1.00  0.00     0.135 A 
ATOM     90  C   UNL A   1      50.546  26.432  27.557  1.00  0.00     0.135 A 
ATOM     91  F   UNL A   1      49.329  26.808  24.147  1.00  0.00    -0.206 F 
ATOM     92  C   UNL A   1      51.432  26.126  24.932  1.00  0.00     0.059 A 
ATOM     93  C   UNL A   1      51.855  26.023  27.321  1.00  0.00     0.059 A 
ATOM     94  F   UNL A   1      50.146  26.567  28.830  1.00  0.00    -0.206 F 
ATOM     95  C   UNL A   1      52.283  25.856  26.005  1.00  0.00     0.060 A 
BRANCH  95  96
ATOM     96  S   UNL A   1      53.964  25.298  25.659  1.00  0.00     0.124 S 
ATOM     97  O   UNL A   1      53.738  24.340  24.581  1.00  0.00    -0.237 OA
ATOM     98  O   UNL A   1      54.633  26.537  25.276  1.00  0.00    -0.237 OA
ATOM     99  O   UNL A   1      54.400  24.723  26.927  1.00  0.00    -0.744 OA
ENDBRANCH  95  96
ENDBRANCH  63  88
ENDBRANCH  37  38
ENDBRANCH  29  32
ENDBRANCH  27  28
ENDBRANCH  26  27
ENDBRANCH  25  26
ENDBRANCH   1  25
TORSDOF 19
ENDMDL
MODEL 3
REMARK VINA RESULT:     -10.6      3.103      9.195
REMARK SMILES Cc1cccc(Cl)c1Nc1ccccc1CC(=O)NCCCCCCNC(=O)c1ccc(-c2c3nc(c(-c4c(F)cc(S(=O)(=O)[O-])cc4F)c4ccc([nH]4)c(-c4c(F)cc(S(=O)(=O)[O-])cc4F)c4nc(c(-c5c(F)cc(S(=O)(=O)[O-])cc5F)c5ccc2[nH]5)C=C4)C=C3)cc1
REMARK SMILES IDX 22 1 21 2 20 3 19 4 17 5 18 6 16 8 15 9 10 10 11 11 12 12
REMARK SMILES IDX 14 13 13 14 9 15 8 17 1 18 2 19 3 20 4 21 6 22 5 23 7 24
REMARK SMILES IDX 23 25 24 26 25 27 26 28 27 29 28 31 29 32 30 33 94 34 31 35
REMARK SMILES IDX 93 36 32 37 33 38 34 39 87 40 35 41 92 42 86 43 88 44 36 45
REMARK SMILES IDX 91 46 85 47 84 48 37 50 71 51 50 52 70 53 51 54 54 55 69 56
REMARK SMILES IDX 89 57 52 58 53 59 68 61 90 62 55 63 38 64 39 65 48 66 40 67
REMARK SMILES IDX 41 68 47 69 49 70 42 71 43 72 44 73 45 74 46 75 72 76 73 77
REMARK SMILES IDX 82 78 74 79 75 80 81 81 83 82 76 83 77 84 78 85 79 86 80 87
REMARK SMILES IDX 56 88 57 89 66 90 58 91 59 92 65 93 67 94 60 95 61 96 62 97
REMARK SMILES IDX 63 98 64 99
REMARK H PARENT 19 7 9 16 26 30 88 49 54 60
REMARK Flexibility Score: inf
ROOT
ATOM      1  C   UNL A   1      31.094  28.232  24.399  1.00  0.00     0.002 C 
ENDROOT
BRANCH   1   2
ATOM      2  C   UNL A   1      30.814  28.544  22.924  1.00  0.00     0.021 C 
BRANCH   2   3
ATOM      3  C   UNL A   1      30.865  27.311  22.021  1.00  0.00     0.116 C 
BRANCH   3   4
ATOM      4  N   UNL A   1      32.234  26.887  21.804  1.00  0.00    -0.356 N 
ATOM      5  C   UNL A   1      32.812  25.698  22.148  1.00  0.00     0.224 C 
ATOM      6  O   UNL A   1      34.033  25.578  22.018  1.00  0.00    -0.275 OA
ATOM      7  H   UNL A   1      32.820  27.536  21.353  1.00  0.00     0.163 HD
BRANCH   5   8
ATOM      8  C   UNL A   1      31.942  24.542  22.611  1.00  0.00     0.137 C 
BRANCH   8   9
ATOM      9  C   UNL A   1      31.822  24.401  24.116  1.00  0.00    -0.015 A 
ATOM     10  C   UNL A   1      32.832  23.829  24.922  1.00  0.00     0.042 A 
ATOM     11  C   UNL A   1      32.577  23.655  26.295  1.00  0.00     0.026 A 
ATOM     12  C   UNL A   1      31.376  24.062  26.873  1.00  0.00     0.002 A 
ATOM     13  C   UNL A   1      30.624  24.835  24.722  1.00  0.00     0.006 A 
ATOM     14  C   UNL A   1      30.403  24.666  26.087  1.00  0.00     0.000 A 
BRANCH  10  15
ATOM     15  N   UNL A   1      34.112  23.455  24.462  1.00  0.00    -0.354 N 
ATOM     16  H   UNL A   1      34.582  24.171  23.978  1.00  0.00     0.167 HD
BRANCH  15  17
ATOM     17  C   UNL A   1      34.854  22.253  24.556  1.00  0.00     0.060 A 
ATOM     18  C   UNL A   1      36.974  23.676  24.767  1.00  0.00     0.046 C 
ATOM     19  C   UNL A   1      36.260  22.347  24.739  1.00  0.00    -0.026 A 
ATOM     20  C   UNL A   1      37.027  21.185  24.939  1.00  0.00     0.005 A 
ATOM     21  C   UNL A   1      36.429  19.929  24.951  1.00  0.00     0.002 A 
ATOM     22  C   UNL A   1      34.276  20.962  24.542  1.00  0.00     0.064 A 
ATOM     23  C   UNL A   1      35.059  19.819  24.746  1.00  0.00     0.023 A 
ATOM     24  Cl  UNL A   1      32.609  20.672  24.168  1.00  0.00    -0.082 Cl
ENDBRANCH  15  17
ENDBRANCH  10  15
ENDBRANCH   8   9
ENDBRANCH   5   8
ENDBRANCH   3   4
ENDBRANCH   2   3
ENDBRANCH   1   2
BRANCH   1  25
ATOM     25  C   UNL A   1      32.551  28.427  24.830  1.00  0.00     0.002 C 
BRANCH  25  26
ATOM     26  C   UNL A   1      33.066  27.403  25.845  1.00  0.00     0.021 C 
BRANCH  26  27
ATOM     27  C   UNL A   1      34.068  27.960  26.853  1.00  0.00     0.116 C 
BRANCH  27  28
ATOM     28  N   UNL A   1      33.742  29.324  27.241  1.00  0.00    -0.352 N 
ATOM     29  C   UNL A   1      34.480  30.223  27.960  1.00  0.00     0.251 C 
ATOM     30  H   UNL A   1      32.861  29.647  26.941  1.00  0.00     0.163 HD
ATOM     31  O   UNL A   1      33.946  31.253  28.382  1.00  0.00    -0.269 OA
BRANCH  29  32
ATOM     32  C   UNL A   1      35.906  29.963  28.246  1.00  0.00     0.039 A 
ATOM     33  C   UNL A   1      36.280  29.577  29.534  1.00  0.00     0.014 A 
ATOM     34  C   UNL A   1      36.878  30.124  27.252  1.00  0.00     0.014 A 
ATOM     35  C   UNL A   1      37.620  29.307  29.815  1.00  0.00     0.010 A 
ATOM     36  C   UNL A   1      38.203  29.786  27.516  1.00  0.00     0.010 A 
ATOM     37  C   UNL A   1      38.589  29.382  28.802  1.00  0.00    -0.014 A 
BRANCH  37  38
ATOM     38  C   UNL A   1      40.008  29.039  29.079  1.00  0.00     0.031 A 
ATOM     39  C   UNL A   1      40.935  30.057  29.688  1.00  0.00     0.074 A 
ATOM     40  C   UNL A   1      40.472  27.821  28.737  1.00  0.00     0.049 A 
ATOM     41  N   UNL A   1      42.205  29.944  29.982  1.00  0.00    -0.248 NA
ATOM     42  C   UNL A   1      40.368  31.383  29.980  1.00  0.00     0.031 C 
ATOM     43  C   UNL A   1      39.686  26.770  28.085  1.00  0.00     0.029 A 
ATOM     44  N   UNL A   1      41.715  27.260  28.883  1.00  0.00    -0.354 N 
ATOM     45  C   UNL A   1      42.591  31.183  30.481  1.00  0.00     0.074 A 
ATOM     46  C   UNL A   1      41.435  32.048  30.399  1.00  0.00     0.031 C 
ATOM     47  C   UNL A   1      40.458  25.686  27.912  1.00  0.00     0.029 A 
ATOM     48  C   UNL A   1      41.800  25.972  28.410  1.00  0.00     0.049 A 
ATOM     49  H   UNL A   1      42.476  27.735  29.290  1.00  0.00     0.167 HD
ATOM     50  C   UNL A   1      43.793  31.556  30.983  1.00  0.00     0.037 A 
ATOM     51  C   UNL A   1      42.841  25.118  28.380  1.00  0.00     0.037 A 
ATOM     52  C   UNL A   1      44.932  30.681  31.084  1.00  0.00     0.049 A 
ATOM     53  C   UNL A   1      44.158  25.548  28.964  1.00  0.00     0.074 A 
ATOM     54  C   UNL A   1      46.173  30.944  31.638  1.00  0.00     0.029 A 
ATOM     55  N   UNL A   1      44.972  29.374  30.618  1.00  0.00    -0.354 N 
ATOM     56  N   UNL A   1      44.484  26.700  29.501  1.00  0.00    -0.248 NA
ATOM     57  C   UNL A   1      45.245  24.560  28.951  1.00  0.00     0.031 C 
ATOM     58  C   UNL A   1      46.978  29.811  31.466  1.00  0.00     0.029 A 
ATOM     59  C   UNL A   1      46.222  28.825  30.852  1.00  0.00     0.049 A 
ATOM     60  H   UNL A   1      44.222  28.907  30.185  1.00  0.00     0.167 HD
ATOM     61  C   UNL A   1      45.807  26.568  29.909  1.00  0.00     0.074 A 
ATOM     62  C   UNL A   1      46.212  25.218  29.574  1.00  0.00     0.031 C 
ATOM     63  C   UNL A   1      46.613  27.480  30.508  1.00  0.00     0.037 A 
BRANCH  50  64
ATOM     64  C   UNL A   1      43.936  32.974  31.469  1.00  0.00     0.058 A 
ATOM     65  C   UNL A   1      44.207  34.033  30.588  1.00  0.00     0.135 A 
ATOM     66  C   UNL A   1      43.770  33.283  32.828  1.00  0.00     0.135 A 
ATOM     67  F   UNL A   1      44.390  33.794  29.279  1.00  0.00    -0.206 F 
ATOM     68  C   UNL A   1      44.338  35.343  31.040  1.00  0.00     0.059 A 
ATOM     69  C   UNL A   1      43.868  34.590  33.299  1.00  0.00     0.059 A 
ATOM     70  F   UNL A   1      43.510  32.311  33.717  1.00  0.00    -0.206 F 
ATOM     71  C   UNL A   1      44.168  35.611  32.399  1.00  0.00     0.060 A 
BRANCH  71  72
ATOM     72  S   UNL A   1      44.339  37.315  32.969  1.00  0.00     0.124 S 
ATOM     73  O   UNL A   1      43.026  37.557  33.560  1.00  0.00    -0.237 OA
ATOM     74  O   UNL A   1      45.450  37.220  33.910  1.00  0.00    -0.237 OA
ATOM     75  O   UNL A   1      44.622  38.057  31.744  1.00  0.00    -0.744 OA
ENDBRANCH  71  72
ENDBRANCH  50  64
BRANCH  51  76
ATOM     76  C   UNL A   1      42.667  23.759  27.799  1.00  0.00     0.058 A 
ATOM     77  C   UNL A   1      42.474  22.640  28.622  1.00  0.00     0.135 A 
ATOM     78  C   UNL A   1      42.667  23.557  26.411  1.00  0.00     0.135 A 
ATOM     79  F   UNL A   1      42.470  22.782  29.957  1.00  0.00    -0.206 F 
ATOM     80  C   UNL A   1      42.305  21.365  28.092  1.00  0.00     0.059 A 
ATOM     81  C   UNL A   1      42.474  22.297  25.855  1.00  0.00     0.059 A 
ATOM     82  F   UNL A   1      42.828  24.599  25.579  1.00  0.00    -0.206 F 
ATOM     83  C   UNL A   1      42.302  21.205  26.704  1.00  0.00     0.060 A 
BRANCH  83  84
ATOM     84  S   UNL A   1      42.025  19.555  26.023  1.00  0.00     0.124 S 
ATOM     85  O   UNL A   1      42.943  19.547  24.891  1.00  0.00    -0.237 OA
ATOM     86  O   UNL A   1      42.385  18.695  27.146  1.00  0.00    -0.237 OA
ATOM     87  O   UNL A   1      40.604  19.569  25.685  1.00  0.00    -0.744 OA
ENDBRANCH  83  84
ENDBRANCH  51  76
BRANCH  63  88
ATOM     88  C   UNL A   1      48.007  27.039  30.861  1.00  0.00     0.058 A 
ATOM     89  C   UNL A   1      48.319  26.526  32.129  1.00  0.00     0.135 A 
ATOM     90  C   UNL A   1      49.038  27.110  29.909  1.00  0.00     0.135 A 
ATOM     91  F   UNL A   1      47.373  26.442  33.077  1.00  0.00    -0.206 F 
ATOM     92  C   UNL A   1      49.613  26.130  32.454  1.00  0.00     0.059 A 
ATOM     93  C   UNL A   1      50.332  26.693  30.203  1.00  0.00     0.059 A 
ATOM     94  F   UNL A   1      48.790  27.582  28.677  1.00  0.00    -0.206 F 
ATOM     95  C   UNL A   1      50.614  26.220  31.484  1.00  0.00     0.060 A 
BRANCH  95  96
ATOM     96  S   UNL A   1      52.287  25.697  31.913  1.00  0.00     0.124 S 
ATOM     97  O   UNL A   1      52.569  26.539  33.072  1.00  0.00    -0.237 OA
ATOM     98  O   UNL A   1      52.109  24.275  32.191  1.00  0.00    -0.237 OA
ATOM     99  O   UNL A   1      53.058  26.003  30.713  1.00  0.00    -0.744 OA
ENDBRANCH  95  96
ENDBRANCH  63  88
ENDBRANCH  37  38
ENDBRANCH  29  32
ENDBRANCH  27  28
ENDBRANCH  26  27
ENDBRANCH  25  26
ENDBRANCH   1  25
TORSDOF 19
ENDMDL
