MODEL 1
REMARK VINA RESULT:     -12.1      0.000      0.000
REMARK SMILES O=C(NCCCCCCNC(=O)c1ccc([S@@](=O)[C@H]2CCOC3(CCCC3)C2)cc1)c1ccc(-c2c3nc(c(-c4c(F)cc(S(=O)(=O)[O-])cc4F)c4ccc([nH]4)c(-c4c(F)cc(S(=O)(=O)[O-])cc4F)c4nc(c(-c5c(F)cc(S(=O)(=O)[O-])cc5F)c5ccc2[nH]5)C=C4)C=C3)cc1
REMARK SMILES IDX 6 1 5 2 4 3 3 4 1 5 2 6 31 8 32 9 96 10 33 11 95 12 34 13
REMARK SMILES IDX 35 14 36 15 89 16 37 17 94 18 88 19 90 20 38 21 93 22 87 23
REMARK SMILES IDX 86 24 39 26 73 27 52 28 72 29 53 30 56 31 71 32 91 33 54 34
REMARK SMILES IDX 55 35 70 37 92 38 57 39 40 40 41 41 50 42 42 43 43 44 49 45
REMARK SMILES IDX 51 46 44 47 45 48 46 49 47 50 48 51 74 52 75 53 84 54 76 55
REMARK SMILES IDX 77 56 83 57 85 58 78 59 79 60 80 61 81 62 82 63 58 64 59 65
REMARK SMILES IDX 68 66 60 67 61 68 67 69 69 70 62 71 63 72 64 73 65 74 66 75
REMARK SMILES IDX 7 76 8 77 9 78 10 79 11 80 12 82 13 83 14 84 30 85 15 86
REMARK SMILES IDX 29 87 16 88 17 89 18 90 19 91 20 92 28 93 21 94 23 95 22 96
REMARK SMILES IDX 24 97 27 98 25 99 26 100
REMARK H PARENT 3 7 90 25 56 36 10 81
REMARK Flexibility Score: inf
ROOT
ATOM      1  C   UNL A   1      35.022  22.357  24.121  1.00  0.00     0.002 C 
ENDROOT
BRANCH   1   2
ATOM      2  C   UNL A   1      35.232  23.802  24.581  1.00  0.00     0.021 C 
BRANCH   2   3
ATOM      3  C   UNL A   1      36.215  23.981  25.734  1.00  0.00     0.116 C 
BRANCH   3   4
ATOM      4  N   UNL A   1      37.119  22.853  25.867  1.00  0.00    -0.352 N 
ATOM      5  O   UNL A   1      39.093  21.800  26.115  1.00  0.00    -0.269 OA
ATOM      6  C   UNL A   1      38.438  22.838  26.237  1.00  0.00     0.251 C 
ATOM      7  H   UNL A   1      36.727  21.973  25.663  1.00  0.00     0.163 HD
BRANCH   6   8
ATOM      8  C   UNL A   1      39.080  24.061  26.760  1.00  0.00     0.039 A 
ATOM      9  C   UNL A   1      38.990  24.400  28.114  1.00  0.00     0.014 A 
ATOM     10  C   UNL A   1      39.813  24.863  25.882  1.00  0.00     0.014 A 
ATOM     11  C   UNL A   1      39.546  25.594  28.571  1.00  0.00     0.010 A 
ATOM     12  C   UNL A   1      40.421  26.028  26.353  1.00  0.00     0.010 A 
ATOM     13  C   UNL A   1      40.276  26.413  27.696  1.00  0.00    -0.014 A 
BRANCH  13  14
ATOM     14  C   UNL A   1      40.939  27.643  28.192  1.00  0.00     0.031 A 
ATOM     15  C   UNL A   1      42.435  27.730  28.268  1.00  0.00     0.074 A 
ATOM     16  C   UNL A   1      40.178  28.667  28.624  1.00  0.00     0.049 A 
ATOM     17  N   UNL A   1      43.183  28.679  28.767  1.00  0.00    -0.248 NA
ATOM     18  C   UNL A   1      43.191  26.594  27.717  1.00  0.00     0.031 C 
ATOM     19  C   UNL A   1      38.714  28.692  28.607  1.00  0.00     0.029 A 
ATOM     20  N   UNL A   1      40.526  29.871  29.181  1.00  0.00    -0.354 N 
ATOM     21  C   UNL A   1      44.496  28.248  28.619  1.00  0.00     0.074 A 
ATOM     22  C   UNL A   1      44.440  26.942  27.995  1.00  0.00     0.031 C 
ATOM     23  C   UNL A   1      38.289  29.850  29.135  1.00  0.00     0.029 A 
ATOM     24  C   UNL A   1      39.446  30.623  29.575  1.00  0.00     0.049 A 
ATOM     25  H   UNL A   1      41.460  30.168  29.287  1.00  0.00     0.167 HD
ATOM     26  C   UNL A   1      45.639  28.885  28.971  1.00  0.00     0.037 A 
ATOM     27  C   UNL A   1      39.387  31.786  30.252  1.00  0.00     0.037 A 
ATOM     28  C   UNL A   1      45.679  30.185  29.588  1.00  0.00     0.049 A 
ATOM     29  C   UNL A   1      40.662  32.466  30.656  1.00  0.00     0.074 A 
ATOM     30  C   UNL A   1      46.787  30.935  29.945  1.00  0.00     0.029 A 
ATOM     31  N   UNL A   1      44.563  30.924  29.956  1.00  0.00    -0.354 N 
ATOM     32  N   UNL A   1      41.898  32.068  30.470  1.00  0.00    -0.248 NA
ATOM     33  C   UNL A   1      40.541  33.751  31.357  1.00  0.00     0.031 C 
ATOM     34  C   UNL A   1      46.340  32.105  30.568  1.00  0.00     0.029 A 
ATOM     35  C   UNL A   1      44.954  32.109  30.555  1.00  0.00     0.049 A 
ATOM     36  H   UNL A   1      43.629  30.645  29.812  1.00  0.00     0.167 HD
ATOM     37  C   UNL A   1      42.704  33.061  31.010  1.00  0.00     0.074 A 
ATOM     38  C   UNL A   1      41.816  34.081  31.531  1.00  0.00     0.031 C 
ATOM     39  C   UNL A   1      44.057  33.122  31.061  1.00  0.00     0.037 A 
BRANCH  26  40
ATOM     40  C   UNL A   1      46.936  28.163  28.727  1.00  0.00     0.058 A 
ATOM     41  C   UNL A   1      47.585  28.203  27.482  1.00  0.00     0.135 A 
ATOM     42  C   UNL A   1      47.537  27.415  29.753  1.00  0.00     0.135 A 
ATOM     43  F   UNL A   1      47.052  28.895  26.463  1.00  0.00    -0.206 F 
ATOM     44  C   UNL A   1      48.756  27.488  27.249  1.00  0.00     0.059 A 
ATOM     45  C   UNL A   1      48.721  26.713  29.550  1.00  0.00     0.059 A 
ATOM     46  F   UNL A   1      46.963  27.347  30.964  1.00  0.00    -0.206 F 
ATOM     47  C   UNL A   1      49.310  26.736  28.286  1.00  0.00     0.060 A 
BRANCH  47  48
ATOM     48  S   UNL A   1      50.798  25.769  27.955  1.00  0.00     0.124 S 
ATOM     49  O   UNL A   1      50.232  24.451  27.685  1.00  0.00    -0.237 OA
ATOM     50  O   UNL A   1      51.371  26.458  26.802  1.00  0.00    -0.237 OA
ATOM     51  O   UNL A   1      51.561  25.884  29.193  1.00  0.00    -0.744 OA
ENDBRANCH  47  48
ENDBRANCH  26  40
BRANCH  27  52
ATOM     52  C   UNL A   1      38.056  32.354  30.585  1.00  0.00     0.058 A 
ATOM     53  C   UNL A   1      37.420  32.042  31.794  1.00  0.00     0.135 A 
ATOM     54  C   UNL A   1      37.446  33.300  29.745  1.00  0.00     0.135 A 
ATOM     55  F   UNL A   1      37.964  31.141  32.626  1.00  0.00    -0.206 F 
ATOM     56  C   UNL A   1      36.230  32.659  32.167  1.00  0.00     0.059 A 
ATOM     57  C   UNL A   1      36.268  33.946  30.107  1.00  0.00     0.059 A 
ATOM     58  F   UNL A   1      38.028  33.644  28.587  1.00  0.00    -0.206 F 
ATOM     59  C   UNL A   1      35.669  33.620  31.323  1.00  0.00     0.060 A 
BRANCH  59  60
ATOM     60  S   UNL A   1      34.186  34.494  31.870  1.00  0.00     0.124 S 
ATOM     61  O   UNL A   1      33.442  34.620  30.623  1.00  0.00    -0.237 OA
ATOM     62  O   UNL A   1      33.632  33.569  32.854  1.00  0.00    -0.237 OA
ATOM     63  O   UNL A   1      34.715  35.739  32.421  1.00  0.00    -0.744 OA
ENDBRANCH  59  60
ENDBRANCH  27  52
BRANCH  39  64
ATOM     64  C   UNL A   1      44.679  34.349  31.667  1.00  0.00     0.058 A 
ATOM     65  C   UNL A   1      44.932  35.499  30.906  1.00  0.00     0.135 A 
ATOM     66  C   UNL A   1      44.928  34.404  33.048  1.00  0.00     0.135 A 
ATOM     67  F   UNL A   1      44.722  35.494  29.581  1.00  0.00    -0.206 F 
ATOM     68  C   UNL A   1      45.407  36.667  31.497  1.00  0.00     0.059 A 
ATOM     69  C   UNL A   1      45.381  35.565  33.662  1.00  0.00     0.059 A 
ATOM     70  F   UNL A   1      44.696  33.328  33.819  1.00  0.00    -0.206 F 
ATOM     71  C   UNL A   1      45.619  36.694  32.877  1.00  0.00     0.060 A 
BRANCH  71  72
ATOM     72  S   UNL A   1      46.153  38.238  33.644  1.00  0.00     0.124 S 
ATOM     73  O   UNL A   1      46.109  37.894  35.062  1.00  0.00    -0.237 OA
ATOM     74  O   UNL A   1      47.487  38.422  33.079  1.00  0.00    -0.237 OA
ATOM     75  O   UNL A   1      45.152  39.203  33.199  1.00  0.00    -0.744 OA
ENDBRANCH  71  72
ENDBRANCH  39  64
ENDBRANCH  13  14
ENDBRANCH   6   8
ENDBRANCH   3   4
ENDBRANCH   2   3
ENDBRANCH   1   2
BRANCH   1  76
ATOM     76  C   UNL A   1      33.628  21.776  24.380  1.00  0.00     0.002 C 
BRANCH  76  77
ATOM     77  C   UNL A   1      33.402  21.190  25.776  1.00  0.00     0.021 C 
BRANCH  77  78
ATOM     78  C   UNL A   1      33.174  22.214  26.883  1.00  0.00     0.116 C 
BRANCH  78  79
ATOM     79  N   UNL A   1      31.784  22.276  27.297  1.00  0.00    -0.352 N 
ATOM     80  C   UNL A   1      30.806  23.158  26.924  1.00  0.00     0.251 C 
ATOM     81  H   UNL A   1      31.504  21.583  27.939  1.00  0.00     0.163 HD
ATOM     82  O   UNL A   1      29.724  23.161  27.515  1.00  0.00    -0.269 OA
BRANCH  80  83
ATOM     83  C   UNL A   1      31.041  24.126  25.828  1.00  0.00     0.039 A 
ATOM     84  C   UNL A   1      31.478  25.411  26.154  1.00  0.00     0.015 A 
ATOM     85  C   UNL A   1      30.757  23.811  24.497  1.00  0.00     0.015 A 
ATOM     86  C   UNL A   1      31.667  26.364  25.147  1.00  0.00     0.018 A 
ATOM     87  C   UNL A   1      31.003  24.749  23.490  1.00  0.00     0.018 A 
ATOM     88  C   UNL A   1      31.479  26.031  23.803  1.00  0.00     0.039 A 
BRANCH  88  89
ATOM     89  S   UNL A   1      31.552  27.233  22.469  1.00  0.00     0.056 S 
ATOM     90  O   UNL A   1      31.407  26.426  21.213  1.00  0.00    -0.254 OA
BRANCH  89  91
ATOM     91  C   UNL A   1      30.076  28.271  22.607  1.00  0.00     0.089 C 
ATOM     92  C   UNL A   1      28.845  27.609  23.202  1.00  0.00     0.046 C 
ATOM     93  C   UNL A   1      30.286  29.635  23.257  1.00  0.00     0.053 C 
ATOM     94  C   UNL A   1      27.640  28.502  22.958  1.00  0.00     0.162 C 
ATOM     95  C   UNL A   1      29.027  30.502  23.023  1.00  0.00     0.069 C 
ATOM     96  O   UNL A   1      27.851  29.811  23.484  1.00  0.00    -0.375 OA
ATOM     97  C   UNL A   1      29.074  31.833  23.811  1.00  0.00     0.035 C 
ATOM     98  C   UNL A   1      28.868  30.942  21.551  1.00  0.00     0.035 C 
ATOM     99  C   UNL A   1      28.795  32.950  22.803  1.00  0.00     0.003 C 
ATOM    100  C   UNL A   1      28.120  32.262  21.633  1.00  0.00     0.003 C 
ENDBRANCH  89  91
ENDBRANCH  88  89
ENDBRANCH  80  83
ENDBRANCH  78  79
ENDBRANCH  77  78
ENDBRANCH  76  77
ENDBRANCH   1  76
TORSDOF 18
ENDMDL
MODEL 2
REMARK VINA RESULT:     -12.0      1.995      2.507
REMARK SMILES O=C(NCCCCCCNC(=O)c1ccc([S@@](=O)[C@H]2CCOC3(CCCC3)C2)cc1)c1ccc(-c2c3nc(c(-c4c(F)cc(S(=O)(=O)[O-])cc4F)c4ccc([nH]4)c(-c4c(F)cc(S(=O)(=O)[O-])cc4F)c4nc(c(-c5c(F)cc(S(=O)(=O)[O-])cc5F)c5ccc2[nH]5)C=C4)C=C3)cc1
REMARK SMILES IDX 6 1 5 2 4 3 3 4 1 5 2 6 31 8 32 9 96 10 33 11 95 12 34 13
REMARK SMILES IDX 35 14 36 15 89 16 37 17 94 18 88 19 90 20 38 21 93 22 87 23
REMARK SMILES IDX 86 24 39 26 73 27 52 28 72 29 53 30 56 31 71 32 91 33 54 34
REMARK SMILES IDX 55 35 70 37 92 38 57 39 40 40 41 41 50 42 42 43 43 44 49 45
REMARK SMILES IDX 51 46 44 47 45 48 46 49 47 50 48 51 74 52 75 53 84 54 76 55
REMARK SMILES IDX 77 56 83 57 85 58 78 59 79 60 80 61 81 62 82 63 58 64 59 65
REMARK SMILES IDX 68 66 60 67 61 68 67 69 69 70 62 71 63 72 64 73 65 74 66 75
REMARK SMILES IDX 7 76 8 77 9 78 10 79 11 80 12 82 13 83 14 84 30 85 15 86
REMARK SMILES IDX 29 87 16 88 17 89 18 90 19 91 20 92 28 93 21 94 23 95 22 96
REMARK SMILES IDX 24 97 27 98 25 99 26 100
REMARK H PARENT 3 7 90 25 56 36 10 81
REMARK Flexibility Score: inf
ROOT
ATOM      1  C   UNL A   1      35.220  22.221  24.537  1.00  0.00     0.002 C 
ENDROOT
BRANCH   1   2
ATOM      2  C   UNL A   1      35.747  23.654  24.428  1.00  0.00     0.021 C 
BRANCH   2   3
ATOM      3  C   UNL A   1      36.824  24.029  25.441  1.00  0.00     0.116 C 
BRANCH   3   4
ATOM      4  N   UNL A   1      37.839  23.000  25.571  1.00  0.00    -0.352 N 
ATOM      5  O   UNL A   1      39.881  22.144  25.985  1.00  0.00    -0.269 OA
ATOM      6  C   UNL A   1      39.087  23.078  26.131  1.00  0.00     0.251 C 
ATOM      7  H   UNL A   1      37.595  22.118  25.206  1.00  0.00     0.163 HD
BRANCH   6   8
ATOM      8  C   UNL A   1      39.490  24.280  26.889  1.00  0.00     0.039 A 
ATOM      9  C   UNL A   1      39.071  24.474  28.209  1.00  0.00     0.014 A 
ATOM     10  C   UNL A   1      40.331  25.211  26.275  1.00  0.00     0.014 A 
ATOM     11  C   UNL A   1      39.409  25.648  28.880  1.00  0.00     0.010 A 
ATOM     12  C   UNL A   1      40.719  26.358  26.969  1.00  0.00     0.010 A 
ATOM     13  C   UNL A   1      40.244  26.596  28.270  1.00  0.00    -0.014 A 
BRANCH  13  14
ATOM     14  C   UNL A   1      40.673  27.809  29.007  1.00  0.00     0.031 A 
ATOM     15  C   UNL A   1      41.989  27.842  29.729  1.00  0.00     0.074 A 
ATOM     16  C   UNL A   1      39.843  28.867  29.064  1.00  0.00     0.049 A 
ATOM     17  N   UNL A   1      42.482  28.772  30.506  1.00  0.00    -0.248 NA
ATOM     18  C   UNL A   1      42.863  26.670  29.563  1.00  0.00     0.031 C 
ATOM     19  C   UNL A   1      38.535  28.946  28.410  1.00  0.00     0.029 A 
ATOM     20  N   UNL A   1      39.961  30.067  29.719  1.00  0.00    -0.354 N 
ATOM     21  C   UNL A   1      43.709  28.289  30.945  1.00  0.00     0.074 A 
ATOM     22  C   UNL A   1      43.878  26.977  30.359  1.00  0.00     0.031 C 
ATOM     23  C   UNL A   1      37.970  30.127  28.700  1.00  0.00     0.029 A 
ATOM     24  C   UNL A   1      38.848  30.865  29.602  1.00  0.00     0.049 A 
ATOM     25  H   UNL A   1      40.766  30.331  30.222  1.00  0.00     0.167 HD
ATOM     26  C   UNL A   1      44.609  28.890  31.762  1.00  0.00     0.037 A 
ATOM     27  C   UNL A   1      38.547  32.040  30.186  1.00  0.00     0.037 A 
ATOM     28  C   UNL A   1      44.427  30.198  32.336  1.00  0.00     0.049 A 
ATOM     29  C   UNL A   1      39.544  32.679  31.108  1.00  0.00     0.074 A 
ATOM     30  C   UNL A   1      45.297  30.913  33.142  1.00  0.00     0.029 A 
ATOM     31  N   UNL A   1      43.293  30.984  32.180  1.00  0.00    -0.354 N 
ATOM     32  N   UNL A   1      40.720  32.233  31.479  1.00  0.00    -0.248 NA
ATOM     33  C   UNL A   1      39.182  33.979  31.687  1.00  0.00     0.031 C 
ATOM     34  C   UNL A   1      44.671  32.108  33.508  1.00  0.00     0.029 A 
ATOM     35  C   UNL A   1      43.431  32.163  32.891  1.00  0.00     0.049 A 
ATOM     36  H   UNL A   1      42.506  30.737  31.642  1.00  0.00     0.167 HD
ATOM     37  C   UNL A   1      41.249  33.204  32.319  1.00  0.00     0.074 A 
ATOM     38  C   UNL A   1      40.265  34.265  32.400  1.00  0.00     0.031 C 
ATOM     39  C   UNL A   1      42.446  33.216  32.955  1.00  0.00     0.037 A 
BRANCH  26  40
ATOM     40  C   UNL A   1      45.852  28.116  32.108  1.00  0.00     0.058 A 
ATOM     41  C   UNL A   1      47.053  28.288  31.401  1.00  0.00     0.135 A 
ATOM     42  C   UNL A   1      45.840  27.186  33.161  1.00  0.00     0.135 A 
ATOM     43  F   UNL A   1      47.119  29.156  30.380  1.00  0.00    -0.206 F 
ATOM     44  C   UNL A   1      48.183  27.529  31.693  1.00  0.00     0.059 A 
ATOM     45  C   UNL A   1      46.965  26.436  33.486  1.00  0.00     0.059 A 
ATOM     46  F   UNL A   1      44.720  26.987  33.873  1.00  0.00    -0.206 F 
ATOM     47  C   UNL A   1      48.125  26.596  32.730  1.00  0.00     0.060 A 
BRANCH  47  48
ATOM     48  S   UNL A   1      49.580  25.580  33.062  1.00  0.00     0.124 S 
ATOM     49  O   UNL A   1      49.729  24.868  31.796  1.00  0.00    -0.237 OA
ATOM     50  O   UNL A   1      50.603  26.581  33.348  1.00  0.00    -0.237 OA
ATOM     51  O   UNL A   1      49.171  24.762  34.199  1.00  0.00    -0.744 OA
ENDBRANCH  47  48
ENDBRANCH  26  40
BRANCH  27  52
ATOM     52  C   UNL A   1      37.228  32.662  29.905  1.00  0.00     0.058 A 
ATOM     53  C   UNL A   1      36.098  32.333  30.665  1.00  0.00     0.135 A 
ATOM     54  C   UNL A   1      37.100  33.673  28.939  1.00  0.00     0.135 A 
ATOM     55  F   UNL A   1      36.172  31.371  31.597  1.00  0.00    -0.206 F 
ATOM     56  C   UNL A   1      34.887  32.995  30.487  1.00  0.00     0.059 A 
ATOM     57  C   UNL A   1      35.906  34.364  28.758  1.00  0.00     0.059 A 
ATOM     58  F   UNL A   1      38.160  34.035  28.201  1.00  0.00    -0.206 F 
ATOM     59  C   UNL A   1      34.805  34.018  29.540  1.00  0.00     0.060 A 
BRANCH  59  60
ATOM     60  S   UNL A   1      33.261  34.945  29.398  1.00  0.00     0.124 S 
ATOM     61  O   UNL A   1      32.528  34.147  28.423  1.00  0.00    -0.237 OA
ATOM     62  O   UNL A   1      32.754  34.906  30.767  1.00  0.00    -0.237 OA
ATOM     63  O   UNL A   1      33.700  36.260  28.939  1.00  0.00    -0.744 OA
ENDBRANCH  59  60
ENDBRANCH  27  52
BRANCH  39  64
ATOM     64  C   UNL A   1      42.789  34.430  33.773  1.00  0.00     0.058 A 
ATOM     65  C   UNL A   1      42.459  34.521  35.132  1.00  0.00     0.135 A 
ATOM     66  C   UNL A   1      43.548  35.468  33.208  1.00  0.00     0.135 A 
ATOM     67  F   UNL A   1      41.726  33.561  35.716  1.00  0.00    -0.206 F 
ATOM     68  C   UNL A   1      42.875  35.599  35.907  1.00  0.00     0.059 A 
ATOM     69  C   UNL A   1      43.993  36.544  33.968  1.00  0.00     0.059 A 
ATOM     70  F   UNL A   1      43.893  35.424  31.910  1.00  0.00    -0.206 F 
ATOM     71  C   UNL A   1      43.650  36.601  35.319  1.00  0.00     0.060 A 
BRANCH  71  72
ATOM     72  S   UNL A   1      44.256  37.951  36.353  1.00  0.00     0.124 S 
ATOM     73  O   UNL A   1      45.631  37.534  36.608  1.00  0.00    -0.237 OA
ATOM     74  O   UNL A   1      44.097  39.109  35.479  1.00  0.00    -0.237 OA
ATOM     75  O   UNL A   1      43.364  37.920  37.509  1.00  0.00    -0.744 OA
ENDBRANCH  71  72
ENDBRANCH  39  64
ENDBRANCH  13  14
ENDBRANCH   6   8
ENDBRANCH   3   4
ENDBRANCH   2   3
ENDBRANCH   1   2
BRANCH   1  76
ATOM     76  C   UNL A   1      33.772  22.012  24.085  1.00  0.00     0.002 C 
BRANCH  76  77
ATOM     77  C   UNL A   1      32.834  21.393  25.124  1.00  0.00     0.021 C 
BRANCH  77  78
ATOM     78  C   UNL A   1      32.882  22.034  26.508  1.00  0.00     0.116 C 
BRANCH  78  79
ATOM     79  N   UNL A   1      31.557  22.239  27.065  1.00  0.00    -0.352 N 
ATOM     80  C   UNL A   1      30.657  23.241  26.816  1.00  0.00     0.251 C 
ATOM     81  H   UNL A   1      31.263  21.560  27.714  1.00  0.00     0.163 HD
ATOM     82  O   UNL A   1      29.647  23.346  27.515  1.00  0.00    -0.269 OA
BRANCH  80  83
ATOM     83  C   UNL A   1      30.895  24.214  25.726  1.00  0.00     0.039 A 
ATOM     84  C   UNL A   1      31.402  25.472  26.053  1.00  0.00     0.015 A 
ATOM     85  C   UNL A   1      30.546  23.934  24.402  1.00  0.00     0.015 A 
ATOM     86  C   UNL A   1      31.595  26.432  25.053  1.00  0.00     0.018 A 
ATOM     87  C   UNL A   1      30.796  24.876  23.400  1.00  0.00     0.018 A 
ATOM     88  C   UNL A   1      31.342  26.130  23.713  1.00  0.00     0.039 A 
BRANCH  88  89
ATOM     89  S   UNL A   1      31.419  27.349  22.394  1.00  0.00     0.056 S 
ATOM     90  O   UNL A   1      31.247  26.561  21.129  1.00  0.00    -0.254 OA
BRANCH  89  91
ATOM     91  C   UNL A   1      29.961  28.408  22.564  1.00  0.00     0.089 C 
ATOM     92  C   UNL A   1      28.738  27.767  23.196  1.00  0.00     0.046 C 
ATOM     93  C   UNL A   1      30.207  29.774  23.198  1.00  0.00     0.053 C 
ATOM     94  C   UNL A   1      27.539  28.675  22.976  1.00  0.00     0.162 C 
ATOM     95  C   UNL A   1      28.954  30.657  22.990  1.00  0.00     0.069 C 
ATOM     96  O   UNL A   1      27.782  29.985  23.487  1.00  0.00    -0.375 OA
ATOM     97  C   UNL A   1      29.041  31.992  23.768  1.00  0.00     0.035 C 
ATOM     98  C   UNL A   1      28.763  31.088  21.520  1.00  0.00     0.035 C 
ATOM     99  C   UNL A   1      28.751  33.106  22.759  1.00  0.00     0.003 C 
ATOM    100  C   UNL A   1      28.035  32.419  21.612  1.00  0.00     0.003 C 
ENDBRANCH  89  91
ENDBRANCH  88  89
ENDBRANCH  80  83
ENDBRANCH  78  79
ENDBRANCH  77  78
ENDBRANCH  76  77
ENDBRANCH   1  76
TORSDOF 18
ENDMDL
MODEL 3
REMARK VINA RESULT:     -11.9      4.626      5.986
REMARK SMILES O=C(NCCCCCCNC(=O)c1ccc([S@@](=O)[C@H]2CCOC3(CCCC3)C2)cc1)c1ccc(-c2c3nc(c(-c4c(F)cc(S(=O)(=O)[O-])cc4F)c4ccc([nH]4)c(-c4c(F)cc(S(=O)(=O)[O-])cc4F)c4nc(c(-c5c(F)cc(S(=O)(=O)[O-])cc5F)c5ccc2[nH]5)C=C4)C=C3)cc1
REMARK SMILES IDX 6 1 5 2 4 3 3 4 1 5 2 6 31 8 32 9 96 10 33 11 95 12 34 13
REMARK SMILES IDX 35 14 36 15 89 16 37 17 94 18 88 19 90 20 38 21 93 22 87 23
REMARK SMILES IDX 86 24 39 26 73 27 52 28 72 29 53 30 56 31 71 32 91 33 54 34
REMARK SMILES IDX 55 35 70 37 92 38 57 39 40 40 41 41 50 42 42 43 43 44 49 45
REMARK SMILES IDX 51 46 44 47 45 48 46 49 47 50 48 51 74 52 75 53 84 54 76 55
REMARK SMILES IDX 77 56 83 57 85 58 78 59 79 60 80 61 81 62 82 63 58 64 59 65
REMARK SMILES IDX 68 66 60 67 61 68 67 69 69 70 62 71 63 72 64 73 65 74 66 75
REMARK SMILES IDX 7 76 8 77 9 78 10 79 11 80 12 82 13 83 14 84 30 85 15 86
REMARK SMILES IDX 29 87 16 88 17 89 18 90 19 91 20 92 28 93 21 94 23 95 22 96
REMARK SMILES IDX 24 97 27 98 25 99 26 100
REMARK H PARENT 3 7 90 25 56 36 10 81
REMARK Flexibility Score: inf
ROOT
ATOM      1  C   UNL A   1      38.070  23.762  26.161  1.00  0.00     0.002 C 
ENDROOT
BRANCH   1   2
ATOM      2  C   UNL A   1      39.132  22.713  26.497  1.00  0.00     0.021 C 
BRANCH   2   3
ATOM      3  C   UNL A   1      40.424  23.262  27.093  1.00  0.00     0.116 C 
BRANCH   3   4
ATOM      4  N   UNL A   1      41.302  23.822  26.082  1.00  0.00    -0.352 N 
ATOM      5  O   UNL A   1      42.397  25.431  24.951  1.00  0.00    -0.269 OA
ATOM      6  C   UNL A   1      41.815  25.088  25.982  1.00  0.00     0.251 C 
ATOM      7  H   UNL A   1      41.570  23.201  25.365  1.00  0.00     0.163 HD
BRANCH   6   8
ATOM      8  C   UNL A   1      41.654  26.047  27.095  1.00  0.00     0.039 A 
ATOM      9  C   UNL A   1      42.496  27.157  27.218  1.00  0.00     0.014 A 
ATOM     10  C   UNL A   1      40.618  25.846  28.011  1.00  0.00     0.014 A 
ATOM     11  C   UNL A   1      42.368  28.009  28.313  1.00  0.00     0.010 A 
ATOM     12  C   UNL A   1      40.452  26.735  29.074  1.00  0.00     0.010 A 
ATOM     13  C   UNL A   1      41.338  27.812  29.245  1.00  0.00    -0.014 A 
BRANCH  13  14
ATOM     14  C   UNL A   1      41.145  28.761  30.368  1.00  0.00     0.031 A 
ATOM     15  C   UNL A   1      41.978  28.655  31.613  1.00  0.00     0.074 A 
ATOM     16  C   UNL A   1      40.176  29.691  30.279  1.00  0.00     0.049 A 
ATOM     17  N   UNL A   1      41.881  29.327  32.731  1.00  0.00    -0.248 NA
ATOM     18  C   UNL A   1      43.056  27.654  31.603  1.00  0.00     0.031 C 
ATOM     19  C   UNL A   1      39.298  29.882  29.123  1.00  0.00     0.029 A 
ATOM     20  N   UNL A   1      39.749  30.632  31.181  1.00  0.00    -0.354 N 
ATOM     21  C   UNL A   1      42.864  28.814  33.569  1.00  0.00     0.074 A 
ATOM     22  C   UNL A   1      43.537  27.764  32.834  1.00  0.00     0.031 C 
ATOM     23  C   UNL A   1      38.435  30.874  29.386  1.00  0.00     0.029 A 
ATOM     24  C   UNL A   1      38.661  31.350  30.748  1.00  0.00     0.049 A 
ATOM     25  H   UNL A   1      40.181  30.779  32.054  1.00  0.00     0.167 HD
ATOM     26  C   UNL A   1      43.174  29.190  34.835  1.00  0.00     0.037 A 
ATOM     27  C   UNL A   1      37.901  32.262  31.384  1.00  0.00     0.037 A 
ATOM     28  C   UNL A   1      42.497  30.238  35.552  1.00  0.00     0.049 A 
ATOM     29  C   UNL A   1      38.244  32.648  32.794  1.00  0.00     0.074 A 
ATOM     30  C   UNL A   1      42.763  30.722  36.822  1.00  0.00     0.029 A 
ATOM     31  N   UNL A   1      41.410  30.956  35.072  1.00  0.00    -0.354 N 
ATOM     32  N   UNL A   1      39.204  32.187  33.558  1.00  0.00    -0.248 NA
ATOM     33  C   UNL A   1      37.408  33.675  33.427  1.00  0.00     0.031 C 
ATOM     34  C   UNL A   1      41.809  31.700  37.125  1.00  0.00     0.029 A 
ATOM     35  C   UNL A   1      40.980  31.862  36.026  1.00  0.00     0.049 A 
ATOM     36  H   UNL A   1      41.005  30.837  34.182  1.00  0.00     0.167 HD
ATOM     37  C   UNL A   1      39.103  32.881  34.757  1.00  0.00     0.074 A 
ATOM     38  C   UNL A   1      37.988  33.796  34.616  1.00  0.00     0.031 C 
ATOM     39  C   UNL A   1      39.873  32.774  35.868  1.00  0.00     0.037 A 
BRANCH  26  40
ATOM     40  C   UNL A   1      44.272  28.431  35.530  1.00  0.00     0.058 A 
ATOM     41  C   UNL A   1      44.012  27.272  36.279  1.00  0.00     0.135 A 
ATOM     42  C   UNL A   1      45.603  28.873  35.449  1.00  0.00     0.135 A 
ATOM     43  F   UNL A   1      42.758  26.810  36.399  1.00  0.00    -0.206 F 
ATOM     44  C   UNL A   1      45.026  26.607  36.964  1.00  0.00     0.059 A 
ATOM     45  C   UNL A   1      46.635  28.209  36.104  1.00  0.00     0.059 A 
ATOM     46  F   UNL A   1      45.908  29.971  34.741  1.00  0.00    -0.206 F 
ATOM     47  C   UNL A   1      46.332  27.091  36.880  1.00  0.00     0.060 A 
BRANCH  47  48
ATOM     48  S   UNL A   1      47.628  26.252  37.817  1.00  0.00     0.124 S 
ATOM     49  O   UNL A   1      48.514  27.365  38.143  1.00  0.00    -0.237 OA
ATOM     50  O   UNL A   1      46.887  25.685  38.940  1.00  0.00    -0.237 OA
ATOM     51  O   UNL A   1      48.160  25.281  36.867  1.00  0.00    -0.744 OA
ENDBRANCH  47  48
ENDBRANCH  26  40
BRANCH  27  52
ATOM     52  C   UNL A   1      36.740  32.852  30.670  1.00  0.00     0.058 A 
ATOM     53  C   UNL A   1      35.429  32.475  30.990  1.00  0.00     0.135 A 
ATOM     54  C   UNL A   1      36.919  33.878  29.728  1.00  0.00     0.135 A 
ATOM     55  F   UNL A   1      35.210  31.497  31.882  1.00  0.00    -0.206 F 
ATOM     56  C   UNL A   1      34.333  33.106  30.410  1.00  0.00     0.059 A 
ATOM     57  C   UNL A   1      35.838  34.537  29.152  1.00  0.00     0.059 A 
ATOM     58  F   UNL A   1      38.156  34.284  29.404  1.00  0.00    -0.206 F 
ATOM     59  C   UNL A   1      34.548  34.145  29.503  1.00  0.00     0.060 A 
BRANCH  59  60
ATOM     60  S   UNL A   1      33.117  35.029  28.844  1.00  0.00     0.124 S 
ATOM     61  O   UNL A   1      32.497  34.006  28.011  1.00  0.00    -0.237 OA
ATOM     62  O   UNL A   1      32.393  35.388  30.060  1.00  0.00    -0.237 OA
ATOM     63  O   UNL A   1      33.717  36.152  28.128  1.00  0.00    -0.744 OA
ENDBRANCH  59  60
ENDBRANCH  27  52
BRANCH  39  64
ATOM     64  C   UNL A   1      39.569  33.693  37.018  1.00  0.00     0.058 A 
ATOM     65  C   UNL A   1      38.762  33.289  38.091  1.00  0.00     0.135 A 
ATOM     66  C   UNL A   1      40.180  34.956  37.091  1.00  0.00     0.135 A 
ATOM     67  F   UNL A   1      38.148  32.096  38.064  1.00  0.00    -0.206 F 
ATOM     68  C   UNL A   1      38.575  34.105  39.203  1.00  0.00     0.059 A 
ATOM     69  C   UNL A   1      40.023  35.778  38.201  1.00  0.00     0.059 A 
ATOM     70  F   UNL A   1      40.965  35.385  36.089  1.00  0.00    -0.206 F 
ATOM     71  C   UNL A   1      39.218  35.344  39.253  1.00  0.00     0.060 A 
BRANCH  71  72
ATOM     72  S   UNL A   1      39.035  36.357  40.736  1.00  0.00     0.124 S 
ATOM     73  O   UNL A   1      38.043  35.599  41.491  1.00  0.00    -0.237 OA
ATOM     74  O   UNL A   1      40.388  36.353  41.285  1.00  0.00    -0.237 OA
ATOM     75  O   UNL A   1      38.581  37.643  40.215  1.00  0.00    -0.744 OA
ENDBRANCH  71  72
ENDBRANCH  39  64
ENDBRANCH  13  14
ENDBRANCH   6   8
ENDBRANCH   3   4
ENDBRANCH   2   3
ENDBRANCH   1   2
BRANCH   1  76
ATOM     76  C   UNL A   1      37.146  23.419  24.988  1.00  0.00     0.002 C 
BRANCH  76  77
ATOM     77  C   UNL A   1      36.901  21.926  24.752  1.00  0.00     0.021 C 
BRANCH  77  78
ATOM     78  C   UNL A   1      35.916  21.268  25.713  1.00  0.00     0.116 C 
BRANCH  78  79
ATOM     79  N   UNL A   1      35.163  20.199  25.082  1.00  0.00    -0.352 N 
ATOM     80  C   UNL A   1      33.840  20.158  24.732  1.00  0.00     0.251 C 
ATOM     81  H   UNL A   1      35.680  19.386  24.875  1.00  0.00     0.163 HD
ATOM     82  O   UNL A   1      33.335  19.096  24.362  1.00  0.00    -0.269 OA
BRANCH  80  83
ATOM     83  C   UNL A   1      33.002  21.375  24.813  1.00  0.00     0.039 A 
ATOM     84  C   UNL A   1      32.708  22.064  23.635  1.00  0.00     0.015 A 
ATOM     85  C   UNL A   1      32.574  21.892  26.039  1.00  0.00     0.015 A 
ATOM     86  C   UNL A   1      31.956  23.244  23.681  1.00  0.00     0.018 A 
ATOM     87  C   UNL A   1      31.775  23.039  26.072  1.00  0.00     0.018 A 
ATOM     88  C   UNL A   1      31.441  23.716  24.891  1.00  0.00     0.039 A 
BRANCH  88  89
ATOM     89  S   UNL A   1      30.600  25.297  25.054  1.00  0.00     0.056 S 
ATOM     90  O   UNL A   1      30.091  25.319  26.466  1.00  0.00    -0.254 OA
BRANCH  89  91
ATOM     91  C   UNL A   1      31.863  26.587  24.924  1.00  0.00     0.089 C 
ATOM     92  C   UNL A   1      32.369  26.890  23.524  1.00  0.00     0.046 C 
ATOM     93  C   UNL A   1      31.550  27.892  25.648  1.00  0.00     0.053 C 
ATOM     94  C   UNL A   1      33.618  27.749  23.629  1.00  0.00     0.162 C 
ATOM     95  C   UNL A   1      32.831  28.757  25.702  1.00  0.00     0.069 C 
ATOM     96  O   UNL A   1      33.367  28.937  24.378  1.00  0.00    -0.375 OA
ATOM     97  C   UNL A   1      32.559  30.179  26.248  1.00  0.00     0.035 C 
ATOM     98  C   UNL A   1      33.900  28.184  26.658  1.00  0.00     0.035 C 
ATOM     99  C   UNL A   1      33.567  30.416  27.375  1.00  0.00     0.003 C 
ATOM    100  C   UNL A   1      34.670  29.405  27.132  1.00  0.00     0.003 C 
ENDBRANCH  89  91
ENDBRANCH  88  89
ENDBRANCH  80  83
ENDBRANCH  78  79
ENDBRANCH  77  78
ENDBRANCH  76  77
ENDBRANCH   1  76
TORSDOF 18
ENDMDL
