MODEL 1
REMARK VINA RESULT:     -12.0      0.000      0.000
REMARK SMILES O=C(NCCCCCCNC(=O)c1cccc2cccc(C(=O)NC3COC3)c12)c1ccc(-c2c3nc(c(-c4c(F)cc(S(=O)(=O)[O-])cc4F)c4ccc([nH]4)c(-c4c(F)cc(S(=O)(=O)[O-])cc4F)c4nc(c(-c5c(F)cc(S(=O)(=O)[O-])cc5F)c5ccc2[nH]5)C=C4)C=C3)cc1
REMARK SMILES IDX 6 1 5 2 4 3 3 4 1 5 2 6 30 8 31 9 95 10 32 11 94 12 33 13
REMARK SMILES IDX 34 14 35 15 88 16 36 17 93 18 87 19 89 20 37 21 92 22 86 23
REMARK SMILES IDX 85 24 38 26 72 27 51 28 71 29 52 30 55 31 70 32 90 33 53 34
REMARK SMILES IDX 54 35 69 37 91 38 56 39 39 40 40 41 49 42 41 43 42 44 48 45
REMARK SMILES IDX 50 46 43 47 44 48 45 49 46 50 47 51 73 52 74 53 83 54 75 55
REMARK SMILES IDX 76 56 82 57 84 58 77 59 78 60 79 61 80 62 81 63 57 64 58 65
REMARK SMILES IDX 67 66 59 67 60 68 66 69 68 70 61 71 62 72 63 73 64 74 65 75
REMARK SMILES IDX 7 76 8 77 9 78 10 79 11 80 12 82 13 83 14 84 29 85 15 86
REMARK SMILES IDX 17 87 21 88 16 89 18 90 20 91 19 92 22 93 23 94 24 95 25 97
REMARK SMILES IDX 26 98 28 99 27 100
REMARK H PARENT 3 7 89 25 55 36 10 81 24 96
REMARK Flexibility Score: inf
ROOT
ATOM      1  C   UNL A   1      41.043  22.185  27.953  1.00  0.00     0.002 C 
ENDROOT
BRANCH   1   2
ATOM      2  C   UNL A   1      42.524  22.358  27.597  1.00  0.00     0.021 C 
BRANCH   2   3
ATOM      3  C   UNL A   1      42.964  23.805  27.515  1.00  0.00     0.116 C 
BRANCH   3   4
ATOM      4  N   UNL A   1      42.538  24.415  26.268  1.00  0.00    -0.352 N 
ATOM      5  O   UNL A   1      41.245  25.765  25.002  1.00  0.00    -0.269 OA
ATOM      6  C   UNL A   1      41.727  25.506  26.098  1.00  0.00     0.251 C 
ATOM      7  H   UNL A   1      42.872  23.993  25.444  1.00  0.00     0.163 HD
BRANCH   6   8
ATOM      8  C   UNL A   1      41.444  26.345  27.275  1.00  0.00     0.039 A 
ATOM      9  C   UNL A   1      42.245  27.462  27.531  1.00  0.00     0.014 A 
ATOM     10  C   UNL A   1      40.417  25.986  28.147  1.00  0.00     0.014 A 
ATOM     11  C   UNL A   1      42.110  28.139  28.731  1.00  0.00     0.010 A 
ATOM     12  C   UNL A   1      40.206  26.745  29.297  1.00  0.00     0.010 A 
ATOM     13  C   UNL A   1      41.058  27.817  29.604  1.00  0.00    -0.014 A 
BRANCH  13  14
ATOM     14  C   UNL A   1      40.808  28.693  30.774  1.00  0.00     0.031 A 
ATOM     15  C   UNL A   1      39.728  29.733  30.755  1.00  0.00     0.074 A 
ATOM     16  C   UNL A   1      41.585  28.525  31.863  1.00  0.00     0.049 A 
ATOM     17  N   UNL A   1      39.405  30.593  31.686  1.00  0.00    -0.248 NA
ATOM     18  C   UNL A   1      38.910  29.833  29.536  1.00  0.00     0.031 C 
ATOM     19  C   UNL A   1      42.672  27.546  31.980  1.00  0.00     0.029 A 
ATOM     20  N   UNL A   1      41.582  29.157  33.078  1.00  0.00    -0.354 N 
ATOM     21  C   UNL A   1      38.361  31.347  31.165  1.00  0.00     0.074 A 
ATOM     22  C   UNL A   1      38.126  30.865  29.820  1.00  0.00     0.031 C 
ATOM     23  C   UNL A   1      43.197  27.612  33.209  1.00  0.00     0.029 A 
ATOM     24  C   UNL A   1      42.550  28.695  33.936  1.00  0.00     0.049 A 
ATOM     25  H   UNL A   1      40.948  29.873  33.313  1.00  0.00     0.167 HD
ATOM     26  C   UNL A   1      37.666  32.345  31.762  1.00  0.00     0.037 A 
ATOM     27  C   UNL A   1      42.909  29.118  35.162  1.00  0.00     0.037 A 
ATOM     28  C   UNL A   1      37.923  32.812  33.102  1.00  0.00     0.049 A 
ATOM     29  C   UNL A   1      42.157  30.263  35.773  1.00  0.00     0.074 A 
ATOM     30  C   UNL A   1      37.255  33.796  33.811  1.00  0.00     0.029 A 
ATOM     31  N   UNL A   1      38.933  32.343  33.931  1.00  0.00    -0.354 N 
ATOM     32  N   UNL A   1      41.145  30.940  35.283  1.00  0.00    -0.248 NA
ATOM     33  C   UNL A   1      42.593  30.705  37.102  1.00  0.00     0.031 C 
ATOM     34  C   UNL A   1      37.907  33.973  35.035  1.00  0.00     0.029 A 
ATOM     35  C   UNL A   1      38.930  33.042  35.129  1.00  0.00     0.049 A 
ATOM     36  H   UNL A   1      39.561  31.620  33.702  1.00  0.00     0.167 HD
ATOM     37  C   UNL A   1      40.805  31.869  36.257  1.00  0.00     0.074 A 
ATOM     38  C   UNL A   1      41.707  31.652  37.371  1.00  0.00     0.031 C 
ATOM     39  C   UNL A   1      39.833  32.814  36.232  1.00  0.00     0.037 A 
BRANCH  26  40
ATOM     40  C   UNL A   1      36.579  33.021  30.967  1.00  0.00     0.058 A 
ATOM     41  C   UNL A   1      35.222  32.706  31.140  1.00  0.00     0.135 A 
ATOM     42  C   UNL A   1      36.899  34.040  30.052  1.00  0.00     0.135 A 
ATOM     43  F   UNL A   1      34.855  31.734  31.990  1.00  0.00    -0.206 F 
ATOM     44  C   UNL A   1      34.224  33.355  30.418  1.00  0.00     0.059 A 
ATOM     45  C   UNL A   1      35.915  34.726  29.345  1.00  0.00     0.059 A 
ATOM     46  F   UNL A   1      38.178  34.384  29.844  1.00  0.00    -0.206 F 
ATOM     47  C   UNL A   1      34.581  34.367  29.524  1.00  0.00     0.060 A 
BRANCH  47  48
ATOM     48  S   UNL A   1      33.272  35.204  28.605  1.00  0.00     0.124 S 
ATOM     49  O   UNL A   1      32.567  35.903  29.675  1.00  0.00    -0.237 OA
ATOM     50  O   UNL A   1      34.030  36.049  27.688  1.00  0.00    -0.237 OA
ATOM     51  O   UNL A   1      32.538  34.108  27.982  1.00  0.00    -0.744 OA
ENDBRANCH  47  48
ENDBRANCH  26  40
BRANCH  27  52
ATOM     52  C   UNL A   1      44.041  28.464  35.870  1.00  0.00     0.058 A 
ATOM     53  C   UNL A   1      45.358  28.904  35.690  1.00  0.00     0.135 A 
ATOM     54  C   UNL A   1      43.823  27.397  36.759  1.00  0.00     0.135 A 
ATOM     55  F   UNL A   1      45.619  29.920  34.853  1.00  0.00    -0.206 F 
ATOM     56  C   UNL A   1      46.424  28.297  36.344  1.00  0.00     0.059 A 
ATOM     57  C   UNL A   1      44.867  26.799  37.454  1.00  0.00     0.059 A 
ATOM     58  F   UNL A   1      42.577  26.950  36.984  1.00  0.00    -0.206 F 
ATOM     59  C   UNL A   1      46.167  27.247  37.229  1.00  0.00     0.060 A 
BRANCH  59  60
ATOM     60  S   UNL A   1      47.556  26.495  38.101  1.00  0.00     0.124 S 
ATOM     61  O   UNL A   1      48.632  26.651  37.129  1.00  0.00    -0.237 OA
ATOM     62  O   UNL A   1      47.649  27.326  39.297  1.00  0.00    -0.237 OA
ATOM     63  O   UNL A   1      47.107  25.125  38.331  1.00  0.00    -0.744 OA
ENDBRANCH  59  60
ENDBRANCH  27  52
BRANCH  39  64
ATOM     64  C   UNL A   1      39.662  33.660  37.465  1.00  0.00     0.058 A 
ATOM     65  C   UNL A   1      40.308  34.897  37.617  1.00  0.00     0.135 A 
ATOM     66  C   UNL A   1      38.803  33.242  38.496  1.00  0.00     0.135 A 
ATOM     67  F   UNL A   1      41.149  35.343  36.668  1.00  0.00    -0.206 F 
ATOM     68  C   UNL A   1      40.133  35.675  38.756  1.00  0.00     0.059 A 
ATOM     69  C   UNL A   1      38.582  34.021  39.626  1.00  0.00     0.059 A 
ATOM     70  F   UNL A   1      38.155  32.070  38.402  1.00  0.00    -0.206 F 
ATOM     71  C   UNL A   1      39.262  35.230  39.753  1.00  0.00     0.060 A 
BRANCH  71  72
ATOM     72  S   UNL A   1      39.016  36.269  41.208  1.00  0.00     0.124 S 
ATOM     73  O   UNL A   1      37.799  35.698  41.776  1.00  0.00    -0.237 OA
ATOM     74  O   UNL A   1      40.241  36.035  41.966  1.00  0.00    -0.237 OA
ATOM     75  O   UNL A   1      38.877  37.611  40.650  1.00  0.00    -0.744 OA
ENDBRANCH  71  72
ENDBRANCH  39  64
ENDBRANCH  13  14
ENDBRANCH   6   8
ENDBRANCH   3   4
ENDBRANCH   2   3
ENDBRANCH   1   2
BRANCH   1  76
ATOM     76  C   UNL A   1      40.167  21.552  26.859  1.00  0.00     0.002 C 
BRANCH  76  77
ATOM     77  C   UNL A   1      39.149  22.487  26.226  1.00  0.00     0.021 C 
BRANCH  77  78
ATOM     78  C   UNL A   1      37.933  21.748  25.721  1.00  0.00     0.116 C 
BRANCH  78  79
ATOM     79  N   UNL A   1      36.470  22.502  26.130  1.00  0.00    -0.352 N 
ATOM     80  C   UNL A   1      34.722  21.526  26.664  1.00  0.00     0.251 C 
ATOM     81  H   UNL A   1      36.450  23.486  26.114  1.00  0.00     0.163 HD
ATOM     82  O   UNL A   1      33.989  21.667  27.696  1.00  0.00    -0.269 OA
BRANCH  80  83
ATOM     83  C   UNL A   1      33.655  20.819  25.724  1.00  0.00     0.048 A 
ATOM     84  C   UNL A   1      33.427  19.511  26.221  1.00  0.00     0.014 A 
ATOM     85  C   UNL A   1      33.288  21.338  24.361  1.00  0.00     0.007 A 
ATOM     86  C   UNL A   1      32.921  18.564  25.373  1.00  0.00     0.001 A 
ATOM     87  C   UNL A   1      32.611  20.304  23.641  1.00  0.00    -0.017 A 
ATOM     88  C   UNL A   1      33.568  22.598  23.555  1.00  0.00     0.048 A 
ATOM     89  C   UNL A   1      32.506  18.970  24.112  1.00  0.00     0.009 A 
ATOM     90  C   UNL A   1      32.072  20.521  22.373  1.00  0.00     0.009 A 
ATOM     91  C   UNL A   1      32.907  22.759  22.316  1.00  0.00     0.014 A 
ATOM     92  C   UNL A   1      32.158  21.746  21.742  1.00  0.00     0.001 A 
BRANCH  88  93
ATOM     93  C   UNL A   1      34.606  23.805  23.716  1.00  0.00     0.252 C 
ATOM     94  O   UNL A   1      35.747  23.719  23.256  1.00  0.00    -0.269 OA
ATOM     95  N   UNL A   1      34.297  24.996  24.376  1.00  0.00    -0.345 N 
ATOM     96  H   UNL A   1      34.974  25.614  24.737  1.00  0.00     0.164 HD
BRANCH  95  97
ATOM     97  C   UNL A   1      32.886  25.218  24.469  1.00  0.00     0.134 C 
ATOM     98  C   UNL A   1      32.425  24.562  26.473  1.00  0.00     0.187 C 
ATOM     99  C   UNL A   1      31.484  26.801  24.787  1.00  0.00     0.187 C 
ATOM    100  O   UNL A   1      30.946  25.902  26.466  1.00  0.00    -0.377 OA
ENDBRANCH  95  97
ENDBRANCH  88  93
ENDBRANCH  80  83
ENDBRANCH  78  79
ENDBRANCH  77  78
ENDBRANCH  76  77
ENDBRANCH   1  76
TORSDOF 18
ENDMDL
MODEL 2
REMARK VINA RESULT:     -11.9      1.491      8.530
REMARK SMILES O=C(NCCCCCCNC(=O)c1cccc2cccc(C(=O)NC3COC3)c12)c1ccc(-c2c3nc(c(-c4c(F)cc(S(=O)(=O)[O-])cc4F)c4ccc([nH]4)c(-c4c(F)cc(S(=O)(=O)[O-])cc4F)c4nc(c(-c5c(F)cc(S(=O)(=O)[O-])cc5F)c5ccc2[nH]5)C=C4)C=C3)cc1
REMARK SMILES IDX 6 1 5 2 4 3 3 4 1 5 2 6 30 8 31 9 95 10 32 11 94 12 33 13
REMARK SMILES IDX 34 14 35 15 88 16 36 17 93 18 87 19 89 20 37 21 92 22 86 23
REMARK SMILES IDX 85 24 38 26 72 27 51 28 71 29 52 30 55 31 70 32 90 33 53 34
REMARK SMILES IDX 54 35 69 37 91 38 56 39 39 40 40 41 49 42 41 43 42 44 48 45
REMARK SMILES IDX 50 46 43 47 44 48 45 49 46 50 47 51 73 52 74 53 83 54 75 55
REMARK SMILES IDX 76 56 82 57 84 58 77 59 78 60 79 61 80 62 81 63 57 64 58 65
REMARK SMILES IDX 67 66 59 67 60 68 66 69 68 70 61 71 62 72 63 73 64 74 65 75
REMARK SMILES IDX 7 76 8 77 9 78 10 79 11 80 12 82 13 83 14 84 29 85 15 86
REMARK SMILES IDX 17 87 21 88 16 89 18 90 20 91 19 92 22 93 23 94 24 95 25 97
REMARK SMILES IDX 26 98 28 99 27 100
REMARK H PARENT 3 7 89 25 55 36 10 81 24 96
REMARK Flexibility Score: inf
ROOT
ATOM      1  C   UNL A   1      37.758  22.861  25.260  1.00  0.00     0.002 C 
ENDROOT
BRANCH   1   2
ATOM      2  C   UNL A   1      37.941  23.749  26.497  1.00  0.00     0.021 C 
BRANCH   2   3
ATOM      3  C   UNL A   1      39.335  23.687  27.087  1.00  0.00     0.116 C 
BRANCH   3   4
ATOM      4  N   UNL A   1      40.333  24.126  26.128  1.00  0.00    -0.352 N 
ATOM      5  O   UNL A   1      41.581  25.671  25.056  1.00  0.00    -0.269 OA
ATOM      6  C   UNL A   1      40.950  25.347  26.055  1.00  0.00     0.251 C 
ATOM      7  H   UNL A   1      40.598  23.467  25.448  1.00  0.00     0.163 HD
BRANCH   6   8
ATOM      8  C   UNL A   1      40.817  26.258  27.205  1.00  0.00     0.039 A 
ATOM      9  C   UNL A   1      41.733  27.302  27.364  1.00  0.00     0.014 A 
ATOM     10  C   UNL A   1      39.814  26.036  28.147  1.00  0.00     0.014 A 
ATOM     11  C   UNL A   1      41.734  28.038  28.536  1.00  0.00     0.010 A 
ATOM     12  C   UNL A   1      39.743  26.860  29.270  1.00  0.00     0.010 A 
ATOM     13  C   UNL A   1      40.710  27.856  29.479  1.00  0.00    -0.014 A 
BRANCH  13  14
ATOM     14  C   UNL A   1      40.612  28.800  30.618  1.00  0.00     0.031 A 
ATOM     15  C   UNL A   1      41.500  28.670  31.820  1.00  0.00     0.074 A 
ATOM     16  C   UNL A   1      39.696  29.785  30.541  1.00  0.00     0.049 A 
ATOM     17  N   UNL A   1      41.517  29.397  32.907  1.00  0.00    -0.248 NA
ATOM     18  C   UNL A   1      42.490  27.581  31.811  1.00  0.00     0.031 C 
ATOM     19  C   UNL A   1      38.774  29.994  29.419  1.00  0.00     0.029 A 
ATOM     20  N   UNL A   1      39.388  30.799  31.410  1.00  0.00    -0.354 N 
ATOM     21  C   UNL A   1      42.501  28.849  33.719  1.00  0.00     0.074 A 
ATOM     22  C   UNL A   1      43.039  27.705  33.013  1.00  0.00     0.031 C 
ATOM     23  C   UNL A   1      38.041  31.090  29.645  1.00  0.00     0.029 A 
ATOM     24  C   UNL A   1      38.372  31.610  30.964  1.00  0.00     0.049 A 
ATOM     25  H   UNL A   1      39.850  30.934  32.268  1.00  0.00     0.167 HD
ATOM     26  C   UNL A   1      42.916  29.271  34.938  1.00  0.00     0.037 A 
ATOM     27  C   UNL A   1      37.744  32.638  31.564  1.00  0.00     0.037 A 
ATOM     28  C   UNL A   1      42.360  30.411  35.624  1.00  0.00     0.049 A 
ATOM     29  C   UNL A   1      38.187  33.045  32.939  1.00  0.00     0.074 A 
ATOM     30  C   UNL A   1      42.730  30.940  36.849  1.00  0.00     0.029 A 
ATOM     31  N   UNL A   1      41.309  31.190  35.158  1.00  0.00    -0.354 N 
ATOM     32  N   UNL A   1      39.149  32.541  33.677  1.00  0.00    -0.248 NA
ATOM     33  C   UNL A   1      37.464  34.157  33.563  1.00  0.00     0.031 C 
ATOM     34  C   UNL A   1      41.856  31.987  37.156  1.00  0.00     0.029 A 
ATOM     35  C   UNL A   1      40.994  32.170  36.087  1.00  0.00     0.049 A 
ATOM     36  H   UNL A   1      40.854  31.064  34.294  1.00  0.00     0.167 HD
ATOM     37  C   UNL A   1      39.163  33.295  34.843  1.00  0.00     0.074 A 
ATOM     38  C   UNL A   1      38.128  34.300  34.700  1.00  0.00     0.031 C 
ATOM     39  C   UNL A   1      39.962  33.168  35.931  1.00  0.00     0.037 A 
BRANCH  26  40
ATOM     40  C   UNL A   1      44.002  28.484  35.625  1.00  0.00     0.058 A 
ATOM     41  C   UNL A   1      45.364  28.758  35.421  1.00  0.00     0.135 A 
ATOM     42  C   UNL A   1      43.672  27.472  36.543  1.00  0.00     0.135 A 
ATOM     43  F   UNL A   1      45.741  29.704  34.546  1.00  0.00    -0.206 F 
ATOM     44  C   UNL A   1      46.359  28.041  36.080  1.00  0.00     0.059 A 
ATOM     45  C   UNL A   1      44.649  26.766  37.240  1.00  0.00     0.059 A 
ATOM     46  F   UNL A   1      42.388  27.166  36.780  1.00  0.00    -0.206 F 
ATOM     47  C   UNL A   1      45.991  27.049  36.991  1.00  0.00     0.060 A 
BRANCH  47  48
ATOM     48  S   UNL A   1      47.296  26.138  37.843  1.00  0.00     0.124 S 
ATOM     49  O   UNL A   1      48.019  27.218  38.507  1.00  0.00    -0.237 OA
ATOM     50  O   UNL A   1      46.533  25.254  38.720  1.00  0.00    -0.237 OA
ATOM     51  O   UNL A   1      48.014  25.475  36.760  1.00  0.00    -0.744 OA
ENDBRANCH  47  48
ENDBRANCH  26  40
BRANCH  27  52
ATOM     52  C   UNL A   1      36.625  33.330  30.871  1.00  0.00     0.058 A 
ATOM     53  C   UNL A   1      35.297  33.139  31.273  1.00  0.00     0.135 A 
ATOM     54  C   UNL A   1      36.866  34.212  29.805  1.00  0.00     0.135 A 
ATOM     55  F   UNL A   1      35.015  32.306  32.286  1.00  0.00    -0.206 F 
ATOM     56  C   UNL A   1      34.243  33.778  30.628  1.00  0.00     0.059 A 
ATOM     57  C   UNL A   1      35.833  34.893  29.170  1.00  0.00     0.059 A 
ATOM     58  F   UNL A   1      38.123  34.448  29.394  1.00  0.00    -0.206 F 
ATOM     59  C   UNL A   1      34.524  34.657  29.580  1.00  0.00     0.060 A 
BRANCH  59  60
ATOM     60  S   UNL A   1      33.149  35.510  28.780  1.00  0.00     0.124 S 
ATOM     61  O   UNL A   1      33.847  36.529  28.005  1.00  0.00    -0.237 OA
ATOM     62  O   UNL A   1      32.532  34.434  28.010  1.00  0.00    -0.237 OA
ATOM     63  O   UNL A   1      32.359  36.002  29.903  1.00  0.00    -0.744 OA
ENDBRANCH  59  60
ENDBRANCH  27  52
BRANCH  39  64
ATOM     64  C   UNL A   1      39.780  34.169  37.040  1.00  0.00     0.058 A 
ATOM     65  C   UNL A   1      40.289  35.475  36.956  1.00  0.00     0.135 A 
ATOM     66  C   UNL A   1      39.049  33.826  38.190  1.00  0.00     0.135 A 
ATOM     67  F   UNL A   1      41.005  35.855  35.885  1.00  0.00    -0.206 F 
ATOM     68  C   UNL A   1      40.104  36.394  37.984  1.00  0.00     0.059 A 
ATOM     69  C   UNL A   1      38.818  34.741  39.210  1.00  0.00     0.059 A 
ATOM     70  F   UNL A   1      38.534  32.593  38.322  1.00  0.00    -0.206 F 
ATOM     71  C   UNL A   1      39.361  36.019  39.105  1.00  0.00     0.060 A 
BRANCH  71  72
ATOM     72  S   UNL A   1      39.098  37.236  40.411  1.00  0.00     0.124 S 
ATOM     73  O   UNL A   1      40.463  37.664  40.695  1.00  0.00    -0.237 OA
ATOM     74  O   UNL A   1      38.248  38.221  39.749  1.00  0.00    -0.237 OA
ATOM     75  O   UNL A   1      38.450  36.466  41.468  1.00  0.00    -0.744 OA
ENDBRANCH  71  72
ENDBRANCH  39  64
ENDBRANCH  13  14
ENDBRANCH   6   8
ENDBRANCH   3   4
ENDBRANCH   2   3
ENDBRANCH   1   2
BRANCH   1  76
ATOM     76  C   UNL A   1      36.988  21.550  25.494  1.00  0.00     0.002 C 
BRANCH  76  77
ATOM     77  C   UNL A   1      35.478  21.655  25.354  1.00  0.00     0.021 C 
BRANCH  77  78
ATOM     78  C   UNL A   1      34.780  21.675  26.693  1.00  0.00     0.116 C 
BRANCH  78  79
ATOM     79  N   UNL A   1      33.433  22.702  26.734  1.00  0.00    -0.352 N 
ATOM     80  C   UNL A   1      31.919  22.759  25.321  1.00  0.00     0.251 C 
ATOM     81  H   UNL A   1      33.363  23.325  27.494  1.00  0.00     0.163 HD
ATOM     82  O   UNL A   1      30.658  22.658  25.469  1.00  0.00    -0.269 OA
BRANCH  80  83
ATOM     83  C   UNL A   1      31.923  23.447  23.891  1.00  0.00     0.048 A 
ATOM     84  C   UNL A   1      32.752  22.680  23.034  1.00  0.00     0.014 A 
ATOM     85  C   UNL A   1      31.444  24.853  23.652  1.00  0.00     0.007 A 
ATOM     86  C   UNL A   1      33.278  23.276  21.920  1.00  0.00     0.001 A 
ATOM     87  C   UNL A   1      31.918  25.292  22.377  1.00  0.00    -0.017 A 
ATOM     88  C   UNL A   1      30.719  25.916  24.464  1.00  0.00     0.048 A 
ATOM     89  C   UNL A   1      32.846  24.555  21.597  1.00  0.00     0.009 A 
ATOM     90  C   UNL A   1      31.560  26.531  21.844  1.00  0.00     0.009 A 
ATOM     91  C   UNL A   1      30.325  27.104  23.807  1.00  0.00     0.014 A 
ATOM     92  C   UNL A   1      30.723  27.401  22.515  1.00  0.00     0.001 A 
BRANCH  88  93
ATOM     93  C   UNL A   1      30.391  26.086  26.021  1.00  0.00     0.252 C 
ATOM     94  O   UNL A   1      29.580  25.344  26.579  1.00  0.00    -0.269 OA
ATOM     95  N   UNL A   1      30.980  27.065  26.824  1.00  0.00    -0.345 N 
ATOM     96  H   UNL A   1      30.600  27.377  27.677  1.00  0.00     0.164 HD
BRANCH  95  97
ATOM     97  C   UNL A   1      32.200  27.566  26.266  1.00  0.00     0.134 C 
ATOM     98  C   UNL A   1      31.734  29.634  25.861  1.00  0.00     0.187 C 
ATOM     99  C   UNL A   1      34.136  28.240  26.876  1.00  0.00     0.187 C 
ATOM    100  O   UNL A   1      33.666  30.028  26.168  1.00  0.00    -0.377 OA
ENDBRANCH  95  97
ENDBRANCH  88  93
ENDBRANCH  80  83
ENDBRANCH  78  79
ENDBRANCH  77  78
ENDBRANCH  76  77
ENDBRANCH   1  76
TORSDOF 18
ENDMDL
MODEL 3
REMARK VINA RESULT:     -11.8      1.490      8.815
REMARK SMILES O=C(NCCCCCCNC(=O)c1cccc2cccc(C(=O)NC3COC3)c12)c1ccc(-c2c3nc(c(-c4c(F)cc(S(=O)(=O)[O-])cc4F)c4ccc([nH]4)c(-c4c(F)cc(S(=O)(=O)[O-])cc4F)c4nc(c(-c5c(F)cc(S(=O)(=O)[O-])cc5F)c5ccc2[nH]5)C=C4)C=C3)cc1
REMARK SMILES IDX 6 1 5 2 4 3 3 4 1 5 2 6 30 8 31 9 95 10 32 11 94 12 33 13
REMARK SMILES IDX 34 14 35 15 88 16 36 17 93 18 87 19 89 20 37 21 92 22 86 23
REMARK SMILES IDX 85 24 38 26 72 27 51 28 71 29 52 30 55 31 70 32 90 33 53 34
REMARK SMILES IDX 54 35 69 37 91 38 56 39 39 40 40 41 49 42 41 43 42 44 48 45
REMARK SMILES IDX 50 46 43 47 44 48 45 49 46 50 47 51 73 52 74 53 83 54 75 55
REMARK SMILES IDX 76 56 82 57 84 58 77 59 78 60 79 61 80 62 81 63 57 64 58 65
REMARK SMILES IDX 67 66 59 67 60 68 66 69 68 70 61 71 62 72 63 73 64 74 65 75
REMARK SMILES IDX 7 76 8 77 9 78 10 79 11 80 12 82 13 83 14 84 29 85 15 86
REMARK SMILES IDX 17 87 21 88 16 89 18 90 20 91 19 92 22 93 23 94 24 95 25 97
REMARK SMILES IDX 26 98 28 99 27 100
REMARK H PARENT 3 7 89 25 55 36 10 81 24 96
REMARK Flexibility Score: inf
ROOT
ATOM      1  C   UNL A   1      38.133  23.842  25.985  1.00  0.00     0.002 C 
ENDROOT
BRANCH   1   2
ATOM      2  C   UNL A   1      39.096  22.808  26.581  1.00  0.00     0.021 C 
BRANCH   2   3
ATOM      3  C   UNL A   1      40.355  23.416  27.164  1.00  0.00     0.116 C 
BRANCH   3   4
ATOM      4  N   UNL A   1      41.174  24.023  26.129  1.00  0.00    -0.352 N 
ATOM      5  O   UNL A   1      42.033  25.763  24.976  1.00  0.00    -0.269 OA
ATOM      6  C   UNL A   1      41.557  25.334  26.021  1.00  0.00     0.251 C 
ATOM      7  H   UNL A   1      41.490  23.420  25.419  1.00  0.00     0.163 HD
BRANCH   6   8
ATOM      8  C   UNL A   1      41.367  26.208  27.191  1.00  0.00     0.039 A 
ATOM      9  C   UNL A   1      42.231  27.290  27.388  1.00  0.00     0.014 A 
ATOM     10  C   UNL A   1      40.363  25.916  28.113  1.00  0.00     0.014 A 
ATOM     11  C   UNL A   1      42.181  27.995  28.578  1.00  0.00     0.010 A 
ATOM     12  C   UNL A   1      40.239  26.707  29.255  1.00  0.00     0.010 A 
ATOM     13  C   UNL A   1      41.154  27.742  29.502  1.00  0.00    -0.014 A 
BRANCH  13  14
ATOM     14  C   UNL A   1      40.998  28.650  30.663  1.00  0.00     0.031 A 
ATOM     15  C   UNL A   1      41.878  28.535  31.871  1.00  0.00     0.074 A 
ATOM     16  C   UNL A   1      40.033  29.591  30.599  1.00  0.00     0.049 A 
ATOM     17  N   UNL A   1      41.846  29.235  32.976  1.00  0.00    -0.248 NA
ATOM     18  C   UNL A   1      42.921  27.497  31.848  1.00  0.00     0.031 C 
ATOM     19  C   UNL A   1      39.115  29.781  29.471  1.00  0.00     0.029 A 
ATOM     20  N   UNL A   1      39.666  30.566  31.488  1.00  0.00    -0.354 N 
ATOM     21  C   UNL A   1      42.848  28.717  33.785  1.00  0.00     0.074 A 
ATOM     22  C   UNL A   1      43.451  27.619  33.058  1.00  0.00     0.031 C 
ATOM     23  C   UNL A   1      38.325  30.833  29.715  1.00  0.00     0.029 A 
ATOM     24  C   UNL A   1      38.616  31.336  31.050  1.00  0.00     0.049 A 
ATOM     25  H   UNL A   1      40.111  30.702  32.355  1.00  0.00     0.167 HD
ATOM     26  C   UNL A   1      43.228  29.128  35.019  1.00  0.00     0.037 A 
ATOM     27  C   UNL A   1      37.931  32.316  31.668  1.00  0.00     0.037 A 
ATOM     28  C   UNL A   1      42.609  30.222  35.727  1.00  0.00     0.049 A 
ATOM     29  C   UNL A   1      38.338  32.710  33.056  1.00  0.00     0.074 A 
ATOM     30  C   UNL A   1      42.939  30.738  36.968  1.00  0.00     0.029 A 
ATOM     31  N   UNL A   1      41.525  30.958  35.267  1.00  0.00    -0.354 N 
ATOM     32  N   UNL A   1      39.316  32.237  33.794  1.00  0.00    -0.248 NA
ATOM     33  C   UNL A   1      37.554  33.769  33.699  1.00  0.00     0.031 C 
ATOM     34  C   UNL A   1      42.011  31.732  37.290  1.00  0.00     0.029 A 
ATOM     35  C   UNL A   1      41.152  31.899  36.215  1.00  0.00     0.049 A 
ATOM     36  H   UNL A   1      41.086  30.831  34.395  1.00  0.00     0.167 HD
ATOM     37  C   UNL A   1      39.280  32.961  34.978  1.00  0.00     0.074 A 
ATOM     38  C   UNL A   1      38.198  33.917  34.847  1.00  0.00     0.031 C 
ATOM     39  C   UNL A   1      40.072  32.847  36.072  1.00  0.00     0.037 A 
BRANCH  26  40
ATOM     40  C   UNL A   1      44.345  28.380  35.700  1.00  0.00     0.058 A 
ATOM     41  C   UNL A   1      45.696  28.701  35.487  1.00  0.00     0.135 A 
ATOM     42  C   UNL A   1      44.056  27.357  36.621  1.00  0.00     0.135 A 
ATOM     43  F   UNL A   1      46.035  29.659  34.611  1.00  0.00    -0.206 F 
ATOM     44  C   UNL A   1      46.719  28.018  36.141  1.00  0.00     0.059 A 
ATOM     45  C   UNL A   1      45.061  26.686  37.312  1.00  0.00     0.059 A 
ATOM     46  F   UNL A   1      42.784  27.007  36.865  1.00  0.00    -0.206 F 
ATOM     47  C   UNL A   1      46.391  27.014  37.054  1.00  0.00     0.060 A 
BRANCH  47  48
ATOM     48  S   UNL A   1      47.731  26.150  37.899  1.00  0.00     0.124 S 
ATOM     49  O   UNL A   1      47.886  26.959  39.103  1.00  0.00    -0.237 OA
ATOM     50  O   UNL A   1      47.164  24.820  38.098  1.00  0.00    -0.237 OA
ATOM     51  O   UNL A   1      48.837  26.222  36.949  1.00  0.00    -0.744 OA
ENDBRANCH  47  48
ENDBRANCH  26  40
BRANCH  27  52
ATOM     52  C   UNL A   1      36.786  32.968  30.978  1.00  0.00     0.058 A 
ATOM     53  C   UNL A   1      36.994  33.942  29.993  1.00  0.00     0.135 A 
ATOM     54  C   UNL A   1      35.460  32.614  31.279  1.00  0.00     0.135 A 
ATOM     55  F   UNL A   1      38.241  34.315  29.670  1.00  0.00    -0.206 F 
ATOM     56  C   UNL A   1      35.930  34.560  29.346  1.00  0.00     0.059 A 
ATOM     57  C   UNL A   1      34.380  33.190  30.618  1.00  0.00     0.059 A 
ATOM     58  F   UNL A   1      35.205  31.671  32.200  1.00  0.00    -0.206 F 
ATOM     59  C   UNL A   1      34.626  34.173  29.663  1.00  0.00     0.060 A 
BRANCH  59  60
ATOM     60  S   UNL A   1      33.257  34.956  28.786  1.00  0.00     0.124 S 
ATOM     61  O   UNL A   1      33.940  36.032  28.077  1.00  0.00    -0.237 OA
ATOM     62  O   UNL A   1      32.761  33.860  27.959  1.00  0.00    -0.237 OA
ATOM     63  O   UNL A   1      32.365  35.375  29.862  1.00  0.00    -0.744 OA
ENDBRANCH  59  60
ENDBRANCH  27  52
BRANCH  39  64
ATOM     64  C   UNL A   1      39.829  33.810  37.203  1.00  0.00     0.058 A 
ATOM     65  C   UNL A   1      38.920  33.533  38.236  1.00  0.00     0.135 A 
ATOM     66  C   UNL A   1      40.550  35.015  37.273  1.00  0.00     0.135 A 
ATOM     67  F   UNL A   1      38.196  32.402  38.215  1.00  0.00    -0.206 F 
ATOM     68  C   UNL A   1      38.714  34.427  39.282  1.00  0.00     0.059 A 
ATOM     69  C   UNL A   1      40.388  35.903  38.329  1.00  0.00     0.059 A 
ATOM     70  F   UNL A   1      41.437  35.329  36.316  1.00  0.00    -0.206 F 
ATOM     71  C   UNL A   1      39.458  35.607  39.323  1.00  0.00     0.060 A 
BRANCH  71  72
ATOM     72  S   UNL A   1      39.205  36.738  40.706  1.00  0.00     0.124 S 
ATOM     73  O   UNL A   1      38.446  35.905  41.633  1.00  0.00    -0.237 OA
ATOM     74  O   UNL A   1      40.574  37.049  41.105  1.00  0.00    -0.237 OA
ATOM     75  O   UNL A   1      38.465  37.846  40.110  1.00  0.00    -0.744 OA
ENDBRANCH  71  72
ENDBRANCH  39  64
ENDBRANCH  13  14
ENDBRANCH   6   8
ENDBRANCH   3   4
ENDBRANCH   2   3
ENDBRANCH   1   2
BRANCH   1  76
ATOM     76  C   UNL A   1      36.638  23.561  26.209  1.00  0.00     0.002 C 
BRANCH  76  77
ATOM     77  C   UNL A   1      35.894  23.024  24.996  1.00  0.00     0.021 C 
BRANCH  77  78
ATOM     78  C   UNL A   1      34.580  23.734  24.772  1.00  0.00     0.116 C 
BRANCH  78  79
ATOM     79  N   UNL A   1      33.964  24.466  26.171  1.00  0.00    -0.352 N 
ATOM     80  C   UNL A   1      32.382  25.803  26.233  1.00  0.00     0.251 C 
ATOM     81  H   UNL A   1      34.392  24.235  27.027  1.00  0.00     0.163 HD
ATOM     82  O   UNL A   1      31.311  25.771  26.921  1.00  0.00    -0.269 OA
BRANCH  80  83
ATOM     83  C   UNL A   1      32.379  27.351  25.881  1.00  0.00     0.048 A 
ATOM     84  C   UNL A   1      33.207  28.018  26.819  1.00  0.00     0.014 A 
ATOM     85  C   UNL A   1      31.368  27.986  24.966  1.00  0.00     0.007 A 
ATOM     86  C   UNL A   1      33.025  29.360  27.020  1.00  0.00     0.001 A 
ATOM     87  C   UNL A   1      31.403  29.403  25.152  1.00  0.00    -0.017 A 
ATOM     88  C   UNL A   1      30.275  27.491  24.030  1.00  0.00     0.048 A 
ATOM     89  C   UNL A   1      32.148  30.034  26.182  1.00  0.00     0.009 A 
ATOM     90  C   UNL A   1      30.631  30.267  24.375  1.00  0.00     0.009 A 
ATOM     91  C   UNL A   1      29.608  28.441  23.223  1.00  0.00     0.014 A 
ATOM     92  C   UNL A   1      29.793  29.803  23.380  1.00  0.00     0.001 A 
BRANCH  88  93
ATOM     93  C   UNL A   1      29.553  26.079  23.822  1.00  0.00     0.252 C 
ATOM     94  O   UNL A   1      28.330  25.973  23.943  1.00  0.00    -0.269 OA
ATOM     95  N   UNL A   1      30.243  24.907  23.506  1.00  0.00    -0.345 N 
ATOM     96  H   UNL A   1      29.883  24.002  23.656  1.00  0.00     0.164 HD
BRANCH  95  97
ATOM     97  C   UNL A   1      31.532  25.168  22.942  1.00  0.00     0.134 C 
ATOM     98  C   UNL A   1      32.247  23.196  22.436  1.00  0.00     0.187 C 
ATOM     99  C   UNL A   1      32.428  25.836  21.119  1.00  0.00     0.187 C 
ATOM    100  O   UNL A   1      33.274  24.054  20.955  1.00  0.00    -0.377 OA
ENDBRANCH  95  97
ENDBRANCH  88  93
ENDBRANCH  80  83
ENDBRANCH  78  79
ENDBRANCH  77  78
ENDBRANCH  76  77
ENDBRANCH   1  76
TORSDOF 18
ENDMDL
