MODEL 1
REMARK VINA RESULT:     -14.3      0.000      0.000
REMARK SMILES Cc1ccc(S(=O)(=O)N2c3ccc(C(=O)NCCCCCCNC(=O)c4ccc(-c5c6nc(c(-c7c(F)cc(S(=O)(=O)[O-])cc7F)c7ccc([nH]7)c(-c7c(F)cc(S(=O)(=O)[O-])cc7F)c7nc(c(-c8c(F)cc(S(=O)(=O)[O-])cc8F)c8ccc5[nH]8)C=C7)C=C6)cc4)cc3C[C@H]2C)cc1
REMARK SMILES IDX 20 1 19 2 18 3 17 4 16 5 14 6 15 7 13 9 9 10 10 11 95 12
REMARK SMILES IDX 11 13 93 14 94 15 96 16 12 17 92 18 6 19 7 20 8 21 5 22 1 23
REMARK SMILES IDX 2 24 3 25 98 26 4 27 97 28 21 29 22 30 23 31 24 32 25 34
REMARK SMILES IDX 26 35 27 36 91 37 28 38 90 39 29 40 30 41 31 42 84 43 32 44
REMARK SMILES IDX 89 45 83 46 85 47 33 48 88 49 82 50 81 51 34 53 68 54 47 55
REMARK SMILES IDX 67 56 48 57 51 58 66 59 86 60 49 61 50 62 65 64 87 65 52 66
REMARK SMILES IDX 35 67 36 68 45 69 37 70 38 71 44 72 46 73 39 74 40 75 41 76
REMARK SMILES IDX 42 77 43 78 69 79 70 80 79 81 71 82 72 83 78 84 80 85 73 86
REMARK SMILES IDX 74 87 75 88 76 89 77 90 53 91 54 92 63 93 55 94 56 95 62 96
REMARK SMILES IDX 64 97 57 98 58 99 59 100 60 101 61 102
REMARK H PARENT 16 8 23 33 85 52 51 63
REMARK Flexibility Score: inf
ROOT
ATOM      1  C   UNL A   1      31.993  29.581  26.086  1.00  0.00     0.002 C 
ENDROOT
BRANCH   1   2
ATOM      2  C   UNL A   1      31.109  30.197  24.993  1.00  0.00     0.002 C 
BRANCH   2   3
ATOM      3  C   UNL A   1      30.401  29.278  23.993  1.00  0.00     0.021 C 
BRANCH   3   4
ATOM      4  C   UNL A   1      30.921  29.224  22.562  1.00  0.00     0.116 C 
BRANCH   4   5
ATOM      5  N   UNL A   1      32.360  29.313  22.411  1.00  0.00    -0.352 N 
ATOM      6  C   UNL A   1      33.312  28.324  22.529  1.00  0.00     0.251 C 
ATOM      7  O   UNL A   1      34.496  28.606  22.346  1.00  0.00    -0.269 OA
ATOM      8  H   UNL A   1      32.707  30.209  22.194  1.00  0.00     0.163 HD
BRANCH   6   9
ATOM      9  C   UNL A   1      32.960  26.930  22.937  1.00  0.00     0.040 A 
ATOM     10  N   UNL A   1      31.724  23.191  24.490  1.00  0.00    -0.263 N 
ATOM     11  C   UNL A   1      32.162  24.401  23.819  1.00  0.00     0.055 A 
ATOM     12  C   UNL A   1      31.800  23.535  25.969  1.00  0.00     0.101 C 
ATOM     13  C   UNL A   1      32.148  24.670  22.463  1.00  0.00     0.028 A 
ATOM     14  C   UNL A   1      32.626  25.354  24.723  1.00  0.00    -0.021 A 
ATOM     15  C   UNL A   1      32.700  24.783  26.097  1.00  0.00     0.063 C 
ATOM     16  C   UNL A   1      30.383  23.849  26.468  1.00  0.00     0.032 C 
ATOM     17  C   UNL A   1      32.596  25.924  22.024  1.00  0.00     0.016 A 
ATOM     18  C   UNL A   1      33.019  26.619  24.304  1.00  0.00     0.019 A 
BRANCH  10  19
ATOM     19  S   UNL A   1      32.600  21.802  23.970  1.00  0.00     0.264 S 
ATOM     20  O   UNL A   1      32.557  21.772  22.521  1.00  0.00    -0.201 OA
ATOM     21  O   UNL A   1      32.141  20.666  24.747  1.00  0.00    -0.201 OA
BRANCH  19  22
ATOM     22  C   UNL A   1      34.327  21.980  24.400  1.00  0.00     0.088 A 
ATOM     23  C   UNL A   1      38.512  21.724  25.405  1.00  0.00     0.044 C 
ATOM     24  C   UNL A   1      37.054  21.860  25.080  1.00  0.00    -0.051 A 
ATOM     25  C   UNL A   1      36.093  21.301  25.928  1.00  0.00     0.005 A 
ATOM     26  C   UNL A   1      36.633  22.545  23.936  1.00  0.00     0.005 A 
ATOM     27  C   UNL A   1      34.740  21.359  25.589  1.00  0.00     0.022 A 
ATOM     28  C   UNL A   1      35.275  22.610  23.599  1.00  0.00     0.022 A 
ENDBRANCH  19  22
ENDBRANCH  10  19
ENDBRANCH   6   9
ENDBRANCH   4   5
ENDBRANCH   3   4
ENDBRANCH   2   3
ENDBRANCH   1   2
BRANCH   1  29
ATOM     29  C   UNL A   1      32.928  30.494  26.880  1.00  0.00     0.021 C 
BRANCH  29  30
ATOM     30  C   UNL A   1      34.313  29.948  27.168  1.00  0.00     0.116 C 
BRANCH  30  31
ATOM     31  N   UNL A   1      35.380  30.928  27.288  1.00  0.00    -0.352 N 
ATOM     32  C   UNL A   1      36.095  30.948  28.491  1.00  0.00     0.251 C 
ATOM     33  H   UNL A   1      35.590  31.551  26.555  1.00  0.00     0.163 HD
ATOM     34  O   UNL A   1      35.837  31.641  29.448  1.00  0.00    -0.269 OA
BRANCH  32  35
ATOM     35  C   UNL A   1      37.021  29.795  28.609  1.00  0.00     0.039 A 
ATOM     36  C   UNL A   1      37.091  29.027  29.769  1.00  0.00     0.014 A 
ATOM     37  C   UNL A   1      37.990  29.691  27.609  1.00  0.00     0.014 A 
ATOM     38  C   UNL A   1      38.223  28.236  29.987  1.00  0.00     0.010 A 
ATOM     39  C   UNL A   1      39.145  28.989  27.870  1.00  0.00     0.010 A 
ATOM     40  C   UNL A   1      39.276  28.283  29.071  1.00  0.00    -0.014 A 
BRANCH  40  41
ATOM     41  C   UNL A   1      40.588  27.679  29.274  1.00  0.00     0.031 A 
ATOM     42  C   UNL A   1      40.850  26.298  28.805  1.00  0.00     0.074 A 
ATOM     43  C   UNL A   1      41.608  28.447  29.711  1.00  0.00     0.049 A 
ATOM     44  N   UNL A   1      41.878  25.591  29.137  1.00  0.00    -0.248 NA
ATOM     45  C   UNL A   1      39.927  25.583  27.933  1.00  0.00     0.031 C 
ATOM     46  C   UNL A   1      43.037  28.178  29.583  1.00  0.00     0.029 A 
ATOM     47  N   UNL A   1      41.539  29.560  30.549  1.00  0.00    -0.354 N 
ATOM     48  C   UNL A   1      41.900  24.466  28.340  1.00  0.00     0.074 A 
ATOM     49  C   UNL A   1      40.632  24.485  27.647  1.00  0.00     0.031 C 
ATOM     50  C   UNL A   1      43.703  28.918  30.482  1.00  0.00     0.029 A 
ATOM     51  C   UNL A   1      42.713  29.560  31.328  1.00  0.00     0.049 A 
ATOM     52  H   UNL A   1      40.810  30.219  30.590  1.00  0.00     0.167 HD
ATOM     53  C   UNL A   1      43.043  23.719  28.271  1.00  0.00     0.037 A 
ATOM     54  C   UNL A   1      42.652  29.417  32.686  1.00  0.00     0.037 A 
ATOM     55  C   UNL A   1      44.048  24.222  29.210  1.00  0.00     0.049 A 
ATOM     56  C   UNL A   1      43.347  28.179  33.207  1.00  0.00     0.074 A 
ATOM     57  C   UNL A   1      45.139  25.062  29.056  1.00  0.00     0.029 A 
ATOM     58  N   UNL A   1      43.829  24.109  30.579  1.00  0.00    -0.354 N 
ATOM     59  N   UNL A   1      43.677  27.157  32.466  1.00  0.00    -0.248 NA
ATOM     60  C   UNL A   1      43.727  27.996  34.605  1.00  0.00     0.031 C 
ATOM     61  C   UNL A   1      45.536  25.508  30.341  1.00  0.00     0.029 A 
ATOM     62  C   UNL A   1      44.701  24.922  31.277  1.00  0.00     0.049 A 
ATOM     63  H   UNL A   1      43.148  23.530  30.991  1.00  0.00     0.167 HD
ATOM     64  C   UNL A   1      44.262  26.191  33.245  1.00  0.00     0.074 A 
ATOM     65  C   UNL A   1      44.298  26.779  34.571  1.00  0.00     0.031 C 
ATOM     66  C   UNL A   1      44.660  24.987  32.732  1.00  0.00     0.037 A 
BRANCH  53  67
ATOM     67  C   UNL A   1      43.359  22.724  27.164  1.00  0.00     0.058 A 
ATOM     68  C   UNL A   1      42.676  21.487  27.088  1.00  0.00     0.135 A 
ATOM     69  C   UNL A   1      44.358  22.888  26.185  1.00  0.00     0.135 A 
ATOM     70  F   UNL A   1      41.624  21.215  27.872  1.00  0.00    -0.206 F 
ATOM     71  C   UNL A   1      43.040  20.461  26.211  1.00  0.00     0.059 A 
ATOM     72  C   UNL A   1      44.780  21.860  25.335  1.00  0.00     0.059 A 
ATOM     73  F   UNL A   1      44.932  24.078  25.967  1.00  0.00    -0.206 F 
ATOM     74  C   UNL A   1      44.124  20.639  25.364  1.00  0.00     0.060 A 
BRANCH  74  75
ATOM     75  S   UNL A   1      44.644  19.275  24.307  1.00  0.00     0.124 S 
ATOM     76  O   UNL A   1      46.042  19.105  24.691  1.00  0.00    -0.237 OA
ATOM     77  O   UNL A   1      43.737  18.208  24.718  1.00  0.00    -0.237 OA
ATOM     78  O   UNL A   1      44.432  19.791  22.958  1.00  0.00    -0.744 OA
ENDBRANCH  74  75
ENDBRANCH  53  67
BRANCH  54  79
ATOM     79  C   UNL A   1      41.441  30.056  33.276  1.00  0.00     0.058 A 
ATOM     80  C   UNL A   1      41.505  31.441  33.524  1.00  0.00     0.135 A 
ATOM     81  C   UNL A   1      40.170  29.485  33.113  1.00  0.00     0.135 A 
ATOM     82  F   UNL A   1      42.696  32.031  33.718  1.00  0.00    -0.206 F 
ATOM     83  C   UNL A   1      40.385  32.257  33.404  1.00  0.00     0.059 A 
ATOM     84  C   UNL A   1      39.029  30.284  33.006  1.00  0.00     0.059 A 
ATOM     85  F   UNL A   1      40.044  28.169  32.889  1.00  0.00    -0.206 F 
ATOM     86  C   UNL A   1      39.168  31.673  33.057  1.00  0.00     0.060 A 
BRANCH  86  87
ATOM     87  S   UNL A   1      37.832  32.762  32.501  1.00  0.00     0.124 S 
ATOM     88  O   UNL A   1      38.056  33.960  33.301  1.00  0.00    -0.237 OA
ATOM     89  O   UNL A   1      38.122  32.892  31.070  1.00  0.00    -0.237 OA
ATOM     90  O   UNL A   1      36.628  32.005  32.822  1.00  0.00    -0.744 OA
ENDBRANCH  86  87
ENDBRANCH  54  79
BRANCH  66  91
ATOM     91  C   UNL A   1      45.132  23.788  33.526  1.00  0.00     0.058 A 
ATOM     92  C   UNL A   1      46.437  23.634  34.023  1.00  0.00     0.135 A 
ATOM     93  C   UNL A   1      44.207  22.793  33.936  1.00  0.00     0.135 A 
ATOM     94  F   UNL A   1      47.380  24.563  33.810  1.00  0.00    -0.206 F 
ATOM     95  C   UNL A   1      46.818  22.542  34.807  1.00  0.00     0.059 A 
ATOM     96  C   UNL A   1      44.553  21.727  34.764  1.00  0.00     0.059 A 
ATOM     97  F   UNL A   1      42.922  22.831  33.554  1.00  0.00    -0.206 F 
ATOM     98  C   UNL A   1      45.870  21.593  35.174  1.00  0.00     0.060 A 
BRANCH  98  99
ATOM     99  S   UNL A   1      46.333  20.217  36.243  1.00  0.00     0.124 S 
ATOM    100  O   UNL A   1      45.620  19.109  35.618  1.00  0.00    -0.237 OA
ATOM    101  O   UNL A   1      47.788  20.180  36.116  1.00  0.00    -0.237 OA
ATOM    102  O   UNL A   1      45.837  20.634  37.551  1.00  0.00    -0.744 OA
ENDBRANCH  98  99
ENDBRANCH  66  91
ENDBRANCH  40  41
ENDBRANCH  32  35
ENDBRANCH  30  31
ENDBRANCH  29  30
ENDBRANCH   1  29
TORSDOF 18
ENDMDL
MODEL 2
REMARK VINA RESULT:     -14.2      1.379      2.035
REMARK SMILES Cc1ccc(S(=O)(=O)N2c3ccc(C(=O)NCCCCCCNC(=O)c4ccc(-c5c6nc(c(-c7c(F)cc(S(=O)(=O)[O-])cc7F)c7ccc([nH]7)c(-c7c(F)cc(S(=O)(=O)[O-])cc7F)c7nc(c(-c8c(F)cc(S(=O)(=O)[O-])cc8F)c8ccc5[nH]8)C=C7)C=C6)cc4)cc3C[C@H]2C)cc1
REMARK SMILES IDX 20 1 19 2 18 3 17 4 16 5 14 6 15 7 13 9 9 10 10 11 95 12
REMARK SMILES IDX 11 13 93 14 94 15 96 16 12 17 92 18 6 19 7 20 8 21 5 22 1 23
REMARK SMILES IDX 2 24 3 25 98 26 4 27 97 28 21 29 22 30 23 31 24 32 25 34
REMARK SMILES IDX 26 35 27 36 91 37 28 38 90 39 29 40 30 41 31 42 84 43 32 44
REMARK SMILES IDX 89 45 83 46 85 47 33 48 88 49 82 50 81 51 34 53 68 54 47 55
REMARK SMILES IDX 67 56 48 57 51 58 66 59 86 60 49 61 50 62 65 64 87 65 52 66
REMARK SMILES IDX 35 67 36 68 45 69 37 70 38 71 44 72 46 73 39 74 40 75 41 76
REMARK SMILES IDX 42 77 43 78 69 79 70 80 79 81 71 82 72 83 78 84 80 85 73 86
REMARK SMILES IDX 74 87 75 88 76 89 77 90 53 91 54 92 63 93 55 94 56 95 62 96
REMARK SMILES IDX 64 97 57 98 58 99 59 100 60 101 61 102
REMARK H PARENT 16 8 23 33 85 52 51 63
REMARK Flexibility Score: inf
ROOT
ATOM      1  C   UNL A   1      33.770  27.841  25.847  1.00  0.00     0.002 C 
ENDROOT
BRANCH   1   2
ATOM      2  C   UNL A   1      33.755  28.176  24.349  1.00  0.00     0.002 C 
BRANCH   2   3
ATOM      3  C   UNL A   1      32.722  29.171  23.813  1.00  0.00     0.021 C 
BRANCH   3   4
ATOM      4  C   UNL A   1      31.440  29.387  24.609  1.00  0.00     0.116 C 
BRANCH   4   5
ATOM      5  N   UNL A   1      30.221  28.918  23.979  1.00  0.00    -0.352 N 
ATOM      6  C   UNL A   1      29.772  27.627  23.805  1.00  0.00     0.251 C 
ATOM      7  O   UNL A   1      28.689  27.439  23.251  1.00  0.00    -0.269 OA
ATOM      8  H   UNL A   1      29.631  29.622  23.626  1.00  0.00     0.163 HD
BRANCH   6   9
ATOM      9  C   UNL A   1      30.589  26.442  24.208  1.00  0.00     0.040 A 
ATOM     10  N   UNL A   1      33.246  23.247  25.012  1.00  0.00    -0.263 N 
ATOM     11  C   UNL A   1      32.273  24.315  24.878  1.00  0.00     0.055 A 
ATOM     12  C   UNL A   1      33.811  23.078  23.610  1.00  0.00     0.101 C 
ATOM     13  C   UNL A   1      31.573  24.954  25.883  1.00  0.00     0.028 A 
ATOM     14  C   UNL A   1      32.093  24.686  23.547  1.00  0.00    -0.021 A 
ATOM     15  C   UNL A   1      32.822  23.756  22.640  1.00  0.00     0.063 C 
ATOM     16  C   UNL A   1      35.177  23.775  23.551  1.00  0.00     0.032 C 
ATOM     17  C   UNL A   1      30.692  25.987  25.535  1.00  0.00     0.016 A 
ATOM     18  C   UNL A   1      31.266  25.746  23.196  1.00  0.00     0.019 A 
BRANCH  10  19
ATOM     19  S   UNL A   1      32.577  21.843  25.754  1.00  0.00     0.264 S 
ATOM     20  O   UNL A   1      31.133  21.946  25.667  1.00  0.00    -0.201 OA
ATOM     21  O   UNL A   1      33.229  21.660  27.037  1.00  0.00    -0.201 OA
BRANCH  19  22
ATOM     22  C   UNL A   1      33.019  20.391  24.807  1.00  0.00     0.088 A 
ATOM     23  C   UNL A   1      34.081  16.564  23.129  1.00  0.00     0.044 C 
ATOM     24  C   UNL A   1      33.734  17.919  23.671  1.00  0.00    -0.051 A 
ATOM     25  C   UNL A   1      34.594  18.554  24.571  1.00  0.00     0.005 A 
ATOM     26  C   UNL A   1      32.556  18.568  23.286  1.00  0.00     0.005 A 
ATOM     27  C   UNL A   1      34.238  19.780  25.137  1.00  0.00     0.022 A 
ATOM     28  C   UNL A   1      32.201  19.801  23.848  1.00  0.00     0.022 A 
ENDBRANCH  19  22
ENDBRANCH  10  19
ENDBRANCH   6   9
ENDBRANCH   4   5
ENDBRANCH   3   4
ENDBRANCH   2   3
ENDBRANCH   1   2
BRANCH   1  29
ATOM     29  C   UNL A   1      34.774  28.556  26.753  1.00  0.00     0.021 C 
BRANCH  29  30
ATOM     30  C   UNL A   1      34.387  29.948  27.214  1.00  0.00     0.116 C 
BRANCH  30  31
ATOM     31  N   UNL A   1      35.458  30.930  27.266  1.00  0.00    -0.352 N 
ATOM     32  C   UNL A   1      36.218  30.983  28.440  1.00  0.00     0.251 C 
ATOM     33  H   UNL A   1      35.640  31.531  26.508  1.00  0.00     0.163 HD
ATOM     34  O   UNL A   1      35.995  31.704  29.386  1.00  0.00    -0.269 OA
BRANCH  32  35
ATOM     35  C   UNL A   1      37.148  29.834  28.557  1.00  0.00     0.039 A 
ATOM     36  C   UNL A   1      37.200  29.046  29.705  1.00  0.00     0.014 A 
ATOM     37  C   UNL A   1      38.136  29.751  27.574  1.00  0.00     0.014 A 
ATOM     38  C   UNL A   1      38.332  28.258  29.931  1.00  0.00     0.010 A 
ATOM     39  C   UNL A   1      39.289  29.051  27.845  1.00  0.00     0.010 A 
ATOM     40  C   UNL A   1      39.402  28.325  29.036  1.00  0.00    -0.014 A 
BRANCH  40  41
ATOM     41  C   UNL A   1      40.713  27.724  29.254  1.00  0.00     0.031 A 
ATOM     42  C   UNL A   1      40.990  26.351  28.771  1.00  0.00     0.074 A 
ATOM     43  C   UNL A   1      41.721  28.492  29.720  1.00  0.00     0.049 A 
ATOM     44  N   UNL A   1      42.015  25.645  29.111  1.00  0.00    -0.248 NA
ATOM     45  C   UNL A   1      40.086  25.644  27.872  1.00  0.00     0.031 C 
ATOM     46  C   UNL A   1      43.154  28.231  29.613  1.00  0.00     0.029 A 
ATOM     47  N   UNL A   1      41.632  29.592  30.572  1.00  0.00    -0.354 N 
ATOM     48  C   UNL A   1      42.058  24.531  28.298  1.00  0.00     0.074 A 
ATOM     49  C   UNL A   1      40.802  24.554  27.583  1.00  0.00     0.031 C 
ATOM     50  C   UNL A   1      43.800  28.961  30.534  1.00  0.00     0.029 A 
ATOM     51  C   UNL A   1      42.792  29.586  31.371  1.00  0.00     0.049 A 
ATOM     52  H   UNL A   1      40.899  30.247  30.609  1.00  0.00     0.167 HD
ATOM     53  C   UNL A   1      43.205  23.791  28.239  1.00  0.00     0.037 A 
ATOM     54  C   UNL A   1      42.708  29.424  32.726  1.00  0.00     0.037 A 
ATOM     55  C   UNL A   1      44.190  24.285  29.202  1.00  0.00     0.049 A 
ATOM     56  C   UNL A   1      43.400  28.183  33.242  1.00  0.00     0.074 A 
ATOM     57  C   UNL A   1      45.281  25.133  29.080  1.00  0.00     0.029 A 
ATOM     58  N   UNL A   1      43.948  24.152  30.566  1.00  0.00    -0.354 N 
ATOM     59  N   UNL A   1      43.747  27.172  32.493  1.00  0.00    -0.248 NA
ATOM     60  C   UNL A   1      43.756  27.981  34.643  1.00  0.00     0.031 C 
ATOM     61  C   UNL A   1      45.652  25.562  30.378  1.00  0.00     0.029 A 
ATOM     62  C   UNL A   1      44.804  24.960  31.291  1.00  0.00     0.049 A 
ATOM     63  H   UNL A   1      43.263  23.565  30.958  1.00  0.00     0.167 HD
ATOM     64  C   UNL A   1      44.323  26.198  33.268  1.00  0.00     0.074 A 
ATOM     65  C   UNL A   1      44.333  26.767  34.603  1.00  0.00     0.031 C 
ATOM     66  C   UNL A   1      44.736  25.004  32.745  1.00  0.00     0.037 A 
BRANCH  53  67
ATOM     67  C   UNL A   1      43.546  22.813  27.124  1.00  0.00     0.058 A 
ATOM     68  C   UNL A   1      42.850  21.587  27.002  1.00  0.00     0.135 A 
ATOM     69  C   UNL A   1      44.579  22.983  26.182  1.00  0.00     0.135 A 
ATOM     70  F   UNL A   1      41.770  21.314  27.745  1.00  0.00    -0.206 F 
ATOM     71  C   UNL A   1      43.231  20.573  26.117  1.00  0.00     0.059 A 
ATOM     72  C   UNL A   1      45.016  21.967  25.326  1.00  0.00     0.059 A 
ATOM     73  F   UNL A   1      45.174  24.169  26.006  1.00  0.00    -0.206 F 
ATOM     74  C   UNL A   1      44.345  20.753  25.311  1.00  0.00     0.060 A 
BRANCH  74  75
ATOM     75  S   UNL A   1      44.883  19.403  24.245  1.00  0.00     0.124 S 
ATOM     76  O   UNL A   1      46.326  19.394  24.465  1.00  0.00    -0.237 OA
ATOM     77  O   UNL A   1      44.148  18.268  24.795  1.00  0.00    -0.237 OA
ATOM     78  O   UNL A   1      44.464  19.833  22.914  1.00  0.00    -0.744 OA
ENDBRANCH  74  75
ENDBRANCH  53  67
BRANCH  54  79
ATOM     79  C   UNL A   1      41.483  30.049  33.303  1.00  0.00     0.058 A 
ATOM     80  C   UNL A   1      41.522  31.437  33.535  1.00  0.00     0.135 A 
ATOM     81  C   UNL A   1      40.223  29.454  33.142  1.00  0.00     0.135 A 
ATOM     82  F   UNL A   1      42.701  32.051  33.727  1.00  0.00    -0.206 F 
ATOM     83  C   UNL A   1      40.388  32.233  33.401  1.00  0.00     0.059 A 
ATOM     84  C   UNL A   1      39.069  30.232  33.021  1.00  0.00     0.059 A 
ATOM     85  F   UNL A   1      40.121  28.133  32.933  1.00  0.00    -0.206 F 
ATOM     86  C   UNL A   1      39.184  31.624  33.056  1.00  0.00     0.060 A 
BRANCH  86  87
ATOM     87  S   UNL A   1      37.831  32.683  32.481  1.00  0.00     0.124 S 
ATOM     88  O   UNL A   1      36.679  31.796  32.585  1.00  0.00    -0.237 OA
ATOM     89  O   UNL A   1      37.875  33.783  33.448  1.00  0.00    -0.237 OA
ATOM     90  O   UNL A   1      38.236  33.036  31.125  1.00  0.00    -0.744 OA
ENDBRANCH  86  87
ENDBRANCH  54  79
BRANCH  66  91
ATOM     91  C   UNL A   1      45.200  23.795  33.531  1.00  0.00     0.058 A 
ATOM     92  C   UNL A   1      46.474  23.673  34.112  1.00  0.00     0.135 A 
ATOM     93  C   UNL A   1      44.290  22.753  33.844  1.00  0.00     0.135 A 
ATOM     94  F   UNL A   1      47.391  24.643  33.996  1.00  0.00    -0.206 F 
ATOM     95  C   UNL A   1      46.843  22.569  34.885  1.00  0.00     0.059 A 
ATOM     96  C   UNL A   1      44.620  21.672  34.658  1.00  0.00     0.059 A 
ATOM     97  F   UNL A   1      43.033  22.757  33.374  1.00  0.00    -0.206 F 
ATOM     98  C   UNL A   1      45.911  21.573  35.154  1.00  0.00     0.060 A 
BRANCH  98  99
ATOM     99  S   UNL A   1      46.354  20.179  36.207  1.00  0.00     0.124 S 
ATOM    100  O   UNL A   1      47.810  20.190  36.110  1.00  0.00    -0.237 OA
ATOM    101  O   UNL A   1      45.808  20.564  37.506  1.00  0.00    -0.237 OA
ATOM    102  O   UNL A   1      45.683  19.054  35.564  1.00  0.00    -0.744 OA
ENDBRANCH  98  99
ENDBRANCH  66  91
ENDBRANCH  40  41
ENDBRANCH  32  35
ENDBRANCH  30  31
ENDBRANCH  29  30
ENDBRANCH   1  29
TORSDOF 18
ENDMDL
MODEL 3
REMARK VINA RESULT:     -13.2      4.487     11.206
REMARK SMILES Cc1ccc(S(=O)(=O)N2c3ccc(C(=O)NCCCCCCNC(=O)c4ccc(-c5c6nc(c(-c7c(F)cc(S(=O)(=O)[O-])cc7F)c7ccc([nH]7)c(-c7c(F)cc(S(=O)(=O)[O-])cc7F)c7nc(c(-c8c(F)cc(S(=O)(=O)[O-])cc8F)c8ccc5[nH]8)C=C7)C=C6)cc4)cc3C[C@H]2C)cc1
REMARK SMILES IDX 20 1 19 2 18 3 17 4 16 5 14 6 15 7 13 9 9 10 10 11 95 12
REMARK SMILES IDX 11 13 93 14 94 15 96 16 12 17 92 18 6 19 7 20 8 21 5 22 1 23
REMARK SMILES IDX 2 24 3 25 98 26 4 27 97 28 21 29 22 30 23 31 24 32 25 34
REMARK SMILES IDX 26 35 27 36 91 37 28 38 90 39 29 40 30 41 31 42 84 43 32 44
REMARK SMILES IDX 89 45 83 46 85 47 33 48 88 49 82 50 81 51 34 53 68 54 47 55
REMARK SMILES IDX 67 56 48 57 51 58 66 59 86 60 49 61 50 62 65 64 87 65 52 66
REMARK SMILES IDX 35 67 36 68 45 69 37 70 38 71 44 72 46 73 39 74 40 75 41 76
REMARK SMILES IDX 42 77 43 78 69 79 70 80 79 81 71 82 72 83 78 84 80 85 73 86
REMARK SMILES IDX 74 87 75 88 76 89 77 90 53 91 54 92 63 93 55 94 56 95 62 96
REMARK SMILES IDX 64 97 57 98 58 99 59 100 60 101 61 102
REMARK H PARENT 16 8 23 33 85 52 51 63
REMARK Flexibility Score: inf
ROOT
ATOM      1  C   UNL A   1      39.592  20.686  25.405  1.00  0.00     0.002 C 
ENDROOT
BRANCH   1   2
ATOM      2  C   UNL A   1      38.084  20.400  25.371  1.00  0.00     0.002 C 
BRANCH   2   3
ATOM      3  C   UNL A   1      37.157  21.348  24.606  1.00  0.00     0.021 C 
BRANCH   3   4
ATOM      4  C   UNL A   1      35.695  21.433  25.030  1.00  0.00     0.116 C 
BRANCH   4   5
ATOM      5  N   UNL A   1      35.462  21.730  26.430  1.00  0.00    -0.352 N 
ATOM      6  C   UNL A   1      34.535  22.575  26.999  1.00  0.00     0.251 C 
ATOM      7  O   UNL A   1      34.489  22.677  28.225  1.00  0.00    -0.269 OA
ATOM      8  H   UNL A   1      36.051  21.260  27.065  1.00  0.00     0.163 HD
BRANCH   6   9
ATOM      9  C   UNL A   1      33.625  23.424  26.173  1.00  0.00     0.040 A 
ATOM     10  N   UNL A   1      31.381  25.766  23.453  1.00  0.00    -0.263 N 
ATOM     11  C   UNL A   1      32.016  24.944  24.465  1.00  0.00     0.055 A 
ATOM     12  C   UNL A   1      32.542  26.374  22.681  1.00  0.00     0.101 C 
ATOM     13  C   UNL A   1      31.412  24.065  25.344  1.00  0.00     0.028 A 
ATOM     14  C   UNL A   1      33.399  25.113  24.475  1.00  0.00    -0.021 A 
ATOM     15  C   UNL A   1      33.799  26.221  23.563  1.00  0.00     0.063 C 
ATOM     16  C   UNL A   1      32.713  25.594  21.371  1.00  0.00     0.032 C 
ATOM     17  C   UNL A   1      32.221  23.342  26.233  1.00  0.00     0.016 A 
ATOM     18  C   UNL A   1      34.215  24.361  25.311  1.00  0.00     0.019 A 
BRANCH  10  19
ATOM     19  S   UNL A   1      30.238  26.865  24.127  1.00  0.00     0.264 S 
ATOM     20  O   UNL A   1      29.384  26.114  25.028  1.00  0.00    -0.201 OA
ATOM     21  O   UNL A   1      29.666  27.640  23.042  1.00  0.00    -0.201 OA
BRANCH  19  22
ATOM     22  C   UNL A   1      31.082  28.066  25.148  1.00  0.00     0.088 A 
ATOM     23  C   UNL A   1      33.615  30.493  27.656  1.00  0.00     0.044 C 
ATOM     24  C   UNL A   1      32.692  29.676  26.801  1.00  0.00    -0.051 A 
ATOM     25  C   UNL A   1      32.178  28.468  27.281  1.00  0.00     0.005 A 
ATOM     26  C   UNL A   1      32.329  30.106  25.520  1.00  0.00     0.005 A 
ATOM     27  C   UNL A   1      31.381  27.668  26.460  1.00  0.00     0.022 A 
ATOM     28  C   UNL A   1      31.523  29.307  24.699  1.00  0.00     0.022 A 
ENDBRANCH  19  22
ENDBRANCH  10  19
ENDBRANCH   6   9
ENDBRANCH   4   5
ENDBRANCH   3   4
ENDBRANCH   2   3
ENDBRANCH   1   2
BRANCH   1  29
ATOM     29  C   UNL A   1      40.250  21.019  26.745  1.00  0.00     0.021 C 
BRANCH  29  30
ATOM     30  C   UNL A   1      40.092  22.446  27.232  1.00  0.00     0.116 C 
BRANCH  30  31
ATOM     31  N   UNL A   1      39.861  23.454  26.210  1.00  0.00    -0.352 N 
ATOM     32  C   UNL A   1      38.976  24.492  26.526  1.00  0.00     0.251 C 
ATOM     33  H   UNL A   1      40.307  23.408  25.334  1.00  0.00     0.163 HD
ATOM     34  O   UNL A   1      37.790  24.496  26.292  1.00  0.00    -0.269 OA
BRANCH  32  35
ATOM     35  C   UNL A   1      39.572  25.464  27.475  1.00  0.00     0.039 A 
ATOM     36  C   UNL A   1      39.196  25.506  28.816  1.00  0.00     0.014 A 
ATOM     37  C   UNL A   1      40.321  26.492  26.899  1.00  0.00     0.014 A 
ATOM     38  C   UNL A   1      39.464  26.660  29.556  1.00  0.00     0.010 A 
ATOM     39  C   UNL A   1      40.498  27.662  27.600  1.00  0.00     0.010 A 
ATOM     40  C   UNL A   1      40.045  27.760  28.921  1.00  0.00    -0.014 A 
BRANCH  40  41
ATOM     41  C   UNL A   1      40.191  29.086  29.511  1.00  0.00     0.031 A 
ATOM     42  C   UNL A   1      39.099  30.079  29.383  1.00  0.00     0.074 A 
ATOM     43  C   UNL A   1      41.234  29.331  30.331  1.00  0.00     0.049 A 
ATOM     44  N   UNL A   1      39.214  31.336  29.653  1.00  0.00    -0.248 NA
ATOM     45  C   UNL A   1      37.774  29.722  28.893  1.00  0.00     0.031 C 
ATOM     46  C   UNL A   1      41.346  30.394  31.327  1.00  0.00     0.029 A 
ATOM     47  N   UNL A   1      42.508  28.765  30.285  1.00  0.00    -0.354 N 
ATOM     48  C   UNL A   1      37.953  31.895  29.639  1.00  0.00     0.074 A 
ATOM     49  C   UNL A   1      37.101  30.856  29.106  1.00  0.00     0.031 C 
ATOM     50  C   UNL A   1      42.640  30.578  31.626  1.00  0.00     0.029 A 
ATOM     51  C   UNL A   1      43.413  29.757  30.711  1.00  0.00     0.049 A 
ATOM     52  H   UNL A   1      42.732  27.848  30.009  1.00  0.00     0.167 HD
ATOM     53  C   UNL A   1      37.762  33.128  30.195  1.00  0.00     0.037 A 
ATOM     54  C   UNL A   1      44.370  30.241  29.863  1.00  0.00     0.037 A 
ATOM     55  C   UNL A   1      39.038  33.708  30.619  1.00  0.00     0.049 A 
ATOM     56  C   UNL A   1      44.241  31.718  29.567  1.00  0.00     0.074 A 
ATOM     57  C   UNL A   1      39.682  33.765  31.846  1.00  0.00     0.029 A 
ATOM     58  N   UNL A   1      39.980  34.074  29.664  1.00  0.00    -0.354 N 
ATOM     59  N   UNL A   1      43.161  32.418  29.787  1.00  0.00    -0.248 NA
ATOM     60  C   UNL A   1      45.318  32.525  29.001  1.00  0.00     0.031 C 
ATOM     61  C   UNL A   1      41.038  34.104  31.615  1.00  0.00     0.029 A 
ATOM     62  C   UNL A   1      41.214  34.275  30.252  1.00  0.00     0.049 A 
ATOM     63  H   UNL A   1      39.793  34.175  28.703  1.00  0.00     0.167 HD
ATOM     64  C   UNL A   1      43.360  33.714  29.383  1.00  0.00     0.074 A 
ATOM     65  C   UNL A   1      44.737  33.735  28.928  1.00  0.00     0.031 C 
ATOM     66  C   UNL A   1      42.371  34.655  29.453  1.00  0.00     0.037 A 
BRANCH  53  67
ATOM     67  C   UNL A   1      36.410  33.687  30.617  1.00  0.00     0.058 A 
ATOM     68  C   UNL A   1      35.483  34.140  29.649  1.00  0.00     0.135 A 
ATOM     69  C   UNL A   1      35.985  33.864  31.948  1.00  0.00     0.135 A 
ATOM     70  F   UNL A   1      35.682  33.945  28.339  1.00  0.00    -0.206 F 
ATOM     71  C   UNL A   1      34.307  34.823  29.974  1.00  0.00     0.059 A 
ATOM     72  C   UNL A   1      34.844  34.592  32.301  1.00  0.00     0.059 A 
ATOM     73  F   UNL A   1      36.627  33.284  32.969  1.00  0.00    -0.206 F 
ATOM     74  C   UNL A   1      34.015  35.085  31.304  1.00  0.00     0.060 A 
BRANCH  74  75
ATOM     75  S   UNL A   1      32.546  36.050  31.705  1.00  0.00     0.124 S 
ATOM     76  O   UNL A   1      33.103  37.140  32.501  1.00  0.00    -0.237 OA
ATOM     77  O   UNL A   1      32.052  36.418  30.382  1.00  0.00    -0.237 OA
ATOM     78  O   UNL A   1      31.712  35.108  32.446  1.00  0.00    -0.744 OA
ENDBRANCH  74  75
ENDBRANCH  53  67
BRANCH  54  79
ATOM     79  C   UNL A   1      44.886  29.201  28.927  1.00  0.00     0.058 A 
ATOM     80  C   UNL A   1      45.753  28.231  29.464  1.00  0.00     0.135 A 
ATOM     81  C   UNL A   1      44.184  28.868  27.759  1.00  0.00     0.135 A 
ATOM     82  F   UNL A   1      46.472  28.511  30.563  1.00  0.00    -0.206 F 
ATOM     83  C   UNL A   1      45.765  26.922  28.993  1.00  0.00     0.059 A 
ATOM     84  C   UNL A   1      44.195  27.564  27.259  1.00  0.00     0.059 A 
ATOM     85  F   UNL A   1      43.354  29.757  27.192  1.00  0.00    -0.206 F 
ATOM     86  C   UNL A   1      44.913  26.582  27.945  1.00  0.00     0.060 A 
BRANCH  86  87
ATOM     87  S   UNL A   1      44.628  24.823  27.619  1.00  0.00     0.124 S 
ATOM     88  O   UNL A   1      43.224  24.667  27.977  1.00  0.00    -0.237 OA
ATOM     89  O   UNL A   1      44.933  24.726  26.189  1.00  0.00    -0.237 OA
ATOM     90  O   UNL A   1      45.582  24.161  28.501  1.00  0.00    -0.744 OA
ENDBRANCH  86  87
ENDBRANCH  54  79
BRANCH  66  91
ATOM     91  C   UNL A   1      42.418  36.049  28.862  1.00  0.00     0.058 A 
ATOM     92  C   UNL A   1      43.097  37.132  29.445  1.00  0.00     0.135 A 
ATOM     93  C   UNL A   1      41.875  36.298  27.575  1.00  0.00     0.135 A 
ATOM     94  F   UNL A   1      43.757  37.000  30.604  1.00  0.00    -0.206 F 
ATOM     95  C   UNL A   1      43.171  38.387  28.836  1.00  0.00     0.059 A 
ATOM     96  C   UNL A   1      41.987  37.526  26.926  1.00  0.00     0.059 A 
ATOM     97  F   UNL A   1      41.222  35.345  26.893  1.00  0.00    -0.206 F 
ATOM     98  C   UNL A   1      42.615  38.576  27.576  1.00  0.00     0.060 A 
BRANCH  98  99
ATOM     99  S   UNL A   1      42.766  40.171  26.750  1.00  0.00     0.124 S 
ATOM    100  O   UNL A   1      41.454  40.301  26.125  1.00  0.00    -0.237 OA
ATOM    101  O   UNL A   1      43.028  41.088  27.856  1.00  0.00    -0.237 OA
ATOM    102  O   UNL A   1      43.887  39.966  25.839  1.00  0.00    -0.744 OA
ENDBRANCH  98  99
ENDBRANCH  66  91
ENDBRANCH  40  41
ENDBRANCH  32  35
ENDBRANCH  30  31
ENDBRANCH  29  30
ENDBRANCH   1  29
TORSDOF 18
ENDMDL
