MODEL 1
REMARK VINA RESULT:     -10.9      0.000      0.000
REMARK SMILES CCOc1cccc(OCC)c1-c1ccc([C@@H](C)C(=O)NCCCCCCNC(=O)c2ccc(-c3c4nc(c(-c5c(F)cc(S(=O)(=O)[O-])cc5F)c5ccc([nH]5)c(-c5c(F)cc(S(=O)(=O)[O-])cc5F)c5nc(c(-c6c(F)cc(S(=O)(=O)[O-])cc6F)c6ccc3[nH]6)C=C5)C=C4)cc2)cc1F
REMARK SMILES IDX 24 1 23 2 22 3 21 4 19 5 20 6 17 8 18 9 16 10 13 11 14 12
REMARK SMILES IDX 98 13 15 14 97 15 99 16 12 17 4 18 5 19 6 20 8 21 7 22 3 23
REMARK SMILES IDX 2 24 1 25 9 26 10 27 11 28 25 29 26 30 27 31 28 32 29 33
REMARK SMILES IDX 30 35 31 36 32 37 96 38 33 39 95 40 34 41 35 42 36 43 89 44
REMARK SMILES IDX 37 45 94 46 88 47 90 48 38 49 93 50 87 51 86 52 39 54 73 55
REMARK SMILES IDX 52 56 72 57 53 58 56 59 71 60 91 61 54 62 55 63 70 65 92 66
REMARK SMILES IDX 57 67 40 68 41 69 50 70 42 71 43 72 49 73 51 74 44 75 45 76
REMARK SMILES IDX 46 77 47 78 48 79 74 80 75 81 84 82 76 83 77 84 83 85 85 86
REMARK SMILES IDX 78 87 79 88 80 89 81 90 82 91 58 92 59 93 68 94 60 95 61 96
REMARK SMILES IDX 67 97 69 98 62 99 63 100 64 101 65 102 66 103
REMARK H PARENT 21 7 28 34 90 53 56 64
REMARK Flexibility Score: inf
ROOT
ATOM      1  C   UNL A   1      36.735  21.066  25.007  1.00  0.00     0.002 C 
ENDROOT
BRANCH   1   2
ATOM      2  C   UNL A   1      35.423  21.001  24.231  1.00  0.00     0.021 C 
BRANCH   2   3
ATOM      3  C   UNL A   1      34.292  20.192  24.897  1.00  0.00     0.116 C 
BRANCH   3   4
ATOM      4  N   UNL A   1      33.032  20.925  24.882  1.00  0.00    -0.356 N 
ATOM      5  C   UNL A   1      32.575  22.062  25.479  1.00  0.00     0.227 C 
ATOM      6  O   UNL A   1      31.379  22.316  25.275  1.00  0.00    -0.274 OA
ATOM      7  H   UNL A   1      32.356  20.502  24.305  1.00  0.00     0.163 HD
BRANCH   5   8
ATOM      8  C   UNL A   1      33.406  23.025  26.358  1.00  0.00     0.105 C 
ATOM      9  C   UNL A   1      33.451  22.656  27.837  1.00  0.00     0.023 C 
BRANCH   8  10
ATOM     10  C   UNL A   1      33.124  24.498  26.120  1.00  0.00    -0.033 A 
ATOM     11  C   UNL A   1      32.435  27.225  25.680  1.00  0.00     0.025 A 
ATOM     12  C   UNL A   1      31.685  26.412  26.522  1.00  0.00     0.012 A 
ATOM     13  C   UNL A   1      33.530  26.641  25.030  1.00  0.00     0.131 A 
ATOM     14  C   UNL A   1      32.095  25.123  26.809  1.00  0.00     0.005 A 
ATOM     15  C   UNL A   1      33.856  25.286  25.221  1.00  0.00     0.044 A 
ATOM     16  F   UNL A   1      34.280  27.363  24.185  1.00  0.00    -0.206 F 
BRANCH  11  17
ATOM     17  C   UNL A   1      31.959  28.597  25.483  1.00  0.00     0.069 A 
ATOM     18  C   UNL A   1      31.088  28.830  24.384  1.00  0.00     0.130 A 
ATOM     19  C   UNL A   1      30.442  30.052  24.189  1.00  0.00     0.047 A 
ATOM     20  C   UNL A   1      30.633  31.075  25.105  1.00  0.00     0.008 A 
ATOM     21  C   UNL A   1      32.162  29.658  26.397  1.00  0.00     0.130 A 
ATOM     22  C   UNL A   1      31.494  30.880  26.183  1.00  0.00     0.047 A 
BRANCH  18  23
ATOM     23  O   UNL A   1      30.919  27.845  23.438  1.00  0.00    -0.493 OA
BRANCH  23  24
ATOM     24  C   UNL A   1      29.546  27.597  23.119  1.00  0.00     0.226 C 
ATOM     25  C   UNL A   1      29.034  26.462  23.994  1.00  0.00     0.049 C 
ENDBRANCH  23  24
ENDBRANCH  18  23
BRANCH  21  26
ATOM     26  O   UNL A   1      32.950  29.755  27.513  1.00  0.00    -0.493 OA
BRANCH  26  27
ATOM     27  C   UNL A   1      34.370  29.740  27.517  1.00  0.00     0.226 C 
ATOM     28  C   UNL A   1      34.928  31.158  27.498  1.00  0.00     0.049 C 
ENDBRANCH  26  27
ENDBRANCH  21  26
ENDBRANCH  11  17
ENDBRANCH   8  10
ENDBRANCH   5   8
ENDBRANCH   3   4
ENDBRANCH   2   3
ENDBRANCH   1   2
BRANCH   1  29
ATOM     29  C   UNL A   1      36.830  22.210  26.020  1.00  0.00     0.002 C 
BRANCH  29  30
ATOM     30  C   UNL A   1      37.496  23.496  25.517  1.00  0.00     0.021 C 
BRANCH  30  31
ATOM     31  C   UNL A   1      38.422  24.189  26.516  1.00  0.00     0.116 C 
BRANCH  31  32
ATOM     32  N   UNL A   1      39.824  24.008  26.175  1.00  0.00    -0.352 N 
ATOM     33  C   UNL A   1      40.923  24.736  26.555  1.00  0.00     0.251 C 
ATOM     34  H   UNL A   1      40.014  23.246  25.581  1.00  0.00     0.163 HD
ATOM     35  O   UNL A   1      41.992  24.574  25.963  1.00  0.00    -0.269 OA
BRANCH  33  36
ATOM     36  C   UNL A   1      40.835  25.713  27.661  1.00  0.00     0.039 A 
ATOM     37  C   UNL A   1      41.819  26.701  27.775  1.00  0.00     0.014 A 
ATOM     38  C   UNL A   1      39.814  25.632  28.612  1.00  0.00     0.014 A 
ATOM     39  C   UNL A   1      41.746  27.638  28.809  1.00  0.00     0.010 A 
ATOM     40  C   UNL A   1      39.708  26.606  29.605  1.00  0.00     0.010 A 
ATOM     41  C   UNL A   1      40.675  27.616  29.717  1.00  0.00    -0.014 A 
BRANCH  41  42
ATOM     42  C   UNL A   1      40.549  28.642  30.786  1.00  0.00     0.031 A 
ATOM     43  C   UNL A   1      41.393  28.551  32.029  1.00  0.00     0.074 A 
ATOM     44  C   UNL A   1      39.628  29.618  30.664  1.00  0.00     0.049 A 
ATOM     45  N   UNL A   1      41.378  29.310  33.094  1.00  0.00    -0.248 NA
ATOM     46  C   UNL A   1      42.364  27.446  32.095  1.00  0.00     0.031 C 
ATOM     47  C   UNL A   1      38.717  29.786  29.529  1.00  0.00     0.029 A 
ATOM     48  N   UNL A   1      39.294  30.648  31.508  1.00  0.00    -0.354 N 
ATOM     49  C   UNL A   1      42.317  28.766  33.963  1.00  0.00     0.074 A 
ATOM     50  C   UNL A   1      42.855  27.587  33.319  1.00  0.00     0.031 C 
ATOM     51  C   UNL A   1      37.944  30.864  29.739  1.00  0.00     0.029 A 
ATOM     52  C   UNL A   1      38.276  31.443  31.036  1.00  0.00     0.049 A 
ATOM     53  H   UNL A   1      39.743  30.804  32.371  1.00  0.00     0.167 HD
ATOM     54  C   UNL A   1      42.709  29.218  35.179  1.00  0.00     0.037 A 
ATOM     55  C   UNL A   1      37.671  32.512  31.590  1.00  0.00     0.037 A 
ATOM     56  C   UNL A   1      42.196  30.413  35.799  1.00  0.00     0.049 A 
ATOM     57  C   UNL A   1      38.132  33.000  32.937  1.00  0.00     0.074 A 
ATOM     58  C   UNL A   1      42.586  30.998  36.991  1.00  0.00     0.029 A 
ATOM     59  N   UNL A   1      41.183  31.204  35.279  1.00  0.00    -0.354 N 
ATOM     60  N   UNL A   1      39.075  32.516  33.711  1.00  0.00    -0.248 NA
ATOM     61  C   UNL A   1      37.452  34.181  33.486  1.00  0.00     0.031 C 
ATOM     62  C   UNL A   1      41.777  32.117  37.215  1.00  0.00     0.029 A 
ATOM     63  C   UNL A   1      40.916  32.257  36.138  1.00  0.00     0.049 A 
ATOM     64  H   UNL A   1      40.720  31.041  34.425  1.00  0.00     0.167 HD
ATOM     65  C   UNL A   1      39.122  33.352  34.821  1.00  0.00     0.074 A 
ATOM     66  C   UNL A   1      38.120  34.376  34.615  1.00  0.00     0.031 C 
ATOM     67  C   UNL A   1      39.922  33.277  35.913  1.00  0.00     0.037 A 
BRANCH  54  68
ATOM     68  C   UNL A   1      43.747  28.423  35.924  1.00  0.00     0.058 A 
ATOM     69  C   UNL A   1      43.395  27.378  36.792  1.00  0.00     0.135 A 
ATOM     70  C   UNL A   1      45.115  28.677  35.728  1.00  0.00     0.135 A 
ATOM     71  F   UNL A   1      42.103  27.100  37.027  1.00  0.00    -0.206 F 
ATOM     72  C   UNL A   1      44.360  26.628  37.459  1.00  0.00     0.059 A 
ATOM     73  C   UNL A   1      46.097  27.923  36.363  1.00  0.00     0.059 A 
ATOM     74  F   UNL A   1      45.508  29.664  34.908  1.00  0.00    -0.206 F 
ATOM     75  C   UNL A   1      45.710  26.909  37.237  1.00  0.00     0.060 A 
BRANCH  75  76
ATOM     76  S   UNL A   1      46.948  25.918  38.099  1.00  0.00     0.124 S 
ATOM     77  O   UNL A   1      47.911  25.665  37.031  1.00  0.00    -0.237 OA
ATOM     78  O   UNL A   1      47.396  26.823  39.152  1.00  0.00    -0.237 OA
ATOM     79  O   UNL A   1      46.195  24.754  38.554  1.00  0.00    -0.744 OA
ENDBRANCH  75  76
ENDBRANCH  54  68
BRANCH  55  80
ATOM     80  C   UNL A   1      36.577  33.212  30.864  1.00  0.00     0.058 A 
ATOM     81  C   UNL A   1      35.235  33.017  31.221  1.00  0.00     0.135 A 
ATOM     82  C   UNL A   1      36.849  34.083  29.798  1.00  0.00     0.135 A 
ATOM     83  F   UNL A   1      34.923  32.189  32.230  1.00  0.00    -0.206 F 
ATOM     84  C   UNL A   1      34.199  33.643  30.536  1.00  0.00     0.059 A 
ATOM     85  C   UNL A   1      35.832  34.741  29.114  1.00  0.00     0.059 A 
ATOM     86  F   UNL A   1      38.117  34.319  29.427  1.00  0.00    -0.206 F 
ATOM     87  C   UNL A   1      34.508  34.503  29.481  1.00  0.00     0.060 A 
BRANCH  87  88
ATOM     88  S   UNL A   1      33.159  35.339  28.619  1.00  0.00     0.124 S 
ATOM     89  O   UNL A   1      32.432  35.943  29.730  1.00  0.00    -0.237 OA
ATOM     90  O   UNL A   1      33.877  36.262  27.746  1.00  0.00    -0.237 OA
ATOM     91  O   UNL A   1      32.473  34.247  27.935  1.00  0.00    -0.744 OA
ENDBRANCH  87  88
ENDBRANCH  55  80
BRANCH  67  92
ATOM     92  C   UNL A   1      39.777  34.354  36.953  1.00  0.00     0.058 A 
ATOM     93  C   UNL A   1      38.944  34.193  38.070  1.00  0.00     0.135 A 
ATOM     94  C   UNL A   1      40.519  35.542  36.852  1.00  0.00     0.135 A 
ATOM     95  F   UNL A   1      38.208  33.079  38.210  1.00  0.00    -0.206 F 
ATOM     96  C   UNL A   1      38.833  35.183  39.042  1.00  0.00     0.059 A 
ATOM     97  C   UNL A   1      40.445  36.533  37.825  1.00  0.00     0.059 A 
ATOM     98  F   UNL A   1      41.339  35.740  35.808  1.00  0.00    -0.206 F 
ATOM     99  C   UNL A   1      39.590  36.349  38.910  1.00  0.00     0.060 A 
BRANCH  99 100
ATOM    100  S   UNL A   1      39.462  37.613  40.193  1.00  0.00     0.124 S 
ATOM    101  O   UNL A   1      39.135  36.810  41.366  1.00  0.00    -0.237 OA
ATOM    102  O   UNL A   1      40.796  38.207  40.182  1.00  0.00    -0.237 OA
ATOM    103  O   UNL A   1      38.393  38.482  39.709  1.00  0.00    -0.744 OA
ENDBRANCH  99 100
ENDBRANCH  67  92
ENDBRANCH  41  42
ENDBRANCH  33  36
ENDBRANCH  31  32
ENDBRANCH  30  31
ENDBRANCH  29  30
ENDBRANCH   1  29
TORSDOF 22
ENDMDL
MODEL 2
REMARK VINA RESULT:     -10.0      5.145      6.665
REMARK SMILES CCOc1cccc(OCC)c1-c1ccc([C@@H](C)C(=O)NCCCCCCNC(=O)c2ccc(-c3c4nc(c(-c5c(F)cc(S(=O)(=O)[O-])cc5F)c5ccc([nH]5)c(-c5c(F)cc(S(=O)(=O)[O-])cc5F)c5nc(c(-c6c(F)cc(S(=O)(=O)[O-])cc6F)c6ccc3[nH]6)C=C5)C=C4)cc2)cc1F
REMARK SMILES IDX 24 1 23 2 22 3 21 4 19 5 20 6 17 8 18 9 16 10 13 11 14 12
REMARK SMILES IDX 98 13 15 14 97 15 99 16 12 17 4 18 5 19 6 20 8 21 7 22 3 23
REMARK SMILES IDX 2 24 1 25 9 26 10 27 11 28 25 29 26 30 27 31 28 32 29 33
REMARK SMILES IDX 30 35 31 36 32 37 96 38 33 39 95 40 34 41 35 42 36 43 89 44
REMARK SMILES IDX 37 45 94 46 88 47 90 48 38 49 93 50 87 51 86 52 39 54 73 55
REMARK SMILES IDX 52 56 72 57 53 58 56 59 71 60 91 61 54 62 55 63 70 65 92 66
REMARK SMILES IDX 57 67 40 68 41 69 50 70 42 71 43 72 49 73 51 74 44 75 45 76
REMARK SMILES IDX 46 77 47 78 48 79 74 80 75 81 84 82 76 83 77 84 83 85 85 86
REMARK SMILES IDX 78 87 79 88 80 89 81 90 82 91 58 92 59 93 68 94 60 95 61 96
REMARK SMILES IDX 67 97 69 98 62 99 63 100 64 101 65 102 66 103
REMARK H PARENT 21 7 28 34 90 53 56 64
REMARK Flexibility Score: inf
ROOT
ATOM      1  C   UNL A   1      35.207  19.867  24.754  1.00  0.00     0.002 C 
ENDROOT
BRANCH   1   2
ATOM      2  C   UNL A   1      33.720  19.761  24.427  1.00  0.00     0.021 C 
BRANCH   2   3
ATOM      3  C   UNL A   1      32.759  19.951  25.618  1.00  0.00     0.116 C 
BRANCH   3   4
ATOM      4  N   UNL A   1      31.794  21.014  25.359  1.00  0.00    -0.356 N 
ATOM      5  C   UNL A   1      31.731  22.344  25.649  1.00  0.00     0.227 C 
ATOM      6  O   UNL A   1      30.673  22.902  25.323  1.00  0.00    -0.274 OA
ATOM      7  H   UNL A   1      31.009  20.697  24.859  1.00  0.00     0.163 HD
BRANCH   5   8
ATOM      8  C   UNL A   1      32.840  23.181  26.327  1.00  0.00     0.105 C 
ATOM      9  C   UNL A   1      33.163  22.767  27.758  1.00  0.00     0.023 C 
BRANCH   8  10
ATOM     10  C   UNL A   1      32.687  24.684  26.162  1.00  0.00    -0.033 A 
ATOM     11  C   UNL A   1      32.240  27.474  25.822  1.00  0.00     0.025 A 
ATOM     12  C   UNL A   1      31.290  26.652  26.417  1.00  0.00     0.012 A 
ATOM     13  C   UNL A   1      33.418  26.869  25.367  1.00  0.00     0.131 A 
ATOM     14  C   UNL A   1      31.567  25.322  26.673  1.00  0.00     0.005 A 
ATOM     15  C   UNL A   1      33.631  25.485  25.505  1.00  0.00     0.044 A 
ATOM     16  F   UNL A   1      34.365  27.601  24.761  1.00  0.00    -0.206 F 
BRANCH  11  17
ATOM     17  C   UNL A   1      31.883  28.885  25.647  1.00  0.00     0.069 A 
ATOM     18  C   UNL A   1      30.900  29.189  24.666  1.00  0.00     0.130 A 
ATOM     19  C   UNL A   1      30.362  30.469  24.521  1.00  0.00     0.047 A 
ATOM     20  C   UNL A   1      30.778  31.481  25.372  1.00  0.00     0.008 A 
ATOM     21  C   UNL A   1      32.314  29.934  26.493  1.00  0.00     0.130 A 
ATOM     22  C   UNL A   1      31.751  31.215  26.332  1.00  0.00     0.047 A 
BRANCH  18  23
ATOM     23  O   UNL A   1      30.506  28.212  23.781  1.00  0.00    -0.493 OA
BRANCH  23  24
ATOM     24  C   UNL A   1      31.365  28.103  22.641  1.00  0.00     0.226 C 
ATOM     25  C   UNL A   1      31.412  26.648  22.197  1.00  0.00     0.049 C 
ENDBRANCH  23  24
ENDBRANCH  18  23
BRANCH  21  26
ATOM     26  O   UNL A   1      33.251  29.966  27.492  1.00  0.00    -0.493 OA
BRANCH  26  27
ATOM     27  C   UNL A   1      34.226  30.984  27.668  1.00  0.00     0.226 C 
ATOM     28  C   UNL A   1      35.608  30.381  27.884  1.00  0.00     0.049 C 
ENDBRANCH  26  27
ENDBRANCH  21  26
ENDBRANCH  11  17
ENDBRANCH   8  10
ENDBRANCH   5   8
ENDBRANCH   3   4
ENDBRANCH   2   3
ENDBRANCH   1   2
BRANCH   1  29
ATOM     29  C   UNL A   1      35.598  21.092  25.585  1.00  0.00     0.002 C 
BRANCH  29  30
ATOM     30  C   UNL A   1      36.238  22.250  24.809  1.00  0.00     0.021 C 
BRANCH  30  31
ATOM     31  C   UNL A   1      37.506  22.835  25.430  1.00  0.00     0.116 C 
BRANCH  31  32
ATOM     32  N   UNL A   1      38.325  21.812  26.060  1.00  0.00    -0.352 N 
ATOM     33  C   UNL A   1      39.544  21.918  26.679  1.00  0.00     0.251 C 
ATOM     34  H   UNL A   1      37.946  20.903  26.039  1.00  0.00     0.163 HD
ATOM     35  O   UNL A   1      40.189  20.898  26.929  1.00  0.00    -0.269 OA
BRANCH  33  36
ATOM     36  C   UNL A   1      40.093  23.243  27.041  1.00  0.00     0.039 A 
ATOM     37  C   UNL A   1      41.033  23.329  28.074  1.00  0.00     0.014 A 
ATOM     38  C   UNL A   1      39.651  24.404  26.400  1.00  0.00     0.014 A 
ATOM     39  C   UNL A   1      41.568  24.572  28.423  1.00  0.00     0.010 A 
ATOM     40  C   UNL A   1      40.233  25.633  26.707  1.00  0.00     0.010 A 
ATOM     41  C   UNL A   1      41.194  25.732  27.725  1.00  0.00    -0.014 A 
BRANCH  41  42
ATOM     42  C   UNL A   1      41.799  27.052  28.043  1.00  0.00     0.031 A 
ATOM     43  C   UNL A   1      43.255  27.308  27.760  1.00  0.00     0.074 A 
ATOM     44  C   UNL A   1      41.051  27.997  28.647  1.00  0.00     0.049 A 
ATOM     45  N   UNL A   1      43.974  28.368  28.026  1.00  0.00    -0.248 NA
ATOM     46  C   UNL A   1      44.009  26.220  27.114  1.00  0.00     0.031 C 
ATOM     47  C   UNL A   1      39.641  27.852  29.016  1.00  0.00     0.029 A 
ATOM     48  N   UNL A   1      41.373  29.263  29.069  1.00  0.00    -0.354 N 
ATOM     49  C   UNL A   1      45.265  28.070  27.603  1.00  0.00     0.074 A 
ATOM     50  C   UNL A   1      45.240  26.713  27.100  1.00  0.00     0.031 C 
ATOM     51  C   UNL A   1      39.216  28.990  29.590  1.00  0.00     0.029 A 
ATOM     52  C   UNL A   1      40.329  29.931  29.664  1.00  0.00     0.049 A 
ATOM     53  H   UNL A   1      42.269  29.656  28.954  1.00  0.00     0.167 HD
ATOM     54  C   UNL A   1      46.365  28.861  27.616  1.00  0.00     0.037 A 
ATOM     55  C   UNL A   1      40.276  31.159  30.215  1.00  0.00     0.037 A 
ATOM     56  C   UNL A   1      46.374  30.222  28.085  1.00  0.00     0.049 A 
ATOM     57  C   UNL A   1      41.510  32.021  30.208  1.00  0.00     0.074 A 
ATOM     58  C   UNL A   1      47.418  31.131  28.066  1.00  0.00     0.029 A 
ATOM     59  N   UNL A   1      45.291  30.871  28.658  1.00  0.00    -0.354 N 
ATOM     60  N   UNL A   1      42.702  31.749  29.733  1.00  0.00    -0.248 NA
ATOM     61  C   UNL A   1      41.391  33.359  30.804  1.00  0.00     0.031 C 
ATOM     62  C   UNL A   1      46.979  32.315  28.670  1.00  0.00     0.029 A 
ATOM     63  C   UNL A   1      45.647  32.159  29.021  1.00  0.00     0.049 A 
ATOM     64  H   UNL A   1      44.399  30.474  28.790  1.00  0.00     0.167 HD
ATOM     65  C   UNL A   1      43.465  32.891  29.947  1.00  0.00     0.074 A 
ATOM     66  C   UNL A   1      42.599  33.860  30.584  1.00  0.00     0.031 C 
ATOM     67  C   UNL A   1      44.768  33.118  29.644  1.00  0.00     0.037 A 
BRANCH  54  68
ATOM     68  C   UNL A   1      47.655  28.279  27.106  1.00  0.00     0.058 A 
ATOM     69  C   UNL A   1      47.941  28.205  25.734  1.00  0.00     0.135 A 
ATOM     70  C   UNL A   1      48.640  27.833  28.003  1.00  0.00     0.135 A 
ATOM     71  F   UNL A   1      47.031  28.604  24.831  1.00  0.00    -0.206 F 
ATOM     72  C   UNL A   1      49.147  27.689  25.267  1.00  0.00     0.059 A 
ATOM     73  C   UNL A   1      49.863  27.339  27.561  1.00  0.00     0.059 A 
ATOM     74  F   UNL A   1      48.419  27.881  29.326  1.00  0.00    -0.206 F 
ATOM     75  C   UNL A   1      50.102  27.259  26.191  1.00  0.00     0.060 A 
BRANCH  75  76
ATOM     76  S   UNL A   1      51.666  26.604  25.569  1.00  0.00     0.124 S 
ATOM     77  O   UNL A   1      51.648  25.249  26.111  1.00  0.00    -0.237 OA
ATOM     78  O   UNL A   1      51.499  26.711  24.124  1.00  0.00    -0.237 OA
ATOM     79  O   UNL A   1      52.663  27.498  26.150  1.00  0.00    -0.744 OA
ENDBRANCH  75  76
ENDBRANCH  54  68
BRANCH  55  80
ATOM     80  C   UNL A   1      39.004  31.660  30.802  1.00  0.00     0.058 A 
ATOM     81  C   UNL A   1      38.065  32.343  30.014  1.00  0.00     0.135 A 
ATOM     82  C   UNL A   1      38.702  31.471  32.160  1.00  0.00     0.135 A 
ATOM     83  F   UNL A   1      38.311  32.553  28.712  1.00  0.00    -0.206 F 
ATOM     84  C   UNL A   1      36.883  32.839  30.553  1.00  0.00     0.059 A 
ATOM     85  C   UNL A   1      37.514  31.936  32.717  1.00  0.00     0.059 A 
ATOM     86  F   UNL A   1      39.557  30.808  32.954  1.00  0.00    -0.206 F 
ATOM     87  C   UNL A   1      36.617  32.632  31.908  1.00  0.00     0.060 A 
BRANCH  87  88
ATOM     88  S   UNL A   1      35.064  33.250  32.591  1.00  0.00     0.124 S 
ATOM     89  O   UNL A   1      35.217  32.925  34.004  1.00  0.00    -0.237 OA
ATOM     90  O   UNL A   1      35.121  34.668  32.249  1.00  0.00    -0.237 OA
ATOM     91  O   UNL A   1      34.054  32.481  31.871  1.00  0.00    -0.744 OA
ENDBRANCH  87  88
ENDBRANCH  55  80
BRANCH  67  92
ATOM     92  C   UNL A   1      45.326  34.478  29.958  1.00  0.00     0.058 A 
ATOM     93  C   UNL A   1      45.958  34.751  31.181  1.00  0.00     0.135 A 
ATOM     94  C   UNL A   1      45.268  35.506  29.004  1.00  0.00     0.135 A 
ATOM     95  F   UNL A   1      46.033  33.804  32.130  1.00  0.00    -0.206 F 
ATOM     96  C   UNL A   1      46.495  36.005  31.456  1.00  0.00     0.059 A 
ATOM     97  C   UNL A   1      45.822  36.759  29.247  1.00  0.00     0.059 A 
ATOM     98  F   UNL A   1      44.684  35.293  27.815  1.00  0.00    -0.206 F 
ATOM     99  C   UNL A   1      46.423  37.002  30.482  1.00  0.00     0.060 A 
BRANCH  99 100
ATOM    100  S   UNL A   1      47.150  38.616  30.838  1.00  0.00     0.124 S 
ATOM    101  O   UNL A   1      46.262  39.508  30.101  1.00  0.00    -0.237 OA
ATOM    102  O   UNL A   1      47.057  38.687  32.293  1.00  0.00    -0.237 OA
ATOM    103  O   UNL A   1      48.506  38.502  30.308  1.00  0.00    -0.744 OA
ENDBRANCH  99 100
ENDBRANCH  67  92
ENDBRANCH  41  42
ENDBRANCH  33  36
ENDBRANCH  31  32
ENDBRANCH  30  31
ENDBRANCH  29  30
ENDBRANCH   1  29
TORSDOF 22
ENDMDL
MODEL 3
REMARK VINA RESULT:      -9.5      4.934      9.520
REMARK SMILES CCOc1cccc(OCC)c1-c1ccc([C@@H](C)C(=O)NCCCCCCNC(=O)c2ccc(-c3c4nc(c(-c5c(F)cc(S(=O)(=O)[O-])cc5F)c5ccc([nH]5)c(-c5c(F)cc(S(=O)(=O)[O-])cc5F)c5nc(c(-c6c(F)cc(S(=O)(=O)[O-])cc6F)c6ccc3[nH]6)C=C5)C=C4)cc2)cc1F
REMARK SMILES IDX 24 1 23 2 22 3 21 4 19 5 20 6 17 8 18 9 16 10 13 11 14 12
REMARK SMILES IDX 98 13 15 14 97 15 99 16 12 17 4 18 5 19 6 20 8 21 7 22 3 23
REMARK SMILES IDX 2 24 1 25 9 26 10 27 11 28 25 29 26 30 27 31 28 32 29 33
REMARK SMILES IDX 30 35 31 36 32 37 96 38 33 39 95 40 34 41 35 42 36 43 89 44
REMARK SMILES IDX 37 45 94 46 88 47 90 48 38 49 93 50 87 51 86 52 39 54 73 55
REMARK SMILES IDX 52 56 72 57 53 58 56 59 71 60 91 61 54 62 55 63 70 65 92 66
REMARK SMILES IDX 57 67 40 68 41 69 50 70 42 71 43 72 49 73 51 74 44 75 45 76
REMARK SMILES IDX 46 77 47 78 48 79 74 80 75 81 84 82 76 83 77 84 83 85 85 86
REMARK SMILES IDX 78 87 79 88 80 89 81 90 82 91 58 92 59 93 68 94 60 95 61 96
REMARK SMILES IDX 67 97 69 98 62 99 63 100 64 101 65 102 66 103
REMARK H PARENT 21 7 28 34 90 53 56 64
REMARK Flexibility Score: inf
ROOT
ATOM      1  C   UNL A   1      44.348  23.379  30.871  1.00  0.00     0.002 C 
ENDROOT
BRANCH   1   2
ATOM      2  C   UNL A   1      43.312  23.827  29.844  1.00  0.00     0.021 C 
BRANCH   2   3
ATOM      3  C   UNL A   1      43.162  25.351  29.668  1.00  0.00     0.116 C 
BRANCH   3   4
ATOM      4  N   UNL A   1      42.940  25.708  28.272  1.00  0.00    -0.356 N 
ATOM      5  C   UNL A   1      41.841  25.834  27.476  1.00  0.00     0.227 C 
ATOM      6  O   UNL A   1      42.082  26.078  26.285  1.00  0.00    -0.274 OA
ATOM      7  H   UNL A   1      43.778  25.904  27.795  1.00  0.00     0.163 HD
BRANCH   5   8
ATOM      8  C   UNL A   1      40.369  25.703  27.931  1.00  0.00     0.105 C 
ATOM      9  C   UNL A   1      39.505  24.818  27.039  1.00  0.00     0.023 C 
BRANCH   8  10
ATOM     10  C   UNL A   1      39.701  27.019  28.292  1.00  0.00    -0.033 A 
ATOM     11  C   UNL A   1      38.574  29.562  28.894  1.00  0.00     0.025 A 
ATOM     12  C   UNL A   1      39.257  29.332  27.706  1.00  0.00     0.012 A 
ATOM     13  C   UNL A   1      38.487  28.499  29.801  1.00  0.00     0.131 A 
ATOM     14  C   UNL A   1      39.703  28.064  27.381  1.00  0.00     0.005 A 
ATOM     15  C   UNL A   1      39.068  27.248  29.521  1.00  0.00     0.044 A 
ATOM     16  F   UNL A   1      37.863  28.660  30.978  1.00  0.00    -0.206 F 
BRANCH  11  17
ATOM     17  C   UNL A   1      38.083  30.923  29.126  1.00  0.00     0.069 A 
ATOM     18  C   UNL A   1      38.920  31.796  29.874  1.00  0.00     0.130 A 
ATOM     19  C   UNL A   1      38.638  33.155  30.021  1.00  0.00     0.047 A 
ATOM     20  C   UNL A   1      37.517  33.688  29.404  1.00  0.00     0.008 A 
ATOM     21  C   UNL A   1      36.930  31.476  28.520  1.00  0.00     0.130 A 
ATOM     22  C   UNL A   1      36.671  32.852  28.677  1.00  0.00     0.047 A 
BRANCH  18  23
ATOM     23  O   UNL A   1      40.012  31.282  30.534  1.00  0.00    -0.493 OA
BRANCH  23  24
ATOM     24  C   UNL A   1      40.082  31.680  31.907  1.00  0.00     0.226 C 
ATOM     25  C   UNL A   1      39.926  30.448  32.786  1.00  0.00     0.049 C 
ENDBRANCH  23  24
ENDBRANCH  18  23
BRANCH  21  26
ATOM     26  O   UNL A   1      35.931  30.903  27.780  1.00  0.00    -0.493 OA
BRANCH  26  27
ATOM     27  C   UNL A   1      35.245  29.706  28.117  1.00  0.00     0.226 C 
ATOM     28  C   UNL A   1      34.774  28.978  26.865  1.00  0.00     0.049 C 
ENDBRANCH  26  27
ENDBRANCH  21  26
ENDBRANCH  11  17
ENDBRANCH   8  10
ENDBRANCH   5   8
ENDBRANCH   3   4
ENDBRANCH   2   3
ENDBRANCH   1   2
BRANCH   1  29
ATOM     29  C   UNL A   1      44.152  23.951  32.277  1.00  0.00     0.002 C 
BRANCH  29  30
ATOM     30  C   UNL A   1      43.874  22.926  33.384  1.00  0.00     0.021 C 
BRANCH  30  31
ATOM     31  C   UNL A   1      44.965  22.795  34.446  1.00  0.00     0.116 C 
BRANCH  31  32
ATOM     32  N   UNL A   1      44.469  23.107  35.777  1.00  0.00    -0.352 N 
ATOM     33  C   UNL A   1      44.210  24.323  36.357  1.00  0.00     0.251 C 
ATOM     34  H   UNL A   1      44.292  22.326  36.350  1.00  0.00     0.163 HD
ATOM     35  O   UNL A   1      44.032  24.389  37.574  1.00  0.00    -0.269 OA
BRANCH  33  36
ATOM     36  C   UNL A   1      44.149  25.552  35.536  1.00  0.00     0.039 A 
ATOM     37  C   UNL A   1      42.924  25.939  34.983  1.00  0.00     0.014 A 
ATOM     38  C   UNL A   1      45.301  26.298  35.272  1.00  0.00     0.014 A 
ATOM     39  C   UNL A   1      42.846  27.102  34.213  1.00  0.00     0.010 A 
ATOM     40  C   UNL A   1      45.209  27.491  34.556  1.00  0.00     0.010 A 
ATOM     41  C   UNL A   1      43.982  27.904  34.016  1.00  0.00    -0.014 A 
BRANCH  41  42
ATOM     42  C   UNL A   1      43.904  29.176  33.250  1.00  0.00     0.031 A 
ATOM     43  C   UNL A   1      44.356  29.228  31.815  1.00  0.00     0.074 A 
ATOM     44  C   UNL A   1      43.487  30.299  33.869  1.00  0.00     0.049 A 
ATOM     45  N   UNL A   1      44.425  30.254  31.008  1.00  0.00    -0.248 NA
ATOM     46  C   UNL A   1      44.814  27.963  31.216  1.00  0.00     0.031 C 
ATOM     47  C   UNL A   1      43.068  30.388  35.270  1.00  0.00     0.029 A 
ATOM     48  N   UNL A   1      43.358  31.585  33.405  1.00  0.00    -0.354 N 
ATOM     49  C   UNL A   1      44.951  29.769  29.816  1.00  0.00     0.074 A 
ATOM     50  C   UNL A   1      45.223  28.362  30.019  1.00  0.00     0.031 C 
ATOM     51  C   UNL A   1      42.711  31.653  35.544  1.00  0.00     0.029 A 
ATOM     52  C   UNL A   1      42.909  32.473  34.353  1.00  0.00     0.049 A 
ATOM     53  H   UNL A   1      43.567  31.846  32.478  1.00  0.00     0.167 HD
ATOM     54  C   UNL A   1      45.171  30.430  28.654  1.00  0.00     0.037 A 
ATOM     55  C   UNL A   1      42.691  33.800  34.276  1.00  0.00     0.037 A 
ATOM     56  C   UNL A   1      44.864  31.822  28.448  1.00  0.00     0.049 A 
ATOM     57  C   UNL A   1      42.933  34.509  32.970  1.00  0.00     0.074 A 
ATOM     58  C   UNL A   1      44.975  32.563  27.284  1.00  0.00     0.029 A 
ATOM     59  N   UNL A   1      44.388  32.682  29.425  1.00  0.00    -0.354 N 
ATOM     60  N   UNL A   1      43.360  34.016  31.831  1.00  0.00    -0.248 NA
ATOM     61  C   UNL A   1      42.660  35.952  32.935  1.00  0.00     0.031 C 
ATOM     62  C   UNL A   1      44.610  33.883  27.570  1.00  0.00     0.029 A 
ATOM     63  C   UNL A   1      44.225  33.953  28.899  1.00  0.00     0.049 A 
ATOM     64  H   UNL A   1      44.195  32.428  30.357  1.00  0.00     0.167 HD
ATOM     65  C   UNL A   1      43.376  35.082  30.939  1.00  0.00     0.074 A 
ATOM     66  C   UNL A   1      42.908  36.243  31.665  1.00  0.00     0.031 C 
ATOM     67  C   UNL A   1      43.746  35.098  29.634  1.00  0.00     0.037 A 
BRANCH  54  68
ATOM     68  C   UNL A   1      45.769  29.659  27.509  1.00  0.00     0.058 A 
ATOM     69  C   UNL A   1      47.150  29.659  27.259  1.00  0.00     0.135 A 
ATOM     70  C   UNL A   1      44.956  28.868  26.680  1.00  0.00     0.135 A 
ATOM     71  F   UNL A   1      47.973  30.407  28.011  1.00  0.00    -0.206 F 
ATOM     72  C   UNL A   1      47.702  28.924  26.214  1.00  0.00     0.059 A 
ATOM     73  C   UNL A   1      45.487  28.103  25.646  1.00  0.00     0.059 A 
ATOM     74  F   UNL A   1      43.628  28.830  26.875  1.00  0.00    -0.206 F 
ATOM     75  C   UNL A   1      46.861  28.148  25.413  1.00  0.00     0.060 A 
BRANCH  75  76
ATOM     76  S   UNL A   1      47.594  27.190  24.070  1.00  0.00     0.124 S 
ATOM     77  O   UNL A   1      49.017  27.300  24.379  1.00  0.00    -0.237 OA
ATOM     78  O   UNL A   1      47.004  25.870  24.268  1.00  0.00    -0.237 OA
ATOM     79  O   UNL A   1      47.157  27.896  22.870  1.00  0.00    -0.744 OA
ENDBRANCH  75  76
ENDBRANCH  54  68
BRANCH  55  80
ATOM     80  C   UNL A   1      42.194  34.546  35.463  1.00  0.00     0.058 A 
ATOM     81  C   UNL A   1      40.821  34.637  35.736  1.00  0.00     0.135 A 
ATOM     82  C   UNL A   1      43.078  35.186  36.346  1.00  0.00     0.135 A 
ATOM     83  F   UNL A   1      39.936  34.046  34.918  1.00  0.00    -0.206 F 
ATOM     84  C   UNL A   1      40.339  35.351  36.827  1.00  0.00     0.059 A 
ATOM     85  C   UNL A   1      42.622  35.885  37.459  1.00  0.00     0.059 A 
ATOM     86  F   UNL A   1      44.403  35.115  36.141  1.00  0.00    -0.206 F 
ATOM     87  C   UNL A   1      41.249  35.974  37.683  1.00  0.00     0.060 A 
BRANCH  87  88
ATOM     88  S   UNL A   1      40.615  36.871  39.117  1.00  0.00     0.124 S 
ATOM     89  O   UNL A   1      41.603  37.934  39.257  1.00  0.00    -0.237 OA
ATOM     90  O   UNL A   1      39.291  37.282  38.663  1.00  0.00    -0.237 OA
ATOM     91  O   UNL A   1      40.621  35.861  40.171  1.00  0.00    -0.744 OA
ENDBRANCH  87  88
ENDBRANCH  55  80
BRANCH  67  92
ATOM     92  C   UNL A   1      43.622  36.401  28.895  1.00  0.00     0.058 A 
ATOM     93  C   UNL A   1      44.729  37.238  28.685  1.00  0.00     0.135 A 
ATOM     94  C   UNL A   1      42.389  36.794  28.350  1.00  0.00     0.135 A 
ATOM     95  F   UNL A   1      45.928  36.912  29.191  1.00  0.00    -0.206 F 
ATOM     96  C   UNL A   1      44.613  38.431  27.978  1.00  0.00     0.059 A 
ATOM     97  C   UNL A   1      42.256  37.968  27.616  1.00  0.00     0.059 A 
ATOM     98  F   UNL A   1      41.302  36.023  28.513  1.00  0.00    -0.206 F 
ATOM     99  C   UNL A   1      43.371  38.787  27.447  1.00  0.00     0.060 A 
BRANCH  99 100
ATOM    100  S   UNL A   1      43.239  40.321  26.505  1.00  0.00     0.124 S 
ATOM    101  O   UNL A   1      43.288  41.322  27.566  1.00  0.00    -0.237 OA
ATOM    102  O   UNL A   1      44.412  40.258  25.638  1.00  0.00    -0.237 OA
ATOM    103  O   UNL A   1      41.955  40.192  25.823  1.00  0.00    -0.744 OA
ENDBRANCH  99 100
ENDBRANCH  67  92
ENDBRANCH  41  42
ENDBRANCH  33  36
ENDBRANCH  31  32
ENDBRANCH  30  31
ENDBRANCH  29  30
ENDBRANCH   1  29
TORSDOF 22
ENDMDL
