MODEL 1
REMARK VINA RESULT:     -11.3      0.000      0.000
REMARK SMILES C[C@@H](C(=O)NCCCCCCNC(=O)c1ccc(-c2c3nc(c(-c4c(F)cc(S(=O)(=O)[O-])cc4F)c4ccc([nH]4)c(-c4c(F)cc(S(=O)(=O)[O-])cc4F)c4nc(c(-c5c(F)cc(S(=O)(=O)[O-])cc5F)c5ccc2[nH]5)C=C4)C=C3)cc1)c1ccc(-c2ccccc2)cc1
REMARK SMILES IDX 9 1 8 2 7 3 6 4 5 5 3 6 4 7 2 9 1 10 81 11 82 12 92 13 83 14
REMARK SMILES IDX 91 15 84 16 85 17 86 18 90 19 87 20 89 21 88 22 10 23 11 24
REMARK SMILES IDX 12 25 13 26 14 28 15 29 16 30 80 31 17 32 79 33 18 34 19 35
REMARK SMILES IDX 20 36 73 37 21 38 78 39 72 40 74 41 22 42 77 43 71 44 70 45
REMARK SMILES IDX 23 47 57 48 36 49 56 50 37 51 40 52 55 53 75 54 38 55 39 56
REMARK SMILES IDX 54 58 76 59 41 60 24 61 25 62 34 63 26 64 27 65 33 66 35 67
REMARK SMILES IDX 28 68 29 69 30 70 31 71 32 72 58 73 59 74 68 75 60 76 61 77
REMARK SMILES IDX 67 78 69 79 62 80 63 81 64 82 65 83 66 84 42 85 43 86 52 87
REMARK SMILES IDX 44 88 45 89 51 90 53 91 46 92 47 93 48 94 49 95 50 96
REMARK H PARENT 5 8 12 27 74 46 40 57
REMARK Flexibility Score: inf
ROOT
ATOM      1  C   UNL A   1      31.733  28.023  26.828  1.00  0.00     0.002 C 
ENDROOT
BRANCH   1   2
ATOM      2  C   UNL A   1      31.097  27.597  25.501  1.00  0.00     0.002 C 
BRANCH   2   3
ATOM      3  C   UNL A   1      30.348  26.257  25.547  1.00  0.00     0.021 C 
BRANCH   3   4
ATOM      4  C   UNL A   1      29.834  25.792  24.180  1.00  0.00     0.116 C 
BRANCH   4   5
ATOM      5  N   UNL A   1      30.300  24.449  23.910  1.00  0.00    -0.356 N 
ATOM      6  C   UNL A   1      31.413  24.027  23.243  1.00  0.00     0.227 C 
ATOM      7  O   UNL A   1      31.448  22.833  22.935  1.00  0.00    -0.274 OA
ATOM      8  H   UNL A   1      29.727  23.731  24.261  1.00  0.00     0.163 HD
BRANCH   6   9
ATOM      9  C   UNL A   1      32.570  25.008  22.968  1.00  0.00     0.105 C 
ATOM     10  C   UNL A   1      32.719  25.305  21.470  1.00  0.00     0.023 C 
BRANCH   9  11
ATOM     11  C   UNL A   1      33.872  24.512  23.606  1.00  0.00    -0.036 A 
ATOM     12  C   UNL A   1      34.709  23.583  22.976  1.00  0.00     0.005 A 
ATOM     13  C   UNL A   1      34.232  24.961  24.889  1.00  0.00     0.005 A 
ATOM     14  C   UNL A   1      35.868  23.123  23.600  1.00  0.00     0.009 A 
ATOM     15  C   UNL A   1      35.389  24.485  25.520  1.00  0.00     0.009 A 
ATOM     16  C   UNL A   1      36.226  23.561  24.881  1.00  0.00    -0.018 A 
BRANCH  16  17
ATOM     17  C   UNL A   1      37.439  23.032  25.515  1.00  0.00    -0.018 A 
ATOM     18  C   UNL A   1      38.246  23.863  26.309  1.00  0.00     0.009 A 
ATOM     19  C   UNL A   1      37.862  21.714  25.287  1.00  0.00     0.009 A 
ATOM     20  C   UNL A   1      39.449  23.401  26.844  1.00  0.00     0.001 A 
ATOM     21  C   UNL A   1      39.067  21.250  25.821  1.00  0.00     0.001 A 
ATOM     22  C   UNL A   1      39.862  22.095  26.594  1.00  0.00     0.000 A 
ENDBRANCH  16  17
ENDBRANCH   9  11
ENDBRANCH   6   9
ENDBRANCH   4   5
ENDBRANCH   3   4
ENDBRANCH   2   3
ENDBRANCH   1   2
BRANCH   1  23
ATOM     23  C   UNL A   1      33.248  27.823  26.900  1.00  0.00     0.021 C 
BRANCH  23  24
ATOM     24  C   UNL A   1      34.048  28.803  26.050  1.00  0.00     0.116 C 
BRANCH  24  25
ATOM     25  N   UNL A   1      33.829  30.181  26.462  1.00  0.00    -0.352 N 
ATOM     26  C   UNL A   1      34.482  30.903  27.430  1.00  0.00     0.251 C 
ATOM     27  H   UNL A   1      33.116  30.660  25.981  1.00  0.00     0.163 HD
ATOM     28  O   UNL A   1      34.035  31.982  27.804  1.00  0.00    -0.269 OA
BRANCH  26  29
ATOM     29  C   UNL A   1      35.717  30.357  28.028  1.00  0.00     0.039 A 
ATOM     30  C   UNL A   1      36.923  30.481  27.335  1.00  0.00     0.014 A 
ATOM     31  C   UNL A   1      35.681  29.743  29.283  1.00  0.00     0.014 A 
ATOM     32  C   UNL A   1      38.108  30.042  27.931  1.00  0.00     0.010 A 
ATOM     33  C   UNL A   1      36.870  29.377  29.905  1.00  0.00     0.010 A 
ATOM     34  C   UNL A   1      38.095  29.519  29.235  1.00  0.00    -0.014 A 
BRANCH  34  35
ATOM     35  C   UNL A   1      39.347  29.114  29.924  1.00  0.00     0.031 A 
ATOM     36  C   UNL A   1      39.857  29.919  31.087  1.00  0.00     0.074 A 
ATOM     37  C   UNL A   1      40.071  28.084  29.444  1.00  0.00     0.049 A 
ATOM     38  N   UNL A   1      40.981  29.800  31.745  1.00  0.00    -0.248 NA
ATOM     39  C   UNL A   1      39.006  31.028  31.546  1.00  0.00     0.031 C 
ATOM     40  C   UNL A   1      39.707  27.262  28.288  1.00  0.00     0.029 A 
ATOM     41  N   UNL A   1      41.276  27.569  29.851  1.00  0.00    -0.354 N 
ATOM     42  C   UNL A   1      40.981  30.828  32.680  1.00  0.00     0.074 A 
ATOM     43  C   UNL A   1      39.773  31.593  32.466  1.00  0.00     0.031 C 
ATOM     44  C   UNL A   1      40.666  26.346  28.080  1.00  0.00     0.029 A 
ATOM     45  C   UNL A   1      41.732  26.541  29.059  1.00  0.00     0.049 A 
ATOM     46  H   UNL A   1      41.767  27.903  30.636  1.00  0.00     0.167 HD
ATOM     47  C   UNL A   1      41.898  31.098  33.641  1.00  0.00     0.037 A 
ATOM     48  C   UNL A   1      42.888  25.849  29.099  1.00  0.00     0.037 A 
ATOM     49  C   UNL A   1      43.089  30.318  33.854  1.00  0.00     0.049 A 
ATOM     50  C   UNL A   1      43.891  26.158  30.176  1.00  0.00     0.074 A 
ATOM     51  C   UNL A   1      44.044  30.462  34.846  1.00  0.00     0.029 A 
ATOM     52  N   UNL A   1      43.496  29.257  33.058  1.00  0.00    -0.354 N 
ATOM     53  N   UNL A   1      43.841  27.082  31.105  1.00  0.00    -0.248 NA
ATOM     54  C   UNL A   1      45.104  25.330  30.217  1.00  0.00     0.031 C 
ATOM     55  C   UNL A   1      45.056  29.525  34.614  1.00  0.00     0.029 A 
ATOM     56  C   UNL A   1      44.702  28.755  33.517  1.00  0.00     0.049 A 
ATOM     57  H   UNL A   1      42.999  28.910  32.282  1.00  0.00     0.167 HD
ATOM     58  C   UNL A   1      45.001  26.932  31.857  1.00  0.00     0.074 A 
ATOM     59  C   UNL A   1      45.732  25.824  31.277  1.00  0.00     0.031 C 
ATOM     60  C   UNL A   1      45.419  27.647  32.932  1.00  0.00     0.037 A 
BRANCH  47  61
ATOM     61  C   UNL A   1      41.651  32.297  34.518  1.00  0.00     0.058 A 
ATOM     62  C   UNL A   1      40.906  32.206  35.707  1.00  0.00     0.135 A 
ATOM     63  C   UNL A   1      42.165  33.555  34.166  1.00  0.00     0.135 A 
ATOM     64  F   UNL A   1      40.381  31.031  36.089  1.00  0.00    -0.206 F 
ATOM     65  C   UNL A   1      40.636  33.328  36.483  1.00  0.00     0.059 A 
ATOM     66  C   UNL A   1      41.937  34.684  34.947  1.00  0.00     0.059 A 
ATOM     67  F   UNL A   1      42.888  33.700  33.045  1.00  0.00    -0.206 F 
ATOM     68  C   UNL A   1      41.150  34.565  36.091  1.00  0.00     0.060 A 
BRANCH  68  69
ATOM     69  S   UNL A   1      40.761  36.017  37.091  1.00  0.00     0.124 S 
ATOM     70  O   UNL A   1      39.768  36.686  36.255  1.00  0.00    -0.237 OA
ATOM     71  O   UNL A   1      40.253  35.422  38.323  1.00  0.00    -0.237 OA
ATOM     72  O   UNL A   1      42.044  36.702  37.210  1.00  0.00    -0.744 OA
ENDBRANCH  68  69
ENDBRANCH  47  61
BRANCH  48  73
ATOM     73  C   UNL A   1      43.141  24.794  28.082  1.00  0.00     0.058 A 
ATOM     74  C   UNL A   1      43.706  25.106  26.837  1.00  0.00     0.135 A 
ATOM     75  C   UNL A   1      42.881  23.443  28.362  1.00  0.00     0.135 A 
ATOM     76  F   UNL A   1      43.966  26.383  26.520  1.00  0.00    -0.206 F 
ATOM     77  C   UNL A   1      44.006  24.117  25.905  1.00  0.00     0.059 A 
ATOM     78  C   UNL A   1      43.194  22.434  27.457  1.00  0.00     0.059 A 
ATOM     79  F   UNL A   1      42.357  23.091  29.547  1.00  0.00    -0.206 F 
ATOM     80  C   UNL A   1      43.755  22.782  26.229  1.00  0.00     0.060 A 
BRANCH  80  81
ATOM     81  S   UNL A   1      44.228  21.500  25.048  1.00  0.00     0.124 S 
ATOM     82  O   UNL A   1      45.571  21.161  25.503  1.00  0.00    -0.237 OA
ATOM     83  O   UNL A   1      43.202  20.486  25.271  1.00  0.00    -0.237 OA
ATOM     84  O   UNL A   1      44.151  22.185  23.762  1.00  0.00    -0.744 OA
ENDBRANCH  80  81
ENDBRANCH  48  73
BRANCH  60  85
ATOM     85  C   UNL A   1      46.713  27.241  33.583  1.00  0.00     0.058 A 
ATOM     86  C   UNL A   1      46.763  26.253  34.577  1.00  0.00     0.135 A 
ATOM     87  C   UNL A   1      47.928  27.789  33.139  1.00  0.00     0.135 A 
ATOM     88  F   UNL A   1      45.630  25.705  35.044  1.00  0.00    -0.206 F 
ATOM     89  C   UNL A   1      47.973  25.825  35.114  1.00  0.00     0.059 A 
ATOM     90  C   UNL A   1      49.151  27.355  33.642  1.00  0.00     0.059 A 
ATOM     91  F   UNL A   1      47.937  28.732  32.185  1.00  0.00    -0.206 F 
ATOM     92  C   UNL A   1      49.163  26.375  34.632  1.00  0.00     0.060 A 
BRANCH  92  93
ATOM     93  S   UNL A   1      50.729  25.759  35.289  1.00  0.00     0.124 S 
ATOM     94  O   UNL A   1      50.812  26.468  36.562  1.00  0.00    -0.237 OA
ATOM     95  O   UNL A   1      50.487  24.323  35.377  1.00  0.00    -0.237 OA
ATOM     96  O   UNL A   1      51.704  26.164  34.281  1.00  0.00    -0.744 OA
ENDBRANCH  92  93
ENDBRANCH  60  85
ENDBRANCH  34  35
ENDBRANCH  26  29
ENDBRANCH  24  25
ENDBRANCH  23  24
ENDBRANCH   1  23
TORSDOF 18
ENDMDL
MODEL 2
REMARK VINA RESULT:     -11.2      3.265      9.576
REMARK SMILES C[C@@H](C(=O)NCCCCCCNC(=O)c1ccc(-c2c3nc(c(-c4c(F)cc(S(=O)(=O)[O-])cc4F)c4ccc([nH]4)c(-c4c(F)cc(S(=O)(=O)[O-])cc4F)c4nc(c(-c5c(F)cc(S(=O)(=O)[O-])cc5F)c5ccc2[nH]5)C=C4)C=C3)cc1)c1ccc(-c2ccccc2)cc1
REMARK SMILES IDX 9 1 8 2 7 3 6 4 5 5 3 6 4 7 2 9 1 10 81 11 82 12 92 13 83 14
REMARK SMILES IDX 91 15 84 16 85 17 86 18 90 19 87 20 89 21 88 22 10 23 11 24
REMARK SMILES IDX 12 25 13 26 14 28 15 29 16 30 80 31 17 32 79 33 18 34 19 35
REMARK SMILES IDX 20 36 73 37 21 38 78 39 72 40 74 41 22 42 77 43 71 44 70 45
REMARK SMILES IDX 23 47 57 48 36 49 56 50 37 51 40 52 55 53 75 54 38 55 39 56
REMARK SMILES IDX 54 58 76 59 41 60 24 61 25 62 34 63 26 64 27 65 33 66 35 67
REMARK SMILES IDX 28 68 29 69 30 70 31 71 32 72 58 73 59 74 68 75 60 76 61 77
REMARK SMILES IDX 67 78 69 79 62 80 63 81 64 82 65 83 66 84 42 85 43 86 52 87
REMARK SMILES IDX 44 88 45 89 51 90 53 91 46 92 47 93 48 94 49 95 50 96
REMARK H PARENT 5 8 12 27 74 46 40 57
REMARK Flexibility Score: inf
ROOT
ATOM      1  C   UNL A   1      36.050  23.691  26.330  1.00  0.00     0.002 C 
ENDROOT
BRANCH   1   2
ATOM      2  C   UNL A   1      35.117  22.621  25.756  1.00  0.00     0.002 C 
BRANCH   2   3
ATOM      3  C   UNL A   1      33.918  22.266  26.649  1.00  0.00     0.021 C 
BRANCH   3   4
ATOM      4  C   UNL A   1      32.694  21.775  25.868  1.00  0.00     0.116 C 
BRANCH   4   5
ATOM      5  N   UNL A   1      31.489  22.046  26.621  1.00  0.00    -0.356 N 
ATOM      6  C   UNL A   1      30.646  23.117  26.567  1.00  0.00     0.227 C 
ATOM      7  O   UNL A   1      29.833  23.223  27.488  1.00  0.00    -0.274 OA
ATOM      8  H   UNL A   1      31.240  21.353  27.273  1.00  0.00     0.163 HD
BRANCH   6   9
ATOM      9  C   UNL A   1      30.696  24.082  25.365  1.00  0.00     0.105 C 
ATOM     10  C   UNL A   1      31.242  23.393  24.107  1.00  0.00     0.023 C 
BRANCH   9  11
ATOM     11  C   UNL A   1      31.464  25.359  25.720  1.00  0.00    -0.036 A 
ATOM     12  C   UNL A   1      32.846  25.481  25.531  1.00  0.00     0.005 A 
ATOM     13  C   UNL A   1      30.779  26.442  26.299  1.00  0.00     0.005 A 
ATOM     14  C   UNL A   1      33.521  26.644  25.900  1.00  0.00     0.009 A 
ATOM     15  C   UNL A   1      31.462  27.604  26.683  1.00  0.00     0.009 A 
ATOM     16  C   UNL A   1      32.843  27.722  26.485  1.00  0.00    -0.018 A 
BRANCH  16  17
ATOM     17  C   UNL A   1      33.594  28.918  26.885  1.00  0.00    -0.018 A 
ATOM     18  C   UNL A   1      34.987  28.859  27.055  1.00  0.00     0.009 A 
ATOM     19  C   UNL A   1      32.939  30.123  27.177  1.00  0.00     0.009 A 
ATOM     20  C   UNL A   1      35.703  29.962  27.521  1.00  0.00     0.001 A 
ATOM     21  C   UNL A   1      33.654  31.228  27.646  1.00  0.00     0.001 A 
ATOM     22  C   UNL A   1      35.034  31.145  27.822  1.00  0.00     0.000 A 
ENDBRANCH  16  17
ENDBRANCH   9  11
ENDBRANCH   6   9
ENDBRANCH   4   5
ENDBRANCH   3   4
ENDBRANCH   2   3
ENDBRANCH   1   2
BRANCH   1  23
ATOM     23  C   UNL A   1      37.451  23.709  25.717  1.00  0.00     0.021 C 
BRANCH  23  24
ATOM     24  C   UNL A   1      38.509  24.364  26.597  1.00  0.00     0.116 C 
BRANCH  24  25
ATOM     25  N   UNL A   1      39.855  24.106  26.107  1.00  0.00    -0.352 N 
ATOM     26  C   UNL A   1      41.026  24.747  26.430  1.00  0.00     0.251 C 
ATOM     27  H   UNL A   1      39.937  23.372  25.456  1.00  0.00     0.163 HD
ATOM     28  O   UNL A   1      42.040  24.554  25.769  1.00  0.00    -0.269 OA
BRANCH  26  29
ATOM     29  C   UNL A   1      41.043  25.686  27.570  1.00  0.00     0.039 A 
ATOM     30  C   UNL A   1      42.055  26.645  27.648  1.00  0.00     0.014 A 
ATOM     31  C   UNL A   1      40.045  25.629  28.547  1.00  0.00     0.014 A 
ATOM     32  C   UNL A   1      42.031  27.590  28.678  1.00  0.00     0.010 A 
ATOM     33  C   UNL A   1      39.980  26.616  29.525  1.00  0.00     0.010 A 
ATOM     34  C   UNL A   1      40.973  27.604  29.603  1.00  0.00    -0.014 A 
BRANCH  34  35
ATOM     35  C   UNL A   1      40.880  28.641  30.661  1.00  0.00     0.031 A 
ATOM     36  C   UNL A   1      41.750  28.545  31.884  1.00  0.00     0.074 A 
ATOM     37  C   UNL A   1      39.950  29.611  30.567  1.00  0.00     0.049 A 
ATOM     38  N   UNL A   1      41.740  29.280  32.966  1.00  0.00    -0.248 NA
ATOM     39  C   UNL A   1      42.739  27.455  31.906  1.00  0.00     0.031 C 
ATOM     40  C   UNL A   1      39.010  29.776  29.455  1.00  0.00     0.029 A 
ATOM     41  N   UNL A   1      39.622  30.625  31.431  1.00  0.00    -0.354 N 
ATOM     42  C   UNL A   1      42.702  28.730  33.805  1.00  0.00     0.074 A 
ATOM     43  C   UNL A   1      43.237  27.569  33.128  1.00  0.00     0.031 C 
ATOM     44  C   UNL A   1      38.215  30.827  29.705  1.00  0.00     0.029 A 
ATOM     45  C   UNL A   1      38.556  31.386  31.010  1.00  0.00     0.049 A 
ATOM     46  H   UNL A   1      40.103  30.793  32.274  1.00  0.00     0.167 HD
ATOM     47  C   UNL A   1      43.114  29.166  35.020  1.00  0.00     0.037 A 
ATOM     48  C   UNL A   1      37.911  32.403  31.614  1.00  0.00     0.037 A 
ATOM     49  C   UNL A   1      42.586  30.334  35.674  1.00  0.00     0.049 A 
ATOM     50  C   UNL A   1      38.385  32.877  32.960  1.00  0.00     0.074 A 
ATOM     51  C   UNL A   1      42.985  30.902  36.871  1.00  0.00     0.029 A 
ATOM     52  N   UNL A   1      41.536  31.105  35.195  1.00  0.00    -0.354 N 
ATOM     53  N   UNL A   1      39.351  32.398  33.706  1.00  0.00    -0.248 NA
ATOM     54  C   UNL A   1      37.691  34.033  33.545  1.00  0.00     0.031 C 
ATOM     55  C   UNL A   1      42.139  31.983  37.143  1.00  0.00     0.029 A 
ATOM     56  C   UNL A   1      41.254  32.127  36.086  1.00  0.00     0.049 A 
ATOM     57  H   UNL A   1      41.062  30.949  34.346  1.00  0.00     0.167 HD
ATOM     58  C   UNL A   1      39.398  33.205  34.837  1.00  0.00     0.074 A 
ATOM     59  C   UNL A   1      38.366  34.209  34.674  1.00  0.00     0.031 C 
ATOM     60  C   UNL A   1      40.224  33.123  35.910  1.00  0.00     0.037 A 
BRANCH  47  61
ATOM     61  C   UNL A   1      44.176  28.360  35.722  1.00  0.00     0.058 A 
ATOM     62  C   UNL A   1      45.545  28.566  35.479  1.00  0.00     0.135 A 
ATOM     63  C   UNL A   1      43.821  27.369  36.649  1.00  0.00     0.135 A 
ATOM     64  F   UNL A   1      45.944  29.494  34.594  1.00  0.00    -0.206 F 
ATOM     65  C   UNL A   1      46.518  27.783  36.090  1.00  0.00     0.059 A 
ATOM     66  C   UNL A   1      44.779  26.596  37.299  1.00  0.00     0.059 A 
ATOM     67  F   UNL A   1      42.528  27.132  36.925  1.00  0.00    -0.206 F 
ATOM     68  C   UNL A   1      46.125  26.794  36.993  1.00  0.00     0.060 A 
BRANCH  68  69
ATOM     69  S   UNL A   1      47.397  25.762  37.751  1.00  0.00     0.124 S 
ATOM     70  O   UNL A   1      46.737  25.351  38.987  1.00  0.00    -0.237 OA
ATOM     71  O   UNL A   1      47.583  24.712  36.755  1.00  0.00    -0.237 OA
ATOM     72  O   UNL A   1      48.524  26.675  37.915  1.00  0.00    -0.744 OA
ENDBRANCH  68  69
ENDBRANCH  47  61
BRANCH  48  73
ATOM     73  C   UNL A   1      36.750  33.036  30.934  1.00  0.00     0.058 A 
ATOM     74  C   UNL A   1      35.437  32.803  31.371  1.00  0.00     0.135 A 
ATOM     75  C   UNL A   1      36.935  33.936  29.872  1.00  0.00     0.135 A 
ATOM     76  F   UNL A   1      35.207  31.947  32.377  1.00  0.00    -0.206 F 
ATOM     77  C   UNL A   1      34.350  33.441  30.782  1.00  0.00     0.059 A 
ATOM     78  C   UNL A   1      35.867  34.604  29.283  1.00  0.00     0.059 A 
ATOM     79  F   UNL A   1      38.173  34.205  29.429  1.00  0.00    -0.206 F 
ATOM     80  C   UNL A   1      34.576  34.348  29.744  1.00  0.00     0.060 A 
BRANCH  80  81
ATOM     81  S   UNL A   1      33.166  35.236  29.045  1.00  0.00     0.124 S 
ATOM     82  O   UNL A   1      32.668  34.274  28.069  1.00  0.00    -0.237 OA
ATOM     83  O   UNL A   1      32.327  35.448  30.221  1.00  0.00    -0.237 OA
ATOM     84  O   UNL A   1      33.771  36.442  28.491  1.00  0.00    -0.744 OA
ENDBRANCH  80  81
ENDBRANCH  48  73
BRANCH  60  85
ATOM     85  C   UNL A   1      40.078  34.162  36.988  1.00  0.00     0.058 A 
ATOM     86  C   UNL A   1      40.738  35.398  36.919  1.00  0.00     0.135 A 
ATOM     87  C   UNL A   1      39.194  33.949  38.059  1.00  0.00     0.135 A 
ATOM     88  F   UNL A   1      41.601  35.649  35.922  1.00  0.00    -0.206 F 
ATOM     89  C   UNL A   1      40.531  36.386  37.877  1.00  0.00     0.059 A 
ATOM     90  C   UNL A   1      38.951  34.933  39.013  1.00  0.00     0.059 A 
ATOM     91  F   UNL A   1      38.532  32.787  38.169  1.00  0.00    -0.206 F 
ATOM     92  C   UNL A   1      39.628  36.147  38.915  1.00  0.00     0.060 A 
BRANCH  92  93
ATOM     93  S   UNL A   1      39.319  37.464  40.112  1.00  0.00     0.124 S 
ATOM     94  O   UNL A   1      40.649  38.045  40.260  1.00  0.00    -0.237 OA
ATOM     95  O   UNL A   1      38.338  38.292  39.418  1.00  0.00    -0.237 OA
ATOM     96  O   UNL A   1      38.813  36.749  41.281  1.00  0.00    -0.744 OA
ENDBRANCH  92  93
ENDBRANCH  60  85
ENDBRANCH  34  35
ENDBRANCH  26  29
ENDBRANCH  24  25
ENDBRANCH  23  24
ENDBRANCH   1  23
TORSDOF 18
ENDMDL
MODEL 3
REMARK VINA RESULT:     -11.2      3.139      3.955
REMARK SMILES C[C@@H](C(=O)NCCCCCCNC(=O)c1ccc(-c2c3nc(c(-c4c(F)cc(S(=O)(=O)[O-])cc4F)c4ccc([nH]4)c(-c4c(F)cc(S(=O)(=O)[O-])cc4F)c4nc(c(-c5c(F)cc(S(=O)(=O)[O-])cc5F)c5ccc2[nH]5)C=C4)C=C3)cc1)c1ccc(-c2ccccc2)cc1
REMARK SMILES IDX 9 1 8 2 7 3 6 4 5 5 3 6 4 7 2 9 1 10 81 11 82 12 92 13 83 14
REMARK SMILES IDX 91 15 84 16 85 17 86 18 90 19 87 20 89 21 88 22 10 23 11 24
REMARK SMILES IDX 12 25 13 26 14 28 15 29 16 30 80 31 17 32 79 33 18 34 19 35
REMARK SMILES IDX 20 36 73 37 21 38 78 39 72 40 74 41 22 42 77 43 71 44 70 45
REMARK SMILES IDX 23 47 57 48 36 49 56 50 37 51 40 52 55 53 75 54 38 55 39 56
REMARK SMILES IDX 54 58 76 59 41 60 24 61 25 62 34 63 26 64 27 65 33 66 35 67
REMARK SMILES IDX 28 68 29 69 30 70 31 71 32 72 58 73 59 74 68 75 60 76 61 77
REMARK SMILES IDX 67 78 69 79 62 80 63 81 64 82 65 83 66 84 42 85 43 86 52 87
REMARK SMILES IDX 44 88 45 89 51 90 53 91 46 92 47 93 48 94 49 95 50 96
REMARK H PARENT 5 8 12 27 74 46 40 57
REMARK Flexibility Score: inf
ROOT
ATOM      1  C   UNL A   1      31.424  27.606  26.637  1.00  0.00     0.002 C 
ENDROOT
BRANCH   1   2
ATOM      2  C   UNL A   1      30.667  26.567  25.804  1.00  0.00     0.002 C 
BRANCH   2   3
ATOM      3  C   UNL A   1      30.767  26.764  24.284  1.00  0.00     0.021 C 
BRANCH   3   4
ATOM      4  C   UNL A   1      30.684  25.457  23.488  1.00  0.00     0.116 C 
BRANCH   4   5
ATOM      5  N   UNL A   1      31.902  25.265  22.729  1.00  0.00    -0.356 N 
ATOM      6  C   UNL A   1      33.154  24.934  23.156  1.00  0.00     0.227 C 
ATOM      7  O   UNL A   1      34.068  25.079  22.339  1.00  0.00    -0.274 OA
ATOM      8  H   UNL A   1      31.812  25.393  21.758  1.00  0.00     0.163 HD
BRANCH   6   9
ATOM      9  C   UNL A   1      33.363  24.351  24.567  1.00  0.00     0.105 C 
ATOM     10  C   UNL A   1      34.622  24.918  25.236  1.00  0.00     0.023 C 
BRANCH   9  11
ATOM     11  C   UNL A   1      33.350  22.819  24.534  1.00  0.00    -0.036 A 
ATOM     12  C   UNL A   1      32.202  22.085  24.212  1.00  0.00     0.005 A 
ATOM     13  C   UNL A   1      34.512  22.107  24.879  1.00  0.00     0.005 A 
ATOM     14  C   UNL A   1      32.214  20.691  24.227  1.00  0.00     0.009 A 
ATOM     15  C   UNL A   1      34.518  20.706  24.909  1.00  0.00     0.009 A 
ATOM     16  C   UNL A   1      33.367  19.978  24.579  1.00  0.00    -0.018 A 
BRANCH  16  17
ATOM     17  C   UNL A   1      33.331  18.511  24.610  1.00  0.00    -0.018 A 
ATOM     18  C   UNL A   1      32.699  17.838  25.668  1.00  0.00     0.009 A 
ATOM     19  C   UNL A   1      33.985  17.748  23.631  1.00  0.00     0.009 A 
ATOM     20  C   UNL A   1      32.734  16.446  25.759  1.00  0.00     0.001 A 
ATOM     21  C   UNL A   1      34.022  16.354  23.722  1.00  0.00     0.001 A 
ATOM     22  C   UNL A   1      33.402  15.705  24.788  1.00  0.00     0.000 A 
ENDBRANCH  16  17
ENDBRANCH   9  11
ENDBRANCH   6   9
ENDBRANCH   4   5
ENDBRANCH   3   4
ENDBRANCH   2   3
ENDBRANCH   1   2
BRANCH   1  23
ATOM     23  C   UNL A   1      32.737  28.085  26.016  1.00  0.00     0.021 C 
BRANCH  23  24
ATOM     24  C   UNL A   1      33.815  28.442  27.034  1.00  0.00     0.116 C 
BRANCH  24  25
ATOM     25  N   UNL A   1      33.694  29.820  27.488  1.00  0.00    -0.352 N 
ATOM     26  C   UNL A   1      34.588  30.567  28.214  1.00  0.00     0.251 C 
ATOM     27  H   UNL A   1      32.859  30.278  27.239  1.00  0.00     0.163 HD
ATOM     28  O   UNL A   1      34.247  31.640  28.700  1.00  0.00    -0.269 OA
BRANCH  26  29
ATOM     29  C   UNL A   1      35.959  30.056  28.418  1.00  0.00     0.039 A 
ATOM     30  C   UNL A   1      36.868  30.100  27.359  1.00  0.00     0.014 A 
ATOM     31  C   UNL A   1      36.346  29.554  29.664  1.00  0.00     0.014 A 
ATOM     32  C   UNL A   1      38.189  29.695  27.568  1.00  0.00     0.010 A 
ATOM     33  C   UNL A   1      37.678  29.224  29.890  1.00  0.00     0.010 A 
ATOM     34  C   UNL A   1      38.612  29.288  28.845  1.00  0.00    -0.014 A 
BRANCH  34  35
ATOM     35  C   UNL A   1      40.027  28.925  29.116  1.00  0.00     0.031 A 
ATOM     36  C   UNL A   1      40.984  29.967  29.626  1.00  0.00     0.074 A 
ATOM     37  C   UNL A   1      40.469  27.689  28.814  1.00  0.00     0.049 A 
ATOM     38  N   UNL A   1      42.275  29.881  29.815  1.00  0.00    -0.248 NA
ATOM     39  C   UNL A   1      40.418  31.291  29.929  1.00  0.00     0.031 C 
ATOM     40  C   UNL A   1      39.648  26.609  28.263  1.00  0.00     0.029 A 
ATOM     41  N   UNL A   1      41.723  27.140  28.903  1.00  0.00    -0.354 N 
ATOM     42  C   UNL A   1      42.679  31.142  30.237  1.00  0.00     0.074 A 
ATOM     43  C   UNL A   1      41.506  31.987  30.223  1.00  0.00     0.031 C 
ATOM     44  C   UNL A   1      40.419  25.528  28.065  1.00  0.00     0.029 A 
ATOM     45  C   UNL A   1      41.795  25.849  28.433  1.00  0.00     0.049 A 
ATOM     46  H   UNL A   1      42.499  27.623  29.269  1.00  0.00     0.167 HD
ATOM     47  C   UNL A   1      43.914  31.552  30.618  1.00  0.00     0.037 A 
ATOM     48  C   UNL A   1      42.851  25.024  28.292  1.00  0.00     0.037 A 
ATOM     49  C   UNL A   1      45.070  30.695  30.644  1.00  0.00     0.049 A 
ATOM     50  C   UNL A   1      44.212  25.493  28.726  1.00  0.00     0.074 A 
ATOM     51  C   UNL A   1      46.348  30.991  31.084  1.00  0.00     0.029 A 
ATOM     52  N   UNL A   1      45.093  29.380  30.201  1.00  0.00    -0.354 N 
ATOM     53  N   UNL A   1      44.565  26.663  29.201  1.00  0.00    -0.248 NA
ATOM     54  C   UNL A   1      45.318  24.532  28.614  1.00  0.00     0.031 C 
ATOM     55  C   UNL A   1      47.157  29.873  30.853  1.00  0.00     0.029 A 
ATOM     56  C   UNL A   1      46.371  28.860  30.329  1.00  0.00     0.049 A 
ATOM     57  H   UNL A   1      44.316  28.889  29.849  1.00  0.00     0.167 HD
ATOM     58  C   UNL A   1      45.927  26.574  29.467  1.00  0.00     0.074 A 
ATOM     59  C   UNL A   1      46.333  25.231  29.105  1.00  0.00     0.031 C 
ATOM     60  C   UNL A   1      46.762  27.518  29.968  1.00  0.00     0.037 A 
BRANCH  47  61
ATOM     61  C   UNL A   1      44.072  32.994  31.021  1.00  0.00     0.058 A 
ATOM     62  C   UNL A   1      44.406  33.993  30.090  1.00  0.00     0.135 A 
ATOM     63  C   UNL A   1      43.886  33.385  32.356  1.00  0.00     0.135 A 
ATOM     64  F   UNL A   1      44.606  33.676  28.800  1.00  0.00    -0.206 F 
ATOM     65  C   UNL A   1      44.603  35.313  30.479  1.00  0.00     0.059 A 
ATOM     66  C   UNL A   1      44.044  34.707  32.762  1.00  0.00     0.059 A 
ATOM     67  F   UNL A   1      43.560  32.475  33.289  1.00  0.00    -0.206 F 
ATOM     68  C   UNL A   1      44.427  35.660  31.819  1.00  0.00     0.060 A 
BRANCH  68  69
ATOM     69  S   UNL A   1      44.720  37.371  32.314  1.00  0.00     0.124 S 
ATOM     70  O   UNL A   1      44.136  38.101  31.193  1.00  0.00    -0.237 OA
ATOM     71  O   UNL A   1      43.992  37.461  33.576  1.00  0.00    -0.237 OA
ATOM     72  O   UNL A   1      46.173  37.449  32.425  1.00  0.00    -0.744 OA
ENDBRANCH  68  69
ENDBRANCH  47  61
BRANCH  48  73
ATOM     73  C   UNL A   1      42.645  23.669  27.715  1.00  0.00     0.058 A 
ATOM     74  C   UNL A   1      42.685  23.455  26.329  1.00  0.00     0.135 A 
ATOM     75  C   UNL A   1      42.467  22.549  28.544  1.00  0.00     0.135 A 
ATOM     76  F   UNL A   1      42.845  24.493  25.496  1.00  0.00    -0.206 F 
ATOM     77  C   UNL A   1      42.557  22.181  25.785  1.00  0.00     0.059 A 
ATOM     78  C   UNL A   1      42.361  21.263  28.026  1.00  0.00     0.059 A 
ATOM     79  F   UNL A   1      42.439  22.699  29.878  1.00  0.00    -0.206 F 
ATOM     80  C   UNL A   1      42.406  21.089  26.644  1.00  0.00     0.060 A 
BRANCH  80  81
ATOM     81  S   UNL A   1      42.329  19.430  25.931  1.00  0.00     0.124 S 
ATOM     82  O   UNL A   1      42.828  18.614  27.031  1.00  0.00    -0.237 OA
ATOM     83  O   UNL A   1      40.907  19.296  25.627  1.00  0.00    -0.237 OA
ATOM     84  O   UNL A   1      43.203  19.526  24.767  1.00  0.00    -0.744 OA
ENDBRANCH  80  81
ENDBRANCH  48  73
BRANCH  60  85
ATOM     85  C   UNL A   1      48.199  27.135  30.192  1.00  0.00     0.058 A 
ATOM     86  C   UNL A   1      49.191  27.393  29.235  1.00  0.00     0.135 A 
ATOM     87  C   UNL A   1      48.600  26.582  31.421  1.00  0.00     0.135 A 
ATOM     88  F   UNL A   1      48.861  27.910  28.041  1.00  0.00    -0.206 F 
ATOM     89  C   UNL A   1      50.531  27.112  29.485  1.00  0.00     0.059 A 
ATOM     90  C   UNL A   1      49.937  26.320  31.702  1.00  0.00     0.059 A 
ATOM     91  F   UNL A   1      47.692  26.323  32.374  1.00  0.00    -0.206 F 
ATOM     92  C   UNL A   1      50.895  26.585  30.725  1.00  0.00     0.060 A 
BRANCH  92  93
ATOM     93  S   UNL A   1      52.645  26.290  31.060  1.00  0.00     0.124 S 
ATOM     94  O   UNL A   1      52.595  25.036  31.805  1.00  0.00    -0.237 OA
ATOM     95  O   UNL A   1      53.210  26.209  29.717  1.00  0.00    -0.237 OA
ATOM     96  O   UNL A   1      53.046  27.463  31.832  1.00  0.00    -0.744 OA
ENDBRANCH  92  93
ENDBRANCH  60  85
ENDBRANCH  34  35
ENDBRANCH  26  29
ENDBRANCH  24  25
ENDBRANCH  23  24
ENDBRANCH   1  23
TORSDOF 18
ENDMDL
