MODEL 1
REMARK VINA RESULT:     -11.2      0.000      0.000
REMARK SMILES O=C(/C=C/c1ccccc1Oc1cccc(Cl)c1)NCCCCCCNC(=O)c1ccc(-c2c3nc(c(-c4c(F)cc(S(=O)(=O)[O-])cc4F)c4ccc([nH]4)c(-c4c(F)cc(S(=O)(=O)[O-])cc4F)c4nc(c(-c5c(F)cc(S(=O)(=O)[O-])cc5F)c5ccc2[nH]5)C=C4)C=C3)cc1
REMARK SMILES IDX 22 1 21 2 20 3 19 4 1 5 2 6 3 8 4 9 5 10 6 11 10 12 7 13
REMARK SMILES IDX 9 14 8 15 11 16 12 17 13 18 18 19 14 20 16 21 15 22 17 23
REMARK SMILES IDX 23 24 24 25 25 26 26 27 27 28 28 30 29 31 30 32 94 33 31 34
REMARK SMILES IDX 93 35 32 36 33 37 34 38 87 39 35 40 92 41 86 42 88 43 36 44
REMARK SMILES IDX 91 45 85 46 84 47 37 49 71 50 50 51 70 52 51 53 54 54 69 55
REMARK SMILES IDX 89 56 52 57 53 58 68 60 90 61 55 62 38 63 39 64 48 65 40 66
REMARK SMILES IDX 41 67 47 68 49 69 42 70 43 71 44 72 45 73 46 74 72 75 73 76
REMARK SMILES IDX 82 77 74 78 75 79 81 80 83 81 76 82 77 83 78 84 79 85 80 86
REMARK SMILES IDX 56 87 57 88 66 89 58 90 59 91 65 92 67 93 60 94 61 95 62 96
REMARK SMILES IDX 63 97 64 98
REMARK H PARENT 19 7 26 29 88 48 54 59
REMARK Flexibility Score: inf
ROOT
ATOM      1  C   UNL A   1      40.980  21.509  27.657  1.00  0.00     0.002 C 
ENDROOT
BRANCH   1   2
ATOM      2  C   UNL A   1      39.899  22.467  27.139  1.00  0.00     0.021 C 
BRANCH   2   3
ATOM      3  C   UNL A   1      39.515  22.245  25.679  1.00  0.00     0.116 C 
BRANCH   3   4
ATOM      4  N   UNL A   1      38.115  22.526  25.450  1.00  0.00    -0.353 N 
ATOM      5  O   UNL A   1      37.438  20.338  25.276  1.00  0.00    -0.270 OA
ATOM      6  C   UNL A   1      37.190  21.537  25.235  1.00  0.00     0.244 C 
ATOM      7  H   UNL A   1      37.814  23.464  25.448  1.00  0.00     0.163 HD
BRANCH   6   8
ATOM      8  C   UNL A   1      35.793  21.991  25.016  1.00  0.00     0.072 C 
ATOM      9  C   UNL A   1      35.236  22.216  23.818  1.00  0.00     0.017 C 
BRANCH   9  10
ATOM     10  C   UNL A   1      33.891  22.779  23.650  1.00  0.00     0.017 A 
ATOM     11  C   UNL A   1      33.850  24.011  22.966  1.00  0.00     0.012 A 
ATOM     12  C   UNL A   1      32.684  22.229  24.129  1.00  0.00     0.134 A 
ATOM     13  C   UNL A   1      32.644  24.675  22.733  1.00  0.00     0.001 A 
ATOM     14  C   UNL A   1      31.479  22.908  23.875  1.00  0.00     0.048 A 
ATOM     15  C   UNL A   1      31.455  24.120  23.185  1.00  0.00     0.004 A 
BRANCH  12  16
ATOM     16  O   UNL A   1      32.461  21.038  24.795  1.00  0.00    -0.457 OA
BRANCH  16  17
ATOM     17  C   UNL A   1      32.769  19.827  24.239  1.00  0.00     0.128 A 
ATOM     18  C   UNL A   1      32.131  19.511  23.036  1.00  0.00     0.047 A 
ATOM     19  C   UNL A   1      33.621  18.908  24.848  1.00  0.00     0.067 A 
ATOM     20  C   UNL A   1      32.417  18.311  22.386  1.00  0.00     0.005 A 
ATOM     21  C   UNL A   1      33.911  17.715  24.187  1.00  0.00     0.044 A 
ATOM     22  C   UNL A   1      33.321  17.416  22.957  1.00  0.00     0.021 A 
ATOM     23  Cl  UNL A   1      35.067  16.631  24.859  1.00  0.00    -0.084 Cl
ENDBRANCH  16  17
ENDBRANCH  12  16
ENDBRANCH   9  10
ENDBRANCH   6   8
ENDBRANCH   3   4
ENDBRANCH   2   3
ENDBRANCH   1   2
BRANCH   1  24
ATOM     24  C   UNL A   1      42.213  22.182  28.268  1.00  0.00     0.002 C 
BRANCH  24  25
ATOM     25  C   UNL A   1      43.384  22.393  27.307  1.00  0.00     0.021 C 
BRANCH  25  26
ATOM     26  C   UNL A   1      43.717  23.851  27.004  1.00  0.00     0.116 C 
BRANCH  26  27
ATOM     27  N   UNL A   1      42.897  24.399  25.935  1.00  0.00    -0.352 N 
ATOM     28  C   UNL A   1      41.963  25.405  25.986  1.00  0.00     0.251 C 
ATOM     29  H   UNL A   1      43.030  23.992  25.049  1.00  0.00     0.163 HD
ATOM     30  O   UNL A   1      41.244  25.621  25.012  1.00  0.00    -0.269 OA
BRANCH  28  31
ATOM     31  C   UNL A   1      41.805  26.209  27.218  1.00  0.00     0.039 A 
ATOM     32  C   UNL A   1      42.570  27.369  27.370  1.00  0.00     0.014 A 
ATOM     33  C   UNL A   1      40.911  25.825  28.221  1.00  0.00     0.014 A 
ATOM     34  C   UNL A   1      42.393  28.172  28.499  1.00  0.00     0.010 A 
ATOM     35  C   UNL A   1      40.679  26.667  29.305  1.00  0.00     0.010 A 
ATOM     36  C   UNL A   1      41.420  27.847  29.460  1.00  0.00    -0.014 A 
BRANCH  36  37
ATOM     37  C   UNL A   1      41.165  28.738  30.623  1.00  0.00     0.031 A 
ATOM     38  C   UNL A   1      42.018  28.641  31.861  1.00  0.00     0.074 A 
ATOM     39  C   UNL A   1      40.132  29.602  30.584  1.00  0.00     0.049 A 
ATOM     40  N   UNL A   1      41.940  29.326  32.973  1.00  0.00    -0.248 NA
ATOM     41  C   UNL A   1      43.081  27.624  31.858  1.00  0.00     0.031 C 
ATOM     42  C   UNL A   1      39.202  29.756  29.463  1.00  0.00     0.029 A 
ATOM     43  N   UNL A   1      39.686  30.513  31.509  1.00  0.00    -0.354 N 
ATOM     44  C   UNL A   1      42.929  28.813  33.805  1.00  0.00     0.074 A 
ATOM     45  C   UNL A   1      43.556  27.724  33.090  1.00  0.00     0.031 C 
ATOM     46  C   UNL A   1      38.328  30.734  29.746  1.00  0.00     0.029 A 
ATOM     47  C   UNL A   1      38.604  31.247  31.084  1.00  0.00     0.049 A 
ATOM     48  H   UNL A   1      40.103  30.631  32.392  1.00  0.00     0.167 HD
ATOM     49  C   UNL A   1      43.295  29.226  35.045  1.00  0.00     0.037 A 
ATOM     50  C   UNL A   1      37.913  32.225  31.701  1.00  0.00     0.037 A 
ATOM     51  C   UNL A   1      42.673  30.323  35.742  1.00  0.00     0.049 A 
ATOM     52  C   UNL A   1      38.329  32.658  33.082  1.00  0.00     0.074 A 
ATOM     53  C   UNL A   1      43.017  30.867  36.968  1.00  0.00     0.029 A 
ATOM     54  N   UNL A   1      41.573  31.034  35.286  1.00  0.00    -0.354 N 
ATOM     55  N   UNL A   1      39.320  32.219  33.821  1.00  0.00    -0.248 NA
ATOM     56  C   UNL A   1      37.535  33.722  33.708  1.00  0.00     0.031 C 
ATOM     57  C   UNL A   1      42.085  31.864  37.281  1.00  0.00     0.029 A 
ATOM     58  C   UNL A   1      41.202  31.987  36.220  1.00  0.00     0.049 A 
ATOM     59  H   UNL A   1      41.123  30.884  34.423  1.00  0.00     0.167 HD
ATOM     60  C   UNL A   1      39.288  32.975  34.988  1.00  0.00     0.074 A 
ATOM     61  C   UNL A   1      38.187  33.907  34.847  1.00  0.00     0.031 C 
ATOM     62  C   UNL A   1      40.100  32.908  36.072  1.00  0.00     0.037 A 
BRANCH  49  63
ATOM     63  C   UNL A   1      44.408  28.475  35.728  1.00  0.00     0.058 A 
ATOM     64  C   UNL A   1      45.757  28.836  35.573  1.00  0.00     0.135 A 
ATOM     65  C   UNL A   1      44.120  27.382  36.563  1.00  0.00     0.135 A 
ATOM     66  F   UNL A   1      46.095  29.866  34.780  1.00  0.00    -0.206 F 
ATOM     67  C   UNL A   1      46.780  28.113  36.180  1.00  0.00     0.059 A 
ATOM     68  C   UNL A   1      45.125  26.665  37.207  1.00  0.00     0.059 A 
ATOM     69  F   UNL A   1      42.849  26.992  36.753  1.00  0.00    -0.206 F 
ATOM     70  C   UNL A   1      46.454  27.026  36.992  1.00  0.00     0.060 A 
BRANCH  70  71
ATOM     71  S   UNL A   1      47.794  26.085  37.753  1.00  0.00     0.124 S 
ATOM     72  O   UNL A   1      48.349  27.069  38.677  1.00  0.00    -0.237 OA
ATOM     73  O   UNL A   1      47.081  24.969  38.367  1.00  0.00    -0.237 OA
ATOM     74  O   UNL A   1      48.648  25.735  36.622  1.00  0.00    -0.744 OA
ENDBRANCH  70  71
ENDBRANCH  49  63
BRANCH  50  75
ATOM     75  C   UNL A   1      36.786  32.896  30.999  1.00  0.00     0.058 A 
ATOM     76  C   UNL A   1      35.458  32.662  31.388  1.00  0.00     0.135 A 
ATOM     77  C   UNL A   1      37.007  33.795  29.943  1.00  0.00     0.135 A 
ATOM     78  F   UNL A   1      35.194  31.804  32.386  1.00  0.00    -0.206 F 
ATOM     79  C   UNL A   1      34.389  33.285  30.752  1.00  0.00     0.059 A 
ATOM     80  C   UNL A   1      35.957  34.451  29.310  1.00  0.00     0.059 A 
ATOM     81  F   UNL A   1      38.258  34.066  29.541  1.00  0.00    -0.206 F 
ATOM     82  C   UNL A   1      34.650  34.184  29.716  1.00  0.00     0.060 A 
BRANCH  82  83
ATOM     83  S   UNL A   1      33.258  35.030  28.938  1.00  0.00     0.124 S 
ATOM     84  O   UNL A   1      32.790  34.023  27.994  1.00  0.00    -0.237 OA
ATOM     85  O   UNL A   1      32.384  35.291  30.079  1.00  0.00    -0.237 OA
ATOM     86  O   UNL A   1      33.873  36.213  28.345  1.00  0.00    -0.744 OA
ENDBRANCH  82  83
ENDBRANCH  50  75
BRANCH  62  87
ATOM     87  C   UNL A   1      39.849  33.893  37.184  1.00  0.00     0.058 A 
ATOM     88  C   UNL A   1      40.369  35.197  37.155  1.00  0.00     0.135 A 
ATOM     89  C   UNL A   1      39.051  33.534  38.283  1.00  0.00     0.135 A 
ATOM     90  F   UNL A   1      41.144  35.593  36.133  1.00  0.00    -0.206 F 
ATOM     91  C   UNL A   1      40.138  36.096  38.191  1.00  0.00     0.059 A 
ATOM     92  C   UNL A   1      38.778  34.428  39.314  1.00  0.00     0.059 A 
ATOM     93  F   UNL A   1      38.516  32.304  38.358  1.00  0.00    -0.206 F 
ATOM     94  C   UNL A   1      39.341  35.702  39.267  1.00  0.00     0.060 A 
BRANCH  94  95
ATOM     95  S   UNL A   1      39.036  36.883  40.598  1.00  0.00     0.124 S 
ATOM     96  O   UNL A   1      38.101  36.143  41.439  1.00  0.00    -0.237 OA
ATOM     97  O   UNL A   1      40.372  37.077  41.153  1.00  0.00    -0.237 OA
ATOM     98  O   UNL A   1      38.478  38.040  39.906  1.00  0.00    -0.744 OA
ENDBRANCH  94  95
ENDBRANCH  62  87
ENDBRANCH  36  37
ENDBRANCH  28  31
ENDBRANCH  26  27
ENDBRANCH  25  26
ENDBRANCH  24  25
ENDBRANCH   1  24
TORSDOF 19
ENDMDL
MODEL 2
REMARK VINA RESULT:     -11.1      2.060      3.329
REMARK SMILES O=C(/C=C/c1ccccc1Oc1cccc(Cl)c1)NCCCCCCNC(=O)c1ccc(-c2c3nc(c(-c4c(F)cc(S(=O)(=O)[O-])cc4F)c4ccc([nH]4)c(-c4c(F)cc(S(=O)(=O)[O-])cc4F)c4nc(c(-c5c(F)cc(S(=O)(=O)[O-])cc5F)c5ccc2[nH]5)C=C4)C=C3)cc1
REMARK SMILES IDX 22 1 21 2 20 3 19 4 1 5 2 6 3 8 4 9 5 10 6 11 10 12 7 13
REMARK SMILES IDX 9 14 8 15 11 16 12 17 13 18 18 19 14 20 16 21 15 22 17 23
REMARK SMILES IDX 23 24 24 25 25 26 26 27 27 28 28 30 29 31 30 32 94 33 31 34
REMARK SMILES IDX 93 35 32 36 33 37 34 38 87 39 35 40 92 41 86 42 88 43 36 44
REMARK SMILES IDX 91 45 85 46 84 47 37 49 71 50 50 51 70 52 51 53 54 54 69 55
REMARK SMILES IDX 89 56 52 57 53 58 68 60 90 61 55 62 38 63 39 64 48 65 40 66
REMARK SMILES IDX 41 67 47 68 49 69 42 70 43 71 44 72 45 73 46 74 72 75 73 76
REMARK SMILES IDX 82 77 74 78 75 79 81 80 83 81 76 82 77 83 78 84 79 85 80 86
REMARK SMILES IDX 56 87 57 88 66 89 58 90 59 91 65 92 67 93 60 94 61 95 62 96
REMARK SMILES IDX 63 97 64 98
REMARK H PARENT 19 7 26 29 88 48 54 59
REMARK Flexibility Score: inf
ROOT
ATOM      1  C   UNL A   1      41.011  21.838  28.116  1.00  0.00     0.002 C 
ENDROOT
BRANCH   1   2
ATOM      2  C   UNL A   1      40.193  22.556  27.034  1.00  0.00     0.021 C 
BRANCH   2   3
ATOM      3  C   UNL A   1      39.470  21.618  26.072  1.00  0.00     0.116 C 
BRANCH   3   4
ATOM      4  N   UNL A   1      38.452  22.314  25.317  1.00  0.00    -0.353 N 
ATOM      5  O   UNL A   1      37.155  20.471  24.873  1.00  0.00    -0.270 OA
ATOM      6  C   UNL A   1      37.384  21.669  24.749  1.00  0.00     0.244 C 
ATOM      7  H   UNL A   1      38.529  23.290  25.207  1.00  0.00     0.163 HD
BRANCH   6   8
ATOM      8  C   UNL A   1      36.427  22.527  24.005  1.00  0.00     0.072 C 
ATOM      9  C   UNL A   1      35.470  23.278  24.567  1.00  0.00     0.017 C 
BRANCH   9  10
ATOM     10  C   UNL A   1      34.469  24.017  23.788  1.00  0.00     0.017 A 
ATOM     11  C   UNL A   1      33.877  23.281  22.742  1.00  0.00     0.012 A 
ATOM     12  C   UNL A   1      34.088  25.362  23.970  1.00  0.00     0.134 A 
ATOM     13  C   UNL A   1      32.910  23.848  21.909  1.00  0.00     0.001 A 
ATOM     14  C   UNL A   1      33.105  25.912  23.127  1.00  0.00     0.048 A 
ATOM     15  C   UNL A   1      32.521  25.165  22.104  1.00  0.00     0.004 A 
BRANCH  12  16
ATOM     16  O   UNL A   1      34.497  26.273  24.927  1.00  0.00    -0.457 OA
BRANCH  16  17
ATOM     17  C   UNL A   1      33.604  26.993  25.672  1.00  0.00     0.128 A 
ATOM     18  C   UNL A   1      32.449  26.321  26.084  1.00  0.00     0.047 A 
ATOM     19  C   UNL A   1      33.778  28.343  25.968  1.00  0.00     0.067 A 
ATOM     20  C   UNL A   1      31.505  26.973  26.876  1.00  0.00     0.005 A 
ATOM     21  C   UNL A   1      32.836  28.985  26.771  1.00  0.00     0.044 A 
ATOM     22  C   UNL A   1      31.707  28.307  27.233  1.00  0.00     0.021 A 
ATOM     23  Cl  UNL A   1      33.105  30.613  27.259  1.00  0.00    -0.084 Cl
ENDBRANCH  16  17
ENDBRANCH  12  16
ENDBRANCH   9  10
ENDBRANCH   6   8
ENDBRANCH   3   4
ENDBRANCH   2   3
ENDBRANCH   1   2
BRANCH   1  24
ATOM     24  C   UNL A   1      42.347  22.498  28.474  1.00  0.00     0.002 C 
BRANCH  24  25
ATOM     25  C   UNL A   1      43.345  22.614  27.322  1.00  0.00     0.021 C 
BRANCH  25  26
ATOM     26  C   UNL A   1      43.744  24.040  26.953  1.00  0.00     0.116 C 
BRANCH  26  27
ATOM     27  N   UNL A   1      42.915  24.594  25.893  1.00  0.00    -0.352 N 
ATOM     28  C   UNL A   1      41.968  25.586  25.960  1.00  0.00     0.251 C 
ATOM     29  H   UNL A   1      43.054  24.202  25.001  1.00  0.00     0.163 HD
ATOM     30  O   UNL A   1      41.245  25.807  24.989  1.00  0.00    -0.269 OA
BRANCH  28  31
ATOM     31  C   UNL A   1      41.800  26.369  27.204  1.00  0.00     0.039 A 
ATOM     32  C   UNL A   1      42.565  27.524  27.384  1.00  0.00     0.014 A 
ATOM     33  C   UNL A   1      40.895  25.969  28.191  1.00  0.00     0.014 A 
ATOM     34  C   UNL A   1      42.378  28.308  28.525  1.00  0.00     0.010 A 
ATOM     35  C   UNL A   1      40.654  26.793  29.288  1.00  0.00     0.010 A 
ATOM     36  C   UNL A   1      41.396  27.968  29.471  1.00  0.00    -0.014 A 
BRANCH  36  37
ATOM     37  C   UNL A   1      41.132  28.839  30.647  1.00  0.00     0.031 A 
ATOM     38  C   UNL A   1      41.970  28.716  31.892  1.00  0.00     0.074 A 
ATOM     39  C   UNL A   1      40.102  29.707  30.612  1.00  0.00     0.049 A 
ATOM     40  N   UNL A   1      41.882  29.381  33.016  1.00  0.00    -0.248 NA
ATOM     41  C   UNL A   1      43.029  27.695  31.882  1.00  0.00     0.031 C 
ATOM     42  C   UNL A   1      39.186  29.886  29.483  1.00  0.00     0.029 A 
ATOM     43  N   UNL A   1      39.650  30.603  31.548  1.00  0.00    -0.354 N 
ATOM     44  C   UNL A   1      42.860  28.850  33.849  1.00  0.00     0.074 A 
ATOM     45  C   UNL A   1      43.491  27.771  33.122  1.00  0.00     0.031 C 
ATOM     46  C   UNL A   1      38.312  30.862  29.774  1.00  0.00     0.029 A 
ATOM     47  C   UNL A   1      38.576  31.350  31.125  1.00  0.00     0.049 A 
ATOM     48  H   UNL A   1      40.057  30.704  32.438  1.00  0.00     0.167 HD
ATOM     49  C   UNL A   1      43.213  29.239  35.100  1.00  0.00     0.037 A 
ATOM     50  C   UNL A   1      37.882  32.320  31.751  1.00  0.00     0.037 A 
ATOM     51  C   UNL A   1      42.589  30.325  35.810  1.00  0.00     0.049 A 
ATOM     52  C   UNL A   1      38.284  32.726  33.144  1.00  0.00     0.074 A 
ATOM     53  C   UNL A   1      42.920  30.845  37.050  1.00  0.00     0.029 A 
ATOM     54  N   UNL A   1      41.497  31.049  35.354  1.00  0.00    -0.354 N 
ATOM     55  N   UNL A   1      39.265  32.269  33.886  1.00  0.00    -0.248 NA
ATOM     56  C   UNL A   1      37.486  33.781  33.781  1.00  0.00     0.031 C 
ATOM     57  C   UNL A   1      41.989  31.840  37.370  1.00  0.00     0.029 A 
ATOM     58  C   UNL A   1      41.118  31.987  36.302  1.00  0.00     0.049 A 
ATOM     59  H   UNL A   1      41.055  30.916  34.484  1.00  0.00     0.167 HD
ATOM     60  C   UNL A   1      39.222  33.005  35.066  1.00  0.00     0.074 A 
ATOM     61  C   UNL A   1      38.126  33.944  34.930  1.00  0.00     0.031 C 
ATOM     62  C   UNL A   1      40.022  32.915  36.158  1.00  0.00     0.037 A 
BRANCH  49  63
ATOM     63  C   UNL A   1      44.316  28.471  35.782  1.00  0.00     0.058 A 
ATOM     64  C   UNL A   1      45.670  28.808  35.622  1.00  0.00     0.135 A 
ATOM     65  C   UNL A   1      44.012  27.385  36.620  1.00  0.00     0.135 A 
ATOM     66  F   UNL A   1      46.023  29.831  34.826  1.00  0.00    -0.206 F 
ATOM     67  C   UNL A   1      46.683  28.070  36.228  1.00  0.00     0.059 A 
ATOM     68  C   UNL A   1      45.006  26.653  37.264  1.00  0.00     0.059 A 
ATOM     69  F   UNL A   1      42.735  27.017  36.815  1.00  0.00    -0.206 F 
ATOM     70  C   UNL A   1      46.341  26.991  37.043  1.00  0.00     0.060 A 
BRANCH  70  71
ATOM     71  S   UNL A   1      47.667  26.030  37.803  1.00  0.00     0.124 S 
ATOM     72  O   UNL A   1      47.979  25.078  36.742  1.00  0.00    -0.237 OA
ATOM     73  O   UNL A   1      48.681  27.048  38.061  1.00  0.00    -0.237 OA
ATOM     74  O   UNL A   1      47.037  25.461  38.991  1.00  0.00    -0.744 OA
ENDBRANCH  70  71
ENDBRANCH  49  63
BRANCH  50  75
ATOM     75  C   UNL A   1      36.765  33.007  31.048  1.00  0.00     0.058 A 
ATOM     76  C   UNL A   1      37.023  33.951  30.042  1.00  0.00     0.135 A 
ATOM     77  C   UNL A   1      35.422  32.725  31.349  1.00  0.00     0.135 A 
ATOM     78  F   UNL A   1      38.289  34.261  29.725  1.00  0.00    -0.206 F 
ATOM     79  C   UNL A   1      35.994  34.598  29.366  1.00  0.00     0.059 A 
ATOM     80  C   UNL A   1      34.377  33.339  30.668  1.00  0.00     0.059 A 
ATOM     81  F   UNL A   1      35.120  31.820  32.292  1.00  0.00    -0.206 F 
ATOM     82  C   UNL A   1      34.672  34.281  29.682  1.00  0.00     0.060 A 
BRANCH  82  83
ATOM     83  S   UNL A   1      33.347  35.085  28.757  1.00  0.00     0.124 S 
ATOM     84  O   UNL A   1      32.523  35.625  29.831  1.00  0.00    -0.237 OA
ATOM     85  O   UNL A   1      34.082  36.063  27.961  1.00  0.00    -0.237 OA
ATOM     86  O   UNL A   1      32.754  33.988  27.998  1.00  0.00    -0.744 OA
ENDBRANCH  82  83
ENDBRANCH  50  75
BRANCH  62  87
ATOM     87  C   UNL A   1      39.762  33.880  37.285  1.00  0.00     0.058 A 
ATOM     88  C   UNL A   1      38.930  33.553  38.368  1.00  0.00     0.135 A 
ATOM     89  C   UNL A   1      40.378  35.143  37.294  1.00  0.00     0.135 A 
ATOM     90  F   UNL A   1      38.310  32.363  38.409  1.00  0.00    -0.206 F 
ATOM     91  C   UNL A   1      38.691  34.455  39.399  1.00  0.00     0.059 A 
ATOM     92  C   UNL A   1      40.180  36.048  38.332  1.00  0.00     0.059 A 
ATOM     93  F   UNL A   1      41.193  35.505  36.290  1.00  0.00    -0.206 F 
ATOM     94  C   UNL A   1      39.320  35.700  39.373  1.00  0.00     0.060 A 
BRANCH  94  95
ATOM     95  S   UNL A   1      39.012  36.856  40.725  1.00  0.00     0.124 S 
ATOM     96  O   UNL A   1      38.237  37.894  40.054  1.00  0.00    -0.237 OA
ATOM     97  O   UNL A   1      38.276  36.031  41.678  1.00  0.00    -0.237 OA
ATOM     98  O   UNL A   1      40.352  37.249  41.150  1.00  0.00    -0.744 OA
ENDBRANCH  94  95
ENDBRANCH  62  87
ENDBRANCH  36  37
ENDBRANCH  28  31
ENDBRANCH  26  27
ENDBRANCH  25  26
ENDBRANCH  24  25
ENDBRANCH   1  24
TORSDOF 19
ENDMDL
MODEL 3
REMARK VINA RESULT:     -11.1      5.458      7.488
REMARK SMILES O=C(/C=C/c1ccccc1Oc1cccc(Cl)c1)NCCCCCCNC(=O)c1ccc(-c2c3nc(c(-c4c(F)cc(S(=O)(=O)[O-])cc4F)c4ccc([nH]4)c(-c4c(F)cc(S(=O)(=O)[O-])cc4F)c4nc(c(-c5c(F)cc(S(=O)(=O)[O-])cc5F)c5ccc2[nH]5)C=C4)C=C3)cc1
REMARK SMILES IDX 22 1 21 2 20 3 19 4 1 5 2 6 3 8 4 9 5 10 6 11 10 12 7 13
REMARK SMILES IDX 9 14 8 15 11 16 12 17 13 18 18 19 14 20 16 21 15 22 17 23
REMARK SMILES IDX 23 24 24 25 25 26 26 27 27 28 28 30 29 31 30 32 94 33 31 34
REMARK SMILES IDX 93 35 32 36 33 37 34 38 87 39 35 40 92 41 86 42 88 43 36 44
REMARK SMILES IDX 91 45 85 46 84 47 37 49 71 50 50 51 70 52 51 53 54 54 69 55
REMARK SMILES IDX 89 56 52 57 53 58 68 60 90 61 55 62 38 63 39 64 48 65 40 66
REMARK SMILES IDX 41 67 47 68 49 69 42 70 43 71 44 72 45 73 46 74 72 75 73 76
REMARK SMILES IDX 82 77 74 78 75 79 81 80 83 81 76 82 77 83 78 84 79 85 80 86
REMARK SMILES IDX 56 87 57 88 66 89 58 90 59 91 65 92 67 93 60 94 61 95 62 96
REMARK SMILES IDX 63 97 64 98
REMARK H PARENT 19 7 26 29 88 48 54 59
REMARK Flexibility Score: inf
ROOT
ATOM      1  C   UNL A   1      33.428  21.173  25.659  1.00  0.00     0.002 C 
ENDROOT
BRANCH   1   2
ATOM      2  C   UNL A   1      33.405  20.662  24.212  1.00  0.00     0.021 C 
BRANCH   2   3
ATOM      3  C   UNL A   1      32.507  21.470  23.279  1.00  0.00     0.116 C 
BRANCH   3   4
ATOM      4  N   UNL A   1      32.369  22.838  23.729  1.00  0.00    -0.353 N 
ATOM      5  O   UNL A   1      33.559  23.794  22.012  1.00  0.00    -0.270 OA
ATOM      6  C   UNL A   1      32.940  23.893  23.065  1.00  0.00     0.244 C 
ATOM      7  H   UNL A   1      31.846  23.018  24.543  1.00  0.00     0.163 HD
BRANCH   6   8
ATOM      8  C   UNL A   1      32.706  25.235  23.657  1.00  0.00     0.072 C 
ATOM      9  C   UNL A   1      33.665  26.053  24.114  1.00  0.00     0.017 C 
BRANCH   9  10
ATOM     10  C   UNL A   1      33.380  27.319  24.800  1.00  0.00     0.017 A 
ATOM     11  C   UNL A   1      33.885  27.402  26.114  1.00  0.00     0.012 A 
ATOM     12  C   UNL A   1      32.643  28.405  24.287  1.00  0.00     0.134 A 
ATOM     13  C   UNL A   1      33.691  28.541  26.897  1.00  0.00     0.001 A 
ATOM     14  C   UNL A   1      32.468  29.548  25.088  1.00  0.00     0.048 A 
ATOM     15  C   UNL A   1      32.985  29.618  26.382  1.00  0.00     0.004 A 
BRANCH  12  16
ATOM     16  O   UNL A   1      32.076  28.574  23.037  1.00  0.00    -0.457 OA
BRANCH  16  17
ATOM     17  C   UNL A   1      30.726  28.707  22.865  1.00  0.00     0.128 A 
ATOM     18  C   UNL A   1      29.921  27.736  23.468  1.00  0.00     0.047 A 
ATOM     19  C   UNL A   1      30.155  29.710  22.083  1.00  0.00     0.067 A 
ATOM     20  C   UNL A   1      28.532  27.818  23.370  1.00  0.00     0.005 A 
ATOM     21  C   UNL A   1      28.766  29.793  22.000  1.00  0.00     0.044 A 
ATOM     22  C   UNL A   1      27.953  28.859  22.645  1.00  0.00     0.021 A 
ATOM     23  Cl  UNL A   1      28.044  31.105  21.153  1.00  0.00    -0.084 Cl
ENDBRANCH  16  17
ENDBRANCH  12  16
ENDBRANCH   9  10
ENDBRANCH   6   8
ENDBRANCH   3   4
ENDBRANCH   2   3
ENDBRANCH   1   2
BRANCH   1  24
ATOM     24  C   UNL A   1      34.795  21.642  26.167  1.00  0.00     0.002 C 
BRANCH  24  25
ATOM     25  C   UNL A   1      35.003  23.157  26.175  1.00  0.00     0.021 C 
BRANCH  25  26
ATOM     26  C   UNL A   1      36.415  23.617  25.825  1.00  0.00     0.116 C 
BRANCH  26  27
ATOM     27  N   UNL A   1      37.408  22.574  26.030  1.00  0.00    -0.352 N 
ATOM     28  C   UNL A   1      38.725  22.689  26.405  1.00  0.00     0.251 C 
ATOM     29  H   UNL A   1      37.092  21.654  25.880  1.00  0.00     0.163 HD
ATOM     30  O   UNL A   1      39.460  21.704  26.365  1.00  0.00    -0.269 OA
BRANCH  28  31
ATOM     31  C   UNL A   1      39.262  24.001  26.831  1.00  0.00     0.039 A 
ATOM     32  C   UNL A   1      39.172  24.363  28.177  1.00  0.00     0.014 A 
ATOM     33  C   UNL A   1      39.852  24.872  25.910  1.00  0.00     0.014 A 
ATOM     34  C   UNL A   1      39.726  25.571  28.608  1.00  0.00     0.010 A 
ATOM     35  C   UNL A   1      40.473  26.036  26.355  1.00  0.00     0.010 A 
ATOM     36  C   UNL A   1      40.413  26.402  27.707  1.00  0.00    -0.014 A 
BRANCH  36  37
ATOM     37  C   UNL A   1      41.077  27.649  28.170  1.00  0.00     0.031 A 
ATOM     38  C   UNL A   1      42.572  27.801  28.069  1.00  0.00     0.074 A 
ATOM     39  C   UNL A   1      40.338  28.627  28.730  1.00  0.00     0.049 A 
ATOM     40  N   UNL A   1      43.327  28.807  28.429  1.00  0.00    -0.248 NA
ATOM     41  C   UNL A   1      43.320  26.661  27.514  1.00  0.00     0.031 C 
ATOM     42  C   UNL A   1      38.888  28.580  28.929  1.00  0.00     0.029 A 
ATOM     43  N   UNL A   1      40.701  29.851  29.234  1.00  0.00    -0.354 N 
ATOM     44  C   UNL A   1      44.635  28.418  28.160  1.00  0.00     0.074 A 
ATOM     45  C   UNL A   1      44.574  27.063  27.660  1.00  0.00     0.031 C 
ATOM     46  C   UNL A   1      38.480  29.739  29.470  1.00  0.00     0.029 A 
ATOM     47  C   UNL A   1      39.641  30.594  29.696  1.00  0.00     0.049 A 
ATOM     48  H   UNL A   1      41.632  30.167  29.260  1.00  0.00     0.167 HD
ATOM     49  C   UNL A   1      45.779  29.132  28.299  1.00  0.00     0.037 A 
ATOM     50  C   UNL A   1      39.606  31.826  30.240  1.00  0.00     0.037 A 
ATOM     51  C   UNL A   1      45.827  30.488  28.785  1.00  0.00     0.049 A 
ATOM     52  C   UNL A   1      40.891  32.595  30.396  1.00  0.00     0.074 A 
ATOM     53  C   UNL A   1      46.925  31.323  28.894  1.00  0.00     0.029 A 
ATOM     54  N   UNL A   1      44.735  31.202  29.254  1.00  0.00    -0.354 N 
ATOM     55  N   UNL A   1      42.109  32.244  30.060  1.00  0.00    -0.248 NA
ATOM     56  C   UNL A   1      40.793  33.928  31.002  1.00  0.00     0.031 C 
ATOM     57  C   UNL A   1      46.507  32.519  29.489  1.00  0.00     0.029 A 
ATOM     58  C   UNL A   1      45.137  32.455  29.689  1.00  0.00     0.049 A 
ATOM     59  H   UNL A   1      43.809  30.868  29.276  1.00  0.00     0.167 HD
ATOM     60  C   UNL A   1      42.920  33.326  30.384  1.00  0.00     0.074 A 
ATOM     61  C   UNL A   1      42.049  34.347  30.931  1.00  0.00     0.031 C 
ATOM     62  C   UNL A   1      44.261  33.464  30.236  1.00  0.00     0.037 A 
BRANCH  49  63
ATOM     63  C   UNL A   1      47.073  28.450  27.936  1.00  0.00     0.058 A 
ATOM     64  C   UNL A   1      47.838  27.748  28.883  1.00  0.00     0.135 A 
ATOM     65  C   UNL A   1      47.551  28.490  26.616  1.00  0.00     0.135 A 
ATOM     66  F   UNL A   1      47.437  27.684  30.163  1.00  0.00    -0.206 F 
ATOM     67  C   UNL A   1      49.049  27.152  28.545  1.00  0.00     0.059 A 
ATOM     68  C   UNL A   1      48.743  27.872  26.248  1.00  0.00     0.059 A 
ATOM     69  F   UNL A   1      46.862  29.142  25.666  1.00  0.00    -0.206 F 
ATOM     70  C   UNL A   1      49.496  27.224  27.225  1.00  0.00     0.060 A 
BRANCH  70  71
ATOM     71  S   UNL A   1      51.081  26.466  26.809  1.00  0.00     0.124 S 
ATOM     72  O   UNL A   1      51.203  26.807  25.395  1.00  0.00    -0.237 OA
ATOM     73  O   UNL A   1      52.001  27.153  27.709  1.00  0.00    -0.237 OA
ATOM     74  O   UNL A   1      50.866  25.050  27.096  1.00  0.00    -0.744 OA
ENDBRANCH  70  71
ENDBRANCH  49  63
BRANCH  50  75
ATOM     75  C   UNL A   1      38.304  32.429  30.632  1.00  0.00     0.058 A 
ATOM     76  C   UNL A   1      37.808  32.281  31.937  1.00  0.00     0.135 A 
ATOM     77  C   UNL A   1      37.537  33.180  29.726  1.00  0.00     0.135 A 
ATOM     78  F   UNL A   1      38.499  31.564  32.837  1.00  0.00    -0.206 F 
ATOM     79  C   UNL A   1      36.598  32.844  32.328  1.00  0.00     0.059 A 
ATOM     80  C   UNL A   1      36.338  33.776  30.101  1.00  0.00     0.059 A 
ATOM     81  F   UNL A   1      37.972  33.365  28.470  1.00  0.00    -0.206 F 
ATOM     82  C   UNL A   1      35.872  33.595  31.403  1.00  0.00     0.060 A 
BRANCH  82  83
ATOM     83  S   UNL A   1      34.332  34.370  31.939  1.00  0.00     0.124 S 
ATOM     84  O   UNL A   1      33.790  33.357  32.837  1.00  0.00    -0.237 OA
ATOM     85  O   UNL A   1      34.812  35.595  32.573  1.00  0.00    -0.237 OA
ATOM     86  O   UNL A   1      33.600  34.564  30.691  1.00  0.00    -0.744 OA
ENDBRANCH  82  83
ENDBRANCH  50  75
BRANCH  62  87
ATOM     87  C   UNL A   1      44.869  34.781  30.643  1.00  0.00     0.058 A 
ATOM     88  C   UNL A   1      45.371  35.001  31.936  1.00  0.00     0.135 A 
ATOM     89  C   UNL A   1      44.976  35.830  29.715  1.00  0.00     0.135 A 
ATOM     90  F   UNL A   1      45.288  34.036  32.866  1.00  0.00    -0.206 F 
ATOM     91  C   UNL A   1      45.922  36.223  32.304  1.00  0.00     0.059 A 
ATOM     92  C   UNL A   1      45.556  37.050  30.051  1.00  0.00     0.059 A 
ATOM     93  F   UNL A   1      44.525  35.672  28.460  1.00  0.00    -0.206 F 
ATOM     94  C   UNL A   1      46.011  37.242  31.355  1.00  0.00     0.060 A 
BRANCH  94  95
ATOM     95  S   UNL A   1      46.743  38.819  31.841  1.00  0.00     0.124 S 
ATOM     96  O   UNL A   1      46.012  39.116  33.069  1.00  0.00    -0.237 OA
ATOM     97  O   UNL A   1      48.150  38.471  32.008  1.00  0.00    -0.237 OA
ATOM     98  O   UNL A   1      46.450  39.694  30.710  1.00  0.00    -0.744 OA
ENDBRANCH  94  95
ENDBRANCH  62  87
ENDBRANCH  36  37
ENDBRANCH  28  31
ENDBRANCH  26  27
ENDBRANCH  25  26
ENDBRANCH  24  25
ENDBRANCH   1  24
TORSDOF 19
ENDMDL
