MODEL 1
REMARK VINA RESULT:     -14.1      0.000      0.000
REMARK SMILES Cc1cccc(-c2c(C(=O)NCCCCCCNC(=O)c3ccc(-c4c5nc(c(-c6c(F)cc(S(=O)(=O)[O-])cc6F)c6ccc([nH]6)c(-c6c(F)cc(S(=O)(=O)[O-])cc6F)c6nc(c(-c7c(F)cc(S(=O)(=O)[O-])cc7F)c7ccc4[nH]7)C=C6)C=C5)cc3)nnn2Cc2cc(F)cc(F)c2)c1
REMARK SMILES IDX 15 1 14 2 13 3 12 4 11 5 9 6 10 7 8 9 7 10 89 11 87 12 88 13
REMARK SMILES IDX 6 14 1 15 2 16 3 17 99 18 4 19 5 20 90 21 91 22 92 23 98 24
REMARK SMILES IDX 93 25 96 26 94 27 95 28 97 29 16 30 17 31 18 32 19 33 20 35
REMARK SMILES IDX 21 36 22 37 86 38 23 39 85 40 24 41 25 42 26 43 79 44 27 45
REMARK SMILES IDX 84 46 78 47 80 48 28 49 83 50 77 51 76 52 29 54 63 55 42 56
REMARK SMILES IDX 62 57 43 58 46 59 61 60 81 61 44 62 45 63 60 65 82 66 47 67
REMARK SMILES IDX 30 68 31 69 40 70 32 71 33 72 39 73 41 74 34 75 35 76 36 77
REMARK SMILES IDX 37 78 38 79 64 80 65 81 74 82 66 83 67 84 73 85 75 86 68 87
REMARK SMILES IDX 69 88 70 89 71 90 72 91 48 92 49 93 58 94 50 95 51 96 57 97
REMARK SMILES IDX 59 98 52 99 53 100 54 101 55 102 56 103
REMARK H PARENT 11 8 18 34 80 53 46 64
REMARK Flexibility Score: inf
ROOT
ATOM      1  C   UNL A   1      32.320  29.832  26.945  1.00  0.00     0.002 C 
ENDROOT
BRANCH   1   2
ATOM      2  C   UNL A   1      32.090  29.303  25.523  1.00  0.00     0.002 C 
BRANCH   2   3
ATOM      3  C   UNL A   1      31.323  27.993  25.332  1.00  0.00     0.021 C 
BRANCH   3   4
ATOM      4  C   UNL A   1      31.639  26.808  26.238  1.00  0.00     0.116 C 
BRANCH   4   5
ATOM      5  N   UNL A   1      30.551  25.932  26.574  1.00  0.00    -0.351 N 
ATOM      6  C   UNL A   1      30.516  24.557  26.681  1.00  0.00     0.274 C 
ATOM      7  O   UNL A   1      29.430  24.101  27.060  1.00  0.00    -0.267 OA
ATOM      8  H   UNL A   1      29.697  26.384  26.757  1.00  0.00     0.163 HD
BRANCH   6   9
ATOM      9  C   UNL A   1      31.629  23.636  26.361  1.00  0.00     0.178 A 
ATOM     10  C   UNL A   1      32.480  23.412  25.272  1.00  0.00     0.102 A 
ATOM     11  N   UNL A   1      33.327  22.412  25.720  1.00  0.00    -0.239 N 
ATOM     12  N   UNL A   1      32.009  22.756  27.370  1.00  0.00    -0.124 NA
ATOM     13  N   UNL A   1      33.023  22.020  26.963  1.00  0.00    -0.066 NA
BRANCH  10  14
ATOM     14  C   UNL A   1      32.659  24.013  23.956  1.00  0.00     0.003 A 
ATOM     15  C   UNL A   1      33.657  27.382  22.468  1.00  0.00     0.044 C 
ATOM     16  C   UNL A   1      33.209  25.955  22.587  1.00  0.00    -0.050 A 
ATOM     17  C   UNL A   1      33.059  25.168  21.439  1.00  0.00     0.003 A 
ATOM     18  C   UNL A   1      32.994  25.372  23.843  1.00  0.00     0.013 A 
ATOM     19  C   UNL A   1      32.696  23.825  21.543  1.00  0.00     0.001 A 
ATOM     20  C   UNL A   1      32.501  23.246  22.797  1.00  0.00     0.010 A 
ENDBRANCH  10  14
BRANCH  11  21
ATOM     21  C   UNL A   1      34.450  21.768  25.042  1.00  0.00     0.182 C 
BRANCH  21  22
ATOM     22  C   UNL A   1      34.214  20.322  24.657  1.00  0.00    -0.021 A 
ATOM     23  C   UNL A   1      33.053  19.986  23.942  1.00  0.00     0.045 A 
ATOM     24  C   UNL A   1      35.101  19.290  25.003  1.00  0.00     0.045 A 
ATOM     25  C   UNL A   1      32.835  18.671  23.530  1.00  0.00     0.126 A 
ATOM     26  C   UNL A   1      34.876  17.990  24.555  1.00  0.00     0.126 A 
ATOM     27  F   UNL A   1      31.722  18.373  22.846  1.00  0.00    -0.207 F 
ATOM     28  C   UNL A   1      33.749  17.669  23.814  1.00  0.00     0.078 A 
ATOM     29  F   UNL A   1      35.773  17.035  24.835  1.00  0.00    -0.207 F 
ENDBRANCH  21  22
ENDBRANCH  11  21
ENDBRANCH   6   9
ENDBRANCH   4   5
ENDBRANCH   3   4
ENDBRANCH   2   3
ENDBRANCH   1   2
BRANCH   1  30
ATOM     30  C   UNL A   1      33.467  30.818  27.175  1.00  0.00     0.021 C 
BRANCH  30  31
ATOM     31  C   UNL A   1      34.749  30.222  27.746  1.00  0.00     0.116 C 
BRANCH  31  32
ATOM     32  N   UNL A   1      35.491  31.169  28.579  1.00  0.00    -0.352 N 
ATOM     33  C   UNL A   1      36.694  30.975  29.232  1.00  0.00     0.251 C 
ATOM     34  H   UNL A   1      35.081  32.058  28.690  1.00  0.00     0.163 HD
ATOM     35  O   UNL A   1      37.194  31.788  30.001  1.00  0.00    -0.269 OA
BRANCH  33  36
ATOM     36  C   UNL A   1      37.442  29.762  28.866  1.00  0.00     0.039 A 
ATOM     37  C   UNL A   1      37.622  28.817  29.881  1.00  0.00     0.014 A 
ATOM     38  C   UNL A   1      38.238  29.780  27.722  1.00  0.00     0.014 A 
ATOM     39  C   UNL A   1      38.760  28.026  29.859  1.00  0.00     0.010 A 
ATOM     40  C   UNL A   1      39.408  29.046  27.741  1.00  0.00     0.010 A 
ATOM     41  C   UNL A   1      39.699  28.236  28.849  1.00  0.00    -0.014 A 
BRANCH  41  42
ATOM     42  C   UNL A   1      41.056  27.715  28.942  1.00  0.00     0.031 A 
ATOM     43  C   UNL A   1      41.312  26.310  28.577  1.00  0.00     0.074 A 
ATOM     44  C   UNL A   1      42.047  28.507  29.410  1.00  0.00     0.049 A 
ATOM     45  N   UNL A   1      42.341  25.630  28.951  1.00  0.00    -0.248 NA
ATOM     46  C   UNL A   1      40.332  25.517  27.842  1.00  0.00     0.031 C 
ATOM     47  C   UNL A   1      43.479  28.225  29.415  1.00  0.00     0.029 A 
ATOM     48  N   UNL A   1      41.905  29.634  30.231  1.00  0.00    -0.354 N 
ATOM     49  C   UNL A   1      42.292  24.410  28.316  1.00  0.00     0.074 A 
ATOM     50  C   UNL A   1      40.967  24.346  27.759  1.00  0.00     0.031 C 
ATOM     51  C   UNL A   1      44.054  28.948  30.387  1.00  0.00     0.029 A 
ATOM     52  C   UNL A   1      42.994  29.619  31.123  1.00  0.00     0.049 A 
ATOM     53  H   UNL A   1      41.186  30.303  30.193  1.00  0.00     0.167 HD
ATOM     54  C   UNL A   1      43.434  23.670  28.228  1.00  0.00     0.037 A 
ATOM     55  C   UNL A   1      42.799  29.509  32.469  1.00  0.00     0.037 A 
ATOM     56  C   UNL A   1      44.407  24.139  29.223  1.00  0.00     0.049 A 
ATOM     57  C   UNL A   1      43.384  28.249  33.072  1.00  0.00     0.074 A 
ATOM     58  C   UNL A   1      45.537  24.936  29.153  1.00  0.00     0.029 A 
ATOM     59  N   UNL A   1      44.082  24.045  30.578  1.00  0.00    -0.354 N 
ATOM     60  N   UNL A   1      43.774  27.215  32.376  1.00  0.00    -0.248 NA
ATOM     61  C   UNL A   1      43.574  28.055  34.507  1.00  0.00     0.031 C 
ATOM     62  C   UNL A   1      45.801  25.435  30.461  1.00  0.00     0.029 A 
ATOM     63  C   UNL A   1      44.870  24.896  31.333  1.00  0.00     0.049 A 
ATOM     64  H   UNL A   1      43.387  23.453  30.947  1.00  0.00     0.167 HD
ATOM     65  C   UNL A   1      44.230  26.235  33.221  1.00  0.00     0.074 A 
ATOM     66  C   UNL A   1      44.110  26.823  34.545  1.00  0.00     0.031 C 
ATOM     67  C   UNL A   1      44.666  25.018  32.774  1.00  0.00     0.037 A 
BRANCH  54  68
ATOM     68  C   UNL A   1      43.760  22.734  27.061  1.00  0.00     0.058 A 
ATOM     69  C   UNL A   1      42.984  21.573  26.836  1.00  0.00     0.135 A 
ATOM     70  C   UNL A   1      44.896  22.823  26.223  1.00  0.00     0.135 A 
ATOM     71  F   UNL A   1      41.852  21.352  27.521  1.00  0.00    -0.206 F 
ATOM     72  C   UNL A   1      43.348  20.565  25.926  1.00  0.00     0.059 A 
ATOM     73  C   UNL A   1      45.274  21.839  25.308  1.00  0.00     0.059 A 
ATOM     74  F   UNL A   1      45.736  23.857  26.240  1.00  0.00    -0.206 F 
ATOM     75  C   UNL A   1      44.511  20.697  25.182  1.00  0.00     0.060 A 
BRANCH  75  76
ATOM     76  S   UNL A   1      45.041  19.377  24.074  1.00  0.00     0.124 S 
ATOM     77  O   UNL A   1      46.494  19.493  24.141  1.00  0.00    -0.237 OA
ATOM     78  O   UNL A   1      44.463  18.195  24.702  1.00  0.00    -0.237 OA
ATOM     79  O   UNL A   1      44.450  19.751  22.792  1.00  0.00    -0.744 OA
ENDBRANCH  75  76
ENDBRANCH  54  68
BRANCH  55  80
ATOM     80  C   UNL A   1      41.626  30.276  32.968  1.00  0.00     0.058 A 
ATOM     81  C   UNL A   1      40.411  29.580  33.132  1.00  0.00     0.135 A 
ATOM     82  C   UNL A   1      41.749  31.510  33.620  1.00  0.00     0.135 A 
ATOM     83  F   UNL A   1      40.229  28.400  32.516  1.00  0.00    -0.206 F 
ATOM     84  C   UNL A   1      39.418  30.019  34.002  1.00  0.00     0.059 A 
ATOM     85  C   UNL A   1      40.764  31.971  34.500  1.00  0.00     0.059 A 
ATOM     86  F   UNL A   1      42.875  32.227  33.496  1.00  0.00    -0.206 F 
ATOM     87  C   UNL A   1      39.630  31.188  34.727  1.00  0.00     0.060 A 
BRANCH  87  88
ATOM     88  S   UNL A   1      38.435  31.617  36.018  1.00  0.00     0.124 S 
ATOM     89  O   UNL A   1      38.321  30.366  36.760  1.00  0.00    -0.237 OA
ATOM     90  O   UNL A   1      39.124  32.698  36.720  1.00  0.00    -0.237 OA
ATOM     91  O   UNL A   1      37.254  32.008  35.260  1.00  0.00    -0.744 OA
ENDBRANCH  87  88
ENDBRANCH  55  80
BRANCH  67  92
ATOM     92  C   UNL A   1      45.016  23.844  33.660  1.00  0.00     0.058 A 
ATOM     93  C   UNL A   1      44.084  22.890  34.106  1.00  0.00     0.135 A 
ATOM     94  C   UNL A   1      46.368  23.569  33.973  1.00  0.00     0.135 A 
ATOM     95  F   UNL A   1      42.785  22.984  33.785  1.00  0.00    -0.206 F 
ATOM     96  C   UNL A   1      44.456  21.773  34.859  1.00  0.00     0.059 A 
ATOM     97  C   UNL A   1      46.767  22.434  34.675  1.00  0.00     0.059 A 
ATOM     98  F   UNL A   1      47.353  24.397  33.593  1.00  0.00    -0.206 F 
ATOM     99  C   UNL A   1      45.802  21.550  35.136  1.00  0.00     0.060 A 
BRANCH  99 100
ATOM    100  S   UNL A   1      46.312  20.073  36.036  1.00  0.00     0.124 S 
ATOM    101  O   UNL A   1      45.590  20.236  37.294  1.00  0.00    -0.237 OA
ATOM    102  O   UNL A   1      45.845  18.987  35.178  1.00  0.00    -0.237 OA
ATOM    103  O   UNL A   1      47.761  20.221  36.111  1.00  0.00    -0.744 OA
ENDBRANCH  99 100
ENDBRANCH  67  92
ENDBRANCH  41  42
ENDBRANCH  33  36
ENDBRANCH  31  32
ENDBRANCH  30  31
ENDBRANCH   1  30
TORSDOF 19
ENDMDL
MODEL 2
REMARK VINA RESULT:     -14.0      1.408      2.189
REMARK SMILES Cc1cccc(-c2c(C(=O)NCCCCCCNC(=O)c3ccc(-c4c5nc(c(-c6c(F)cc(S(=O)(=O)[O-])cc6F)c6ccc([nH]6)c(-c6c(F)cc(S(=O)(=O)[O-])cc6F)c6nc(c(-c7c(F)cc(S(=O)(=O)[O-])cc7F)c7ccc4[nH]7)C=C6)C=C5)cc3)nnn2Cc2cc(F)cc(F)c2)c1
REMARK SMILES IDX 15 1 14 2 13 3 12 4 11 5 9 6 10 7 8 9 7 10 89 11 87 12 88 13
REMARK SMILES IDX 6 14 1 15 2 16 3 17 99 18 4 19 5 20 90 21 91 22 92 23 98 24
REMARK SMILES IDX 93 25 96 26 94 27 95 28 97 29 16 30 17 31 18 32 19 33 20 35
REMARK SMILES IDX 21 36 22 37 86 38 23 39 85 40 24 41 25 42 26 43 79 44 27 45
REMARK SMILES IDX 84 46 78 47 80 48 28 49 83 50 77 51 76 52 29 54 63 55 42 56
REMARK SMILES IDX 62 57 43 58 46 59 61 60 81 61 44 62 45 63 60 65 82 66 47 67
REMARK SMILES IDX 30 68 31 69 40 70 32 71 33 72 39 73 41 74 34 75 35 76 36 77
REMARK SMILES IDX 37 78 38 79 64 80 65 81 74 82 66 83 67 84 73 85 75 86 68 87
REMARK SMILES IDX 69 88 70 89 71 90 72 91 48 92 49 93 58 94 50 95 51 96 57 97
REMARK SMILES IDX 59 98 52 99 53 100 54 101 55 102 56 103
REMARK H PARENT 11 8 18 34 80 53 46 64
REMARK Flexibility Score: inf
ROOT
ATOM      1  C   UNL A   1      32.360  29.974  26.966  1.00  0.00     0.002 C 
ENDROOT
BRANCH   1   2
ATOM      2  C   UNL A   1      32.005  29.217  25.679  1.00  0.00     0.002 C 
BRANCH   2   3
ATOM      3  C   UNL A   1      31.137  27.960  25.769  1.00  0.00     0.021 C 
BRANCH   3   4
ATOM      4  C   UNL A   1      31.458  26.911  26.827  1.00  0.00     0.116 C 
BRANCH   4   5
ATOM      5  N   UNL A   1      30.741  25.668  26.756  1.00  0.00    -0.351 N 
ATOM      6  C   UNL A   1      31.189  24.396  26.466  1.00  0.00     0.274 C 
ATOM      7  O   UNL A   1      30.324  23.516  26.555  1.00  0.00    -0.267 OA
ATOM      8  H   UNL A   1      29.777  25.735  26.945  1.00  0.00     0.163 HD
BRANCH   6   9
ATOM      9  C   UNL A   1      32.563  24.038  26.050  1.00  0.00     0.178 A 
ATOM     10  C   UNL A   1      33.401  24.319  24.964  1.00  0.00     0.102 A 
ATOM     11  N   UNL A   1      34.584  23.677  25.289  1.00  0.00    -0.239 N 
ATOM     12  N   UNL A   1      33.287  23.243  26.935  1.00  0.00    -0.124 NA
ATOM     13  N   UNL A   1      34.495  23.027  26.455  1.00  0.00    -0.066 NA
BRANCH  10  14
ATOM     14  C   UNL A   1      33.291  25.122  23.752  1.00  0.00     0.003 A 
ATOM     15  C   UNL A   1      34.008  28.694  22.617  1.00  0.00     0.044 C 
ATOM     16  C   UNL A   1      33.563  27.261  22.613  1.00  0.00    -0.050 A 
ATOM     17  C   UNL A   1      33.137  26.662  21.421  1.00  0.00     0.003 A 
ATOM     18  C   UNL A   1      33.625  26.486  23.778  1.00  0.00     0.013 A 
ATOM     19  C   UNL A   1      32.775  25.315  21.395  1.00  0.00     0.001 A 
ATOM     20  C   UNL A   1      32.855  24.544  22.554  1.00  0.00     0.010 A 
ENDBRANCH  10  14
BRANCH  11  21
ATOM     21  C   UNL A   1      35.848  23.625  24.558  1.00  0.00     0.182 C 
BRANCH  21  22
ATOM     22  C   UNL A   1      36.698  22.406  24.847  1.00  0.00    -0.021 A 
ATOM     23  C   UNL A   1      37.969  22.579  25.422  1.00  0.00     0.045 A 
ATOM     24  C   UNL A   1      36.280  21.099  24.548  1.00  0.00     0.045 A 
ATOM     25  C   UNL A   1      38.753  21.471  25.745  1.00  0.00     0.126 A 
ATOM     26  C   UNL A   1      37.069  20.008  24.907  1.00  0.00     0.126 A 
ATOM     27  F   UNL A   1      39.960  21.660  26.295  1.00  0.00    -0.207 F 
ATOM     28  C   UNL A   1      38.305  20.181  25.511  1.00  0.00     0.078 A 
ATOM     29  F   UNL A   1      36.617  18.769  24.677  1.00  0.00    -0.207 F 
ENDBRANCH  21  22
ENDBRANCH  11  21
ENDBRANCH   6   9
ENDBRANCH   4   5
ENDBRANCH   3   4
ENDBRANCH   2   3
ENDBRANCH   1   2
BRANCH   1  30
ATOM     30  C   UNL A   1      33.567  30.913  26.946  1.00  0.00     0.021 C 
BRANCH  30  31
ATOM     31  C   UNL A   1      34.815  30.403  27.658  1.00  0.00     0.116 C 
BRANCH  31  32
ATOM     32  N   UNL A   1      35.681  31.485  28.128  1.00  0.00    -0.352 N 
ATOM     33  C   UNL A   1      36.942  31.392  28.686  1.00  0.00     0.251 C 
ATOM     34  H   UNL A   1      35.319  32.397  28.035  1.00  0.00     0.163 HD
ATOM     35  O   UNL A   1      37.555  32.345  29.154  1.00  0.00    -0.269 OA
BRANCH  33  36
ATOM     36  C   UNL A   1      37.599  30.079  28.587  1.00  0.00     0.039 A 
ATOM     37  C   UNL A   1      37.847  29.420  29.794  1.00  0.00     0.014 A 
ATOM     38  C   UNL A   1      38.271  29.748  27.412  1.00  0.00     0.014 A 
ATOM     39  C   UNL A   1      38.944  28.577  29.879  1.00  0.00     0.010 A 
ATOM     40  C   UNL A   1      39.407  28.969  27.517  1.00  0.00     0.010 A 
ATOM     41  C   UNL A   1      39.780  28.457  28.769  1.00  0.00    -0.014 A 
BRANCH  41  42
ATOM     42  C   UNL A   1      41.118  27.890  28.872  1.00  0.00     0.031 A 
ATOM     43  C   UNL A   1      41.323  26.469  28.537  1.00  0.00     0.074 A 
ATOM     44  C   UNL A   1      42.137  28.655  29.323  1.00  0.00     0.049 A 
ATOM     45  N   UNL A   1      42.328  25.760  28.925  1.00  0.00    -0.248 NA
ATOM     46  C   UNL A   1      40.315  25.696  27.819  1.00  0.00     0.031 C 
ATOM     47  C   UNL A   1      43.557  28.323  29.333  1.00  0.00     0.029 A 
ATOM     48  N   UNL A   1      42.036  29.803  30.120  1.00  0.00    -0.354 N 
ATOM     49  C   UNL A   1      42.234  24.530  28.316  1.00  0.00     0.074 A 
ATOM     50  C   UNL A   1      40.908  24.501  27.761  1.00  0.00     0.031 C 
ATOM     51  C   UNL A   1      44.159  29.045  30.290  1.00  0.00     0.029 A 
ATOM     52  C   UNL A   1      43.125  29.769  31.012  1.00  0.00     0.049 A 
ATOM     53  H   UNL A   1      41.341  30.497  30.068  1.00  0.00     0.167 HD
ATOM     54  C   UNL A   1      43.349  23.748  28.243  1.00  0.00     0.037 A 
ATOM     55  C   UNL A   1      42.927  29.694  32.360  1.00  0.00     0.037 A 
ATOM     56  C   UNL A   1      44.339  24.203  29.228  1.00  0.00     0.049 A 
ATOM     57  C   UNL A   1      43.467  28.428  32.990  1.00  0.00     0.074 A 
ATOM     58  C   UNL A   1      45.497  24.957  29.141  1.00  0.00     0.029 A 
ATOM     59  N   UNL A   1      44.013  24.149  30.585  1.00  0.00    -0.354 N 
ATOM     60  N   UNL A   1      43.819  27.365  32.315  1.00  0.00    -0.248 NA
ATOM     61  C   UNL A   1      43.652  28.258  34.428  1.00  0.00     0.031 C 
ATOM     62  C   UNL A   1      45.780  25.474  30.438  1.00  0.00     0.029 A 
ATOM     63  C   UNL A   1      44.831  24.988  31.322  1.00  0.00     0.049 A 
ATOM     64  H   UNL A   1      43.297  23.591  30.966  1.00  0.00     0.167 HD
ATOM     65  C   UNL A   1      44.242  26.388  33.181  1.00  0.00     0.074 A 
ATOM     66  C   UNL A   1      44.143  27.008  34.492  1.00  0.00     0.031 C 
ATOM     67  C   UNL A   1      44.634  25.147  32.760  1.00  0.00     0.037 A 
BRANCH  54  68
ATOM     68  C   UNL A   1      43.640  22.777  27.097  1.00  0.00     0.058 A 
ATOM     69  C   UNL A   1      43.004  21.514  27.049  1.00  0.00     0.135 A 
ATOM     70  C   UNL A   1      44.633  22.945  26.103  1.00  0.00     0.135 A 
ATOM     71  F   UNL A   1      42.013  21.204  27.897  1.00  0.00    -0.206 F 
ATOM     72  C   UNL A   1      43.376  20.495  26.154  1.00  0.00     0.059 A 
ATOM     73  C   UNL A   1      45.016  21.951  25.201  1.00  0.00     0.059 A 
ATOM     74  F   UNL A   1      45.322  24.075  25.944  1.00  0.00    -0.206 F 
ATOM     75  C   UNL A   1      44.403  20.716  25.248  1.00  0.00     0.060 A 
BRANCH  75  76
ATOM     76  S   UNL A   1      44.954  19.395  24.152  1.00  0.00     0.124 S 
ATOM     77  O   UNL A   1      44.368  18.217  24.783  1.00  0.00    -0.237 OA
ATOM     78  O   UNL A   1      44.375  19.792  22.874  1.00  0.00    -0.237 OA
ATOM     79  O   UNL A   1      46.410  19.476  24.225  1.00  0.00    -0.744 OA
ENDBRANCH  75  76
ENDBRANCH  54  68
BRANCH  55  80
ATOM     80  C   UNL A   1      41.783  30.513  32.843  1.00  0.00     0.058 A 
ATOM     81  C   UNL A   1      41.964  31.910  32.915  1.00  0.00     0.135 A 
ATOM     82  C   UNL A   1      40.466  30.038  32.866  1.00  0.00     0.135 A 
ATOM     83  F   UNL A   1      43.205  32.424  32.914  1.00  0.00    -0.206 F 
ATOM     84  C   UNL A   1      40.893  32.799  32.880  1.00  0.00     0.059 A 
ATOM     85  C   UNL A   1      39.374  30.912  32.832  1.00  0.00     0.059 A 
ATOM     86  F   UNL A   1      40.225  28.720  32.811  1.00  0.00    -0.206 F 
ATOM     87  C   UNL A   1      39.602  32.289  32.779  1.00  0.00     0.060 A 
BRANCH  87  88
ATOM     88  S   UNL A   1      38.246  33.456  32.504  1.00  0.00     0.124 S 
ATOM     89  O   UNL A   1      38.763  34.276  31.412  1.00  0.00    -0.237 OA
ATOM     90  O   UNL A   1      37.146  32.562  32.146  1.00  0.00    -0.237 OA
ATOM     91  O   UNL A   1      38.121  34.129  33.790  1.00  0.00    -0.744 OA
ENDBRANCH  87  88
ENDBRANCH  55  80
BRANCH  67  92
ATOM     92  C   UNL A   1      44.942  23.980  33.671  1.00  0.00     0.058 A 
ATOM     93  C   UNL A   1      44.103  22.863  33.828  1.00  0.00     0.135 A 
ATOM     94  C   UNL A   1      46.197  23.897  34.317  1.00  0.00     0.135 A 
ATOM     95  F   UNL A   1      42.931  22.776  33.182  1.00  0.00    -0.206 F 
ATOM     96  C   UNL A   1      44.457  21.766  34.618  1.00  0.00     0.059 A 
ATOM     97  C   UNL A   1      46.593  22.790  35.065  1.00  0.00     0.059 A 
ATOM     98  F   UNL A   1      47.091  24.895  34.233  1.00  0.00    -0.206 F 
ATOM     99  C   UNL A   1      45.707  21.736  35.230  1.00  0.00     0.060 A 
BRANCH  99 100
ATOM    100  S   UNL A   1      46.215  20.294  36.187  1.00  0.00     0.124 S 
ATOM    101  O   UNL A   1      45.368  19.252  35.616  1.00  0.00    -0.237 OA
ATOM    102  O   UNL A   1      47.640  20.184  35.885  1.00  0.00    -0.237 OA
ATOM    103  O   UNL A   1      45.903  20.686  37.557  1.00  0.00    -0.744 OA
ENDBRANCH  99 100
ENDBRANCH  67  92
ENDBRANCH  41  42
ENDBRANCH  33  36
ENDBRANCH  31  32
ENDBRANCH  30  31
ENDBRANCH   1  30
TORSDOF 19
ENDMDL
MODEL 3
REMARK VINA RESULT:     -12.4      4.422     10.515
REMARK SMILES Cc1cccc(-c2c(C(=O)NCCCCCCNC(=O)c3ccc(-c4c5nc(c(-c6c(F)cc(S(=O)(=O)[O-])cc6F)c6ccc([nH]6)c(-c6c(F)cc(S(=O)(=O)[O-])cc6F)c6nc(c(-c7c(F)cc(S(=O)(=O)[O-])cc7F)c7ccc4[nH]7)C=C6)C=C5)cc3)nnn2Cc2cc(F)cc(F)c2)c1
REMARK SMILES IDX 15 1 14 2 13 3 12 4 11 5 9 6 10 7 8 9 7 10 89 11 87 12 88 13
REMARK SMILES IDX 6 14 1 15 2 16 3 17 99 18 4 19 5 20 90 21 91 22 92 23 98 24
REMARK SMILES IDX 93 25 96 26 94 27 95 28 97 29 16 30 17 31 18 32 19 33 20 35
REMARK SMILES IDX 21 36 22 37 86 38 23 39 85 40 24 41 25 42 26 43 79 44 27 45
REMARK SMILES IDX 84 46 78 47 80 48 28 49 83 50 77 51 76 52 29 54 63 55 42 56
REMARK SMILES IDX 62 57 43 58 46 59 61 60 81 61 44 62 45 63 60 65 82 66 47 67
REMARK SMILES IDX 30 68 31 69 40 70 32 71 33 72 39 73 41 74 34 75 35 76 36 77
REMARK SMILES IDX 37 78 38 79 64 80 65 81 74 82 66 83 67 84 73 85 75 86 68 87
REMARK SMILES IDX 69 88 70 89 71 90 72 91 48 92 49 93 58 94 50 95 51 96 57 97
REMARK SMILES IDX 59 98 52 99 53 100 54 101 55 102 56 103
REMARK H PARENT 11 8 18 34 80 53 46 64
REMARK Flexibility Score: inf
ROOT
ATOM      1  C   UNL A   1      39.847  23.620  27.205  1.00  0.00     0.002 C 
ENDROOT
BRANCH   1   2
ATOM      2  C   UNL A   1      38.939  22.598  26.510  1.00  0.00     0.002 C 
BRANCH   2   3
ATOM      3  C   UNL A   1      37.869  23.093  25.534  1.00  0.00     0.021 C 
BRANCH   3   4
ATOM      4  C   UNL A   1      36.657  23.840  26.078  1.00  0.00     0.116 C 
BRANCH   4   5
ATOM      5  N   UNL A   1      35.441  23.090  26.231  1.00  0.00    -0.351 N 
ATOM      6  C   UNL A   1      34.246  23.183  25.548  1.00  0.00     0.274 C 
ATOM      7  O   UNL A   1      33.403  22.338  25.874  1.00  0.00    -0.267 OA
ATOM      8  H   UNL A   1      35.464  22.402  26.934  1.00  0.00     0.163 HD
BRANCH   6   9
ATOM      9  C   UNL A   1      33.913  24.195  24.520  1.00  0.00     0.178 A 
ATOM     10  C   UNL A   1      33.445  25.514  24.509  1.00  0.00     0.102 A 
ATOM     11  N   UNL A   1      33.429  25.844  23.164  1.00  0.00    -0.239 N 
ATOM     12  N   UNL A   1      34.129  23.821  23.197  1.00  0.00    -0.124 NA
ATOM     13  N   UNL A   1      33.821  24.821  22.395  1.00  0.00    -0.066 NA
BRANCH  10  14
ATOM     14  C   UNL A   1      33.091  26.496  25.527  1.00  0.00     0.003 A 
ATOM     15  C   UNL A   1      34.650  29.539  27.223  1.00  0.00     0.044 C 
ATOM     16  C   UNL A   1      33.687  28.443  26.868  1.00  0.00    -0.050 A 
ATOM     17  C   UNL A   1      32.409  28.422  27.438  1.00  0.00     0.003 A 
ATOM     18  C   UNL A   1      34.025  27.469  25.921  1.00  0.00     0.013 A 
ATOM     19  C   UNL A   1      31.487  27.441  27.074  1.00  0.00     0.001 A 
ATOM     20  C   UNL A   1      31.823  26.483  26.118  1.00  0.00     0.010 A 
ENDBRANCH  10  14
BRANCH  11  21
ATOM     21  C   UNL A   1      33.058  27.099  22.516  1.00  0.00     0.182 C 
BRANCH  21  22
ATOM     22  C   UNL A   1      31.699  27.639  22.910  1.00  0.00    -0.021 A 
ATOM     23  C   UNL A   1      30.601  26.763  22.955  1.00  0.00     0.045 A 
ATOM     24  C   UNL A   1      31.478  28.992  23.216  1.00  0.00     0.045 A 
ATOM     25  C   UNL A   1      29.349  27.222  23.362  1.00  0.00     0.126 A 
ATOM     26  C   UNL A   1      30.225  29.420  23.648  1.00  0.00     0.126 A 
ATOM     27  F   UNL A   1      28.318  26.369  23.401  1.00  0.00    -0.207 F 
ATOM     28  C   UNL A   1      29.153  28.544  23.730  1.00  0.00     0.078 A 
ATOM     29  F   UNL A   1      30.056  30.700  24.004  1.00  0.00    -0.207 F 
ENDBRANCH  21  22
ENDBRANCH  11  21
ENDBRANCH   6   9
ENDBRANCH   4   5
ENDBRANCH   3   4
ENDBRANCH   2   3
ENDBRANCH   1   2
BRANCH   1  30
ATOM     30  C   UNL A   1      39.849  25.060  26.687  1.00  0.00     0.021 C 
BRANCH  30  31
ATOM     31  C   UNL A   1      41.013  25.929  27.148  1.00  0.00     0.116 C 
BRANCH  31  32
ATOM     32  N   UNL A   1      41.849  26.390  26.039  1.00  0.00    -0.352 N 
ATOM     33  C   UNL A   1      42.025  27.682  25.579  1.00  0.00     0.251 C 
ATOM     34  H   UNL A   1      42.349  25.692  25.558  1.00  0.00     0.163 HD
ATOM     35  O   UNL A   1      42.661  27.969  24.571  1.00  0.00    -0.269 OA
BRANCH  33  36
ATOM     36  C   UNL A   1      41.503  28.754  26.441  1.00  0.00     0.039 A 
ATOM     37  C   UNL A   1      42.409  29.315  27.346  1.00  0.00     0.014 A 
ATOM     38  C   UNL A   1      40.124  28.880  26.601  1.00  0.00     0.014 A 
ATOM     39  C   UNL A   1      41.929  29.810  28.548  1.00  0.00     0.010 A 
ATOM     40  C   UNL A   1      39.654  29.304  27.829  1.00  0.00     0.010 A 
ATOM     41  C   UNL A   1      40.566  29.689  28.823  1.00  0.00    -0.014 A 
BRANCH  41  42
ATOM     42  C   UNL A   1      40.037  29.852  30.170  1.00  0.00     0.031 A 
ATOM     43  C   UNL A   1      39.306  31.086  30.510  1.00  0.00     0.074 A 
ATOM     44  C   UNL A   1      40.268  28.899  31.101  1.00  0.00     0.049 A 
ATOM     45  N   UNL A   1      39.116  31.522  31.708  1.00  0.00    -0.248 NA
ATOM     46  C   UNL A   1      38.828  32.003  29.480  1.00  0.00     0.031 C 
ATOM     47  C   UNL A   1      39.684  28.802  32.434  1.00  0.00     0.029 A 
ATOM     48  N   UNL A   1      41.309  27.960  31.101  1.00  0.00    -0.354 N 
ATOM     49  C   UNL A   1      38.293  32.622  31.630  1.00  0.00     0.074 A 
ATOM     50  C   UNL A   1      38.264  32.952  30.230  1.00  0.00     0.031 C 
ATOM     51  C   UNL A   1      40.509  28.086  33.213  1.00  0.00     0.029 A 
ATOM     52  C   UNL A   1      41.711  27.808  32.442  1.00  0.00     0.049 A 
ATOM     53  H   UNL A   1      41.685  27.498  30.319  1.00  0.00     0.167 HD
ATOM     54  C   UNL A   1      37.632  33.027  32.752  1.00  0.00     0.037 A 
ATOM     55  C   UNL A   1      42.975  28.136  32.838  1.00  0.00     0.037 A 
ATOM     56  C   UNL A   1      38.276  32.455  33.941  1.00  0.00     0.049 A 
ATOM     57  C   UNL A   1      43.030  29.269  33.840  1.00  0.00     0.074 A 
ATOM     58  C   UNL A   1      37.971  31.393  34.776  1.00  0.00     0.029 A 
ATOM     59  N   UNL A   1      39.599  32.801  34.222  1.00  0.00    -0.354 N 
ATOM     60  N   UNL A   1      42.031  30.072  34.095  1.00  0.00    -0.248 NA
ATOM     61  C   UNL A   1      44.214  29.589  34.633  1.00  0.00     0.031 C 
ATOM     62  C   UNL A   1      39.165  31.013  35.453  1.00  0.00     0.029 A 
ATOM     63  C   UNL A   1      40.178  31.879  35.078  1.00  0.00     0.049 A 
ATOM     64  H   UNL A   1      40.059  33.593  33.861  1.00  0.00     0.167 HD
ATOM     65  C   UNL A   1      42.412  31.001  35.030  1.00  0.00     0.074 A 
ATOM     66  C   UNL A   1      43.781  30.637  35.354  1.00  0.00     0.031 C 
ATOM     67  C   UNL A   1      41.582  31.998  35.462  1.00  0.00     0.037 A 
BRANCH  54  68
ATOM     68  C   UNL A   1      36.253  33.691  32.739  1.00  0.00     0.058 A 
ATOM     69  C   UNL A   1      35.367  33.482  31.655  1.00  0.00     0.135 A 
ATOM     70  C   UNL A   1      35.792  34.657  33.665  1.00  0.00     0.135 A 
ATOM     71  F   UNL A   1      35.635  32.574  30.707  1.00  0.00    -0.206 F 
ATOM     72  C   UNL A   1      34.184  34.219  31.472  1.00  0.00     0.059 A 
ATOM     73  C   UNL A   1      34.618  35.396  33.507  1.00  0.00     0.059 A 
ATOM     74  F   UNL A   1      36.452  34.973  34.779  1.00  0.00    -0.206 F 
ATOM     75  C   UNL A   1      33.830  35.194  32.394  1.00  0.00     0.060 A 
BRANCH  75  76
ATOM     76  S   UNL A   1      32.363  36.208  32.133  1.00  0.00     0.124 S 
ATOM     77  O   UNL A   1      32.648  37.370  32.969  1.00  0.00    -0.237 OA
ATOM     78  O   UNL A   1      32.394  36.432  30.692  1.00  0.00    -0.237 OA
ATOM     79  O   UNL A   1      31.273  35.359  32.605  1.00  0.00    -0.744 OA
ENDBRANCH  75  76
ENDBRANCH  54  68
BRANCH  55  80
ATOM     80  C   UNL A   1      44.025  27.764  31.852  1.00  0.00     0.058 A 
ATOM     81  C   UNL A   1      44.321  26.395  31.697  1.00  0.00     0.135 A 
ATOM     82  C   UNL A   1      44.450  28.629  30.835  1.00  0.00     0.135 A 
ATOM     83  F   UNL A   1      43.954  25.520  32.649  1.00  0.00    -0.206 F 
ATOM     84  C   UNL A   1      44.894  25.887  30.535  1.00  0.00     0.059 A 
ATOM     85  C   UNL A   1      45.029  28.141  29.658  1.00  0.00     0.059 A 
ATOM     86  F   UNL A   1      44.210  29.945  30.926  1.00  0.00    -0.206 F 
ATOM     87  C   UNL A   1      45.190  26.763  29.495  1.00  0.00     0.060 A 
BRANCH  87  88
ATOM     88  S   UNL A   1      45.717  26.060  27.912  1.00  0.00     0.124 S 
ATOM     89  O   UNL A   1      46.662  25.030  28.333  1.00  0.00    -0.237 OA
ATOM     90  O   UNL A   1      44.455  25.564  27.367  1.00  0.00    -0.237 OA
ATOM     91  O   UNL A   1      46.300  27.202  27.220  1.00  0.00    -0.744 OA
ENDBRANCH  87  88
ENDBRANCH  55  80
BRANCH  67  92
ATOM     92  C   UNL A   1      41.997  33.147  36.353  1.00  0.00     0.058 A 
ATOM     93  C   UNL A   1      42.950  34.116  35.995  1.00  0.00     0.135 A 
ATOM     94  C   UNL A   1      41.318  33.380  37.572  1.00  0.00     0.135 A 
ATOM     95  F   UNL A   1      43.587  34.062  34.816  1.00  0.00    -0.206 F 
ATOM     96  C   UNL A   1      43.252  35.209  36.811  1.00  0.00     0.059 A 
ATOM     97  C   UNL A   1      41.563  34.491  38.375  1.00  0.00     0.059 A 
ATOM     98  F   UNL A   1      40.376  32.534  38.018  1.00  0.00    -0.206 F 
ATOM     99  C   UNL A   1      42.550  35.391  38.000  1.00  0.00     0.060 A 
BRANCH  99 100
ATOM    100  S   UNL A   1      42.867  36.838  39.029  1.00  0.00     0.124 S 
ATOM    101  O   UNL A   1      43.099  37.867  38.020  1.00  0.00    -0.237 OA
ATOM    102  O   UNL A   1      41.631  36.975  39.794  1.00  0.00    -0.237 OA
ATOM    103  O   UNL A   1      44.034  36.436  39.806  1.00  0.00    -0.744 OA
ENDBRANCH  99 100
ENDBRANCH  67  92
ENDBRANCH  41  42
ENDBRANCH  33  36
ENDBRANCH  31  32
ENDBRANCH  30  31
ENDBRANCH   1  30
TORSDOF 19
ENDMDL
