MODEL 1
REMARK VINA RESULT:     -13.1      0.000      0.000
REMARK SMILES Cc1ccc(C(=O)NCCCCCCNC(=O)c2ccc(-c3c4nc(c(-c5c(F)cc(S(=O)(=O)[O-])cc5F)c5ccc([nH]5)c(-c5c(F)cc(S(=O)(=O)[O-])cc5F)c5nc(c(-c6c(F)cc(S(=O)(=O)[O-])cc6F)c6ccc3[nH]6)C=C5)C=C4)cc2)cc1S(=O)(=O)N(C)[C@H]1CCSC1
REMARK SMILES IDX 11 1 10 2 9 3 8 4 6 5 7 6 5 8 1 9 2 10 3 11 85 12 4 13 84 14
REMARK SMILES IDX 86 15 87 16 88 17 89 18 90 19 91 20 92 21 95 22 93 23 94 24
REMARK SMILES IDX 12 25 13 26 14 27 15 28 16 29 17 31 18 32 19 33 83 34 20 35
REMARK SMILES IDX 82 36 21 37 22 38 23 39 76 40 24 41 81 42 75 43 77 44 25 45
REMARK SMILES IDX 80 46 74 47 73 48 26 50 60 51 39 52 59 53 40 54 43 55 58 56
REMARK SMILES IDX 78 57 41 58 42 59 57 61 79 62 44 63 27 64 28 65 37 66 29 67
REMARK SMILES IDX 30 68 36 69 38 70 31 71 32 72 33 73 34 74 35 75 61 76 62 77
REMARK SMILES IDX 71 78 63 79 64 80 70 81 72 82 65 83 66 84 67 85 68 86 69 87
REMARK SMILES IDX 45 88 46 89 55 90 47 91 48 92 54 93 56 94 49 95 50 96 51 97
REMARK SMILES IDX 52 98 53 99
REMARK H PARENT 8 7 15 30 77 49 43 60
REMARK Flexibility Score: inf
ROOT
ATOM      1  C   UNL A   1      35.159  22.944  26.337  1.00  0.00     0.002 C 
ENDROOT
BRANCH   1   2
ATOM      2  C   UNL A   1      34.556  22.420  27.653  1.00  0.00     0.021 C 
BRANCH   2   3
ATOM      3  C   UNL A   1      33.029  22.337  27.662  1.00  0.00     0.116 C 
BRANCH   3   4
ATOM      4  N   UNL A   1      32.553  21.357  26.704  1.00  0.00    -0.352 N 
ATOM      5  C   UNL A   1      32.134  21.429  25.404  1.00  0.00     0.251 C 
ATOM      6  O   UNL A   1      31.870  20.362  24.845  1.00  0.00    -0.269 OA
ATOM      7  H   UNL A   1      32.525  20.443  27.069  1.00  0.00     0.163 HD
BRANCH   5   8
ATOM      8  C   UNL A   1      32.013  22.691  24.614  1.00  0.00     0.041 A 
ATOM      9  C   UNL A   1      31.717  25.968  21.772  1.00  0.00     0.046 C 
ATOM     10  C   UNL A   1      31.827  24.947  22.866  1.00  0.00    -0.031 A 
ATOM     11  C   UNL A   1      32.629  23.835  22.553  1.00  0.00     0.005 A 
ATOM     12  C   UNL A   1      31.151  24.933  24.097  1.00  0.00     0.086 A 
ATOM     13  C   UNL A   1      32.730  22.738  23.413  1.00  0.00     0.014 A 
ATOM     14  C   UNL A   1      31.207  23.785  24.929  1.00  0.00     0.035 A 
BRANCH  12  15
ATOM     15  S   UNL A   1      30.150  26.263  24.760  1.00  0.00     0.243 S 
ATOM     16  O   UNL A   1      28.977  26.323  23.921  1.00  0.00    -0.207 OA
ATOM     17  O   UNL A   1      30.052  26.029  26.190  1.00  0.00    -0.207 OA
BRANCH  15  18
ATOM     18  N   UNL A   1      31.035  27.704  24.572  1.00  0.00    -0.197 NA
ATOM     19  C   UNL A   1      30.366  28.729  23.746  1.00  0.00     0.125 C 
BRANCH  18  20
ATOM     20  C   UNL A   1      31.903  28.147  25.698  1.00  0.00     0.083 C 
ATOM     21  C   UNL A   1      33.365  27.756  25.471  1.00  0.00     0.032 C 
ATOM     22  C   UNL A   1      31.903  29.659  25.936  1.00  0.00     0.089 C 
ATOM     23  C   UNL A   1      34.145  28.339  26.636  1.00  0.00     0.071 C 
ATOM     24  S   UNL A   1      33.430  29.985  26.886  1.00  0.00    -0.160 SA
ENDBRANCH  18  20
ENDBRANCH  15  18
ENDBRANCH  12  15
ENDBRANCH   5   8
ENDBRANCH   3   4
ENDBRANCH   2   3
ENDBRANCH   1   2
BRANCH   1  25
ATOM     25  C   UNL A   1      35.901  21.915  25.469  1.00  0.00     0.002 C 
BRANCH  25  26
ATOM     26  C   UNL A   1      37.384  22.195  25.217  1.00  0.00     0.021 C 
BRANCH  26  27
ATOM     27  C   UNL A   1      37.947  23.300  26.103  1.00  0.00     0.116 C 
BRANCH  27  28
ATOM     28  N   UNL A   1      39.236  22.955  26.687  1.00  0.00    -0.352 N 
ATOM     29  C   UNL A   1      40.185  23.816  27.211  1.00  0.00     0.251 C 
ATOM     30  H   UNL A   1      39.459  21.996  26.710  1.00  0.00     0.163 HD
ATOM     31  O   UNL A   1      41.317  23.467  27.480  1.00  0.00    -0.269 OA
BRANCH  29  32
ATOM     32  C   UNL A   1      39.711  25.171  27.559  1.00  0.00     0.039 A 
ATOM     33  C   UNL A   1      40.172  26.228  26.765  1.00  0.00     0.014 A 
ATOM     34  C   UNL A   1      39.091  25.397  28.784  1.00  0.00     0.014 A 
ATOM     35  C   UNL A   1      40.156  27.522  27.278  1.00  0.00     0.010 A 
ATOM     36  C   UNL A   1      39.149  26.668  29.322  1.00  0.00     0.010 A 
ATOM     37  C   UNL A   1      39.716  27.719  28.587  1.00  0.00    -0.014 A 
BRANCH  37  38
ATOM     38  C   UNL A   1      39.887  28.977  29.303  1.00  0.00     0.031 A 
ATOM     39  C   UNL A   1      38.847  30.023  29.236  1.00  0.00     0.074 A 
ATOM     40  C   UNL A   1      40.969  29.174  30.089  1.00  0.00     0.049 A 
ATOM     41  N   UNL A   1      39.082  31.281  29.411  1.00  0.00    -0.248 NA
ATOM     42  C   UNL A   1      37.448  29.733  28.933  1.00  0.00     0.031 C 
ATOM     43  C   UNL A   1      41.148  30.223  31.088  1.00  0.00     0.029 A 
ATOM     44  N   UNL A   1      42.223  28.568  29.991  1.00  0.00    -0.354 N 
ATOM     45  C   UNL A   1      37.867  31.907  29.544  1.00  0.00     0.074 A 
ATOM     46  C   UNL A   1      36.881  30.921  29.163  1.00  0.00     0.031 C 
ATOM     47  C   UNL A   1      42.458  30.373  31.333  1.00  0.00     0.029 A 
ATOM     48  C   UNL A   1      43.172  29.527  30.395  1.00  0.00     0.049 A 
ATOM     49  H   UNL A   1      42.409  27.648  29.697  1.00  0.00     0.167 HD
ATOM     50  C   UNL A   1      37.793  33.142  30.112  1.00  0.00     0.037 A 
ATOM     51  C   UNL A   1      44.152  29.959  29.549  1.00  0.00     0.037 A 
ATOM     52  C   UNL A   1      39.107  33.650  30.491  1.00  0.00     0.049 A 
ATOM     53  C   UNL A   1      44.119  31.446  29.277  1.00  0.00     0.074 A 
ATOM     54  C   UNL A   1      39.793  33.672  31.696  1.00  0.00     0.029 A 
ATOM     55  N   UNL A   1      40.044  33.946  29.507  1.00  0.00    -0.354 N 
ATOM     56  N   UNL A   1      43.091  32.215  29.508  1.00  0.00    -0.248 NA
ATOM     57  C   UNL A   1      45.246  32.187  28.722  1.00  0.00     0.031 C 
ATOM     58  C   UNL A   1      41.150  33.972  31.433  1.00  0.00     0.029 A 
ATOM     59  C   UNL A   1      41.294  34.140  30.067  1.00  0.00     0.049 A 
ATOM     60  H   UNL A   1      39.846  34.011  28.545  1.00  0.00     0.167 HD
ATOM     61  C   UNL A   1      43.377  33.509  29.136  1.00  0.00     0.074 A 
ATOM     62  C   UNL A   1      44.752  33.438  28.679  1.00  0.00     0.031 C 
ATOM     63  C   UNL A   1      42.444  34.508  29.248  1.00  0.00     0.037 A 
BRANCH  50  64
ATOM     64  C   UNL A   1      36.476  33.695  30.592  1.00  0.00     0.058 A 
ATOM     65  C   UNL A   1      35.516  34.198  29.691  1.00  0.00     0.135 A 
ATOM     66  C   UNL A   1      36.145  33.818  31.956  1.00  0.00     0.135 A 
ATOM     67  F   UNL A   1      35.675  34.097  28.366  1.00  0.00    -0.206 F 
ATOM     68  C   UNL A   1      34.366  34.865  30.109  1.00  0.00     0.059 A 
ATOM     69  C   UNL A   1      35.022  34.524  32.401  1.00  0.00     0.059 A 
ATOM     70  F   UNL A   1      36.924  33.267  32.901  1.00  0.00    -0.206 F 
ATOM     71  C   UNL A   1      34.142  35.055  31.466  1.00  0.00     0.060 A 
BRANCH  71  72
ATOM     72  S   UNL A   1      32.719  36.041  31.972  1.00  0.00     0.124 S 
ATOM     73  O   UNL A   1      31.824  35.032  32.534  1.00  0.00    -0.237 OA
ATOM     74  O   UNL A   1      33.315  36.963  32.929  1.00  0.00    -0.237 OA
ATOM     75  O   UNL A   1      32.261  36.639  30.721  1.00  0.00    -0.744 OA
ENDBRANCH  71  72
ENDBRANCH  50  64
BRANCH  51  76
ATOM     76  C   UNL A   1      44.618  28.903  28.610  1.00  0.00     0.058 A 
ATOM     77  C   UNL A   1      44.052  28.878  27.320  1.00  0.00     0.135 A 
ATOM     78  C   UNL A   1      45.846  28.254  28.790  1.00  0.00     0.135 A 
ATOM     79  F   UNL A   1      42.870  29.475  27.095  1.00  0.00    -0.206 F 
ATOM     80  C   UNL A   1      44.745  28.374  26.224  1.00  0.00     0.059 A 
ATOM     81  C   UNL A   1      46.556  27.732  27.704  1.00  0.00     0.059 A 
ATOM     82  F   UNL A   1      46.434  28.241  29.995  1.00  0.00    -0.206 F 
ATOM     83  C   UNL A   1      46.023  27.859  26.419  1.00  0.00     0.060 A 
BRANCH  83  84
ATOM     84  S   UNL A   1      47.028  27.516  24.954  1.00  0.00     0.124 S 
ATOM     85  O   UNL A   1      46.550  26.195  24.562  1.00  0.00    -0.237 OA
ATOM     86  O   UNL A   1      46.650  28.612  24.063  1.00  0.00    -0.237 OA
ATOM     87  O   UNL A   1      48.394  27.568  25.464  1.00  0.00    -0.744 OA
ENDBRANCH  83  84
ENDBRANCH  51  76
BRANCH  63  88
ATOM     88  C   UNL A   1      42.512  35.942  28.730  1.00  0.00     0.058 A 
ATOM     89  C   UNL A   1      41.849  36.432  27.592  1.00  0.00     0.135 A 
ATOM     90  C   UNL A   1      43.204  36.939  29.477  1.00  0.00     0.135 A 
ATOM     91  F   UNL A   1      41.067  35.650  26.840  1.00  0.00    -0.206 F 
ATOM     92  C   UNL A   1      41.912  37.773  27.195  1.00  0.00     0.059 A 
ATOM     93  C   UNL A   1      43.231  38.289  29.133  1.00  0.00     0.059 A 
ATOM     94  F   UNL A   1      43.877  36.646  30.600  1.00  0.00    -0.206 F 
ATOM     95  C   UNL A   1      42.601  38.697  27.973  1.00  0.00     0.060 A 
BRANCH  95  96
ATOM     96  S   UNL A   1      42.605  40.437  27.506  1.00  0.00     0.124 S 
ATOM     97  O   UNL A   1      42.953  40.360  26.091  1.00  0.00    -0.237 OA
ATOM     98  O   UNL A   1      41.235  40.850  27.798  1.00  0.00    -0.237 OA
ATOM     99  O   UNL A   1      43.623  41.019  28.376  1.00  0.00    -0.744 OA
ENDBRANCH  95  96
ENDBRANCH  63  88
ENDBRANCH  37  38
ENDBRANCH  29  32
ENDBRANCH  27  28
ENDBRANCH  26  27
ENDBRANCH  25  26
ENDBRANCH   1  25
TORSDOF 19
ENDMDL
MODEL 2
REMARK VINA RESULT:     -11.9      1.284      2.126
REMARK SMILES Cc1ccc(C(=O)NCCCCCCNC(=O)c2ccc(-c3c4nc(c(-c5c(F)cc(S(=O)(=O)[O-])cc5F)c5ccc([nH]5)c(-c5c(F)cc(S(=O)(=O)[O-])cc5F)c5nc(c(-c6c(F)cc(S(=O)(=O)[O-])cc6F)c6ccc3[nH]6)C=C5)C=C4)cc2)cc1S(=O)(=O)N(C)[C@H]1CCSC1
REMARK SMILES IDX 11 1 10 2 9 3 8 4 6 5 7 6 5 8 1 9 2 10 3 11 85 12 4 13 84 14
REMARK SMILES IDX 86 15 87 16 88 17 89 18 90 19 91 20 92 21 95 22 93 23 94 24
REMARK SMILES IDX 12 25 13 26 14 27 15 28 16 29 17 31 18 32 19 33 83 34 20 35
REMARK SMILES IDX 82 36 21 37 22 38 23 39 76 40 24 41 81 42 75 43 77 44 25 45
REMARK SMILES IDX 80 46 74 47 73 48 26 50 60 51 39 52 59 53 40 54 43 55 58 56
REMARK SMILES IDX 78 57 41 58 42 59 57 61 79 62 44 63 27 64 28 65 37 66 29 67
REMARK SMILES IDX 30 68 36 69 38 70 31 71 32 72 33 73 34 74 35 75 61 76 62 77
REMARK SMILES IDX 71 78 63 79 64 80 70 81 72 82 65 83 66 84 67 85 68 86 69 87
REMARK SMILES IDX 45 88 46 89 55 90 47 91 48 92 54 93 56 94 49 95 50 96 51 97
REMARK SMILES IDX 52 98 53 99
REMARK H PARENT 8 7 15 30 77 49 43 60
REMARK Flexibility Score: inf
ROOT
ATOM      1  C   UNL A   1      35.724  21.851  26.158  1.00  0.00     0.002 C 
ENDROOT
BRANCH   1   2
ATOM      2  C   UNL A   1      34.782  22.919  26.740  1.00  0.00     0.021 C 
BRANCH   2   3
ATOM      3  C   UNL A   1      33.604  22.359  27.538  1.00  0.00     0.116 C 
BRANCH   3   4
ATOM      4  N   UNL A   1      32.794  21.472  26.725  1.00  0.00    -0.352 N 
ATOM      5  C   UNL A   1      32.265  21.561  25.467  1.00  0.00     0.251 C 
ATOM      6  O   UNL A   1      31.682  20.562  25.037  1.00  0.00    -0.269 OA
ATOM      7  H   UNL A   1      32.580  20.624  27.176  1.00  0.00     0.163 HD
BRANCH   5   8
ATOM      8  C   UNL A   1      32.375  22.754  24.575  1.00  0.00     0.041 A 
ATOM      9  C   UNL A   1      32.582  25.795  21.474  1.00  0.00     0.046 C 
ATOM     10  C   UNL A   1      32.560  24.857  22.645  1.00  0.00    -0.031 A 
ATOM     11  C   UNL A   1      33.004  23.553  22.361  1.00  0.00     0.005 A 
ATOM     12  C   UNL A   1      32.062  25.105  23.934  1.00  0.00     0.086 A 
ATOM     13  C   UNL A   1      32.926  22.529  23.308  1.00  0.00     0.014 A 
ATOM     14  C   UNL A   1      31.924  24.041  24.863  1.00  0.00     0.035 A 
BRANCH  12  15
ATOM     15  S   UNL A   1      31.527  26.696  24.565  1.00  0.00     0.243 S 
ATOM     16  O   UNL A   1      31.086  26.448  25.917  1.00  0.00    -0.207 OA
ATOM     17  O   UNL A   1      32.596  27.634  24.273  1.00  0.00    -0.207 OA
BRANCH  15  18
ATOM     18  N   UNL A   1      30.192  27.186  23.631  1.00  0.00    -0.197 NA
ATOM     19  C   UNL A   1      28.916  26.542  24.003  1.00  0.00     0.125 C 
BRANCH  18  20
ATOM     20  C   UNL A   1      30.167  28.586  23.124  1.00  0.00     0.083 C 
ATOM     21  C   UNL A   1      28.978  28.827  22.191  1.00  0.00     0.032 C 
ATOM     22  C   UNL A   1      30.066  29.650  24.220  1.00  0.00     0.089 C 
ATOM     23  C   UNL A   1      29.021  30.299  21.823  1.00  0.00     0.071 C 
ATOM     24  S   UNL A   1      29.448  31.145  23.368  1.00  0.00    -0.160 SA
ENDBRANCH  18  20
ENDBRANCH  15  18
ENDBRANCH  12  15
ENDBRANCH   5   8
ENDBRANCH   3   4
ENDBRANCH   2   3
ENDBRANCH   1   2
BRANCH   1  25
ATOM     25  C   UNL A   1      36.276  22.124  24.749  1.00  0.00     0.002 C 
BRANCH  25  26
ATOM     26  C   UNL A   1      37.731  22.594  24.678  1.00  0.00     0.021 C 
BRANCH  26  27
ATOM     27  C   UNL A   1      38.113  23.542  25.809  1.00  0.00     0.116 C 
BRANCH  27  28
ATOM     28  N   UNL A   1      39.346  23.154  26.480  1.00  0.00    -0.352 N 
ATOM     29  C   UNL A   1      40.282  23.982  27.077  1.00  0.00     0.251 C 
ATOM     30  H   UNL A   1      39.536  22.188  26.513  1.00  0.00     0.163 HD
ATOM     31  O   UNL A   1      41.379  23.597  27.423  1.00  0.00    -0.269 OA
BRANCH  29  32
ATOM     32  C   UNL A   1      39.826  25.350  27.399  1.00  0.00     0.039 A 
ATOM     33  C   UNL A   1      40.383  26.396  26.654  1.00  0.00     0.014 A 
ATOM     34  C   UNL A   1      39.119  25.588  28.574  1.00  0.00     0.014 A 
ATOM     35  C   UNL A   1      40.368  27.686  27.177  1.00  0.00     0.010 A 
ATOM     36  C   UNL A   1      39.177  26.852  29.127  1.00  0.00     0.010 A 
ATOM     37  C   UNL A   1      39.834  27.889  28.449  1.00  0.00    -0.014 A 
BRANCH  37  38
ATOM     38  C   UNL A   1      39.989  29.135  29.188  1.00  0.00     0.031 A 
ATOM     39  C   UNL A   1      38.932  30.166  29.146  1.00  0.00     0.074 A 
ATOM     40  C   UNL A   1      41.072  29.334  29.972  1.00  0.00     0.049 A 
ATOM     41  N   UNL A   1      39.150  31.424  29.344  1.00  0.00    -0.248 NA
ATOM     42  C   UNL A   1      37.537  29.861  28.843  1.00  0.00     0.031 C 
ATOM     43  C   UNL A   1      41.239  30.366  30.991  1.00  0.00     0.029 A 
ATOM     44  N   UNL A   1      42.335  28.750  29.858  1.00  0.00    -0.354 N 
ATOM     45  C   UNL A   1      37.926  32.029  29.494  1.00  0.00     0.074 A 
ATOM     46  C   UNL A   1      36.953  31.036  29.099  1.00  0.00     0.031 C 
ATOM     47  C   UNL A   1      42.548  30.532  31.233  1.00  0.00     0.029 A 
ATOM     48  C   UNL A   1      43.271  29.715  30.276  1.00  0.00     0.049 A 
ATOM     49  H   UNL A   1      42.532  27.838  29.545  1.00  0.00     0.167 HD
ATOM     50  C   UNL A   1      37.836  33.252  30.086  1.00  0.00     0.037 A 
ATOM     51  C   UNL A   1      44.239  30.178  29.433  1.00  0.00     0.037 A 
ATOM     52  C   UNL A   1      39.144  33.772  30.469  1.00  0.00     0.049 A 
ATOM     53  C   UNL A   1      44.183  31.669  29.190  1.00  0.00     0.074 A 
ATOM     54  C   UNL A   1      39.835  33.782  31.671  1.00  0.00     0.029 A 
ATOM     55  N   UNL A   1      40.072  34.102  29.486  1.00  0.00    -0.354 N 
ATOM     56  N   UNL A   1      43.144  32.417  29.440  1.00  0.00    -0.248 NA
ATOM     57  C   UNL A   1      45.296  32.438  28.644  1.00  0.00     0.031 C 
ATOM     58  C   UNL A   1      41.186  34.108  31.408  1.00  0.00     0.029 A 
ATOM     59  C   UNL A   1      41.321  34.303  30.045  1.00  0.00     0.049 A 
ATOM     60  H   UNL A   1      39.868  34.182  28.527  1.00  0.00     0.167 HD
ATOM     61  C   UNL A   1      43.409  33.723  29.092  1.00  0.00     0.074 A 
ATOM     62  C   UNL A   1      44.783  33.681  28.627  1.00  0.00     0.031 C 
ATOM     63  C   UNL A   1      42.461  34.705  29.227  1.00  0.00     0.037 A 
BRANCH  50  64
ATOM     64  C   UNL A   1      36.513  33.775  30.583  1.00  0.00     0.058 A 
ATOM     65  C   UNL A   1      35.520  34.231  29.692  1.00  0.00     0.135 A 
ATOM     66  C   UNL A   1      36.206  33.917  31.951  1.00  0.00     0.135 A 
ATOM     67  F   UNL A   1      35.655  34.108  28.366  1.00  0.00    -0.206 F 
ATOM     68  C   UNL A   1      34.360  34.872  30.121  1.00  0.00     0.059 A 
ATOM     69  C   UNL A   1      35.072  34.598  32.405  1.00  0.00     0.059 A 
ATOM     70  F   UNL A   1      37.021  33.407  32.889  1.00  0.00    -0.206 F 
ATOM     71  C   UNL A   1      34.157  35.083  31.478  1.00  0.00     0.060 A 
BRANCH  71  72
ATOM     72  S   UNL A   1      32.716  36.036  31.994  1.00  0.00     0.124 S 
ATOM     73  O   UNL A   1      32.329  36.712  30.758  1.00  0.00    -0.237 OA
ATOM     74  O   UNL A   1      31.810  34.991  32.455  1.00  0.00    -0.237 OA
ATOM     75  O   UNL A   1      33.246  36.914  33.034  1.00  0.00    -0.744 OA
ENDBRANCH  71  72
ENDBRANCH  50  64
BRANCH  51  76
ATOM     76  C   UNL A   1      44.717  29.147  28.472  1.00  0.00     0.058 A 
ATOM     77  C   UNL A   1      45.669  28.215  28.931  1.00  0.00     0.135 A 
ATOM     78  C   UNL A   1      43.973  28.806  27.336  1.00  0.00     0.135 A 
ATOM     79  F   UNL A   1      46.417  28.497  30.010  1.00  0.00    -0.206 F 
ATOM     80  C   UNL A   1      45.766  26.938  28.389  1.00  0.00     0.059 A 
ATOM     81  C   UNL A   1      44.061  27.530  26.768  1.00  0.00     0.059 A 
ATOM     82  F   UNL A   1      43.054  29.652  26.849  1.00  0.00    -0.206 F 
ATOM     83  C   UNL A   1      44.913  26.586  27.346  1.00  0.00     0.060 A 
BRANCH  83  84
ATOM     84  S   UNL A   1      44.826  24.840  26.879  1.00  0.00     0.124 S 
ATOM     85  O   UNL A   1      46.195  24.572  26.454  1.00  0.00    -0.237 OA
ATOM     86  O   UNL A   1      44.422  24.209  28.135  1.00  0.00    -0.237 OA
ATOM     87  O   UNL A   1      43.821  24.826  25.822  1.00  0.00    -0.744 OA
ENDBRANCH  83  84
ENDBRANCH  51  76
BRANCH  63  88
ATOM     88  C   UNL A   1      42.505  36.149  28.737  1.00  0.00     0.058 A 
ATOM     89  C   UNL A   1      43.011  37.243  29.459  1.00  0.00     0.135 A 
ATOM     90  C   UNL A   1      42.113  36.462  27.403  1.00  0.00     0.135 A 
ATOM     91  F   UNL A   1      43.521  37.101  30.688  1.00  0.00    -0.206 F 
ATOM     92  C   UNL A   1      43.069  38.540  28.935  1.00  0.00     0.059 A 
ATOM     93  C   UNL A   1      42.217  37.733  26.841  1.00  0.00     0.059 A 
ATOM     94  F   UNL A   1      41.623  35.533  26.570  1.00  0.00    -0.206 F 
ATOM     95  C   UNL A   1      42.675  38.777  27.622  1.00  0.00     0.060 A 
BRANCH  95  96
ATOM     96  S   UNL A   1      42.835  40.429  26.922  1.00  0.00     0.124 S 
ATOM     97  O   UNL A   1      43.642  40.167  25.734  1.00  0.00    -0.237 OA
ATOM     98  O   UNL A   1      41.447  40.805  26.672  1.00  0.00    -0.237 OA
ATOM     99  O   UNL A   1      43.498  41.183  27.982  1.00  0.00    -0.744 OA
ENDBRANCH  95  96
ENDBRANCH  63  88
ENDBRANCH  37  38
ENDBRANCH  29  32
ENDBRANCH  27  28
ENDBRANCH  26  27
ENDBRANCH  25  26
ENDBRANCH   1  25
TORSDOF 19
ENDMDL
MODEL 3
REMARK VINA RESULT:     -11.4      1.868      2.529
REMARK SMILES Cc1ccc(C(=O)NCCCCCCNC(=O)c2ccc(-c3c4nc(c(-c5c(F)cc(S(=O)(=O)[O-])cc5F)c5ccc([nH]5)c(-c5c(F)cc(S(=O)(=O)[O-])cc5F)c5nc(c(-c6c(F)cc(S(=O)(=O)[O-])cc6F)c6ccc3[nH]6)C=C5)C=C4)cc2)cc1S(=O)(=O)N(C)[C@H]1CCSC1
REMARK SMILES IDX 11 1 10 2 9 3 8 4 6 5 7 6 5 8 1 9 2 10 3 11 85 12 4 13 84 14
REMARK SMILES IDX 86 15 87 16 88 17 89 18 90 19 91 20 92 21 95 22 93 23 94 24
REMARK SMILES IDX 12 25 13 26 14 27 15 28 16 29 17 31 18 32 19 33 83 34 20 35
REMARK SMILES IDX 82 36 21 37 22 38 23 39 76 40 24 41 81 42 75 43 77 44 25 45
REMARK SMILES IDX 80 46 74 47 73 48 26 50 60 51 39 52 59 53 40 54 43 55 58 56
REMARK SMILES IDX 78 57 41 58 42 59 57 61 79 62 44 63 27 64 28 65 37 66 29 67
REMARK SMILES IDX 30 68 36 69 38 70 31 71 32 72 33 73 34 74 35 75 61 76 62 77
REMARK SMILES IDX 71 78 63 79 64 80 70 81 72 82 65 83 66 84 67 85 68 86 69 87
REMARK SMILES IDX 45 88 46 89 55 90 47 91 48 92 54 93 56 94 49 95 50 96 51 97
REMARK SMILES IDX 52 98 53 99
REMARK H PARENT 8 7 15 30 77 49 43 60
REMARK Flexibility Score: inf
ROOT
ATOM      1  C   UNL A   1      37.961  23.926  25.817  1.00  0.00     0.002 C 
ENDROOT
BRANCH   1   2
ATOM      2  C   UNL A   1      36.504  23.777  25.344  1.00  0.00     0.021 C 
BRANCH   2   3
ATOM      3  C   UNL A   1      36.332  22.945  24.072  1.00  0.00     0.116 C 
BRANCH   3   4
ATOM      4  N   UNL A   1      35.570  21.739  24.335  1.00  0.00    -0.352 N 
ATOM      5  C   UNL A   1      34.251  21.490  24.598  1.00  0.00     0.251 C 
ATOM      6  O   UNL A   1      33.917  20.306  24.691  1.00  0.00    -0.269 OA
ATOM      7  H   UNL A   1      36.122  20.924  24.321  1.00  0.00     0.163 HD
BRANCH   5   8
ATOM      8  C   UNL A   1      33.196  22.537  24.740  1.00  0.00     0.041 A 
ATOM      9  C   UNL A   1      30.186  25.483  25.820  1.00  0.00     0.046 C 
ATOM     10  C   UNL A   1      31.180  24.488  25.297  1.00  0.00    -0.031 A 
ATOM     11  C   UNL A   1      31.335  23.340  26.093  1.00  0.00     0.005 A 
ATOM     12  C   UNL A   1      32.024  24.624  24.183  1.00  0.00     0.086 A 
ATOM     13  C   UNL A   1      32.311  22.380  25.814  1.00  0.00     0.014 A 
ATOM     14  C   UNL A   1      33.057  23.678  23.950  1.00  0.00     0.035 A 
BRANCH  12  15
ATOM     15  S   UNL A   1      31.960  25.942  22.971  1.00  0.00     0.243 S 
ATOM     16  O   UNL A   1      32.443  25.362  21.740  1.00  0.00    -0.207 OA
ATOM     17  O   UNL A   1      30.634  26.526  23.068  1.00  0.00    -0.207 OA
BRANCH  15  18
ATOM     18  N   UNL A   1      33.050  27.147  23.476  1.00  0.00    -0.197 NA
ATOM     19  C   UNL A   1      33.676  27.906  22.374  1.00  0.00     0.125 C 
BRANCH  18  20
ATOM     20  C   UNL A   1      32.777  27.846  24.762  1.00  0.00     0.083 C 
ATOM     21  C   UNL A   1      33.756  27.414  25.857  1.00  0.00     0.032 C 
ATOM     22  C   UNL A   1      32.878  29.371  24.684  1.00  0.00     0.089 C 
ATOM     23  C   UNL A   1      33.426  28.259  27.075  1.00  0.00     0.071 C 
ATOM     24  S   UNL A   1      33.115  29.916  26.412  1.00  0.00    -0.160 SA
ENDBRANCH  18  20
ENDBRANCH  15  18
ENDBRANCH  12  15
ENDBRANCH   5   8
ENDBRANCH   3   4
ENDBRANCH   2   3
ENDBRANCH   1   2
BRANCH   1  25
ATOM     25  C   UNL A   1      38.507  22.799  26.709  1.00  0.00     0.002 C 
BRANCH  25  26
ATOM     26  C   UNL A   1      39.382  21.756  26.011  1.00  0.00     0.021 C 
BRANCH  26  27
ATOM     27  C   UNL A   1      40.661  21.436  26.776  1.00  0.00     0.116 C 
BRANCH  27  28
ATOM     28  N   UNL A   1      41.865  21.815  26.049  1.00  0.00    -0.352 N 
ATOM     29  C   UNL A   1      42.318  23.093  25.769  1.00  0.00     0.251 C 
ATOM     30  H   UNL A   1      42.422  21.073  25.716  1.00  0.00     0.163 HD
ATOM     31  O   UNL A   1      43.211  23.319  24.979  1.00  0.00    -0.269 OA
BRANCH  29  32
ATOM     32  C   UNL A   1      41.745  24.179  26.590  1.00  0.00     0.039 A 
ATOM     33  C   UNL A   1      41.366  25.348  25.921  1.00  0.00     0.014 A 
ATOM     34  C   UNL A   1      41.864  24.139  27.976  1.00  0.00     0.014 A 
ATOM     35  C   UNL A   1      41.261  26.538  26.636  1.00  0.00     0.010 A 
ATOM     36  C   UNL A   1      41.839  25.334  28.669  1.00  0.00     0.010 A 
ATOM     37  C   UNL A   1      41.576  26.535  27.995  1.00  0.00    -0.014 A 
BRANCH  37  38
ATOM     38  C   UNL A   1      41.740  27.754  28.776  1.00  0.00     0.031 A 
ATOM     39  C   UNL A   1      40.607  28.684  28.956  1.00  0.00     0.074 A 
ATOM     40  C   UNL A   1      42.910  28.013  29.400  1.00  0.00     0.049 A 
ATOM     41  N   UNL A   1      40.746  29.945  29.195  1.00  0.00    -0.248 NA
ATOM     42  C   UNL A   1      39.212  28.266  28.848  1.00  0.00     0.031 C 
ATOM     43  C   UNL A   1      43.146  29.007  30.443  1.00  0.00     0.029 A 
ATOM     44  N   UNL A   1      44.184  27.554  29.062  1.00  0.00    -0.354 N 
ATOM     45  C   UNL A   1      39.514  30.427  29.564  1.00  0.00     0.074 A 
ATOM     46  C   UNL A   1      38.578  29.369  29.260  1.00  0.00     0.031 C 
ATOM     47  C   UNL A   1      44.459  29.281  30.495  1.00  0.00     0.029 A 
ATOM     48  C   UNL A   1      45.090  28.580  29.392  1.00  0.00     0.049 A 
ATOM     49  H   UNL A   1      44.407  26.680  28.668  1.00  0.00     0.167 HD
ATOM     50  C   UNL A   1      39.415  31.608  30.236  1.00  0.00     0.037 A 
ATOM     51  C   UNL A   1      45.874  29.170  28.444  1.00  0.00     0.037 A 
ATOM     52  C   UNL A   1      40.718  32.227  30.449  1.00  0.00     0.049 A 
ATOM     53  C   UNL A   1      45.657  30.659  28.303  1.00  0.00     0.074 A 
ATOM     54  C   UNL A   1      41.584  32.244  31.532  1.00  0.00     0.029 A 
ATOM     55  N   UNL A   1      41.452  32.687  29.360  1.00  0.00    -0.354 N 
ATOM     56  N   UNL A   1      44.610  31.296  28.751  1.00  0.00    -0.248 NA
ATOM     57  C   UNL A   1      46.603  31.552  27.645  1.00  0.00     0.031 C 
ATOM     58  C   UNL A   1      42.846  32.704  31.090  1.00  0.00     0.029 A 
ATOM     59  C   UNL A   1      42.751  32.976  29.736  1.00  0.00     0.049 A 
ATOM     60  H   UNL A   1      41.096  32.793  28.449  1.00  0.00     0.167 HD
ATOM     61  C   UNL A   1      44.708  32.635  28.448  1.00  0.00     0.074 A 
ATOM     62  C   UNL A   1      45.992  32.742  27.780  1.00  0.00     0.031 C 
ATOM     63  C   UNL A   1      43.713  33.519  28.783  1.00  0.00     0.037 A 
BRANCH  50  64
ATOM     64  C   UNL A   1      38.146  31.983  30.956  1.00  0.00     0.058 A 
ATOM     65  C   UNL A   1      37.230  32.901  30.404  1.00  0.00     0.135 A 
ATOM     66  C   UNL A   1      37.824  31.513  32.245  1.00  0.00     0.135 A 
ATOM     67  F   UNL A   1      37.380  33.387  29.166  1.00  0.00    -0.206 F 
ATOM     68  C   UNL A   1      36.136  33.394  31.113  1.00  0.00     0.059 A 
ATOM     69  C   UNL A   1      36.761  32.027  32.994  1.00  0.00     0.059 A 
ATOM     70  F   UNL A   1      38.557  30.545  32.821  1.00  0.00    -0.206 F 
ATOM     71  C   UNL A   1      35.926  32.978  32.421  1.00  0.00     0.060 A 
BRANCH  71  72
ATOM     72  S   UNL A   1      34.586  33.737  33.360  1.00  0.00     0.124 S 
ATOM     73  O   UNL A   1      35.001  33.505  34.741  1.00  0.00    -0.237 OA
ATOM     74  O   UNL A   1      34.642  35.120  32.904  1.00  0.00    -0.237 OA
ATOM     75  O   UNL A   1      33.409  32.982  32.938  1.00  0.00    -0.744 OA
ENDBRANCH  71  72
ENDBRANCH  50  64
BRANCH  51  76
ATOM     76  C   UNL A   1      46.282  28.234  27.361  1.00  0.00     0.058 A 
ATOM     77  C   UNL A   1      45.545  28.262  26.160  1.00  0.00     0.135 A 
ATOM     78  C   UNL A   1      47.568  27.679  27.319  1.00  0.00     0.135 A 
ATOM     79  F   UNL A   1      44.303  28.773  26.147  1.00  0.00    -0.206 F 
ATOM     80  C   UNL A   1      46.114  27.907  24.942  1.00  0.00     0.059 A 
ATOM     81  C   UNL A   1      48.156  27.307  26.106  1.00  0.00     0.059 A 
ATOM     82  F   UNL A   1      48.316  27.621  28.430  1.00  0.00    -0.206 F 
ATOM     83  C   UNL A   1      47.442  27.488  24.919  1.00  0.00     0.060 A 
BRANCH  83  84
ATOM     84  S   UNL A   1      48.257  27.347  23.310  1.00  0.00     0.124 S 
ATOM     85  O   UNL A   1      49.564  27.937  23.579  1.00  0.00    -0.237 OA
ATOM     86  O   UNL A   1      48.251  25.901  23.092  1.00  0.00    -0.237 OA
ATOM     87  O   UNL A   1      47.387  28.115  22.425  1.00  0.00    -0.744 OA
ENDBRANCH  83  84
ENDBRANCH  51  76
BRANCH  63  88
ATOM     88  C   UNL A   1      43.560  34.982  28.380  1.00  0.00     0.058 A 
ATOM     89  C   UNL A   1      43.178  35.445  27.109  1.00  0.00     0.135 A 
ATOM     90  C   UNL A   1      43.699  36.010  29.357  1.00  0.00     0.135 A 
ATOM     91  F   UNL A   1      42.901  34.603  26.107  1.00  0.00    -0.206 F 
ATOM     92  C   UNL A   1      43.007  36.803  26.814  1.00  0.00     0.059 A 
ATOM     93  C   UNL A   1      43.476  37.362  29.100  1.00  0.00     0.059 A 
ATOM     94  F   UNL A   1      44.043  35.743  30.626  1.00  0.00    -0.206 F 
ATOM     95  C   UNL A   1      43.152  37.756  27.816  1.00  0.00     0.060 A 
BRANCH  95  96
ATOM     96  S   UNL A   1      42.844  39.493  27.454  1.00  0.00     0.124 S 
ATOM     97  O   UNL A   1      43.122  40.116  28.744  1.00  0.00    -0.237 OA
ATOM     98  O   UNL A   1      43.810  39.775  26.396  1.00  0.00    -0.237 OA
ATOM     99  O   UNL A   1      41.446  39.508  27.033  1.00  0.00    -0.744 OA
ENDBRANCH  95  96
ENDBRANCH  63  88
ENDBRANCH  37  38
ENDBRANCH  29  32
ENDBRANCH  27  28
ENDBRANCH  26  27
ENDBRANCH  25  26
ENDBRANCH   1  25
TORSDOF 19
ENDMDL
