MODEL 1
REMARK VINA RESULT:     -11.7      0.000      0.000
REMARK SMILES C=Cc1cc(Cl)cc2c1O[C@H](C(F)(F)F)C(C(=O)NCCCCCCNC(=O)c1ccc(-c3c4nc(c(-c5c(F)cc(S(=O)(=O)[O-])cc5F)c5ccc([nH]5)c(-c5c(F)cc(S(=O)(=O)[O-])cc5F)c5nc(c(-c6c(F)cc(S(=O)(=O)[O-])cc6F)c6ccc3[nH]6)C=C5)C=C4)cc1)=C2
REMARK SMILES IDX 23 1 22 2 21 3 20 4 19 5 17 6 18 7 16 9 3 10 4 11 9 12 5 13
REMARK SMILES IDX 8 14 10 15 6 16 7 17 95 18 11 19 2 20 1 21 12 22 13 23 14 24
REMARK SMILES IDX 15 25 24 26 25 27 26 28 27 29 28 31 29 32 30 33 94 34 31 35
REMARK SMILES IDX 93 36 32 37 33 38 34 39 87 40 35 41 92 42 86 43 88 44 36 45
REMARK SMILES IDX 91 46 85 47 84 48 37 50 71 51 50 52 70 53 51 54 54 55 69 56
REMARK SMILES IDX 89 57 52 58 53 59 68 61 90 62 55 63 38 64 39 65 48 66 40 67
REMARK SMILES IDX 41 68 47 69 49 70 42 71 43 72 44 73 45 74 46 75 72 76 73 77
REMARK SMILES IDX 82 78 74 79 75 80 81 81 83 82 76 83 77 84 78 85 79 86 80 87
REMARK SMILES IDX 56 88 57 89 66 90 58 91 59 92 65 93 67 94 60 95 61 96 62 97
REMARK SMILES IDX 63 98 64 99
REMARK H PARENT 19 8 26 30 88 49 54 60
REMARK Flexibility Score: inf
ROOT
ATOM      1  C   UNL A   1      31.374  28.593  25.901  1.00  0.00     0.002 C 
ENDROOT
BRANCH   1   2
ATOM      2  C   UNL A   1      31.701  28.464  24.407  1.00  0.00     0.002 C 
BRANCH   2   3
ATOM      3  C   UNL A   1      30.620  27.804  23.542  1.00  0.00     0.021 C 
BRANCH   3   4
ATOM      4  C   UNL A   1      30.848  26.318  23.274  1.00  0.00     0.116 C 
BRANCH   4   5
ATOM      5  N   UNL A   1      31.677  26.100  22.098  1.00  0.00    -0.352 N 
ATOM      6  C   UNL A   1      32.680  25.271  21.729  1.00  0.00     0.251 C 
ATOM      7  O   UNL A   1      33.087  25.430  20.573  1.00  0.00    -0.270 OA
ATOM      8  H   UNL A   1      31.443  26.726  21.375  1.00  0.00     0.163 HD
BRANCH   6   9
ATOM      9  C   UNL A   1      33.309  24.223  22.590  1.00  0.00     0.067 C 
ATOM     10  C   UNL A   1      35.037  21.054  24.779  1.00  0.00     0.018 A 
ATOM     11  C   UNL A   1      34.314  19.865  24.938  1.00  0.00     0.032 A 
ATOM     12  C   UNL A   1      34.469  22.099  24.028  1.00  0.00     0.135 A 
ATOM     13  C   UNL A   1      33.064  19.722  24.336  1.00  0.00     0.042 A 
ATOM     14  C   UNL A   1      33.220  21.949  23.416  1.00  0.00     0.019 A 
ATOM     15  O   UNL A   1      35.212  23.235  23.865  1.00  0.00    -0.475 OA
ATOM     16  Cl  UNL A   1      32.188  18.251  24.532  1.00  0.00    -0.084 Cl
ATOM     17  C   UNL A   1      32.515  20.753  23.573  1.00  0.00     0.032 A 
ATOM     18  C   UNL A   1      32.692  23.026  22.586  1.00  0.00     0.025 C 
ATOM     19  C   UNL A   1      34.516  24.441  23.458  1.00  0.00     0.314 C 
BRANCH  10  20
ATOM     20  C   UNL A   1      36.345  21.231  25.427  1.00  0.00     0.004 C 
ATOM     21  C   UNL A   1      37.517  21.030  24.809  1.00  0.00     0.009 C 
ENDBRANCH  10  20
BRANCH  19  22
ATOM     22  C   UNL A   1      34.206  25.289  24.703  1.00  0.00     0.429 C 
ATOM     23  F   UNL A   1      35.130  25.073  25.670  1.00  0.00    -0.167 F 
ATOM     24  F   UNL A   1      34.224  26.617  24.442  1.00  0.00    -0.167 F 
ATOM     25  F   UNL A   1      32.992  25.007  25.228  1.00  0.00    -0.167 F 
ENDBRANCH  19  22
ENDBRANCH   6   9
ENDBRANCH   4   5
ENDBRANCH   3   4
ENDBRANCH   2   3
ENDBRANCH   1   2
BRANCH   1  26
ATOM     26  C   UNL A   1      32.267  27.795  26.854  1.00  0.00     0.021 C 
BRANCH  26  27
ATOM     27  C   UNL A   1      33.630  28.415  27.138  1.00  0.00     0.116 C 
BRANCH  27  28
ATOM     28  N   UNL A   1      33.543  29.812  27.526  1.00  0.00    -0.352 N 
ATOM     29  C   UNL A   1      34.492  30.605  28.128  1.00  0.00     0.251 C 
ATOM     30  H   UNL A   1      32.684  30.253  27.330  1.00  0.00     0.163 HD
ATOM     31  O   UNL A   1      34.197  31.734  28.513  1.00  0.00    -0.269 OA
BRANCH  29  32
ATOM     32  C   UNL A   1      35.857  30.077  28.343  1.00  0.00     0.039 A 
ATOM     33  C   UNL A   1      36.225  29.538  29.578  1.00  0.00     0.014 A 
ATOM     34  C   UNL A   1      36.786  30.147  27.302  1.00  0.00     0.014 A 
ATOM     35  C   UNL A   1      37.557  29.214  29.819  1.00  0.00     0.010 A 
ATOM     36  C   UNL A   1      38.108  29.751  27.524  1.00  0.00     0.010 A 
ATOM     37  C   UNL A   1      38.515  29.326  28.798  1.00  0.00    -0.014 A 
BRANCH  37  38
ATOM     38  C   UNL A   1      39.936  29.003  29.091  1.00  0.00     0.031 A 
ATOM     39  C   UNL A   1      40.800  29.964  29.864  1.00  0.00     0.074 A 
ATOM     40  C   UNL A   1      40.434  27.814  28.701  1.00  0.00     0.049 A 
ATOM     41  N   UNL A   1      42.050  29.835  30.232  1.00  0.00    -0.248 NA
ATOM     42  C   UNL A   1      40.185  31.235  30.276  1.00  0.00     0.031 C 
ATOM     43  C   UNL A   1      39.694  26.799  27.948  1.00  0.00     0.029 A 
ATOM     44  N   UNL A   1      41.665  27.245  28.903  1.00  0.00    -0.354 N 
ATOM     45  C   UNL A   1      42.377  31.010  30.897  1.00  0.00     0.074 A 
ATOM     46  C   UNL A   1      41.202  31.854  30.864  1.00  0.00     0.031 C 
ATOM     47  C   UNL A   1      40.468  25.715  27.795  1.00  0.00     0.029 A 
ATOM     48  C   UNL A   1      41.775  25.975  28.391  1.00  0.00     0.049 A 
ATOM     49  H   UNL A   1      42.401  27.703  29.371  1.00  0.00     0.167 HD
ATOM     50  C   UNL A   1      43.547  31.350  31.490  1.00  0.00     0.037 A 
ATOM     51  C   UNL A   1      42.812  25.116  28.390  1.00  0.00     0.037 A 
ATOM     52  C   UNL A   1      44.706  30.498  31.546  1.00  0.00     0.049 A 
ATOM     53  C   UNL A   1      44.104  25.522  29.039  1.00  0.00     0.074 A 
ATOM     54  C   UNL A   1      45.924  30.740  32.156  1.00  0.00     0.029 A 
ATOM     55  N   UNL A   1      44.791  29.238  30.971  1.00  0.00    -0.354 N 
ATOM     56  N   UNL A   1      44.390  26.635  29.671  1.00  0.00    -0.248 NA
ATOM     57  C   UNL A   1      45.215  24.564  28.965  1.00  0.00     0.031 C 
ATOM     58  C   UNL A   1      46.759  29.643  31.922  1.00  0.00     0.029 A 
ATOM     59  C   UNL A   1      46.048  28.699  31.195  1.00  0.00     0.049 A 
ATOM     60  H   UNL A   1      44.066  28.791  30.478  1.00  0.00     0.167 HD
ATOM     61  C   UNL A   1      45.715  26.514  30.069  1.00  0.00     0.074 A 
ATOM     62  C   UNL A   1      46.167  25.210  29.627  1.00  0.00     0.031 C 
ATOM     63  C   UNL A   1      46.488  27.406  30.736  1.00  0.00     0.037 A 
BRANCH  50  64
ATOM     64  C   UNL A   1      43.639  32.713  32.121  1.00  0.00     0.058 A 
ATOM     65  C   UNL A   1      43.332  32.919  33.475  1.00  0.00     0.135 A 
ATOM     66  C   UNL A   1      44.081  33.815  31.373  1.00  0.00     0.135 A 
ATOM     67  F   UNL A   1      42.890  31.901  34.231  1.00  0.00    -0.206 F 
ATOM     68  C   UNL A   1      43.438  34.177  34.060  1.00  0.00     0.059 A 
ATOM     69  C   UNL A   1      44.215  35.079  31.943  1.00  0.00     0.059 A 
ATOM     70  F   UNL A   1      44.387  33.673  30.074  1.00  0.00    -0.206 F 
ATOM     71  C   UNL A   1      43.878  35.251  33.285  1.00  0.00     0.060 A 
BRANCH  71  72
ATOM     72  S   UNL A   1      44.010  36.877  34.060  1.00  0.00     0.124 S 
ATOM     73  O   UNL A   1      44.897  37.570  33.130  1.00  0.00    -0.237 OA
ATOM     74  O   UNL A   1      42.624  37.333  34.068  1.00  0.00    -0.237 OA
ATOM     75  O   UNL A   1      44.579  36.585  35.371  1.00  0.00    -0.744 OA
ENDBRANCH  71  72
ENDBRANCH  50  64
BRANCH  51  76
ATOM     76  C   UNL A   1      42.652  23.785  27.752  1.00  0.00     0.058 A 
ATOM     77  C   UNL A   1      42.822  23.624  26.370  1.00  0.00     0.135 A 
ATOM     78  C   UNL A   1      42.397  22.639  28.520  1.00  0.00     0.135 A 
ATOM     79  F   UNL A   1      43.061  24.692  25.594  1.00  0.00    -0.206 F 
ATOM     80  C   UNL A   1      42.756  22.370  25.772  1.00  0.00     0.059 A 
ATOM     81  C   UNL A   1      42.347  21.373  27.949  1.00  0.00     0.059 A 
ATOM     82  F   UNL A   1      42.240  22.743  29.850  1.00  0.00    -0.206 F 
ATOM     83  C   UNL A   1      42.530  21.248  26.572  1.00  0.00     0.060 A 
BRANCH  83  84
ATOM     84  S   UNL A   1      42.545  19.616  25.801  1.00  0.00     0.124 S 
ATOM     85  O   UNL A   1      43.508  19.808  24.723  1.00  0.00    -0.237 OA
ATOM     86  O   UNL A   1      42.980  18.761  26.902  1.00  0.00    -0.237 OA
ATOM     87  O   UNL A   1      41.158  19.429  25.385  1.00  0.00    -0.744 OA
ENDBRANCH  83  84
ENDBRANCH  51  76
BRANCH  63  88
ATOM     88  C   UNL A   1      47.908  27.009  31.022  1.00  0.00     0.058 A 
ATOM     89  C   UNL A   1      48.241  26.284  32.175  1.00  0.00     0.135 A 
ATOM     90  C   UNL A   1      48.931  27.300  30.106  1.00  0.00     0.135 A 
ATOM     91  F   UNL A   1      47.300  25.989  33.084  1.00  0.00    -0.206 F 
ATOM     92  C   UNL A   1      49.546  25.867  32.417  1.00  0.00     0.059 A 
ATOM     93  C   UNL A   1      50.239  26.876  30.318  1.00  0.00     0.059 A 
ATOM     94  F   UNL A   1      48.660  27.986  28.984  1.00  0.00    -0.206 F 
ATOM     95  C   UNL A   1      50.538  26.166  31.480  1.00  0.00     0.060 A 
BRANCH  95  96
ATOM     96  S   UNL A   1      52.218  25.580  31.784  1.00  0.00     0.124 S 
ATOM     97  O   UNL A   1      52.879  25.920  30.528  1.00  0.00    -0.237 OA
ATOM     98  O   UNL A   1      52.620  26.368  32.945  1.00  0.00    -0.237 OA
ATOM     99  O   UNL A   1      52.041  24.153  32.034  1.00  0.00    -0.744 OA
ENDBRANCH  95  96
ENDBRANCH  63  88
ENDBRANCH  37  38
ENDBRANCH  29  32
ENDBRANCH  27  28
ENDBRANCH  26  27
ENDBRANCH   1  26
TORSDOF 18
ENDMDL
MODEL 2
REMARK VINA RESULT:     -11.5      0.731      8.135
REMARK SMILES C=Cc1cc(Cl)cc2c1O[C@H](C(F)(F)F)C(C(=O)NCCCCCCNC(=O)c1ccc(-c3c4nc(c(-c5c(F)cc(S(=O)(=O)[O-])cc5F)c5ccc([nH]5)c(-c5c(F)cc(S(=O)(=O)[O-])cc5F)c5nc(c(-c6c(F)cc(S(=O)(=O)[O-])cc6F)c6ccc3[nH]6)C=C5)C=C4)cc1)=C2
REMARK SMILES IDX 23 1 22 2 21 3 20 4 19 5 17 6 18 7 16 9 3 10 4 11 9 12 5 13
REMARK SMILES IDX 8 14 10 15 6 16 7 17 95 18 11 19 2 20 1 21 12 22 13 23 14 24
REMARK SMILES IDX 15 25 24 26 25 27 26 28 27 29 28 31 29 32 30 33 94 34 31 35
REMARK SMILES IDX 93 36 32 37 33 38 34 39 87 40 35 41 92 42 86 43 88 44 36 45
REMARK SMILES IDX 91 46 85 47 84 48 37 50 71 51 50 52 70 53 51 54 54 55 69 56
REMARK SMILES IDX 89 57 52 58 53 59 68 61 90 62 55 63 38 64 39 65 48 66 40 67
REMARK SMILES IDX 41 68 47 69 49 70 42 71 43 72 44 73 45 74 46 75 72 76 73 77
REMARK SMILES IDX 82 78 74 79 75 80 81 81 83 82 76 83 77 84 78 85 79 86 80 87
REMARK SMILES IDX 56 88 57 89 66 90 58 91 59 92 65 93 67 94 60 95 61 96 62 97
REMARK SMILES IDX 63 98 64 99
REMARK H PARENT 19 8 26 30 88 49 54 60
REMARK Flexibility Score: inf
ROOT
ATOM      1  C   UNL A   1      31.432  28.511  26.011  1.00  0.00     0.002 C 
ENDROOT
BRANCH   1   2
ATOM      2  C   UNL A   1      31.649  28.528  24.492  1.00  0.00     0.002 C 
BRANCH   2   3
ATOM      3  C   UNL A   1      30.590  27.796  23.659  1.00  0.00     0.021 C 
BRANCH   3   4
ATOM      4  C   UNL A   1      30.884  26.316  23.426  1.00  0.00     0.116 C 
BRANCH   4   5
ATOM      5  N   UNL A   1      31.652  26.099  22.211  1.00  0.00    -0.352 N 
ATOM      6  C   UNL A   1      32.621  25.257  21.784  1.00  0.00     0.251 C 
ATOM      7  O   UNL A   1      32.978  25.425  20.613  1.00  0.00    -0.270 OA
ATOM      8  H   UNL A   1      31.399  26.741  21.508  1.00  0.00     0.163 HD
BRANCH   6   9
ATOM      9  C   UNL A   1      33.268  24.185  22.601  1.00  0.00     0.067 C 
ATOM     10  C   UNL A   1      35.030  20.950  24.663  1.00  0.00     0.018 A 
ATOM     11  C   UNL A   1      34.290  19.775  24.842  1.00  0.00     0.032 A 
ATOM     12  C   UNL A   1      34.450  22.017  23.954  1.00  0.00     0.135 A 
ATOM     13  C   UNL A   1      33.010  19.666  24.299  1.00  0.00     0.042 A 
ATOM     14  C   UNL A   1      33.170  21.902  23.401  1.00  0.00     0.019 A 
ATOM     15  O   UNL A   1      35.208  23.140  23.770  1.00  0.00    -0.475 OA
ATOM     16  Cl  UNL A   1      32.114  18.211  24.518  1.00  0.00    -0.084 Cl
ATOM     17  C   UNL A   1      32.448  20.718  23.577  1.00  0.00     0.032 A 
ATOM     18  C   UNL A   1      32.626  23.001  22.611  1.00  0.00     0.025 C 
ATOM     19  C   UNL A   1      34.519  24.365  23.412  1.00  0.00     0.314 C 
BRANCH  10  20
ATOM     20  C   UNL A   1      36.372  21.092  25.249  1.00  0.00     0.004 C 
ATOM     21  C   UNL A   1      37.413  20.314  24.926  1.00  0.00     0.009 C 
ENDBRANCH  10  20
BRANCH  19  22
ATOM     22  C   UNL A   1      34.288  25.203  24.682  1.00  0.00     0.429 C 
ATOM     23  F   UNL A   1      35.282  24.994  25.578  1.00  0.00    -0.167 F 
ATOM     24  F   UNL A   1      34.269  26.532  24.428  1.00  0.00    -0.167 F 
ATOM     25  F   UNL A   1      33.119  24.900  25.290  1.00  0.00    -0.167 F 
ENDBRANCH  19  22
ENDBRANCH   6   9
ENDBRANCH   4   5
ENDBRANCH   3   4
ENDBRANCH   2   3
ENDBRANCH   1   2
BRANCH   1  26
ATOM     26  C   UNL A   1      32.387  27.625  26.815  1.00  0.00     0.021 C 
BRANCH  26  27
ATOM     27  C   UNL A   1      33.721  28.268  27.173  1.00  0.00     0.116 C 
BRANCH  27  28
ATOM     28  N   UNL A   1      33.590  29.664  27.553  1.00  0.00    -0.352 N 
ATOM     29  C   UNL A   1      34.515  30.492  28.144  1.00  0.00     0.251 C 
ATOM     30  H   UNL A   1      32.716  30.075  27.359  1.00  0.00     0.163 HD
ATOM     31  O   UNL A   1      34.185  31.612  28.524  1.00  0.00    -0.269 OA
BRANCH  29  32
ATOM     32  C   UNL A   1      35.898  30.011  28.355  1.00  0.00     0.039 A 
ATOM     33  C   UNL A   1      36.309  29.554  29.611  1.00  0.00     0.014 A 
ATOM     34  C   UNL A   1      36.800  30.042  27.289  1.00  0.00     0.014 A 
ATOM     35  C   UNL A   1      37.655  29.278  29.836  1.00  0.00     0.010 A 
ATOM     36  C   UNL A   1      38.137  29.693  27.501  1.00  0.00     0.010 A 
ATOM     37  C   UNL A   1      38.585  29.353  28.787  1.00  0.00    -0.014 A 
BRANCH  37  38
ATOM     38  C   UNL A   1      40.020  29.083  29.062  1.00  0.00     0.031 A 
ATOM     39  C   UNL A   1      40.638  27.759  28.697  1.00  0.00     0.074 A 
ATOM     40  C   UNL A   1      40.782  30.057  29.597  1.00  0.00     0.049 A 
ATOM     41  N   UNL A   1      41.877  27.361  28.839  1.00  0.00    -0.248 NA
ATOM     42  C   UNL A   1      39.751  26.750  28.097  1.00  0.00     0.031 C 
ATOM     43  C   UNL A   1      40.299  31.381  29.991  1.00  0.00     0.029 A 
ATOM     44  N   UNL A   1      42.124  30.095  29.878  1.00  0.00    -0.354 N 
ATOM     45  C   UNL A   1      41.915  26.054  28.368  1.00  0.00     0.074 A 
ATOM     46  C   UNL A   1      40.570  25.715  27.957  1.00  0.00     0.031 C 
ATOM     47  C   UNL A   1      41.336  32.119  30.416  1.00  0.00     0.029 A 
ATOM     48  C   UNL A   1      42.547  31.305  30.375  1.00  0.00     0.049 A 
ATOM     49  H   UNL A   1      42.727  29.330  29.737  1.00  0.00     0.167 HD
ATOM     50  C   UNL A   1      42.977  25.217  28.278  1.00  0.00     0.037 A 
ATOM     51  C   UNL A   1      43.769  31.713  30.764  1.00  0.00     0.037 A 
ATOM     52  C   UNL A   1      44.320  25.567  28.662  1.00  0.00     0.049 A 
ATOM     53  C   UNL A   1      44.927  30.763  30.671  1.00  0.00     0.074 A 
ATOM     54  C   UNL A   1      45.468  24.799  28.573  1.00  0.00     0.029 A 
ATOM     55  N   UNL A   1      44.696  26.786  29.207  1.00  0.00    -0.354 N 
ATOM     56  N   UNL A   1      44.945  29.534  30.214  1.00  0.00    -0.248 NA
ATOM     57  C   UNL A   1      46.227  31.248  31.154  1.00  0.00     0.031 C 
ATOM     58  C   UNL A   1      46.533  25.540  29.096  1.00  0.00     0.029 A 
ATOM     59  C   UNL A   1      46.055  26.784  29.478  1.00  0.00     0.049 A 
ATOM     60  H   UNL A   1      44.089  27.541  29.376  1.00  0.00     0.167 HD
ATOM     61  C   UNL A   1      46.255  29.095  30.357  1.00  0.00     0.074 A 
ATOM     62  C   UNL A   1      47.006  30.200  30.921  1.00  0.00     0.031 C 
ATOM     63  C   UNL A   1      46.785  27.885  30.054  1.00  0.00     0.037 A 
BRANCH  50  64
ATOM     64  C   UNL A   1      42.730  23.830  27.751  1.00  0.00     0.058 A 
ATOM     65  C   UNL A   1      42.503  22.745  28.611  1.00  0.00     0.135 A 
ATOM     66  C   UNL A   1      42.676  23.594  26.368  1.00  0.00     0.135 A 
ATOM     67  F   UNL A   1      42.559  22.913  29.942  1.00  0.00    -0.206 F 
ATOM     68  C   UNL A   1      42.255  21.467  28.119  1.00  0.00     0.059 A 
ATOM     69  C   UNL A   1      42.409  22.328  25.853  1.00  0.00     0.059 A 
ATOM     70  F   UNL A   1      42.886  24.597  25.501  1.00  0.00    -0.206 F 
ATOM     71  C   UNL A   1      42.212  21.269  26.737  1.00  0.00     0.060 A 
BRANCH  71  72
ATOM     72  S   UNL A   1      41.889  19.604  26.114  1.00  0.00     0.124 S 
ATOM     73  O   UNL A   1      42.789  19.545  24.966  1.00  0.00    -0.237 OA
ATOM     74  O   UNL A   1      42.258  18.768  27.251  1.00  0.00    -0.237 OA
ATOM     75  O   UNL A   1      40.465  19.631  25.795  1.00  0.00    -0.744 OA
ENDBRANCH  71  72
ENDBRANCH  50  64
BRANCH  51  76
ATOM     76  C   UNL A   1      43.944  33.098  31.272  1.00  0.00     0.058 A 
ATOM     77  C   UNL A   1      43.870  33.376  32.643  1.00  0.00     0.135 A 
ATOM     78  C   UNL A   1      44.258  34.154  30.403  1.00  0.00     0.135 A 
ATOM     79  F   UNL A   1      43.566  32.400  33.511  1.00  0.00    -0.206 F 
ATOM     80  C   UNL A   1      44.113  34.653  33.139  1.00  0.00     0.059 A 
ATOM     81  C   UNL A   1      44.525  35.434  30.875  1.00  0.00     0.059 A 
ATOM     82  F   UNL A   1      44.352  33.932  29.082  1.00  0.00    -0.206 F 
ATOM     83  C   UNL A   1      44.452  35.673  32.247  1.00  0.00     0.060 A 
BRANCH  83  84
ATOM     84  S   UNL A   1      44.862  37.302  32.909  1.00  0.00     0.124 S 
ATOM     85  O   UNL A   1      44.164  37.285  34.189  1.00  0.00    -0.237 OA
ATOM     86  O   UNL A   1      46.320  37.247  32.976  1.00  0.00    -0.237 OA
ATOM     87  O   UNL A   1      44.324  38.216  31.907  1.00  0.00    -0.744 OA
ENDBRANCH  83  84
ENDBRANCH  51  76
BRANCH  63  88
ATOM     88  C   UNL A   1      48.247  27.684  30.333  1.00  0.00     0.058 A 
ATOM     89  C   UNL A   1      49.218  27.962  29.360  1.00  0.00     0.135 A 
ATOM     90  C   UNL A   1      48.684  27.271  31.602  1.00  0.00     0.135 A 
ATOM     91  F   UNL A   1      48.850  28.352  28.130  1.00  0.00    -0.206 F 
ATOM     92  C   UNL A   1      50.575  27.829  29.632  1.00  0.00     0.059 A 
ATOM     93  C   UNL A   1      50.037  27.151  31.902  1.00  0.00     0.059 A 
ATOM     94  F   UNL A   1      47.792  27.000  32.569  1.00  0.00    -0.206 F 
ATOM     95  C   UNL A   1      50.975  27.425  30.907  1.00  0.00     0.060 A 
BRANCH  95  96
ATOM     96  S   UNL A   1      52.741  27.300  31.261  1.00  0.00     0.124 S 
ATOM     97  O   UNL A   1      53.298  28.262  30.315  1.00  0.00    -0.237 OA
ATOM     98  O   UNL A   1      52.807  27.684  32.667  1.00  0.00    -0.237 OA
ATOM     99  O   UNL A   1      53.045  25.900  30.983  1.00  0.00    -0.744 OA
ENDBRANCH  95  96
ENDBRANCH  63  88
ENDBRANCH  37  38
ENDBRANCH  29  32
ENDBRANCH  27  28
ENDBRANCH  26  27
ENDBRANCH   1  26
TORSDOF 18
ENDMDL
MODEL 3
REMARK VINA RESULT:     -11.4      1.512      8.213
REMARK SMILES C=Cc1cc(Cl)cc2c1O[C@H](C(F)(F)F)C(C(=O)NCCCCCCNC(=O)c1ccc(-c3c4nc(c(-c5c(F)cc(S(=O)(=O)[O-])cc5F)c5ccc([nH]5)c(-c5c(F)cc(S(=O)(=O)[O-])cc5F)c5nc(c(-c6c(F)cc(S(=O)(=O)[O-])cc6F)c6ccc3[nH]6)C=C5)C=C4)cc1)=C2
REMARK SMILES IDX 23 1 22 2 21 3 20 4 19 5 17 6 18 7 16 9 3 10 4 11 9 12 5 13
REMARK SMILES IDX 8 14 10 15 6 16 7 17 95 18 11 19 2 20 1 21 12 22 13 23 14 24
REMARK SMILES IDX 15 25 24 26 25 27 26 28 27 29 28 31 29 32 30 33 94 34 31 35
REMARK SMILES IDX 93 36 32 37 33 38 34 39 87 40 35 41 92 42 86 43 88 44 36 45
REMARK SMILES IDX 91 46 85 47 84 48 37 50 71 51 50 52 70 53 51 54 54 55 69 56
REMARK SMILES IDX 89 57 52 58 53 59 68 61 90 62 55 63 38 64 39 65 48 66 40 67
REMARK SMILES IDX 41 68 47 69 49 70 42 71 43 72 44 73 45 74 46 75 72 76 73 77
REMARK SMILES IDX 82 78 74 79 75 80 81 81 83 82 76 83 77 84 78 85 79 86 80 87
REMARK SMILES IDX 56 88 57 89 66 90 58 91 59 92 65 93 67 94 60 95 61 96 62 97
REMARK SMILES IDX 63 98 64 99
REMARK H PARENT 19 8 26 30 88 49 54 60
REMARK Flexibility Score: inf
ROOT
ATOM      1  C   UNL A   1      31.895  28.641  25.408  1.00  0.00     0.002 C 
ENDROOT
BRANCH   1   2
ATOM      2  C   UNL A   1      32.528  28.852  24.026  1.00  0.00     0.002 C 
BRANCH   2   3
ATOM      3  C   UNL A   1      31.551  28.891  22.844  1.00  0.00     0.021 C 
BRANCH   3   4
ATOM      4  C   UNL A   1      30.915  27.544  22.508  1.00  0.00     0.116 C 
BRANCH   4   5
ATOM      5  N   UNL A   1      31.701  26.799  21.537  1.00  0.00    -0.352 N 
ATOM      6  C   UNL A   1      32.550  25.746  21.543  1.00  0.00     0.251 C 
ATOM      7  O   UNL A   1      32.987  25.423  20.433  1.00  0.00    -0.270 OA
ATOM      8  H   UNL A   1      31.583  27.161  20.629  1.00  0.00     0.163 HD
BRANCH   6   9
ATOM      9  C   UNL A   1      32.984  24.982  22.752  1.00  0.00     0.067 C 
ATOM     10  C   UNL A   1      34.505  22.948  26.125  1.00  0.00     0.018 A 
ATOM     11  C   UNL A   1      35.647  22.153  25.980  1.00  0.00     0.032 A 
ATOM     12  C   UNL A   1      34.015  23.644  25.005  1.00  0.00     0.135 A 
ATOM     13  C   UNL A   1      36.296  22.079  24.747  1.00  0.00     0.042 A 
ATOM     14  C   UNL A   1      34.672  23.578  23.773  1.00  0.00     0.019 A 
ATOM     15  O   UNL A   1      32.915  24.437  25.186  1.00  0.00    -0.475 OA
ATOM     16  Cl  UNL A   1      37.706  21.103  24.583  1.00  0.00    -0.084 Cl
ATOM     17  C   UNL A   1      35.819  22.790  23.646  1.00  0.00     0.032 A 
ATOM     18  C   UNL A   1      34.178  24.368  22.650  1.00  0.00     0.025 C 
ATOM     19  C   UNL A   1      32.169  24.832  24.006  1.00  0.00     0.314 C 
BRANCH  10  20
ATOM     20  C   UNL A   1      33.795  23.018  27.411  1.00  0.00     0.004 C 
ATOM     21  C   UNL A   1      33.114  21.996  27.944  1.00  0.00     0.009 C 
ENDBRANCH  10  20
BRANCH  19  22
ATOM     22  C   UNL A   1      30.972  23.882  23.826  1.00  0.00     0.429 C 
ATOM     23  F   UNL A   1      30.532  23.436  25.027  1.00  0.00    -0.167 F 
ATOM     24  F   UNL A   1      29.919  24.486  23.228  1.00  0.00    -0.167 F 
ATOM     25  F   UNL A   1      31.284  22.800  23.077  1.00  0.00    -0.167 F 
ENDBRANCH  19  22
ENDBRANCH   6   9
ENDBRANCH   4   5
ENDBRANCH   3   4
ENDBRANCH   2   3
ENDBRANCH   1   2
BRANCH   1  26
ATOM     26  C   UNL A   1      32.669  27.734  26.368  1.00  0.00     0.021 C 
BRANCH  26  27
ATOM     27  C   UNL A   1      33.971  28.316  26.903  1.00  0.00     0.116 C 
BRANCH  27  28
ATOM     28  N   UNL A   1      33.803  29.644  27.468  1.00  0.00    -0.352 N 
ATOM     29  C   UNL A   1      34.699  30.397  28.192  1.00  0.00     0.251 C 
ATOM     30  H   UNL A   1      32.927  30.064  27.310  1.00  0.00     0.163 HD
ATOM     31  O   UNL A   1      34.338  31.449  28.714  1.00  0.00    -0.269 OA
BRANCH  29  32
ATOM     32  C   UNL A   1      36.085  29.914  28.371  1.00  0.00     0.039 A 
ATOM     33  C   UNL A   1      36.494  29.357  29.586  1.00  0.00     0.014 A 
ATOM     34  C   UNL A   1      36.993  30.044  27.318  1.00  0.00     0.014 A 
ATOM     35  C   UNL A   1      37.841  29.075  29.796  1.00  0.00     0.010 A 
ATOM     36  C   UNL A   1      38.332  29.691  27.507  1.00  0.00     0.010 A 
ATOM     37  C   UNL A   1      38.776  29.248  28.764  1.00  0.00    -0.014 A 
BRANCH  37  38
ATOM     38  C   UNL A   1      40.212  28.970  29.024  1.00  0.00     0.031 A 
ATOM     39  C   UNL A   1      40.819  27.642  28.653  1.00  0.00     0.074 A 
ATOM     40  C   UNL A   1      40.985  29.939  29.551  1.00  0.00     0.049 A 
ATOM     41  N   UNL A   1      42.057  27.237  28.783  1.00  0.00    -0.248 NA
ATOM     42  C   UNL A   1      39.920  26.637  28.064  1.00  0.00     0.031 C 
ATOM     43  C   UNL A   1      40.514  31.267  29.949  1.00  0.00     0.029 A 
ATOM     44  N   UNL A   1      42.330  29.971  29.818  1.00  0.00    -0.354 N 
ATOM     45  C   UNL A   1      42.083  25.930  28.314  1.00  0.00     0.074 A 
ATOM     46  C   UNL A   1      40.731  25.598  27.916  1.00  0.00     0.031 C 
ATOM     47  C   UNL A   1      41.559  31.999  30.362  1.00  0.00     0.029 A 
ATOM     48  C   UNL A   1      42.765  31.178  30.310  1.00  0.00     0.049 A 
ATOM     49  H   UNL A   1      42.927  29.201  29.672  1.00  0.00     0.167 HD
ATOM     50  C   UNL A   1      43.139  25.087  28.213  1.00  0.00     0.037 A 
ATOM     51  C   UNL A   1      43.993  31.580  30.687  1.00  0.00     0.037 A 
ATOM     52  C   UNL A   1      44.488  25.429  28.583  1.00  0.00     0.049 A 
ATOM     53  C   UNL A   1      45.145  30.623  30.582  1.00  0.00     0.074 A 
ATOM     54  C   UNL A   1      45.630  24.654  28.484  1.00  0.00     0.029 A 
ATOM     55  N   UNL A   1      44.877  26.646  29.124  1.00  0.00    -0.354 N 
ATOM     56  N   UNL A   1      45.151  29.393  30.127  1.00  0.00    -0.248 NA
ATOM     57  C   UNL A   1      46.452  31.101  31.052  1.00  0.00     0.031 C 
ATOM     58  C   UNL A   1      46.705  25.389  28.995  1.00  0.00     0.029 A 
ATOM     59  C   UNL A   1      46.238  26.636  29.381  1.00  0.00     0.049 A 
ATOM     60  H   UNL A   1      44.275  27.405  29.298  1.00  0.00     0.167 HD
ATOM     61  C   UNL A   1      46.460  28.947  30.257  1.00  0.00     0.074 A 
ATOM     62  C   UNL A   1      47.223  30.048  30.812  1.00  0.00     0.031 C 
ATOM     63  C   UNL A   1      46.980  27.734  29.948  1.00  0.00     0.037 A 
BRANCH  50  64
ATOM     64  C   UNL A   1      42.879  23.701  27.689  1.00  0.00     0.058 A 
ATOM     65  C   UNL A   1      42.530  22.644  28.544  1.00  0.00     0.135 A 
ATOM     66  C   UNL A   1      42.937  23.438  26.311  1.00  0.00     0.135 A 
ATOM     67  F   UNL A   1      42.475  22.837  29.872  1.00  0.00    -0.206 F 
ATOM     68  C   UNL A   1      42.270  21.368  28.053  1.00  0.00     0.059 A 
ATOM     69  C   UNL A   1      42.661  22.175  25.796  1.00  0.00     0.059 A 
ATOM     70  F   UNL A   1      43.266  24.414  25.450  1.00  0.00    -0.206 F 
ATOM     71  C   UNL A   1      42.340  21.143  26.677  1.00  0.00     0.060 A 
BRANCH  71  72
ATOM     72  S   UNL A   1      42.001  19.482  26.056  1.00  0.00     0.124 S 
ATOM     73  O   UNL A   1      42.395  18.660  27.196  1.00  0.00    -0.237 OA
ATOM     74  O   UNL A   1      40.569  19.537  25.781  1.00  0.00    -0.237 OA
ATOM     75  O   UNL A   1      42.859  19.376  24.880  1.00  0.00    -0.744 OA
ENDBRANCH  71  72
ENDBRANCH  50  64
BRANCH  51  76
ATOM     76  C   UNL A   1      44.181  32.963  31.192  1.00  0.00     0.058 A 
ATOM     77  C   UNL A   1      44.534  34.005  30.324  1.00  0.00     0.135 A 
ATOM     78  C   UNL A   1      43.942  33.282  32.538  1.00  0.00     0.135 A 
ATOM     79  F   UNL A   1      44.779  33.747  29.030  1.00  0.00    -0.206 F 
ATOM     80  C   UNL A   1      44.633  35.319  30.769  1.00  0.00     0.059 A 
ATOM     81  C   UNL A   1      44.014  34.590  33.003  1.00  0.00     0.059 A 
ATOM     82  F   UNL A   1      43.589  32.318  33.403  1.00  0.00    -0.206 F 
ATOM     83  C   UNL A   1      44.359  35.603  32.109  1.00  0.00     0.060 A 
BRANCH  83  84
ATOM     84  S   UNL A   1      44.393  37.324  32.655  1.00  0.00     0.124 S 
ATOM     85  O   UNL A   1      43.942  38.023  31.456  1.00  0.00    -0.237 OA
ATOM     86  O   UNL A   1      43.456  37.308  33.774  1.00  0.00    -0.237 OA
ATOM     87  O   UNL A   1      45.790  37.532  33.021  1.00  0.00    -0.744 OA
ENDBRANCH  83  84
ENDBRANCH  51  76
BRANCH  63  88
ATOM     88  C   UNL A   1      48.444  27.524  30.214  1.00  0.00     0.058 A 
ATOM     89  C   UNL A   1      48.889  26.941  31.408  1.00  0.00     0.135 A 
ATOM     90  C   UNL A   1      49.402  27.850  29.241  1.00  0.00     0.135 A 
ATOM     91  F   UNL A   1      48.012  26.619  32.372  1.00  0.00    -0.206 F 
ATOM     92  C   UNL A   1      50.239  26.695  31.636  1.00  0.00     0.059 A 
ATOM     93  C   UNL A   1      50.755  27.595  29.439  1.00  0.00     0.059 A 
ATOM     94  F   UNL A   1      49.023  28.404  28.078  1.00  0.00    -0.206 F 
ATOM     95  C   UNL A   1      51.165  27.023  30.643  1.00  0.00     0.060 A 
BRANCH  95  96
ATOM     96  S   UNL A   1      52.909  26.658  30.932  1.00  0.00     0.124 S 
ATOM     97  O   UNL A   1      52.823  25.536  31.862  1.00  0.00    -0.237 OA
ATOM     98  O   UNL A   1      53.387  26.335  29.592  1.00  0.00    -0.237 OA
ATOM     99  O   UNL A   1      53.427  27.901  31.495  1.00  0.00    -0.744 OA
ENDBRANCH  95  96
ENDBRANCH  63  88
ENDBRANCH  37  38
ENDBRANCH  29  32
ENDBRANCH  27  28
ENDBRANCH  26  27
ENDBRANCH   1  26
TORSDOF 18
ENDMDL
