MODEL 1
REMARK VINA RESULT:      -9.5      0.000      0.000
REMARK SMILES COC(=O)[C@H]1CC[C@]2(C)[C@H](CC[C@]3(C)[C@H]2CC=C2[C@H]4CC(C)(C)CC[C@]4(C(=O)NCCCCCCNC(=O)c4ccc(-c5c6nc(c(-c7c(F)cc(S(=O)(=O)[O-])cc7F)c7ccc([nH]7)c(-c7c(F)cc(S(=O)(=O)[O-])cc7F)c7nc(c(-c8c(F)cc(S(=O)(=O)[O-])cc8F)c8ccc5[nH]8)C=C7)C=C6)cc4)CC[C@@]23C)C1(C)C
REMARK SMILES IDX 33 1 32 2 31 3 30 4 29 5 27 6 28 7 26 9 5 10 6 11 109 12
REMARK SMILES IDX 7 13 10 14 110 15 111 16 8 17 11 18 15 19 9 20 12 21 16 22
REMARK SMILES IDX 13 23 17 24 107 25 14 26 18 27 106 28 108 29 19 30 105 31
REMARK SMILES IDX 20 32 21 33 25 34 24 35 22 36 23 37 3 38 4 39 2 40 1 41
REMARK SMILES IDX 34 42 35 43 36 44 37 45 38 47 39 48 40 49 104 50 41 51
REMARK SMILES IDX 103 52 42 53 43 54 44 55 97 56 45 57 102 58 96 59 98 60
REMARK SMILES IDX 46 61 101 62 95 63 94 64 47 66 81 67 60 68 80 69 61 70 64 71
REMARK SMILES IDX 79 72 99 73 62 74 63 75 78 77 100 78 65 79 48 80 49 81 58 82
REMARK SMILES IDX 50 83 51 84 57 85 59 86 52 87 53 88 54 89 55 90 56 91 82 92
REMARK SMILES IDX 83 93 92 94 84 95 85 96 91 97 93 98 86 99 87 100 88 101
REMARK SMILES IDX 89 102 90 103 66 104 67 105 76 106 68 107 69 108 75 109
REMARK SMILES IDX 77 110 70 111 71 112 72 113 73 114 74 115
REMARK H PARENT 29 8 36 46 98 65 64 76
REMARK Flexibility Score: inf
ROOT
ATOM      1  C   UNL A   1      35.988  30.150  27.656  1.00  0.00     0.002 C 
ENDROOT
BRANCH   1   2
ATOM      2  C   UNL A   1      36.584  29.586  28.950  1.00  0.00     0.002 C 
BRANCH   2   3
ATOM      3  C   UNL A   1      38.061  29.902  29.204  1.00  0.00     0.021 C 
BRANCH   3   4
ATOM      4  C   UNL A   1      38.982  28.688  29.216  1.00  0.00     0.116 C 
BRANCH   4   5
ATOM      5  N   UNL A   1      39.525  28.443  27.909  1.00  0.00    -0.356 N 
ATOM      6  C   UNL A   1      40.821  28.535  27.530  1.00  0.00     0.226 C 
ATOM      7  O   UNL A   1      40.975  28.994  26.393  1.00  0.00    -0.274 OA
ATOM      8  H   UNL A   1      38.884  28.179  27.211  1.00  0.00     0.163 HD
BRANCH   6   9
ATOM      9  C   UNL A   1      42.000  27.933  28.347  1.00  0.00     0.056 C 
ATOM     10  C   UNL A   1      49.825  26.498  26.523  1.00  0.00     0.105 C 
ATOM     11  C   UNL A   1      49.298  25.894  25.186  1.00  0.00     0.016 C 
ATOM     12  C   UNL A   1      48.710  27.360  27.214  1.00  0.00    -0.019 C 
ATOM     13  C   UNL A   1      47.915  25.210  25.242  1.00  0.00     0.008 C 
ATOM     14  C   UNL A   1      47.453  26.344  27.361  1.00  0.00     0.002 C 
ATOM     15  C   UNL A   1      48.646  28.666  26.347  1.00  0.00     0.012 C 
ATOM     16  C   UNL A   1      49.070  27.971  28.592  1.00  0.00     0.012 C 
ATOM     17  C   UNL A   1      46.785  25.985  26.004  1.00  0.00    -0.026 C 
ATOM     18  C   UNL A   1      46.424  26.675  28.421  1.00  0.00     0.005 C 
ATOM     19  C   UNL A   1      45.509  25.004  26.089  1.00  0.00     0.006 C 
ATOM     20  C   UNL A   1      46.443  27.285  25.233  1.00  0.00     0.012 C 
ATOM     21  C   UNL A   1      45.410  25.569  28.707  1.00  0.00     0.008 C 
ATOM     22  C   UNL A   1      44.494  25.269  24.899  1.00  0.00     0.032 C 
ATOM     23  C   UNL A   1      44.756  24.798  27.514  1.00  0.00    -0.020 C 
ATOM     24  C   UNL A   1      43.484  26.365  25.271  1.00  0.00    -0.027 C 
ATOM     25  C   UNL A   1      43.163  25.133  27.353  1.00  0.00    -0.006 C 
ATOM     26  C   UNL A   1      44.942  23.292  27.908  1.00  0.00     0.012 C 
ATOM     27  C   UNL A   1      43.155  26.457  26.573  1.00  0.00    -0.064 C 
ATOM     28  C   UNL A   1      42.277  25.262  28.640  1.00  0.00     0.013 C 
ATOM     29  C   UNL A   1      42.436  23.932  26.593  1.00  0.00     0.017 C 
ATOM     30  C   UNL A   1      43.191  27.761  27.406  1.00  0.00     0.031 C 
ATOM     31  C   UNL A   1      41.747  26.625  29.141  1.00  0.00     0.018 C 
ATOM     32  C   UNL A   1      43.633  29.126  26.794  1.00  0.00     0.015 C 
ATOM     33  C   UNL A   1      44.021  30.211  27.867  1.00  0.00    -0.035 C 
ATOM     34  C   UNL A   1      42.387  28.994  29.447  1.00  0.00     0.018 C 
ATOM     35  C   UNL A   1      42.947  30.334  28.961  1.00  0.00     0.007 C 
ATOM     36  C   UNL A   1      44.197  31.581  27.181  1.00  0.00     0.011 C 
ATOM     37  C   UNL A   1      45.368  29.920  28.560  1.00  0.00     0.011 C 
BRANCH  10  38
ATOM     38  C   UNL A   1      50.392  25.402  27.431  1.00  0.00     0.309 C 
ATOM     39  O   UNL A   1      49.842  24.356  27.705  1.00  0.00    -0.252 OA
BRANCH  38  40
ATOM     40  O   UNL A   1      51.610  25.785  27.909  1.00  0.00    -0.469 OA
ATOM     41  C   UNL A   1      52.712  25.569  27.028  1.00  0.00     0.282 C 
ENDBRANCH  38  40
ENDBRANCH  10  38
ENDBRANCH   6   9
ENDBRANCH   4   5
ENDBRANCH   3   4
ENDBRANCH   2   3
ENDBRANCH   1   2
BRANCH   1  42
ATOM     42  C   UNL A   1      34.842  31.150  27.819  1.00  0.00     0.021 C 
BRANCH  42  43
ATOM     43  C   UNL A   1      34.547  31.571  29.249  1.00  0.00     0.116 C 
BRANCH  43  44
ATOM     44  N   UNL A   1      34.012  32.912  29.359  1.00  0.00    -0.352 N 
ATOM     45  C   UNL A   1      34.698  34.065  29.650  1.00  0.00     0.251 C 
ATOM     46  H   UNL A   1      33.044  33.008  29.206  1.00  0.00     0.163 HD
ATOM     47  O   UNL A   1      34.102  35.125  29.797  1.00  0.00    -0.269 OA
BRANCH  45  48
ATOM     48  C   UNL A   1      36.163  33.993  29.829  1.00  0.00     0.039 A 
ATOM     49  C   UNL A   1      36.688  34.161  31.111  1.00  0.00     0.014 A 
ATOM     50  C   UNL A   1      37.005  33.704  28.750  1.00  0.00     0.014 A 
ATOM     51  C   UNL A   1      38.058  33.995  31.317  1.00  0.00     0.010 A 
ATOM     52  C   UNL A   1      38.353  33.453  28.973  1.00  0.00     0.010 A 
ATOM     53  C   UNL A   1      38.896  33.612  30.257  1.00  0.00    -0.014 A 
BRANCH  53  54
ATOM     54  C   UNL A   1      40.348  33.399  30.472  1.00  0.00     0.031 A 
ATOM     55  C   UNL A   1      40.815  32.269  31.351  1.00  0.00     0.074 A 
ATOM     56  C   UNL A   1      41.236  34.247  29.916  1.00  0.00     0.049 A 
ATOM     57  N   UNL A   1      42.033  31.937  31.691  1.00  0.00    -0.248 NA
ATOM     58  C   UNL A   1      39.775  31.413  31.950  1.00  0.00     0.031 C 
ATOM     59  C   UNL A   1      40.895  35.408  29.088  1.00  0.00     0.029 A 
ATOM     60  N   UNL A   1      42.608  34.269  29.961  1.00  0.00    -0.354 N 
ATOM     61  C   UNL A   1      41.904  30.855  32.553  1.00  0.00     0.074 A 
ATOM     62  C   UNL A   1      40.491  30.612  32.726  1.00  0.00     0.031 C 
ATOM     63  C   UNL A   1      42.026  36.006  28.678  1.00  0.00     0.029 A 
ATOM     64  C   UNL A   1      43.170  35.302  29.246  1.00  0.00     0.049 A 
ATOM     65  H   UNL A   1      43.139  33.607  30.459  1.00  0.00     0.167 HD
ATOM     66  C   UNL A   1      42.882  30.116  33.129  1.00  0.00     0.037 A 
ATOM     67  C   UNL A   1      44.462  35.640  29.074  1.00  0.00     0.037 A 
ATOM     68  C   UNL A   1      44.286  30.339  32.911  1.00  0.00     0.049 A 
ATOM     69  C   UNL A   1      45.527  34.794  29.724  1.00  0.00     0.074 A 
ATOM     70  C   UNL A   1      45.355  29.595  33.378  1.00  0.00     0.029 A 
ATOM     71  N   UNL A   1      44.816  31.383  32.167  1.00  0.00    -0.354 N 
ATOM     72  N   UNL A   1      45.387  33.719  30.464  1.00  0.00    -0.248 NA
ATOM     73  C   UNL A   1      46.922  35.200  29.512  1.00  0.00     0.031 C 
ATOM     74  C   UNL A   1      46.533  30.223  32.966  1.00  0.00     0.029 A 
ATOM     75  C   UNL A   1      46.199  31.321  32.190  1.00  0.00     0.049 A 
ATOM     76  H   UNL A   1      44.289  32.066  31.694  1.00  0.00     0.167 HD
ATOM     77  C   UNL A   1      46.678  33.302  30.773  1.00  0.00     0.074 A 
ATOM     78  C   UNL A   1      47.582  34.232  30.129  1.00  0.00     0.031 C 
ATOM     79  C   UNL A   1      47.081  32.246  31.522  1.00  0.00     0.037 A 
BRANCH  66  80
ATOM     80  C   UNL A   1      42.479  28.994  34.046  1.00  0.00     0.058 A 
ATOM     81  C   UNL A   1      42.415  27.662  33.605  1.00  0.00     0.135 A 
ATOM     82  C   UNL A   1      42.233  29.246  35.405  1.00  0.00     0.135 A 
ATOM     83  F   UNL A   1      42.622  27.366  32.312  1.00  0.00    -0.206 F 
ATOM     84  C   UNL A   1      42.116  26.622  34.479  1.00  0.00     0.059 A 
ATOM     85  C   UNL A   1      41.960  28.218  36.303  1.00  0.00     0.059 A 
ATOM     86  F   UNL A   1      42.272  30.502  35.877  1.00  0.00    -0.206 F 
ATOM     87  C   UNL A   1      41.900  26.909  35.828  1.00  0.00     0.060 A 
BRANCH  87  88
ATOM     88  S   UNL A   1      41.567  25.540  36.957  1.00  0.00     0.124 S 
ATOM     89  O   UNL A   1      41.374  24.433  36.024  1.00  0.00    -0.237 OA
ATOM     90  O   UNL A   1      42.790  25.491  37.753  1.00  0.00    -0.237 OA
ATOM     91  O   UNL A   1      40.371  25.971  37.674  1.00  0.00    -0.744 OA
ENDBRANCH  87  88
ENDBRANCH  66  80
BRANCH  67  92
ATOM     92  C   UNL A   1      44.834  36.823  28.249  1.00  0.00     0.058 A 
ATOM     93  C   UNL A   1      44.687  38.128  28.747  1.00  0.00     0.135 A 
ATOM     94  C   UNL A   1      45.309  36.678  26.937  1.00  0.00     0.135 A 
ATOM     95  F   UNL A   1      44.236  38.322  29.995  1.00  0.00    -0.206 F 
ATOM     96  C   UNL A   1      44.954  39.244  27.961  1.00  0.00     0.059 A 
ATOM     97  C   UNL A   1      45.614  37.778  26.141  1.00  0.00     0.059 A 
ATOM     98  F   UNL A   1      45.490  35.453  26.417  1.00  0.00    -0.206 F 
ATOM     99  C   UNL A   1      45.411  39.058  26.656  1.00  0.00     0.060 A 
BRANCH  99 100
ATOM    100  S   UNL A   1      45.750  40.513  25.640  1.00  0.00     0.124 S 
ATOM    101  O   UNL A   1      44.402  40.957  25.307  1.00  0.00    -0.237 OA
ATOM    102  O   UNL A   1      46.496  41.364  26.562  1.00  0.00    -0.237 OA
ATOM    103  O   UNL A   1      46.530  39.972  24.530  1.00  0.00    -0.744 OA
ENDBRANCH  99 100
ENDBRANCH  67  92
BRANCH  79 104
ATOM    104  C   UNL A   1      48.560  32.005  31.645  1.00  0.00     0.058 A 
ATOM    105  C   UNL A   1      49.286  31.333  30.650  1.00  0.00     0.135 A 
ATOM    106  C   UNL A   1      49.268  32.507  32.750  1.00  0.00     0.135 A 
ATOM    107  F   UNL A   1      48.656  30.830  29.576  1.00  0.00    -0.206 F 
ATOM    108  C   UNL A   1      50.659  31.142  30.759  1.00  0.00     0.059 A 
ATOM    109  C   UNL A   1      50.646  32.357  32.863  1.00  0.00     0.059 A 
ATOM    110  F   UNL A   1      48.622  33.169  33.724  1.00  0.00    -0.206 F 
ATOM    111  C   UNL A   1      51.331  31.661  31.868  1.00  0.00     0.060 A 
BRANCH 111 112
ATOM    112  S   UNL A   1      53.117  31.437  31.978  1.00  0.00     0.124 S 
ATOM    113  O   UNL A   1      53.365  30.510  30.879  1.00  0.00    -0.237 OA
ATOM    114  O   UNL A   1      53.614  32.796  31.786  1.00  0.00    -0.237 OA
ATOM    115  O   UNL A   1      53.310  30.889  33.318  1.00  0.00    -0.744 OA
ENDBRANCH 111 112
ENDBRANCH  79 104
ENDBRANCH  53  54
ENDBRANCH  45  48
ENDBRANCH  43  44
ENDBRANCH  42  43
ENDBRANCH   1  42
TORSDOF 18
ENDMDL
MODEL 2
REMARK VINA RESULT:      -9.4      3.698      9.881
REMARK SMILES COC(=O)[C@H]1CC[C@]2(C)[C@H](CC[C@]3(C)[C@H]2CC=C2[C@H]4CC(C)(C)CC[C@]4(C(=O)NCCCCCCNC(=O)c4ccc(-c5c6nc(c(-c7c(F)cc(S(=O)(=O)[O-])cc7F)c7ccc([nH]7)c(-c7c(F)cc(S(=O)(=O)[O-])cc7F)c7nc(c(-c8c(F)cc(S(=O)(=O)[O-])cc8F)c8ccc5[nH]8)C=C7)C=C6)cc4)CC[C@@]23C)C1(C)C
REMARK SMILES IDX 33 1 32 2 31 3 30 4 29 5 27 6 28 7 26 9 5 10 6 11 109 12
REMARK SMILES IDX 7 13 10 14 110 15 111 16 8 17 11 18 15 19 9 20 12 21 16 22
REMARK SMILES IDX 13 23 17 24 107 25 14 26 18 27 106 28 108 29 19 30 105 31
REMARK SMILES IDX 20 32 21 33 25 34 24 35 22 36 23 37 3 38 4 39 2 40 1 41
REMARK SMILES IDX 34 42 35 43 36 44 37 45 38 47 39 48 40 49 104 50 41 51
REMARK SMILES IDX 103 52 42 53 43 54 44 55 97 56 45 57 102 58 96 59 98 60
REMARK SMILES IDX 46 61 101 62 95 63 94 64 47 66 81 67 60 68 80 69 61 70 64 71
REMARK SMILES IDX 79 72 99 73 62 74 63 75 78 77 100 78 65 79 48 80 49 81 58 82
REMARK SMILES IDX 50 83 51 84 57 85 59 86 52 87 53 88 54 89 55 90 56 91 82 92
REMARK SMILES IDX 83 93 92 94 84 95 85 96 91 97 93 98 86 99 87 100 88 101
REMARK SMILES IDX 89 102 90 103 66 104 67 105 76 106 68 107 69 108 75 109
REMARK SMILES IDX 77 110 70 111 71 112 72 113 73 114 74 115
REMARK H PARENT 29 8 36 46 98 65 64 76
REMARK Flexibility Score: inf
ROOT
ATOM      1  C   UNL A   1      39.194  34.367  33.346  1.00  0.00     0.002 C 
ENDROOT
BRANCH   1   2
ATOM      2  C   UNL A   1      39.800  32.970  33.513  1.00  0.00     0.002 C 
BRANCH   2   3
ATOM      3  C   UNL A   1      41.247  32.803  33.038  1.00  0.00     0.021 C 
BRANCH   3   4
ATOM      4  C   UNL A   1      42.303  33.033  34.113  1.00  0.00     0.116 C 
BRANCH   4   5
ATOM      5  N   UNL A   1      43.624  33.001  33.550  1.00  0.00    -0.356 N 
ATOM      6  C   UNL A   1      44.786  32.767  34.201  1.00  0.00     0.226 C 
ATOM      7  O   UNL A   1      45.731  33.451  33.793  1.00  0.00    -0.274 OA
ATOM      8  H   UNL A   1      43.691  33.169  32.583  1.00  0.00     0.163 HD
BRANCH   6   9
ATOM      9  C   UNL A   1      44.981  31.609  35.222  1.00  0.00     0.056 C 
ATOM     10  C   UNL A   1      46.191  23.588  34.316  1.00  0.00     0.105 C 
ATOM     11  C   UNL A   1      45.040  23.636  33.264  1.00  0.00     0.016 C 
ATOM     12  C   UNL A   1      46.724  25.035  34.612  1.00  0.00    -0.019 C 
ATOM     13  C   UNL A   1      43.930  24.680  33.512  1.00  0.00     0.008 C 
ATOM     14  C   UNL A   1      45.404  25.862  35.066  1.00  0.00     0.002 C 
ATOM     15  C   UNL A   1      47.555  25.403  33.334  1.00  0.00     0.012 C 
ATOM     16  C   UNL A   1      47.829  25.150  35.692  1.00  0.00     0.012 C 
ATOM     17  C   UNL A   1      44.405  26.121  33.904  1.00  0.00    -0.026 C 
ATOM     18  C   UNL A   1      45.628  27.106  35.900  1.00  0.00     0.005 C 
ATOM     19  C   UNL A   1      43.088  26.968  34.289  1.00  0.00     0.006 C 
ATOM     20  C   UNL A   1      45.154  26.761  32.708  1.00  0.00     0.012 C 
ATOM     21  C   UNL A   1      44.369  27.702  36.526  1.00  0.00     0.008 C 
ATOM     22  C   UNL A   1      42.547  27.794  33.046  1.00  0.00     0.032 C 
ATOM     23  C   UNL A   1      43.070  27.832  35.664  1.00  0.00    -0.020 C 
ATOM     24  C   UNL A   1      43.223  29.171  32.965  1.00  0.00    -0.027 C 
ATOM     25  C   UNL A   1      42.692  29.389  35.338  1.00  0.00    -0.006 C 
ATOM     26  C   UNL A   1      41.962  27.200  36.577  1.00  0.00     0.012 C 
ATOM     27  C   UNL A   1      43.588  29.728  34.136  1.00  0.00    -0.064 C 
ATOM     28  C   UNL A   1      42.868  30.469  36.460  1.00  0.00     0.013 C 
ATOM     29  C   UNL A   1      41.130  29.509  35.031  1.00  0.00     0.017 C 
ATOM     30  C   UNL A   1      44.995  30.292  34.448  1.00  0.00     0.031 C 
ATOM     31  C   UNL A   1      44.002  31.519  36.421  1.00  0.00     0.018 C 
ATOM     32  C   UNL A   1      46.154  30.258  33.405  1.00  0.00     0.015 C 
ATOM     33  C   UNL A   1      47.584  30.462  34.033  1.00  0.00    -0.035 C 
ATOM     34  C   UNL A   1      46.398  31.811  35.883  1.00  0.00     0.018 C 
ATOM     35  C   UNL A   1      47.621  31.681  34.970  1.00  0.00     0.007 C 
ATOM     36  C   UNL A   1      48.621  30.664  32.909  1.00  0.00     0.011 C 
ATOM     37  C   UNL A   1      48.073  29.238  34.832  1.00  0.00     0.011 C 
BRANCH  10  38
ATOM     38  C   UNL A   1      45.749  22.837  35.575  1.00  0.00     0.309 C 
ATOM     39  O   UNL A   1      44.888  23.199  36.349  1.00  0.00    -0.252 OA
BRANCH  38  40
ATOM     40  O   UNL A   1      46.486  21.699  35.713  1.00  0.00    -0.469 OA
ATOM     41  C   UNL A   1      45.780  20.567  36.221  1.00  0.00     0.282 C 
ENDBRANCH  38  40
ENDBRANCH  10  38
ENDBRANCH   6   9
ENDBRANCH   4   5
ENDBRANCH   3   4
ENDBRANCH   2   3
ENDBRANCH   1   2
BRANCH   1  42
ATOM     42  C   UNL A   1      37.864  34.442  32.593  1.00  0.00     0.021 C 
BRANCH  42  43
ATOM     43  C   UNL A   1      37.723  33.475  31.429  1.00  0.00     0.116 C 
BRANCH  43  44
ATOM     44  N   UNL A   1      36.672  32.496  31.614  1.00  0.00    -0.352 N 
ATOM     45  C   UNL A   1      36.716  31.156  31.318  1.00  0.00     0.251 C 
ATOM     46  H   UNL A   1      35.829  32.829  31.998  1.00  0.00     0.163 HD
ATOM     47  O   UNL A   1      35.719  30.456  31.446  1.00  0.00    -0.269 OA
BRANCH  45  48
ATOM     48  C   UNL A   1      37.976  30.586  30.797  1.00  0.00     0.039 A 
ATOM     49  C   UNL A   1      38.232  30.672  29.428  1.00  0.00     0.014 A 
ATOM     50  C   UNL A   1      38.921  30.022  31.661  1.00  0.00     0.014 A 
ATOM     51  C   UNL A   1      39.459  30.232  28.931  1.00  0.00     0.010 A 
ATOM     52  C   UNL A   1      40.174  29.667  31.177  1.00  0.00     0.010 A 
ATOM     53  C   UNL A   1      40.450  29.753  29.805  1.00  0.00    -0.014 A 
BRANCH  53  54
ATOM     54  C   UNL A   1      41.771  29.315  29.291  1.00  0.00     0.031 A 
ATOM     55  C   UNL A   1      42.909  30.299  29.223  1.00  0.00     0.074 A 
ATOM     56  C   UNL A   1      41.927  28.051  28.848  1.00  0.00     0.049 A 
ATOM     57  N   UNL A   1      44.125  30.122  28.777  1.00  0.00    -0.248 NA
ATOM     58  C   UNL A   1      42.639  31.669  29.693  1.00  0.00     0.031 C 
ATOM     59  C   UNL A   1      40.879  27.027  28.819  1.00  0.00     0.029 A 
ATOM     60  N   UNL A   1      43.027  27.409  28.335  1.00  0.00    -0.354 N 
ATOM     61  C   UNL A   1      44.754  31.356  28.893  1.00  0.00     0.074 A 
ATOM     62  C   UNL A   1      43.775  32.286  29.405  1.00  0.00     0.031 C 
ATOM     63  C   UNL A   1      41.395  25.880  28.347  1.00  0.00     0.029 A 
ATOM     64  C   UNL A   1      42.795  26.095  27.999  1.00  0.00     0.049 A 
ATOM     65  H   UNL A   1      43.900  27.849  28.218  1.00  0.00     0.167 HD
ATOM     66  C   UNL A   1      46.040  31.675  28.618  1.00  0.00     0.037 A 
ATOM     67  C   UNL A   1      43.620  25.173  27.467  1.00  0.00     0.037 A 
ATOM     68  C   UNL A   1      47.017  30.727  28.152  1.00  0.00     0.049 A 
ATOM     69  C   UNL A   1      45.048  25.558  27.178  1.00  0.00     0.074 A 
ATOM     70  C   UNL A   1      48.366  30.929  27.926  1.00  0.00     0.029 A 
ATOM     71  N   UNL A   1      46.749  29.403  27.840  1.00  0.00    -0.354 N 
ATOM     72  N   UNL A   1      45.649  26.708  27.378  1.00  0.00    -0.248 NA
ATOM     73  C   UNL A   1      45.913  24.523  26.596  1.00  0.00     0.031 C 
ATOM     74  C   UNL A   1      48.903  29.741  27.420  1.00  0.00     0.029 A 
ATOM     75  C   UNL A   1      47.903  28.783  27.392  1.00  0.00     0.049 A 
ATOM     76  H   UNL A   1      45.870  28.967  27.924  1.00  0.00     0.167 HD
ATOM     77  C   UNL A   1      46.969  26.520  26.983  1.00  0.00     0.074 A 
ATOM     78  C   UNL A   1      47.081  25.145  26.544  1.00  0.00     0.031 C 
ATOM     79  C   UNL A   1      47.997  27.404  26.980  1.00  0.00     0.037 A 
BRANCH  66  80
ATOM     80  C   UNL A   1      46.477  33.101  28.813  1.00  0.00     0.058 A 
ATOM     81  C   UNL A   1      46.399  34.049  27.780  1.00  0.00     0.135 A 
ATOM     82  C   UNL A   1      46.900  33.543  30.077  1.00  0.00     0.135 A 
ATOM     83  F   UNL A   1      46.020  33.677  26.547  1.00  0.00    -0.206 F 
ATOM     84  C   UNL A   1      46.734  35.383  27.992  1.00  0.00     0.059 A 
ATOM     85  C   UNL A   1      47.212  34.878  30.319  1.00  0.00     0.059 A 
ATOM     86  F   UNL A   1      47.000  32.677  31.098  1.00  0.00    -0.206 F 
ATOM     87  C   UNL A   1      47.129  35.789  29.268  1.00  0.00     0.060 A 
BRANCH  87  88
ATOM     88  S   UNL A   1      47.506  37.534  29.537  1.00  0.00     0.124 S 
ATOM     89  O   UNL A   1      46.417  37.934  30.423  1.00  0.00    -0.237 OA
ATOM     90  O   UNL A   1      48.830  37.474  30.148  1.00  0.00    -0.237 OA
ATOM     91  O   UNL A   1      47.463  38.104  28.193  1.00  0.00    -0.744 OA
ENDBRANCH  87  88
ENDBRANCH  66  80
BRANCH  67  92
ATOM     92  C   UNL A   1      43.135  23.795  27.179  1.00  0.00     0.058 A 
ATOM     93  C   UNL A   1      43.015  22.841  28.202  1.00  0.00     0.135 A 
ATOM     94  C   UNL A   1      42.816  23.391  25.874  1.00  0.00     0.135 A 
ATOM     95  F   UNL A   1      43.309  23.176  29.468  1.00  0.00    -0.206 F 
ATOM     96  C   UNL A   1      42.640  21.528  27.938  1.00  0.00     0.059 A 
ATOM     97  C   UNL A   1      42.408  22.091  25.588  1.00  0.00     0.059 A 
ATOM     98  F   UNL A   1      42.892  24.267  24.859  1.00  0.00    -0.206 F 
ATOM     99  C   UNL A   1      42.344  21.161  26.624  1.00  0.00     0.060 A 
BRANCH  99 100
ATOM    100  S   UNL A   1      41.864  19.453  26.289  1.00  0.00     0.124 S 
ATOM    101  O   UNL A   1      42.292  18.783  27.511  1.00  0.00    -0.237 OA
ATOM    102  O   UNL A   1      40.422  19.572  26.094  1.00  0.00    -0.237 OA
ATOM    103  O   UNL A   1      42.625  19.121  25.087  1.00  0.00    -0.744 OA
ENDBRANCH  99 100
ENDBRANCH  67  92
BRANCH  79 104
ATOM    104  C   UNL A   1      49.344  26.902  26.540  1.00  0.00     0.058 A 
ATOM    105  C   UNL A   1      50.241  26.304  27.439  1.00  0.00     0.135 A 
ATOM    106  C   UNL A   1      49.716  26.971  25.187  1.00  0.00     0.135 A 
ATOM    107  F   UNL A   1      49.936  26.218  28.743  1.00  0.00    -0.206 F 
ATOM    108  C   UNL A   1      51.473  25.816  27.016  1.00  0.00     0.059 A 
ATOM    109  C   UNL A   1      50.928  26.458  24.737  1.00  0.00     0.059 A 
ATOM    110  F   UNL A   1      48.889  27.522  24.285  1.00  0.00    -0.206 F 
ATOM    111  C   UNL A   1      51.806  25.894  25.662  1.00  0.00     0.060 A 
BRANCH 111 112
ATOM    112  S   UNL A   1      53.391  25.224  25.122  1.00  0.00     0.124 S 
ATOM    113  O   UNL A   1      53.450  25.687  23.740  1.00  0.00    -0.237 OA
ATOM    114  O   UNL A   1      54.328  25.858  26.044  1.00  0.00    -0.237 OA
ATOM    115  O   UNL A   1      53.229  23.783  25.295  1.00  0.00    -0.744 OA
ENDBRANCH 111 112
ENDBRANCH  79 104
ENDBRANCH  53  54
ENDBRANCH  45  48
ENDBRANCH  43  44
ENDBRANCH  42  43
ENDBRANCH   1  42
TORSDOF 18
ENDMDL
MODEL 3
REMARK VINA RESULT:      -9.3      3.829      7.908
REMARK SMILES COC(=O)[C@H]1CC[C@]2(C)[C@H](CC[C@]3(C)[C@H]2CC=C2[C@H]4CC(C)(C)CC[C@]4(C(=O)NCCCCCCNC(=O)c4ccc(-c5c6nc(c(-c7c(F)cc(S(=O)(=O)[O-])cc7F)c7ccc([nH]7)c(-c7c(F)cc(S(=O)(=O)[O-])cc7F)c7nc(c(-c8c(F)cc(S(=O)(=O)[O-])cc8F)c8ccc5[nH]8)C=C7)C=C6)cc4)CC[C@@]23C)C1(C)C
REMARK SMILES IDX 33 1 32 2 31 3 30 4 29 5 27 6 28 7 26 9 5 10 6 11 109 12
REMARK SMILES IDX 7 13 10 14 110 15 111 16 8 17 11 18 15 19 9 20 12 21 16 22
REMARK SMILES IDX 13 23 17 24 107 25 14 26 18 27 106 28 108 29 19 30 105 31
REMARK SMILES IDX 20 32 21 33 25 34 24 35 22 36 23 37 3 38 4 39 2 40 1 41
REMARK SMILES IDX 34 42 35 43 36 44 37 45 38 47 39 48 40 49 104 50 41 51
REMARK SMILES IDX 103 52 42 53 43 54 44 55 97 56 45 57 102 58 96 59 98 60
REMARK SMILES IDX 46 61 101 62 95 63 94 64 47 66 81 67 60 68 80 69 61 70 64 71
REMARK SMILES IDX 79 72 99 73 62 74 63 75 78 77 100 78 65 79 48 80 49 81 58 82
REMARK SMILES IDX 50 83 51 84 57 85 59 86 52 87 53 88 54 89 55 90 56 91 82 92
REMARK SMILES IDX 83 93 92 94 84 95 85 96 91 97 93 98 86 99 87 100 88 101
REMARK SMILES IDX 89 102 90 103 66 104 67 105 76 106 68 107 69 108 75 109
REMARK SMILES IDX 77 110 70 111 71 112 72 113 73 114 74 115
REMARK H PARENT 29 8 36 46 98 65 64 76
REMARK Flexibility Score: inf
ROOT
ATOM      1  C   UNL A   1      35.626  34.512  29.395  1.00  0.00     0.002 C 
ENDROOT
BRANCH   1   2
ATOM      2  C   UNL A   1      36.850  33.818  29.999  1.00  0.00     0.002 C 
BRANCH   2   3
ATOM      3  C   UNL A   1      38.153  33.936  29.202  1.00  0.00     0.021 C 
BRANCH   3   4
ATOM      4  C   UNL A   1      39.270  34.690  29.913  1.00  0.00     0.116 C 
BRANCH   4   5
ATOM      5  N   UNL A   1      40.380  34.917  29.030  1.00  0.00    -0.356 N 
ATOM      6  C   UNL A   1      41.695  34.901  29.346  1.00  0.00     0.226 C 
ATOM      7  O   UNL A   1      42.360  35.756  28.751  1.00  0.00    -0.274 OA
ATOM      8  H   UNL A   1      40.159  35.104  28.089  1.00  0.00     0.163 HD
BRANCH   6   9
ATOM      9  C   UNL A   1      42.358  33.791  30.212  1.00  0.00     0.056 C 
ATOM     10  C   UNL A   1      50.146  31.888  31.743  1.00  0.00     0.105 C 
ATOM     11  C   UNL A   1      50.382  32.052  30.210  1.00  0.00     0.016 C 
ATOM     12  C   UNL A   1      48.783  32.543  32.162  1.00  0.00    -0.019 C 
ATOM     13  C   UNL A   1      49.196  31.685  29.292  1.00  0.00     0.008 C 
ATOM     14  C   UNL A   1      47.683  31.823  31.210  1.00  0.00     0.002 C 
ATOM     15  C   UNL A   1      49.069  34.085  32.107  1.00  0.00     0.012 C 
ATOM     16  C   UNL A   1      48.381  32.399  33.652  1.00  0.00     0.012 C 
ATOM     17  C   UNL A   1      47.791  32.236  29.716  1.00  0.00    -0.026 C 
ATOM     18  C   UNL A   1      46.248  31.833  31.692  1.00  0.00     0.005 C 
ATOM     19  C   UNL A   1      46.703  31.576  28.727  1.00  0.00     0.006 C 
ATOM     20  C   UNL A   1      47.788  33.781  29.603  1.00  0.00     0.012 C 
ATOM     21  C   UNL A   1      45.297  30.925  30.914  1.00  0.00     0.008 C 
ATOM     22  C   UNL A   1      46.387  32.526  27.496  1.00  0.00     0.032 C 
ATOM     23  C   UNL A   1      45.363  30.902  29.351  1.00  0.00    -0.020 C 
ATOM     24  C   UNL A   1      45.256  33.509  27.836  1.00  0.00    -0.027 C 
ATOM     25  C   UNL A   1      44.036  31.563  28.662  1.00  0.00    -0.006 C 
ATOM     26  C   UNL A   1      45.428  29.372  29.012  1.00  0.00     0.012 C 
ATOM     27  C   UNL A   1      44.326  33.072  28.705  1.00  0.00    -0.064 C 
ATOM     28  C   UNL A   1      42.626  31.269  29.282  1.00  0.00     0.013 C 
ATOM     29  C   UNL A   1      43.854  30.984  27.185  1.00  0.00     0.017 C 
ATOM     30  C   UNL A   1      43.866  33.837  29.969  1.00  0.00     0.031 C 
ATOM     31  C   UNL A   1      41.833  32.339  30.066  1.00  0.00     0.018 C 
ATOM     32  C   UNL A   1      44.463  35.223  30.365  1.00  0.00     0.015 C 
ATOM     33  C   UNL A   1      44.204  35.623  31.866  1.00  0.00    -0.035 C 
ATOM     34  C   UNL A   1      42.087  34.160  31.720  1.00  0.00     0.018 C 
ATOM     35  C   UNL A   1      42.726  35.445  32.253  1.00  0.00     0.007 C 
ATOM     36  C   UNL A   1      44.605  37.097  32.087  1.00  0.00     0.011 C 
ATOM     37  C   UNL A   1      45.053  34.810  32.864  1.00  0.00     0.011 C 
BRANCH  10  38
ATOM     38  C   UNL A   1      50.264  30.419  32.160  1.00  0.00     0.309 C 
ATOM     39  O   UNL A   1      50.001  29.463  31.461  1.00  0.00    -0.252 OA
BRANCH  38  40
ATOM     40  O   UNL A   1      50.692  30.340  33.451  1.00  0.00    -0.469 OA
ATOM     41  C   UNL A   1      51.807  29.479  33.678  1.00  0.00     0.282 C 
ENDBRANCH  38  40
ENDBRANCH  10  38
ENDBRANCH   6   9
ENDBRANCH   4   5
ENDBRANCH   3   4
ENDBRANCH   2   3
ENDBRANCH   1   2
BRANCH   1  42
ATOM     42  C   UNL A   1      34.883  33.744  28.301  1.00  0.00     0.021 C 
BRANCH  42  43
ATOM     43  C   UNL A   1      33.970  32.633  28.794  1.00  0.00     0.116 C 
BRANCH  43  44
ATOM     44  N   UNL A   1      33.689  31.628  27.791  1.00  0.00    -0.352 N 
ATOM     45  C   UNL A   1      34.467  30.550  27.445  1.00  0.00     0.251 C 
ATOM     46  H   UNL A   1      32.841  31.727  27.301  1.00  0.00     0.163 HD
ATOM     47  O   UNL A   1      34.147  29.823  26.513  1.00  0.00    -0.269 OA
BRANCH  45  48
ATOM     48  C   UNL A   1      35.722  30.314  28.188  1.00  0.00     0.039 A 
ATOM     49  C   UNL A   1      35.668  29.582  29.375  1.00  0.00     0.014 A 
ATOM     50  C   UNL A   1      36.949  30.763  27.687  1.00  0.00     0.014 A 
ATOM     51  C   UNL A   1      36.853  29.263  30.037  1.00  0.00     0.010 A 
ATOM     52  C   UNL A   1      38.131  30.368  28.300  1.00  0.00     0.010 A 
ATOM     53  C   UNL A   1      38.095  29.627  29.490  1.00  0.00    -0.014 A 
BRANCH  53  54
ATOM     54  C   UNL A   1      39.363  29.262  30.168  1.00  0.00     0.031 A 
ATOM     55  C   UNL A   1      39.739  29.937  31.461  1.00  0.00     0.074 A 
ATOM     56  C   UNL A   1      40.188  28.361  29.599  1.00  0.00     0.049 A 
ATOM     57  N   UNL A   1      40.814  29.783  32.189  1.00  0.00    -0.248 NA
ATOM     58  C   UNL A   1      38.795  30.936  31.994  1.00  0.00     0.031 C 
ATOM     59  C   UNL A   1      39.950  27.682  28.322  1.00  0.00     0.029 A 
ATOM     60  N   UNL A   1      41.396  27.860  30.015  1.00  0.00    -0.354 N 
ATOM     61  C   UNL A   1      40.686  30.676  33.247  1.00  0.00     0.074 A 
ATOM     62  C   UNL A   1      39.455  31.403  33.044  1.00  0.00     0.031 C 
ATOM     63  C   UNL A   1      40.961  26.832  28.078  1.00  0.00     0.029 A 
ATOM     64  C   UNL A   1      41.940  26.934  29.155  1.00  0.00     0.049 A 
ATOM     65  H   UNL A   1      41.833  28.139  30.853  1.00  0.00     0.167 HD
ATOM     66  C   UNL A   1      41.512  30.853  34.303  1.00  0.00     0.037 A 
ATOM     67  C   UNL A   1      43.098  26.251  29.228  1.00  0.00     0.037 A 
ATOM     68  C   UNL A   1      42.712  30.089  34.517  1.00  0.00     0.049 A 
ATOM     69  C   UNL A   1      43.994  26.467  30.421  1.00  0.00     0.074 A 
ATOM     70  C   UNL A   1      43.573  30.130  35.599  1.00  0.00     0.029 A 
ATOM     71  N   UNL A   1      43.220  29.149  33.633  1.00  0.00    -0.354 N 
ATOM     72  N   UNL A   1      43.811  27.252  31.457  1.00  0.00    -0.248 NA
ATOM     73  C   UNL A   1      45.248  25.703  30.459  1.00  0.00     0.031 C 
ATOM     74  C   UNL A   1      44.635  29.258  35.342  1.00  0.00     0.029 A 
ATOM     75  C   UNL A   1      44.402  28.626  34.131  1.00  0.00     0.049 A 
ATOM     76  H   UNL A   1      42.804  28.890  32.780  1.00  0.00     0.167 HD
ATOM     77  C   UNL A   1      44.909  27.045  32.286  1.00  0.00     0.074 A 
ATOM     78  C   UNL A   1      45.742  26.055  31.637  1.00  0.00     0.031 C 
ATOM     79  C   UNL A   1      45.204  27.623  33.477  1.00  0.00     0.037 A 
BRANCH  66  80
ATOM     80  C   UNL A   1      41.156  31.906  35.317  1.00  0.00     0.058 A 
ATOM     81  C   UNL A   1      41.838  33.131  35.385  1.00  0.00     0.135 A 
ATOM     82  C   UNL A   1      40.061  31.718  36.176  1.00  0.00     0.135 A 
ATOM     83  F   UNL A   1      42.904  33.357  34.600  1.00  0.00    -0.206 F 
ATOM     84  C   UNL A   1      41.453  34.130  36.274  1.00  0.00     0.059 A 
ATOM     85  C   UNL A   1      39.640  32.713  37.053  1.00  0.00     0.059 A 
ATOM     86  F   UNL A   1      39.379  30.563  36.158  1.00  0.00    -0.206 F 
ATOM     87  C   UNL A   1      40.346  33.915  37.097  1.00  0.00     0.060 A 
BRANCH  87  88
ATOM     88  S   UNL A   1      39.826  35.242  38.205  1.00  0.00     0.124 S 
ATOM     89  O   UNL A   1      38.572  34.710  38.729  1.00  0.00    -0.237 OA
ATOM     90  O   UNL A   1      40.934  35.304  39.153  1.00  0.00    -0.237 OA
ATOM     91  O   UNL A   1      39.696  36.395  37.319  1.00  0.00    -0.744 OA
ENDBRANCH  87  88
ENDBRANCH  66  80
BRANCH  67  92
ATOM     92  C   UNL A   1      43.483  25.292  28.156  1.00  0.00     0.058 A 
ATOM     93  C   UNL A   1      43.178  23.925  28.263  1.00  0.00     0.135 A 
ATOM     94  C   UNL A   1      44.194  25.712  27.021  1.00  0.00     0.135 A 
ATOM     95  F   UNL A   1      42.501  23.472  29.329  1.00  0.00    -0.206 F 
ATOM     96  C   UNL A   1      43.601  23.005  27.310  1.00  0.00     0.059 A 
ATOM     97  C   UNL A   1      44.601  24.815  26.037  1.00  0.00     0.059 A 
ATOM     98  F   UNL A   1      44.495  27.010  26.856  1.00  0.00    -0.206 F 
ATOM     99  C   UNL A   1      44.318  23.460  26.202  1.00  0.00     0.060 A 
BRANCH  99 100
ATOM    100  S   UNL A   1      44.868  22.258  24.972  1.00  0.00     0.124 S 
ATOM    101  O   UNL A   1      46.103  21.768  25.573  1.00  0.00    -0.237 OA
ATOM    102  O   UNL A   1      43.753  21.317  24.942  1.00  0.00    -0.237 OA
ATOM    103  O   UNL A   1      45.030  23.064  23.765  1.00  0.00    -0.744 OA
ENDBRANCH  99 100
ENDBRANCH  67  92
BRANCH  79 104
ATOM    104  C   UNL A   1      46.450  27.163  34.182  1.00  0.00     0.058 A 
ATOM    105  C   UNL A   1      46.467  26.007  34.978  1.00  0.00     0.135 A 
ATOM    106  C   UNL A   1      47.657  27.861  34.011  1.00  0.00     0.135 A 
ATOM    107  F   UNL A   1      45.339  25.307  35.177  1.00  0.00    -0.206 F 
ATOM    108  C   UNL A   1      47.632  25.574  35.601  1.00  0.00     0.059 A 
ATOM    109  C   UNL A   1      48.841  27.427  34.598  1.00  0.00     0.059 A 
ATOM    110  F   UNL A   1      47.698  28.966  33.250  1.00  0.00    -0.206 F 
ATOM    111  C   UNL A   1      48.815  26.289  35.402  1.00  0.00     0.060 A 
BRANCH 111 112
ATOM    112  S   UNL A   1      50.326  25.694  36.189  1.00  0.00     0.124 S 
ATOM    113  O   UNL A   1      50.104  24.252  36.198  1.00  0.00    -0.237 OA
ATOM    114  O   UNL A   1      51.360  26.172  35.277  1.00  0.00    -0.237 OA
ATOM    115  O   UNL A   1      50.305  26.341  37.498  1.00  0.00    -0.744 OA
ENDBRANCH 111 112
ENDBRANCH  79 104
ENDBRANCH  53  54
ENDBRANCH  45  48
ENDBRANCH  43  44
ENDBRANCH  42  43
ENDBRANCH   1  42
TORSDOF 18
ENDMDL
