MODEL 1
REMARK VINA RESULT:     -11.6      0.000      0.000
REMARK SMILES O=C(NCCCCCCNC(=O)c1ccc(C[NH2+]Cc2cc(F)ccc2F)nc1)c1ccc(-c2c3nc(c(-c4c(F)cc(S(=O)(=O)[O-])cc4F)c4ccc([nH]4)c(-c4c(F)cc(S(=O)(=O)[O-])cc4F)c4nc(c(-c5c(F)cc(S(=O)(=O)[O-])cc5F)c5ccc2[nH]5)C=C4)C=C3)cc1
REMARK SMILES IDX 7 1 6 2 5 3 4 4 3 5 1 6 2 7 30 9 31 10 95 11 32 12 94 13
REMARK SMILES IDX 33 14 34 15 35 16 88 17 36 18 93 19 87 20 89 21 37 22 92 23
REMARK SMILES IDX 86 24 85 25 38 27 72 28 51 29 71 30 52 31 55 32 70 33 90 34
REMARK SMILES IDX 53 35 54 36 69 38 91 39 56 40 39 41 40 42 49 43 41 44 42 45
REMARK SMILES IDX 48 46 50 47 43 48 44 49 45 50 46 51 47 52 73 53 74 54 83 55
REMARK SMILES IDX 75 56 76 57 82 58 84 59 77 60 78 61 79 62 80 63 81 64 57 65
REMARK SMILES IDX 58 66 67 67 59 68 60 69 66 70 68 71 61 72 62 73 63 74 64 75
REMARK SMILES IDX 65 76 8 77 9 78 10 79 11 80 12 82 13 83 14 84 29 85 15 86
REMARK SMILES IDX 28 87 16 88 17 89 18 90 19 93 20 94 21 95 26 96 22 97 25 98
REMARK SMILES IDX 27 99 23 100 24 101
REMARK H PARENT 3 8 89 26 55 37 10 81 18 91 18 92
REMARK Flexibility Score: inf
ROOT
ATOM      1  C   UNL A   1      32.738  30.514  26.915  1.00  0.00     0.002 C 
ENDROOT
BRANCH   1   2
ATOM      2  C   UNL A   1      33.300  29.124  27.227  1.00  0.00     0.002 C 
BRANCH   2   3
ATOM      3  C   UNL A   1      34.826  29.019  27.215  1.00  0.00     0.021 C 
BRANCH   3   4
ATOM      4  C   UNL A   1      35.550  30.212  27.823  1.00  0.00     0.116 C 
BRANCH   4   5
ATOM      5  N   UNL A   1      35.410  30.261  29.268  1.00  0.00    -0.352 N 
ATOM      6  O   UNL A   1      36.016  29.884  31.406  1.00  0.00    -0.269 OA
ATOM      7  C   UNL A   1      36.348  29.979  30.228  1.00  0.00     0.251 C 
ATOM      8  H   UNL A   1      34.525  30.533  29.602  1.00  0.00     0.163 HD
BRANCH   7   9
ATOM      9  C   UNL A   1      37.759  29.776  29.831  1.00  0.00     0.039 A 
ATOM     10  C   UNL A   1      38.750  29.609  30.803  1.00  0.00     0.014 A 
ATOM     11  C   UNL A   1      38.087  29.727  28.474  1.00  0.00     0.014 A 
ATOM     12  C   UNL A   1      40.081  29.489  30.421  1.00  0.00     0.010 A 
ATOM     13  C   UNL A   1      39.416  29.527  28.090  1.00  0.00     0.010 A 
ATOM     14  C   UNL A   1      40.423  29.410  29.061  1.00  0.00    -0.014 A 
BRANCH  14  15
ATOM     15  C   UNL A   1      41.813  29.056  28.684  1.00  0.00     0.031 A 
ATOM     16  C   UNL A   1      42.900  30.089  28.624  1.00  0.00     0.074 A 
ATOM     17  C   UNL A   1      42.072  27.768  28.378  1.00  0.00     0.049 A 
ATOM     18  N   UNL A   1      44.154  29.937  28.285  1.00  0.00    -0.248 NA
ATOM     19  C   UNL A   1      42.539  31.470  28.983  1.00  0.00     0.031 C 
ATOM     20  C   UNL A   1      41.077  26.688  28.376  1.00  0.00     0.029 A 
ATOM     21  N   UNL A   1      43.233  27.143  28.007  1.00  0.00    -0.354 N 
ATOM     22  C   UNL A   1      44.730  31.199  28.368  1.00  0.00     0.074 A 
ATOM     23  C   UNL A   1      43.685  32.112  28.781  1.00  0.00     0.031 C 
ATOM     24  C   UNL A   1      41.674  25.537  28.040  1.00  0.00     0.029 A 
ATOM     25  C   UNL A   1      43.075  25.803  27.741  1.00  0.00     0.049 A 
ATOM     26  H   UNL A   1      44.099  27.609  27.938  1.00  0.00     0.167 HD
ATOM     27  C   UNL A   1      46.013  31.553  28.118  1.00  0.00     0.037 A 
ATOM     28  C   UNL A   1      43.948  24.895  27.269  1.00  0.00     0.037 A 
ATOM     29  C   UNL A   1      47.045  30.624  27.729  1.00  0.00     0.049 A 
ATOM     30  C   UNL A   1      45.356  25.328  26.980  1.00  0.00     0.074 A 
ATOM     31  C   UNL A   1      48.394  30.871  27.539  1.00  0.00     0.029 A 
ATOM     32  N   UNL A   1      46.844  29.280  27.453  1.00  0.00    -0.354 N 
ATOM     33  N   UNL A   1      45.902  26.509  27.143  1.00  0.00    -0.248 NA
ATOM     34  C   UNL A   1      46.265  24.311  26.434  1.00  0.00     0.031 C 
ATOM     35  C   UNL A   1      48.998  29.691  27.093  1.00  0.00     0.029 A 
ATOM     36  C   UNL A   1      48.035  28.697  27.052  1.00  0.00     0.049 A 
ATOM     37  H   UNL A   1      45.983  28.810  27.530  1.00  0.00     0.167 HD
ATOM     38  C   UNL A   1      47.219  26.377  26.722  1.00  0.00     0.074 A 
ATOM     39  C   UNL A   1      47.396  24.994  26.328  1.00  0.00     0.031 C 
ATOM     40  C   UNL A   1      48.190  27.319  26.656  1.00  0.00     0.037 A 
BRANCH  27  41
ATOM     41  C   UNL A   1      46.397  33.001  28.240  1.00  0.00     0.058 A 
ATOM     42  C   UNL A   1      46.949  33.521  29.421  1.00  0.00     0.135 A 
ATOM     43  C   UNL A   1      46.326  33.848  27.123  1.00  0.00     0.135 A 
ATOM     44  F   UNL A   1      47.028  32.760  30.524  1.00  0.00    -0.206 F 
ATOM     45  C   UNL A   1      47.420  34.830  29.488  1.00  0.00     0.059 A 
ATOM     46  C   UNL A   1      46.809  35.154  27.160  1.00  0.00     0.059 A 
ATOM     47  F   UNL A   1      45.805  33.401  25.969  1.00  0.00    -0.206 F 
ATOM     48  C   UNL A   1      47.354  35.635  28.349  1.00  0.00     0.060 A 
BRANCH  48  49
ATOM     49  S   UNL A   1      48.024  37.310  28.439  1.00  0.00     0.124 S 
ATOM     50  O   UNL A   1      49.039  37.163  29.476  1.00  0.00    -0.237 OA
ATOM     51  O   UNL A   1      48.528  37.517  27.085  1.00  0.00    -0.237 OA
ATOM     52  O   UNL A   1      46.867  38.121  28.805  1.00  0.00    -0.744 OA
ENDBRANCH  48  49
ENDBRANCH  27  41
BRANCH  28  53
ATOM     53  C   UNL A   1      43.499  23.506  26.991  1.00  0.00     0.058 A 
ATOM     54  C   UNL A   1      43.171  23.094  25.691  1.00  0.00     0.135 A 
ATOM     55  C   UNL A   1      43.382  22.564  28.026  1.00  0.00     0.135 A 
ATOM     56  F   UNL A   1      43.266  23.958  24.670  1.00  0.00    -0.206 F 
ATOM     57  C   UNL A   1      42.715  21.805  25.432  1.00  0.00     0.059 A 
ATOM     58  C   UNL A   1      42.959  21.262  27.787  1.00  0.00     0.059 A 
ATOM     59  F   UNL A   1      43.703  22.903  29.284  1.00  0.00    -0.206 F 
ATOM     60  C   UNL A   1      42.608  20.899  26.488  1.00  0.00     0.060 A 
BRANCH  60  61
ATOM     61  S   UNL A   1      42.026  19.224  26.142  1.00  0.00     0.124 S 
ATOM     62  O   UNL A   1      42.305  18.553  27.406  1.00  0.00    -0.237 OA
ATOM     63  O   UNL A   1      40.617  19.446  25.832  1.00  0.00    -0.237 OA
ATOM     64  O   UNL A   1      42.850  18.811  25.011  1.00  0.00    -0.744 OA
ENDBRANCH  60  61
ENDBRANCH  28  53
BRANCH  40  65
ATOM     65  C   UNL A   1      49.531  26.883  26.140  1.00  0.00     0.058 A 
ATOM     66  C   UNL A   1      50.475  26.276  26.982  1.00  0.00     0.135 A 
ATOM     67  C   UNL A   1      49.860  27.035  24.783  1.00  0.00     0.135 A 
ATOM     68  F   UNL A   1      50.212  26.121  28.290  1.00  0.00    -0.206 F 
ATOM     69  C   UNL A   1      51.706  25.847  26.501  1.00  0.00     0.059 A 
ATOM     70  C   UNL A   1      51.074  26.589  24.275  1.00  0.00     0.059 A 
ATOM     71  F   UNL A   1      48.989  27.606  23.935  1.00  0.00    -0.206 F 
ATOM     72  C   UNL A   1      51.996  26.006  25.144  1.00  0.00     0.060 A 
BRANCH  72  73
ATOM     73  S   UNL A   1      53.582  25.408  24.524  1.00  0.00     0.124 S 
ATOM     74  O   UNL A   1      53.489  23.980  24.810  1.00  0.00    -0.237 OA
ATOM     75  O   UNL A   1      53.526  25.777  23.114  1.00  0.00    -0.237 OA
ATOM     76  O   UNL A   1      54.558  26.145  25.321  1.00  0.00    -0.744 OA
ENDBRANCH  72  73
ENDBRANCH  40  65
ENDBRANCH  14  15
ENDBRANCH   7   9
ENDBRANCH   4   5
ENDBRANCH   3   4
ENDBRANCH   2   3
ENDBRANCH   1   2
BRANCH   1  77
ATOM     77  C   UNL A   1      31.630  30.554  25.858  1.00  0.00     0.021 C 
BRANCH  77  78
ATOM     78  C   UNL A   1      31.658  29.406  24.852  1.00  0.00     0.116 C 
BRANCH  78  79
ATOM     79  N   UNL A   1      30.835  29.689  23.687  1.00  0.00    -0.352 N 
ATOM     80  C   UNL A   1      30.394  28.826  22.717  1.00  0.00     0.252 C 
ATOM     81  H   UNL A   1      30.555  30.626  23.581  1.00  0.00     0.163 HD
ATOM     82  O   UNL A   1      29.867  29.247  21.693  1.00  0.00    -0.269 OA
BRANCH  80  83
ATOM     83  C   UNL A   1      30.567  27.382  22.908  1.00  0.00     0.058 A 
ATOM     84  C   UNL A   1      29.807  26.665  23.830  1.00  0.00     0.017 A 
ATOM     85  C   UNL A   1      31.509  26.709  22.149  1.00  0.00     0.125 A 
ATOM     86  C   UNL A   1      30.062  25.309  23.999  1.00  0.00     0.030 A 
ATOM     87  N   UNL A   1      31.785  25.393  22.305  1.00  0.00    -0.255 NA
ATOM     88  C   UNL A   1      31.068  24.710  23.237  1.00  0.00     0.094 A 
BRANCH  88  89
ATOM     89  C   UNL A   1      31.388  23.241  23.436  1.00  0.00     0.318 C 
BRANCH  89  90
ATOM     90  N   UNL A   1      32.829  22.979  23.439  1.00  0.00    -0.337 N 
ATOM     91  H   UNL A   1      33.321  23.873  23.456  1.00  0.00     0.346 HD
ATOM     92  H   UNL A   1      33.043  22.441  22.600  1.00  0.00     0.346 HD
BRANCH  90  93
ATOM     93  C   UNL A   1      33.263  22.187  24.586  1.00  0.00     0.300 C 
BRANCH  93  94
ATOM     94  C   UNL A   1      34.711  22.405  24.940  1.00  0.00     0.045 A 
ATOM     95  C   UNL A   1      35.689  21.462  24.592  1.00  0.00     0.051 A 
ATOM     96  C   UNL A   1      35.119  23.586  25.574  1.00  0.00     0.132 A 
ATOM     97  C   UNL A   1      37.031  21.721  24.859  1.00  0.00     0.123 A 
ATOM     98  C   UNL A   1      36.463  23.836  25.847  1.00  0.00     0.043 A 
ATOM     99  F   UNL A   1      34.210  24.510  25.912  1.00  0.00    -0.206 F 
ATOM    100  F   UNL A   1      37.955  20.823  24.496  1.00  0.00    -0.207 F 
ATOM    101  C   UNL A   1      37.426  22.899  25.481  1.00  0.00     0.042 A 
ENDBRANCH  93  94
ENDBRANCH  90  93
ENDBRANCH  89  90
ENDBRANCH  88  89
ENDBRANCH  80  83
ENDBRANCH  78  79
ENDBRANCH  77  78
ENDBRANCH   1  77
TORSDOF 20
ENDMDL
MODEL 2
REMARK VINA RESULT:     -11.5      6.602     12.237
REMARK SMILES O=C(NCCCCCCNC(=O)c1ccc(C[NH2+]Cc2cc(F)ccc2F)nc1)c1ccc(-c2c3nc(c(-c4c(F)cc(S(=O)(=O)[O-])cc4F)c4ccc([nH]4)c(-c4c(F)cc(S(=O)(=O)[O-])cc4F)c4nc(c(-c5c(F)cc(S(=O)(=O)[O-])cc5F)c5ccc2[nH]5)C=C4)C=C3)cc1
REMARK SMILES IDX 7 1 6 2 5 3 4 4 3 5 1 6 2 7 30 9 31 10 95 11 32 12 94 13
REMARK SMILES IDX 33 14 34 15 35 16 88 17 36 18 93 19 87 20 89 21 37 22 92 23
REMARK SMILES IDX 86 24 85 25 38 27 72 28 51 29 71 30 52 31 55 32 70 33 90 34
REMARK SMILES IDX 53 35 54 36 69 38 91 39 56 40 39 41 40 42 49 43 41 44 42 45
REMARK SMILES IDX 48 46 50 47 43 48 44 49 45 50 46 51 47 52 73 53 74 54 83 55
REMARK SMILES IDX 75 56 76 57 82 58 84 59 77 60 78 61 79 62 80 63 81 64 57 65
REMARK SMILES IDX 58 66 67 67 59 68 60 69 66 70 68 71 61 72 62 73 63 74 64 75
REMARK SMILES IDX 65 76 8 77 9 78 10 79 11 80 12 82 13 83 14 84 29 85 15 86
REMARK SMILES IDX 28 87 16 88 17 89 18 90 19 93 20 94 21 95 26 96 22 97 25 98
REMARK SMILES IDX 27 99 23 100 24 101
REMARK H PARENT 3 8 89 26 55 37 10 81 18 91 18 92
REMARK Flexibility Score: inf
ROOT
ATOM      1  C   UNL A   1      37.232  22.250  24.692  1.00  0.00     0.002 C 
ENDROOT
BRANCH   1   2
ATOM      2  C   UNL A   1      38.321  22.094  25.757  1.00  0.00     0.002 C 
BRANCH   2   3
ATOM      3  C   UNL A   1      38.744  23.389  26.452  1.00  0.00     0.021 C 
BRANCH   3   4
ATOM      4  C   UNL A   1      40.101  23.328  27.141  1.00  0.00     0.116 C 
BRANCH   4   5
ATOM      5  N   UNL A   1      41.180  23.749  26.265  1.00  0.00    -0.352 N 
ATOM      6  O   UNL A   1      42.592  25.220  25.303  1.00  0.00    -0.269 OA
ATOM      7  C   UNL A   1      41.830  24.957  26.229  1.00  0.00     0.251 C 
ATOM      8  H   UNL A   1      41.486  23.080  25.611  1.00  0.00     0.163 HD
BRANCH   7   9
ATOM      9  C   UNL A   1      41.597  25.942  27.308  1.00  0.00     0.039 A 
ATOM     10  C   UNL A   1      40.632  25.700  28.291  1.00  0.00     0.014 A 
ATOM     11  C   UNL A   1      42.369  27.106  27.350  1.00  0.00     0.014 A 
ATOM     12  C   UNL A   1      40.373  26.662  29.259  1.00  0.00     0.010 A 
ATOM     13  C   UNL A   1      42.162  28.037  28.372  1.00  0.00     0.010 A 
ATOM     14  C   UNL A   1      41.159  27.824  29.330  1.00  0.00    -0.014 A 
BRANCH  14  15
ATOM     15  C   UNL A   1      41.016  28.724  30.501  1.00  0.00     0.031 A 
ATOM     16  C   UNL A   1      41.876  28.571  31.722  1.00  0.00     0.074 A 
ATOM     17  C   UNL A   1      40.070  29.684  30.443  1.00  0.00     0.049 A 
ATOM     18  N   UNL A   1      41.849  29.262  32.832  1.00  0.00    -0.248 NA
ATOM     19  C   UNL A   1      42.891  27.506  31.703  1.00  0.00     0.031 C 
ATOM     20  C   UNL A   1      39.159  29.898  29.311  1.00  0.00     0.029 A 
ATOM     21  N   UNL A   1      39.709  30.652  31.342  1.00  0.00    -0.354 N 
ATOM     22  C   UNL A   1      42.824  28.708  33.652  1.00  0.00     0.074 A 
ATOM     23  C   UNL A   1      43.422  27.614  32.916  1.00  0.00     0.031 C 
ATOM     24  C   UNL A   1      38.361  30.941  29.578  1.00  0.00     0.029 A 
ATOM     25  C   UNL A   1      38.655  31.428  30.919  1.00  0.00     0.049 A 
ATOM     26  H   UNL A   1      40.161  30.780  32.208  1.00  0.00     0.167 HD
ATOM     27  C   UNL A   1      43.178  29.084  34.904  1.00  0.00     0.037 A 
ATOM     28  C   UNL A   1      37.972  32.398  31.554  1.00  0.00     0.037 A 
ATOM     29  C   UNL A   1      42.586  30.192  35.612  1.00  0.00     0.049 A 
ATOM     30  C   UNL A   1      38.377  32.773  32.949  1.00  0.00     0.074 A 
ATOM     31  C   UNL A   1      42.938  30.706  36.849  1.00  0.00     0.029 A 
ATOM     32  N   UNL A   1      41.511  30.943  35.160  1.00  0.00    -0.354 N 
ATOM     33  N   UNL A   1      39.355  32.292  33.678  1.00  0.00    -0.248 NA
ATOM     34  C   UNL A   1      37.581  33.812  33.616  1.00  0.00     0.031 C 
ATOM     35  C   UNL A   1      42.041  31.730  37.169  1.00  0.00     0.029 A 
ATOM     36  C   UNL A   1      41.160  31.886  36.113  1.00  0.00     0.049 A 
ATOM     37  H   UNL A   1      41.064  30.823  34.291  1.00  0.00     0.167 HD
ATOM     38  C   UNL A   1      39.295  32.972  34.887  1.00  0.00     0.074 A 
ATOM     39  C   UNL A   1      38.205  33.919  34.781  1.00  0.00     0.031 C 
ATOM     40  C   UNL A   1      40.066  32.817  35.991  1.00  0.00     0.037 A 
BRANCH  27  41
ATOM     41  C   UNL A   1      44.248  28.303  35.615  1.00  0.00     0.058 A 
ATOM     42  C   UNL A   1      43.942  27.191  36.415  1.00  0.00     0.135 A 
ATOM     43  C   UNL A   1      45.603  28.598  35.395  1.00  0.00     0.135 A 
ATOM     44  F   UNL A   1      42.663  26.872  36.671  1.00  0.00    -0.206 F 
ATOM     45  C   UNL A   1      44.944  26.396  36.967  1.00  0.00     0.059 A 
ATOM     46  C   UNL A   1      46.621  27.806  35.920  1.00  0.00     0.059 A 
ATOM     47  F   UNL A   1      45.949  29.652  34.639  1.00  0.00    -0.206 F 
ATOM     48  C   UNL A   1      46.280  26.707  36.705  1.00  0.00     0.060 A 
BRANCH  48  49
ATOM     49  S   UNL A   1      47.562  25.630  37.382  1.00  0.00     0.124 S 
ATOM     50  O   UNL A   1      48.643  26.580  37.626  1.00  0.00    -0.237 OA
ATOM     51  O   UNL A   1      46.917  25.087  38.573  1.00  0.00    -0.237 OA
ATOM     52  O   UNL A   1      47.803  24.670  36.309  1.00  0.00    -0.744 OA
ENDBRANCH  48  49
ENDBRANCH  27  41
BRANCH  28  53
ATOM     53  C   UNL A   1      36.804  33.039  30.894  1.00  0.00     0.058 A 
ATOM     54  C   UNL A   1      36.974  34.016  29.903  1.00  0.00     0.135 A 
ATOM     55  C   UNL A   1      35.492  32.689  31.251  1.00  0.00     0.135 A 
ATOM     56  F   UNL A   1      38.209  34.384  29.529  1.00  0.00    -0.206 F 
ATOM     57  C   UNL A   1      35.885  34.645  29.310  1.00  0.00     0.059 A 
ATOM     58  C   UNL A   1      34.388  33.281  30.650  1.00  0.00     0.059 A 
ATOM     59  F   UNL A   1      35.276  31.745  32.180  1.00  0.00    -0.206 F 
ATOM     60  C   UNL A   1      34.596  34.273  29.694  1.00  0.00     0.060 A 
BRANCH  60  61
ATOM     61  S   UNL A   1      33.185  35.086  28.911  1.00  0.00     0.124 S 
ATOM     62  O   UNL A   1      32.337  35.369  30.063  1.00  0.00    -0.237 OA
ATOM     63  O   UNL A   1      33.809  36.242  28.276  1.00  0.00    -0.237 OA
ATOM     64  O   UNL A   1      32.683  34.070  27.991  1.00  0.00    -0.744 OA
ENDBRANCH  60  61
ENDBRANCH  28  53
BRANCH  40  65
ATOM     65  C   UNL A   1      39.755  33.693  37.170  1.00  0.00     0.058 A 
ATOM     66  C   UNL A   1      38.825  33.301  38.145  1.00  0.00     0.135 A 
ATOM     67  C   UNL A   1      40.422  34.916  37.349  1.00  0.00     0.135 A 
ATOM     68  F   UNL A   1      38.152  32.147  38.011  1.00  0.00    -0.206 F 
ATOM     69  C   UNL A   1      38.555  34.098  39.251  1.00  0.00     0.059 A 
ATOM     70  C   UNL A   1      40.187  35.716  38.462  1.00  0.00     0.059 A 
ATOM     71  F   UNL A   1      41.324  35.334  36.447  1.00  0.00    -0.206 F 
ATOM     72  C   UNL A   1      39.243  35.303  39.403  1.00  0.00     0.060 A 
BRANCH  72  73
ATOM     73  S   UNL A   1      38.913  36.308  40.864  1.00  0.00     0.124 S 
ATOM     74  O   UNL A   1      40.224  36.333  41.506  1.00  0.00    -0.237 OA
ATOM     75  O   UNL A   1      38.467  37.570  40.283  1.00  0.00    -0.237 OA
ATOM     76  O   UNL A   1      37.884  35.552  41.571  1.00  0.00    -0.744 OA
ENDBRANCH  72  73
ENDBRANCH  40  65
ENDBRANCH  14  15
ENDBRANCH   7   9
ENDBRANCH   4   5
ENDBRANCH   3   4
ENDBRANCH   2   3
ENDBRANCH   1   2
BRANCH   1  77
ATOM     77  C   UNL A   1      36.187  21.131  24.651  1.00  0.00     0.021 C 
BRANCH  77  78
ATOM     78  C   UNL A   1      35.106  21.221  25.725  1.00  0.00     0.116 C 
BRANCH  78  79
ATOM     79  N   UNL A   1      34.208  20.077  25.686  1.00  0.00    -0.352 N 
ATOM     80  C   UNL A   1      32.880  20.038  25.349  1.00  0.00     0.252 C 
ATOM     81  H   UNL A   1      34.609  19.213  25.933  1.00  0.00     0.163 HD
ATOM     82  O   UNL A   1      32.209  19.031  25.547  1.00  0.00    -0.269 OA
BRANCH  80  83
ATOM     83  C   UNL A   1      32.256  21.224  24.753  1.00  0.00     0.058 A 
ATOM     84  C   UNL A   1      32.349  21.499  23.390  1.00  0.00     0.017 A 
ATOM     85  C   UNL A   1      31.551  22.096  25.564  1.00  0.00     0.125 A 
ATOM     86  C   UNL A   1      31.780  22.670  22.901  1.00  0.00     0.030 A 
ATOM     87  N   UNL A   1      31.002  23.249  25.114  1.00  0.00    -0.255 NA
ATOM     88  C   UNL A   1      31.133  23.530  23.791  1.00  0.00     0.094 A 
BRANCH  88  89
ATOM     89  C   UNL A   1      30.542  24.831  23.284  1.00  0.00     0.318 C 
BRANCH  89  90
ATOM     90  N   UNL A   1      29.964  25.638  24.360  1.00  0.00    -0.337 N 
ATOM     91  H   UNL A   1      30.586  26.425  24.546  1.00  0.00     0.346 HD
ATOM     92  H   UNL A   1      29.860  25.032  25.173  1.00  0.00     0.346 HD
BRANCH  90  93
ATOM     93  C   UNL A   1      28.640  26.160  24.034  1.00  0.00     0.300 C 
BRANCH  93  94
ATOM     94  C   UNL A   1      28.679  27.549  23.453  1.00  0.00     0.045 A 
ATOM     95  C   UNL A   1      29.853  28.059  22.880  1.00  0.00     0.051 A 
ATOM     96  C   UNL A   1      27.523  28.340  23.420  1.00  0.00     0.132 A 
ATOM     97  C   UNL A   1      29.845  29.314  22.278  1.00  0.00     0.123 A 
ATOM     98  C   UNL A   1      27.522  29.600  22.823  1.00  0.00     0.043 A 
ATOM     99  F   UNL A   1      26.384  27.878  23.952  1.00  0.00    -0.206 F 
ATOM    100  F   UNL A   1      30.966  29.776  21.710  1.00  0.00    -0.207 F 
ATOM    101  C   UNL A   1      28.691  30.088  22.243  1.00  0.00     0.042 A 
ENDBRANCH  93  94
ENDBRANCH  90  93
ENDBRANCH  89  90
ENDBRANCH  88  89
ENDBRANCH  80  83
ENDBRANCH  78  79
ENDBRANCH  77  78
ENDBRANCH   1  77
TORSDOF 20
ENDMDL
MODEL 3
REMARK VINA RESULT:     -11.5      5.141      6.594
REMARK SMILES O=C(NCCCCCCNC(=O)c1ccc(C[NH2+]Cc2cc(F)ccc2F)nc1)c1ccc(-c2c3nc(c(-c4c(F)cc(S(=O)(=O)[O-])cc4F)c4ccc([nH]4)c(-c4c(F)cc(S(=O)(=O)[O-])cc4F)c4nc(c(-c5c(F)cc(S(=O)(=O)[O-])cc5F)c5ccc2[nH]5)C=C4)C=C3)cc1
REMARK SMILES IDX 7 1 6 2 5 3 4 4 3 5 1 6 2 7 30 9 31 10 95 11 32 12 94 13
REMARK SMILES IDX 33 14 34 15 35 16 88 17 36 18 93 19 87 20 89 21 37 22 92 23
REMARK SMILES IDX 86 24 85 25 38 27 72 28 51 29 71 30 52 31 55 32 70 33 90 34
REMARK SMILES IDX 53 35 54 36 69 38 91 39 56 40 39 41 40 42 49 43 41 44 42 45
REMARK SMILES IDX 48 46 50 47 43 48 44 49 45 50 46 51 47 52 73 53 74 54 83 55
REMARK SMILES IDX 75 56 76 57 82 58 84 59 77 60 78 61 79 62 80 63 81 64 57 65
REMARK SMILES IDX 58 66 67 67 59 68 60 69 66 70 68 71 61 72 62 73 63 74 64 75
REMARK SMILES IDX 65 76 8 77 9 78 10 79 11 80 12 82 13 83 14 84 29 85 15 86
REMARK SMILES IDX 28 87 16 88 17 89 18 90 19 93 20 94 21 95 26 96 22 97 25 98
REMARK SMILES IDX 27 99 23 100 24 101
REMARK H PARENT 3 8 89 26 55 37 10 81 18 91 18 92
REMARK Flexibility Score: inf
ROOT
ATOM      1  C   UNL A   1      30.884  27.232  26.190  1.00  0.00     0.002 C 
ENDROOT
BRANCH   1   2
ATOM      2  C   UNL A   1      31.935  28.308  26.479  1.00  0.00     0.002 C 
BRANCH   2   3
ATOM      3  C   UNL A   1      33.376  27.805  26.565  1.00  0.00     0.021 C 
BRANCH   3   4
ATOM      4  C   UNL A   1      34.436  28.853  26.252  1.00  0.00     0.116 C 
BRANCH   4   5
ATOM      5  N   UNL A   1      34.035  30.183  26.677  1.00  0.00    -0.352 N 
ATOM      6  O   UNL A   1      34.003  31.987  28.029  1.00  0.00    -0.269 OA
ATOM      7  C   UNL A   1      34.578  30.964  27.665  1.00  0.00     0.251 C 
ATOM      8  H   UNL A   1      33.273  30.575  26.192  1.00  0.00     0.163 HD
BRANCH   7   9
ATOM      9  C   UNL A   1      35.853  30.559  28.297  1.00  0.00     0.039 A 
ATOM     10  C   UNL A   1      37.061  31.129  27.882  1.00  0.00     0.014 A 
ATOM     11  C   UNL A   1      35.836  29.619  29.331  1.00  0.00     0.014 A 
ATOM     12  C   UNL A   1      38.259  30.691  28.434  1.00  0.00     0.010 A 
ATOM     13  C   UNL A   1      37.035  29.237  29.939  1.00  0.00     0.010 A 
ATOM     14  C   UNL A   1      38.255  29.768  29.492  1.00  0.00    -0.014 A 
BRANCH  14  15
ATOM     15  C   UNL A   1      39.521  29.488  30.213  1.00  0.00     0.031 A 
ATOM     16  C   UNL A   1      39.913  30.255  31.442  1.00  0.00     0.074 A 
ATOM     17  C   UNL A   1      40.325  28.524  29.718  1.00  0.00     0.049 A 
ATOM     18  N   UNL A   1      40.999  30.144  32.162  1.00  0.00    -0.248 NA
ATOM     19  C   UNL A   1      38.977  31.283  31.924  1.00  0.00     0.031 C 
ATOM     20  C   UNL A   1      40.049  27.739  28.509  1.00  0.00     0.029 A 
ATOM     21  N   UNL A   1      41.530  28.041  30.155  1.00  0.00    -0.354 N 
ATOM     22  C   UNL A   1      40.891  31.095  33.169  1.00  0.00     0.074 A 
ATOM     23  C   UNL A   1      39.636  31.785  32.962  1.00  0.00     0.031 C 
ATOM     24  C   UNL A   1      41.045  26.863  28.314  1.00  0.00     0.029 A 
ATOM     25  C   UNL A   1      42.058  27.066  29.341  1.00  0.00     0.049 A 
ATOM     26  H   UNL A   1      41.976  28.361  30.973  1.00  0.00     0.167 HD
ATOM     27  C   UNL A   1      41.766  31.362  34.167  1.00  0.00     0.037 A 
ATOM     28  C   UNL A   1      43.244  26.432  29.390  1.00  0.00     0.037 A 
ATOM     29  C   UNL A   1      43.002  30.647  34.370  1.00  0.00     0.049 A 
ATOM     30  C   UNL A   1      44.199  26.769  30.496  1.00  0.00     0.074 A 
ATOM     31  C   UNL A   1      43.913  30.784  35.404  1.00  0.00     0.029 A 
ATOM     32  N   UNL A   1      43.511  29.679  33.517  1.00  0.00    -0.354 N 
ATOM     33  N   UNL A   1      44.043  27.615  31.487  1.00  0.00    -0.248 NA
ATOM     34  C   UNL A   1      45.495  26.078  30.490  1.00  0.00     0.031 C 
ATOM     35  C   UNL A   1      44.998  29.940  35.147  1.00  0.00     0.029 A 
ATOM     36  C   UNL A   1      44.743  29.243  33.978  1.00  0.00     0.049 A 
ATOM     37  H   UNL A   1      43.064  29.350  32.704  1.00  0.00     0.167 HD
ATOM     38  C   UNL A   1      45.219  27.556  32.223  1.00  0.00     0.074 A 
ATOM     39  C   UNL A   1      46.064  26.568  31.583  1.00  0.00     0.031 C 
ATOM     40  C   UNL A   1      45.572  28.263  33.323  1.00  0.00     0.037 A 
BRANCH  27  41
ATOM     41  C   UNL A   1      41.447  32.474  35.127  1.00  0.00     0.058 A 
ATOM     42  C   UNL A   1      40.639  32.267  36.255  1.00  0.00     0.135 A 
ATOM     43  C   UNL A   1      42.056  33.731  34.980  1.00  0.00     0.135 A 
ATOM     44  F   UNL A   1      40.020  31.089  36.438  1.00  0.00    -0.206 F 
ATOM     45  C   UNL A   1      40.451  33.266  37.207  1.00  0.00     0.059 A 
ATOM     46  C   UNL A   1      41.898  34.738  35.929  1.00  0.00     0.059 A 
ATOM     47  F   UNL A   1      42.837  33.981  33.917  1.00  0.00    -0.206 F 
ATOM     48  C   UNL A   1      41.093  34.495  37.039  1.00  0.00     0.060 A 
BRANCH  48  49
ATOM     49  S   UNL A   1      40.883  35.757  38.314  1.00  0.00     0.124 S 
ATOM     50  O   UNL A   1      40.204  35.002  39.363  1.00  0.00    -0.237 OA
ATOM     51  O   UNL A   1      42.261  36.141  38.602  1.00  0.00    -0.237 OA
ATOM     52  O   UNL A   1      40.075  36.777  37.654  1.00  0.00    -0.744 OA
ENDBRANCH  48  49
ENDBRANCH  27  41
BRANCH  28  53
ATOM     53  C   UNL A   1      43.611  25.458  28.328  1.00  0.00     0.058 A 
ATOM     54  C   UNL A   1      43.433  24.080  28.512  1.00  0.00     0.135 A 
ATOM     55  C   UNL A   1      44.155  25.892  27.109  1.00  0.00     0.135 A 
ATOM     56  F   UNL A   1      42.918  23.617  29.661  1.00  0.00    -0.206 F 
ATOM     57  C   UNL A   1      43.810  23.163  27.536  1.00  0.00     0.059 A 
ATOM     58  C   UNL A   1      44.509  24.998  26.106  1.00  0.00     0.059 A 
ATOM     59  F   UNL A   1      44.326  27.203  26.875  1.00  0.00    -0.206 F 
ATOM     60  C   UNL A   1      44.351  23.633  26.338  1.00  0.00     0.060 A 
BRANCH  60  61
ATOM     61  S   UNL A   1      44.828  22.437  25.070  1.00  0.00     0.124 S 
ATOM     62  O   UNL A   1      45.015  23.302  23.911  1.00  0.00    -0.237 OA
ATOM     63  O   UNL A   1      46.040  21.854  25.636  1.00  0.00    -0.237 OA
ATOM     64  O   UNL A   1      43.679  21.539  25.010  1.00  0.00    -0.744 OA
ENDBRANCH  60  61
ENDBRANCH  28  53
BRANCH  40  65
ATOM     65  C   UNL A   1      46.931  27.993  33.902  1.00  0.00     0.058 A 
ATOM     66  C   UNL A   1      47.130  26.980  34.853  1.00  0.00     0.135 A 
ATOM     67  C   UNL A   1      48.051  28.722  33.472  1.00  0.00     0.135 A 
ATOM     68  F   UNL A   1      46.088  26.264  35.306  1.00  0.00    -0.206 F 
ATOM     69  C   UNL A   1      48.391  26.710  35.372  1.00  0.00     0.059 A 
ATOM     70  C   UNL A   1      49.326  28.451  33.957  1.00  0.00     0.059 A 
ATOM     71  F   UNL A   1      47.914  29.698  32.560  1.00  0.00    -0.206 F 
ATOM     72  C   UNL A   1      49.484  27.450  34.915  1.00  0.00     0.060 A 
BRANCH  72  73
ATOM     73  S   UNL A   1      51.122  27.061  35.566  1.00  0.00     0.124 S 
ATOM     74  O   UNL A   1      50.795  26.156  36.664  1.00  0.00    -0.237 OA
ATOM     75  O   UNL A   1      51.778  26.450  34.415  1.00  0.00    -0.237 OA
ATOM     76  O   UNL A   1      51.648  28.363  35.961  1.00  0.00    -0.744 OA
ENDBRANCH  72  73
ENDBRANCH  40  65
ENDBRANCH  14  15
ENDBRANCH   7   9
ENDBRANCH   4   5
ENDBRANCH   3   4
ENDBRANCH   2   3
ENDBRANCH   1   2
BRANCH   1  77
ATOM     77  C   UNL A   1      30.901  26.660  24.769  1.00  0.00     0.021 C 
BRANCH  77  78
ATOM     78  C   UNL A   1      30.401  25.223  24.647  1.00  0.00     0.116 C 
BRANCH  78  79
ATOM     79  N   UNL A   1      29.884  24.722  25.911  1.00  0.00    -0.352 N 
ATOM     80  C   UNL A   1      30.253  23.600  26.606  1.00  0.00     0.252 C 
ATOM     81  H   UNL A   1      29.173  25.262  26.323  1.00  0.00     0.163 HD
ATOM     82  O   UNL A   1      29.594  23.205  27.561  1.00  0.00    -0.269 OA
BRANCH  80  83
ATOM     83  C   UNL A   1      31.449  22.859  26.190  1.00  0.00     0.058 A 
ATOM     84  C   UNL A   1      32.729  23.250  26.579  1.00  0.00     0.017 A 
ATOM     85  C   UNL A   1      31.306  21.738  25.391  1.00  0.00     0.125 A 
ATOM     86  C   UNL A   1      33.823  22.535  26.103  1.00  0.00     0.030 A 
ATOM     87  N   UNL A   1      32.355  21.034  24.904  1.00  0.00    -0.255 NA
ATOM     88  C   UNL A   1      33.602  21.448  25.253  1.00  0.00     0.094 A 
BRANCH  88  89
ATOM     89  C   UNL A   1      34.783  20.681  24.692  1.00  0.00     0.318 C 
BRANCH  89  90
ATOM     90  N   UNL A   1      35.978  20.805  25.530  1.00  0.00    -0.337 N 
ATOM     91  H   UNL A   1      36.228  19.879  25.878  1.00  0.00     0.346 HD
ATOM     92  H   UNL A   1      35.753  21.450  26.287  1.00  0.00     0.346 HD
BRANCH  90  93
ATOM     93  C   UNL A   1      37.123  21.357  24.814  1.00  0.00     0.300 C 
BRANCH  93  94
ATOM     94  C   UNL A   1      38.063  22.126  25.705  1.00  0.00     0.045 A 
ATOM     95  C   UNL A   1      39.210  21.520  26.238  1.00  0.00     0.051 A 
ATOM     96  C   UNL A   1      37.841  23.483  25.973  1.00  0.00     0.132 A 
ATOM     97  C   UNL A   1      40.106  22.271  26.995  1.00  0.00     0.123 A 
ATOM     98  C   UNL A   1      38.736  24.228  26.738  1.00  0.00     0.043 A 
ATOM     99  F   UNL A   1      36.758  24.092  25.473  1.00  0.00    -0.206 F 
ATOM    100  F   UNL A   1      41.210  21.685  27.473  1.00  0.00    -0.207 F 
ATOM    101  C   UNL A   1      39.880  23.619  27.248  1.00  0.00     0.042 A 
ENDBRANCH  93  94
ENDBRANCH  90  93
ENDBRANCH  89  90
ENDBRANCH  88  89
ENDBRANCH  80  83
ENDBRANCH  78  79
ENDBRANCH  77  78
ENDBRANCH   1  77
TORSDOF 20
ENDMDL
