MODEL 1
REMARK VINA RESULT:     -12.4      0.000      0.000
REMARK SMILES O=C(NCCCCCCNC(=O)c1ccc(-c2c3nc(c(-c4c(F)cc(S(=O)(=O)[O-])cc4F)c4ccc([nH]4)c(-c4c(F)cc(S(=O)(=O)[O-])cc4F)c4nc(c(-c5c(F)cc(S(=O)(=O)[O-])cc5F)c5ccc2[nH]5)C=C4)C=C3)cc1)C1=Cc2c(cc(Cl)c(Cl)c2Cl)O[C@H]1C(F)(F)F
REMARK SMILES IDX 7 1 6 2 5 3 4 4 3 5 1 6 2 7 79 9 80 10 91 11 81 12 90 13
REMARK SMILES IDX 82 14 88 15 83 16 86 17 89 18 84 19 87 20 85 21 92 22 93 23
REMARK SMILES IDX 94 24 95 25 8 26 9 27 10 28 11 29 12 31 13 32 14 33 78 34
REMARK SMILES IDX 15 35 77 36 16 37 17 38 18 39 71 40 19 41 76 42 70 43 72 44
REMARK SMILES IDX 20 45 75 46 69 47 68 48 21 50 55 51 34 52 54 53 35 54 38 55
REMARK SMILES IDX 53 56 73 57 36 58 37 59 52 61 74 62 39 63 22 64 23 65 32 66
REMARK SMILES IDX 24 67 25 68 31 69 33 70 26 71 27 72 28 73 29 74 30 75 56 76
REMARK SMILES IDX 57 77 66 78 58 79 59 80 65 81 67 82 60 83 61 84 62 85 63 86
REMARK SMILES IDX 64 87 40 88 41 89 50 90 42 91 43 92 49 93 51 94 44 95 45 96
REMARK SMILES IDX 46 97 47 98 48 99
REMARK H PARENT 3 8 10 30 72 49 38 60
REMARK Flexibility Score: inf
ROOT
ATOM      1  C   UNL A   1      32.876  29.278  27.061  1.00  0.00     0.002 C 
ENDROOT
BRANCH   1   2
ATOM      2  C   UNL A   1      32.625  30.053  25.760  1.00  0.00     0.002 C 
BRANCH   2   3
ATOM      3  C   UNL A   1      32.480  29.239  24.473  1.00  0.00     0.021 C 
BRANCH   3   4
ATOM      4  C   UNL A   1      33.670  28.364  24.106  1.00  0.00     0.116 C 
BRANCH   4   5
ATOM      5  N   UNL A   1      33.633  27.751  22.784  1.00  0.00    -0.352 N 
ATOM      6  O   UNL A   1      33.510  25.940  21.391  1.00  0.00    -0.270 OA
ATOM      7  C   UNL A   1      33.471  26.403  22.518  1.00  0.00     0.251 C 
ATOM      8  H   UNL A   1      33.733  28.350  22.009  1.00  0.00     0.163 HD
BRANCH   7   9
ATOM      9  C   UNL A   1      33.287  25.544  23.714  1.00  0.00     0.067 C 
ATOM     10  C   UNL A   1      34.409  25.014  24.213  1.00  0.00     0.027 C 
ATOM     11  C   UNL A   1      31.911  25.000  23.930  1.00  0.00     0.314 C 
ATOM     12  C   UNL A   1      34.325  23.613  24.648  1.00  0.00     0.037 A 
ATOM     13  O   UNL A   1      31.897  23.585  24.250  1.00  0.00    -0.475 OA
ATOM     14  C   UNL A   1      33.085  22.963  24.535  1.00  0.00     0.131 A 
ATOM     15  C   UNL A   1      35.488  22.839  24.875  1.00  0.00     0.072 A 
ATOM     16  C   UNL A   1      33.011  21.571  24.593  1.00  0.00     0.069 A 
ATOM     17  C   UNL A   1      35.416  21.432  24.888  1.00  0.00     0.079 A 
ATOM     18  Cl  UNL A   1      37.034  23.632  25.046  1.00  0.00    -0.082 Cl
ATOM     19  C   UNL A   1      34.172  20.809  24.730  1.00  0.00     0.064 A 
ATOM     20  Cl  UNL A   1      36.861  20.475  25.001  1.00  0.00    -0.081 Cl
ATOM     21  Cl  UNL A   1      33.997  19.092  24.618  1.00  0.00    -0.083 Cl
BRANCH  11  22
ATOM     22  C   UNL A   1      31.100  25.798  24.965  1.00  0.00     0.429 C 
ATOM     23  F   UNL A   1      30.404  26.818  24.415  1.00  0.00    -0.167 F 
ATOM     24  F   UNL A   1      30.194  24.995  25.580  1.00  0.00    -0.167 F 
ATOM     25  F   UNL A   1      31.886  26.327  25.932  1.00  0.00    -0.167 F 
ENDBRANCH  11  22
ENDBRANCH   7   9
ENDBRANCH   4   5
ENDBRANCH   3   4
ENDBRANCH   2   3
ENDBRANCH   1   2
BRANCH   1  26
ATOM     26  C   UNL A   1      34.330  29.075  27.508  1.00  0.00     0.021 C 
BRANCH  26  27
ATOM     27  C   UNL A   1      35.169  30.329  27.749  1.00  0.00     0.116 C 
BRANCH  27  28
ATOM     28  N   UNL A   1      35.179  30.757  29.134  1.00  0.00    -0.352 N 
ATOM     29  C   UNL A   1      36.175  30.732  30.079  1.00  0.00     0.251 C 
ATOM     30  H   UNL A   1      34.325  31.130  29.451  1.00  0.00     0.163 HD
ATOM     31  O   UNL A   1      35.900  31.078  31.227  1.00  0.00    -0.269 OA
BRANCH  29  32
ATOM     32  C   UNL A   1      37.557  30.280  29.768  1.00  0.00     0.039 A 
ATOM     33  C   UNL A   1      37.929  30.189  28.419  1.00  0.00     0.014 A 
ATOM     34  C   UNL A   1      38.464  29.877  30.752  1.00  0.00     0.014 A 
ATOM     35  C   UNL A   1      39.210  29.753  28.063  1.00  0.00     0.010 A 
ATOM     36  C   UNL A   1      39.760  29.484  30.399  1.00  0.00     0.010 A 
ATOM     37  C   UNL A   1      40.147  29.418  29.051  1.00  0.00    -0.014 A 
BRANCH  37  38
ATOM     38  C   UNL A   1      41.527  29.001  28.686  1.00  0.00     0.031 A 
ATOM     39  C   UNL A   1      42.649  30.001  28.654  1.00  0.00     0.074 A 
ATOM     40  C   UNL A   1      41.768  27.722  28.336  1.00  0.00     0.049 A 
ATOM     41  N   UNL A   1      43.895  29.835  28.285  1.00  0.00    -0.248 NA
ATOM     42  C   UNL A   1      42.324  31.372  29.077  1.00  0.00     0.031 C 
ATOM     43  C   UNL A   1      40.769  26.654  28.292  1.00  0.00     0.029 A 
ATOM     44  N   UNL A   1      42.931  27.107  27.939  1.00  0.00    -0.354 N 
ATOM     45  C   UNL A   1      44.498  31.081  28.408  1.00  0.00     0.074 A 
ATOM     46  C   UNL A   1      43.475  31.998  28.870  1.00  0.00     0.031 C 
ATOM     47  C   UNL A   1      41.360  25.515  27.895  1.00  0.00     0.029 A 
ATOM     48  C   UNL A   1      42.775  25.776  27.636  1.00  0.00     0.049 A 
ATOM     49  H   UNL A   1      43.794  27.576  27.877  1.00  0.00     0.167 HD
ATOM     50  C   UNL A   1      45.785  31.431  28.167  1.00  0.00     0.037 A 
ATOM     51  C   UNL A   1      43.664  24.867  27.192  1.00  0.00     0.037 A 
ATOM     52  C   UNL A   1      46.815  30.522  27.736  1.00  0.00     0.049 A 
ATOM     53  C   UNL A   1      45.094  25.266  26.972  1.00  0.00     0.074 A 
ATOM     54  C   UNL A   1      48.153  30.786  27.495  1.00  0.00     0.029 A 
ATOM     55  N   UNL A   1      46.625  29.172  27.488  1.00  0.00    -0.354 N 
ATOM     56  N   UNL A   1      45.650  26.445  27.114  1.00  0.00    -0.248 NA
ATOM     57  C   UNL A   1      46.021  24.211  26.537  1.00  0.00     0.031 C 
ATOM     58  C   UNL A   1      48.770  29.596  27.090  1.00  0.00     0.029 A 
ATOM     59  C   UNL A   1      47.819  28.588  27.095  1.00  0.00     0.049 A 
ATOM     60  H   UNL A   1      45.767  28.696  27.576  1.00  0.00     0.167 HD
ATOM     61  C   UNL A   1      46.991  26.273  26.792  1.00  0.00     0.074 A 
ATOM     62  C   UNL A   1      47.168  24.874  26.460  1.00  0.00     0.031 C 
ATOM     63  C   UNL A   1      47.984  27.195  26.771  1.00  0.00     0.037 A 
BRANCH  50  64
ATOM     64  C   UNL A   1      46.144  32.874  28.363  1.00  0.00     0.058 A 
ATOM     65  C   UNL A   1      46.596  33.353  29.602  1.00  0.00     0.135 A 
ATOM     66  C   UNL A   1      46.032  33.788  27.304  1.00  0.00     0.135 A 
ATOM     67  F   UNL A   1      46.707  32.519  30.649  1.00  0.00    -0.206 F 
ATOM     68  C   UNL A   1      46.892  34.698  29.796  1.00  0.00     0.059 A 
ATOM     69  C   UNL A   1      46.337  35.135  27.470  1.00  0.00     0.059 A 
ATOM     70  F   UNL A   1      45.603  33.378  26.100  1.00  0.00    -0.206 F 
ATOM     71  C   UNL A   1      46.747  35.584  28.727  1.00  0.00     0.060 A 
BRANCH  71  72
ATOM     72  S   UNL A   1      47.096  37.336  28.986  1.00  0.00     0.124 S 
ATOM     73  O   UNL A   1      46.326  37.607  30.196  1.00  0.00    -0.237 OA
ATOM     74  O   UNL A   1      48.547  37.356  29.143  1.00  0.00    -0.237 OA
ATOM     75  O   UNL A   1      46.594  37.961  27.767  1.00  0.00    -0.744 OA
ENDBRANCH  71  72
ENDBRANCH  50  64
BRANCH  51  76
ATOM     76  C   UNL A   1      43.219  23.475  26.940  1.00  0.00     0.058 A 
ATOM     77  C   UNL A   1      43.040  23.005  25.631  1.00  0.00     0.135 A 
ATOM     78  C   UNL A   1      43.006  22.581  27.998  1.00  0.00     0.135 A 
ATOM     79  F   UNL A   1      43.228  23.831  24.591  1.00  0.00    -0.206 F 
ATOM     80  C   UNL A   1      42.663  21.691  25.378  1.00  0.00     0.059 A 
ATOM     81  C   UNL A   1      42.642  21.258  27.770  1.00  0.00     0.059 A 
ATOM     82  F   UNL A   1      43.176  22.987  29.266  1.00  0.00    -0.206 F 
ATOM     83  C   UNL A   1      42.469  20.824  26.455  1.00  0.00     0.060 A 
BRANCH  83  84
ATOM     84  S   UNL A   1      42.057  19.096  26.125  1.00  0.00     0.124 S 
ATOM     85  O   UNL A   1      42.936  18.795  25.002  1.00  0.00    -0.237 OA
ATOM     86  O   UNL A   1      42.392  18.446  27.389  1.00  0.00    -0.237 OA
ATOM     87  O   UNL A   1      40.631  19.151  25.819  1.00  0.00    -0.744 OA
ENDBRANCH  83  84
ENDBRANCH  51  76
BRANCH  63  88
ATOM     88  C   UNL A   1      49.354  26.719  26.387  1.00  0.00     0.058 A 
ATOM     89  C   UNL A   1      50.188  26.077  27.315  1.00  0.00     0.135 A 
ATOM     90  C   UNL A   1      49.821  26.869  25.073  1.00  0.00     0.135 A 
ATOM     91  F   UNL A   1      49.786  25.916  28.585  1.00  0.00    -0.206 F 
ATOM     92  C   UNL A   1      51.449  25.610  26.955  1.00  0.00     0.059 A 
ATOM     93  C   UNL A   1      51.074  26.399  24.688  1.00  0.00     0.059 A 
ATOM     94  F   UNL A   1      49.058  27.474  24.148  1.00  0.00    -0.206 F 
ATOM     95  C   UNL A   1      51.884  25.780  25.640  1.00  0.00     0.060 A 
BRANCH  95  96
ATOM     96  S   UNL A   1      53.507  25.143  25.165  1.00  0.00     0.124 S 
ATOM     97  O   UNL A   1      53.597  25.577  23.774  1.00  0.00    -0.237 OA
ATOM     98  O   UNL A   1      54.402  25.820  26.099  1.00  0.00    -0.237 OA
ATOM     99  O   UNL A   1      53.374  23.703  25.369  1.00  0.00    -0.744 OA
ENDBRANCH  95  96
ENDBRANCH  63  88
ENDBRANCH  37  38
ENDBRANCH  29  32
ENDBRANCH  27  28
ENDBRANCH  26  27
ENDBRANCH   1  26
TORSDOF 17
ENDMDL
MODEL 2
REMARK VINA RESULT:     -12.3      6.569     11.883
REMARK SMILES O=C(NCCCCCCNC(=O)c1ccc(-c2c3nc(c(-c4c(F)cc(S(=O)(=O)[O-])cc4F)c4ccc([nH]4)c(-c4c(F)cc(S(=O)(=O)[O-])cc4F)c4nc(c(-c5c(F)cc(S(=O)(=O)[O-])cc5F)c5ccc2[nH]5)C=C4)C=C3)cc1)C1=Cc2c(cc(Cl)c(Cl)c2Cl)O[C@H]1C(F)(F)F
REMARK SMILES IDX 7 1 6 2 5 3 4 4 3 5 1 6 2 7 79 9 80 10 91 11 81 12 90 13
REMARK SMILES IDX 82 14 88 15 83 16 86 17 89 18 84 19 87 20 85 21 92 22 93 23
REMARK SMILES IDX 94 24 95 25 8 26 9 27 10 28 11 29 12 31 13 32 14 33 78 34
REMARK SMILES IDX 15 35 77 36 16 37 17 38 18 39 71 40 19 41 76 42 70 43 72 44
REMARK SMILES IDX 20 45 75 46 69 47 68 48 21 50 55 51 34 52 54 53 35 54 38 55
REMARK SMILES IDX 53 56 73 57 36 58 37 59 52 61 74 62 39 63 22 64 23 65 32 66
REMARK SMILES IDX 24 67 25 68 31 69 33 70 26 71 27 72 28 73 29 74 30 75 56 76
REMARK SMILES IDX 57 77 66 78 58 79 59 80 65 81 67 82 60 83 61 84 62 85 63 86
REMARK SMILES IDX 64 87 40 88 41 89 50 90 42 91 43 92 49 93 51 94 44 95 45 96
REMARK SMILES IDX 46 97 47 98 48 99
REMARK H PARENT 3 8 10 30 72 49 38 60
REMARK Flexibility Score: inf
ROOT
ATOM      1  C   UNL A   1      37.210  22.663  25.029  1.00  0.00     0.002 C 
ENDROOT
BRANCH   1   2
ATOM      2  C   UNL A   1      36.098  21.607  24.966  1.00  0.00     0.002 C 
BRANCH   2   3
ATOM      3  C   UNL A   1      35.113  21.553  26.135  1.00  0.00     0.021 C 
BRANCH   3   4
ATOM      4  C   UNL A   1      34.577  22.895  26.613  1.00  0.00     0.116 C 
BRANCH   4   5
ATOM      5  N   UNL A   1      33.216  22.894  27.135  1.00  0.00    -0.352 N 
ATOM      6  O   UNL A   1      31.093  23.738  27.267  1.00  0.00    -0.270 OA
ATOM      7  C   UNL A   1      32.197  23.746  26.749  1.00  0.00     0.251 C 
ATOM      8  H   UNL A   1      33.002  22.227  27.826  1.00  0.00     0.163 HD
BRANCH   7   9
ATOM      9  C   UNL A   1      32.556  24.710  25.679  1.00  0.00     0.067 C 
ATOM     10  C   UNL A   1      32.917  25.926  26.104  1.00  0.00     0.027 C 
ATOM     11  C   UNL A   1      32.042  24.398  24.309  1.00  0.00     0.314 C 
ATOM     12  C   UNL A   1      32.400  27.062  25.328  1.00  0.00     0.037 A 
ATOM     13  O   UNL A   1      31.448  25.542  23.645  1.00  0.00    -0.475 OA
ATOM     14  C   UNL A   1      31.607  26.784  24.204  1.00  0.00     0.131 A 
ATOM     15  C   UNL A   1      32.419  28.379  25.847  1.00  0.00     0.072 A 
ATOM     16  C   UNL A   1      30.810  27.780  23.639  1.00  0.00     0.069 A 
ATOM     17  C   UNL A   1      31.580  29.371  25.302  1.00  0.00     0.079 A 
ATOM     18  Cl  UNL A   1      33.421  28.750  27.227  1.00  0.00    -0.082 Cl
ATOM     19  C   UNL A   1      30.767  29.054  24.206  1.00  0.00     0.064 A 
ATOM     20  Cl  UNL A   1      31.478  30.942  26.037  1.00  0.00    -0.081 Cl
ATOM     21  Cl  UNL A   1      29.623  30.167  23.542  1.00  0.00    -0.083 Cl
BRANCH  11  22
ATOM     22  C   UNL A   1      33.092  23.731  23.406  1.00  0.00     0.429 C 
ATOM     23  F   UNL A   1      32.868  23.947  22.090  1.00  0.00    -0.167 F 
ATOM     24  F   UNL A   1      34.329  24.221  23.676  1.00  0.00    -0.167 F 
ATOM     25  F   UNL A   1      33.145  22.390  23.586  1.00  0.00    -0.167 F 
ENDBRANCH  11  22
ENDBRANCH   7   9
ENDBRANCH   4   5
ENDBRANCH   3   4
ENDBRANCH   2   3
ENDBRANCH   1   2
BRANCH   1  26
ATOM     26  C   UNL A   1      38.269  22.528  26.131  1.00  0.00     0.021 C 
BRANCH  26  27
ATOM     27  C   UNL A   1      39.022  23.795  26.535  1.00  0.00     0.116 C 
BRANCH  27  28
ATOM     28  N   UNL A   1      40.411  23.797  26.117  1.00  0.00    -0.352 N 
ATOM     29  C   UNL A   1      41.463  24.599  26.486  1.00  0.00     0.251 C 
ATOM     30  H   UNL A   1      40.638  23.104  25.456  1.00  0.00     0.163 HD
ATOM     31  O   UNL A   1      42.539  24.451  25.910  1.00  0.00    -0.269 OA
BRANCH  29  32
ATOM     32  C   UNL A   1      41.336  25.650  27.530  1.00  0.00     0.039 A 
ATOM     33  C   UNL A   1      40.268  25.551  28.434  1.00  0.00     0.014 A 
ATOM     34  C   UNL A   1      42.184  26.758  27.600  1.00  0.00     0.014 A 
ATOM     35  C   UNL A   1      40.086  26.518  29.428  1.00  0.00     0.010 A 
ATOM     36  C   UNL A   1      42.030  27.703  28.622  1.00  0.00     0.010 A 
ATOM     37  C   UNL A   1      40.979  27.593  29.547  1.00  0.00    -0.014 A 
BRANCH  37  38
ATOM     38  C   UNL A   1      40.825  28.600  30.629  1.00  0.00     0.031 A 
ATOM     39  C   UNL A   1      41.682  28.539  31.863  1.00  0.00     0.074 A 
ATOM     40  C   UNL A   1      39.876  29.552  30.527  1.00  0.00     0.049 A 
ATOM     41  N   UNL A   1      41.635  29.283  32.940  1.00  0.00    -0.248 NA
ATOM     42  C   UNL A   1      42.718  27.496  31.897  1.00  0.00     0.031 C 
ATOM     43  C   UNL A   1      38.954  29.709  29.402  1.00  0.00     0.029 A 
ATOM     44  N   UNL A   1      39.524  30.560  31.390  1.00  0.00    -0.354 N 
ATOM     45  C   UNL A   1      42.616  28.786  33.790  1.00  0.00     0.074 A 
ATOM     46  C   UNL A   1      43.231  27.664  33.109  1.00  0.00     0.031 C 
ATOM     47  C   UNL A   1      38.144  30.754  29.640  1.00  0.00     0.029 A 
ATOM     48  C   UNL A   1      38.475  31.327  30.943  1.00  0.00     0.049 A 
ATOM     49  H   UNL A   1      39.980  30.719  32.248  1.00  0.00     0.167 HD
ATOM     50  C   UNL A   1      42.978  29.225  35.020  1.00  0.00     0.037 A 
ATOM     51  C   UNL A   1      37.842  32.368  31.517  1.00  0.00     0.037 A 
ATOM     52  C   UNL A   1      42.393  30.355  35.693  1.00  0.00     0.049 A 
ATOM     53  C   UNL A   1      38.287  32.864  32.862  1.00  0.00     0.074 A 
ATOM     54  C   UNL A   1      42.719  30.886  36.930  1.00  0.00     0.029 A 
ATOM     55  N   UNL A   1      41.366  31.133  35.184  1.00  0.00    -0.354 N 
ATOM     56  N   UNL A   1      39.231  32.394  33.642  1.00  0.00    -0.248 NA
ATOM     57  C   UNL A   1      37.586  34.037  33.405  1.00  0.00     0.031 C 
ATOM     58  C   UNL A   1      41.880  31.981  37.174  1.00  0.00     0.029 A 
ATOM     59  C   UNL A   1      41.044  32.140  36.080  1.00  0.00     0.049 A 
ATOM     60  H   UNL A   1      40.928  30.992  34.314  1.00  0.00     0.167 HD
ATOM     61  C   UNL A   1      39.242  33.214  34.763  1.00  0.00     0.074 A 
ATOM     62  C   UNL A   1      38.219  34.221  34.557  1.00  0.00     0.031 C 
ATOM     63  C   UNL A   1      40.027  33.137  35.864  1.00  0.00     0.037 A 
BRANCH  50  64
ATOM     64  C   UNL A   1      44.064  28.462  35.720  1.00  0.00     0.058 A 
ATOM     65  C   UNL A   1      43.770  27.375  36.558  1.00  0.00     0.135 A 
ATOM     66  C   UNL A   1      45.410  28.823  35.555  1.00  0.00     0.135 A 
ATOM     67  F   UNL A   1      42.496  27.001  36.758  1.00  0.00    -0.206 F 
ATOM     68  C   UNL A   1      44.773  26.692  37.238  1.00  0.00     0.059 A 
ATOM     69  C   UNL A   1      46.430  28.144  36.212  1.00  0.00     0.059 A 
ATOM     70  F   UNL A   1      45.740  29.856  34.765  1.00  0.00    -0.206 F 
ATOM     71  C   UNL A   1      46.100  27.093  37.069  1.00  0.00     0.060 A 
BRANCH  71  72
ATOM     72  S   UNL A   1      47.399  26.230  37.978  1.00  0.00     0.124 S 
ATOM     73  O   UNL A   1      48.453  27.239  38.000  1.00  0.00    -0.237 OA
ATOM     74  O   UNL A   1      46.763  25.952  39.263  1.00  0.00    -0.237 OA
ATOM     75  O   UNL A   1      47.665  25.058  37.150  1.00  0.00    -0.744 OA
ENDBRANCH  71  72
ENDBRANCH  50  64
BRANCH  51  76
ATOM     76  C   UNL A   1      36.719  33.022  30.802  1.00  0.00     0.058 A 
ATOM     77  C   UNL A   1      35.393  32.804  31.199  1.00  0.00     0.135 A 
ATOM     78  C   UNL A   1      36.955  33.906  29.740  1.00  0.00     0.135 A 
ATOM     79  F   UNL A   1      35.124  31.961  32.207  1.00  0.00    -0.206 F 
ATOM     80  C   UNL A   1      34.332  33.443  30.566  1.00  0.00     0.059 A 
ATOM     81  C   UNL A   1      35.912  34.567  29.100  1.00  0.00     0.059 A 
ATOM     82  F   UNL A   1      38.211  34.151  29.336  1.00  0.00    -0.206 F 
ATOM     83  C   UNL A   1      34.603  34.325  29.518  1.00  0.00     0.060 A 
BRANCH  83  84
ATOM     84  S   UNL A   1      33.233  35.215  28.746  1.00  0.00     0.124 S 
ATOM     85  O   UNL A   1      32.581  34.152  27.993  1.00  0.00    -0.237 OA
ATOM     86  O   UNL A   1      32.497  35.723  29.901  1.00  0.00    -0.237 OA
ATOM     87  O   UNL A   1      33.910  36.235  27.951  1.00  0.00    -0.744 OA
ENDBRANCH  83  84
ENDBRANCH  51  76
BRANCH  63  88
ATOM     88  C   UNL A   1      39.821  34.175  36.927  1.00  0.00     0.058 A 
ATOM     89  C   UNL A   1      39.070  33.898  38.080  1.00  0.00     0.135 A 
ATOM     90  C   UNL A   1      40.411  35.443  36.813  1.00  0.00     0.135 A 
ATOM     91  F   UNL A   1      38.482  32.702  38.231  1.00  0.00    -0.206 F 
ATOM     92  C   UNL A   1      38.900  34.851  39.080  1.00  0.00     0.059 A 
ATOM     93  C   UNL A   1      40.263  36.407  37.806  1.00  0.00     0.059 A 
ATOM     94  F   UNL A   1      41.142  35.753  35.730  1.00  0.00    -0.206 F 
ATOM     95  C   UNL A   1      39.497  36.104  38.932  1.00  0.00     0.060 A 
BRANCH  95  96
ATOM     96  S   UNL A   1      39.303  37.328  40.246  1.00  0.00     0.124 S 
ATOM     97  O   UNL A   1      38.586  36.559  41.259  1.00  0.00    -0.237 OA
ATOM     98  O   UNL A   1      40.684  37.671  40.571  1.00  0.00    -0.237 OA
ATOM     99  O   UNL A   1      38.536  38.391  39.602  1.00  0.00    -0.744 OA
ENDBRANCH  95  96
ENDBRANCH  63  88
ENDBRANCH  37  38
ENDBRANCH  29  32
ENDBRANCH  27  28
ENDBRANCH  26  27
ENDBRANCH   1  26
TORSDOF 17
ENDMDL
MODEL 3
REMARK VINA RESULT:     -12.0      1.307      2.095
REMARK SMILES O=C(NCCCCCCNC(=O)c1ccc(-c2c3nc(c(-c4c(F)cc(S(=O)(=O)[O-])cc4F)c4ccc([nH]4)c(-c4c(F)cc(S(=O)(=O)[O-])cc4F)c4nc(c(-c5c(F)cc(S(=O)(=O)[O-])cc5F)c5ccc2[nH]5)C=C4)C=C3)cc1)C1=Cc2c(cc(Cl)c(Cl)c2Cl)O[C@H]1C(F)(F)F
REMARK SMILES IDX 7 1 6 2 5 3 4 4 3 5 1 6 2 7 79 9 80 10 91 11 81 12 90 13
REMARK SMILES IDX 82 14 88 15 83 16 86 17 89 18 84 19 87 20 85 21 92 22 93 23
REMARK SMILES IDX 94 24 95 25 8 26 9 27 10 28 11 29 12 31 13 32 14 33 78 34
REMARK SMILES IDX 15 35 77 36 16 37 17 38 18 39 71 40 19 41 76 42 70 43 72 44
REMARK SMILES IDX 20 45 75 46 69 47 68 48 21 50 55 51 34 52 54 53 35 54 38 55
REMARK SMILES IDX 53 56 73 57 36 58 37 59 52 61 74 62 39 63 22 64 23 65 32 66
REMARK SMILES IDX 24 67 25 68 31 69 33 70 26 71 27 72 28 73 29 74 30 75 56 76
REMARK SMILES IDX 57 77 66 78 58 79 59 80 65 81 67 82 60 83 61 84 62 85 63 86
REMARK SMILES IDX 64 87 40 88 41 89 50 90 42 91 43 92 49 93 51 94 44 95 45 96
REMARK SMILES IDX 46 97 47 98 48 99
REMARK H PARENT 3 8 10 30 72 49 38 60
REMARK Flexibility Score: inf
ROOT
ATOM      1  C   UNL A   1      32.643  29.455  26.999  1.00  0.00     0.002 C 
ENDROOT
BRANCH   1   2
ATOM      2  C   UNL A   1      31.425  28.545  26.791  1.00  0.00     0.002 C 
BRANCH   2   3
ATOM      3  C   UNL A   1      31.612  27.050  27.057  1.00  0.00     0.021 C 
BRANCH   3   4
ATOM      4  C   UNL A   1      31.074  26.115  25.984  1.00  0.00     0.116 C 
BRANCH   4   5
ATOM      5  N   UNL A   1      30.231  26.725  24.962  1.00  0.00    -0.352 N 
ATOM      6  O   UNL A   1      29.857  27.513  22.847  1.00  0.00    -0.270 OA
ATOM      7  C   UNL A   1      30.583  26.940  23.642  1.00  0.00     0.251 C 
ATOM      8  H   UNL A   1      29.331  27.011  25.236  1.00  0.00     0.163 HD
BRANCH   7   9
ATOM      9  C   UNL A   1      31.936  26.460  23.266  1.00  0.00     0.067 C 
ATOM     10  C   UNL A   1      32.015  25.161  22.958  1.00  0.00     0.027 C 
ATOM     11  C   UNL A   1      33.085  27.308  23.712  1.00  0.00     0.314 C 
ATOM     12  C   UNL A   1      33.191  24.444  23.475  1.00  0.00     0.037 A 
ATOM     13  O   UNL A   1      34.162  26.544  24.310  1.00  0.00    -0.475 OA
ATOM     14  C   UNL A   1      34.136  25.176  24.211  1.00  0.00     0.131 A 
ATOM     15  C   UNL A   1      33.234  23.030  23.515  1.00  0.00     0.072 A 
ATOM     16  C   UNL A   1      35.069  24.519  25.011  1.00  0.00     0.069 A 
ATOM     17  C   UNL A   1      34.149  22.369  24.359  1.00  0.00     0.079 A 
ATOM     18  Cl  UNL A   1      32.084  22.103  22.585  1.00  0.00    -0.082 Cl
ATOM     19  C   UNL A   1      35.053  23.127  25.115  1.00  0.00     0.064 A 
ATOM     20  Cl  UNL A   1      34.097  20.643  24.538  1.00  0.00    -0.081 Cl
ATOM     21  Cl  UNL A   1      36.133  22.416  26.262  1.00  0.00    -0.083 Cl
BRANCH  11  22
ATOM     22  C   UNL A   1      33.622  28.230  22.605  1.00  0.00     0.429 C 
ATOM     23  F   UNL A   1      33.815  27.587  21.432  1.00  0.00    -0.167 F 
ATOM     24  F   UNL A   1      32.745  29.236  22.359  1.00  0.00    -0.167 F 
ATOM     25  F   UNL A   1      34.802  28.802  22.944  1.00  0.00    -0.167 F 
ENDBRANCH  11  22
ENDBRANCH   7   9
ENDBRANCH   4   5
ENDBRANCH   3   4
ENDBRANCH   2   3
ENDBRANCH   1   2
BRANCH   1  26
ATOM     26  C   UNL A   1      33.999  28.792  27.276  1.00  0.00     0.021 C 
BRANCH  26  27
ATOM     27  C   UNL A   1      35.194  29.715  27.510  1.00  0.00     0.116 C 
BRANCH  27  28
ATOM     28  N   UNL A   1      35.204  30.321  28.827  1.00  0.00    -0.352 N 
ATOM     29  C   UNL A   1      36.211  30.456  29.751  1.00  0.00     0.251 C 
ATOM     30  H   UNL A   1      34.340  30.702  29.107  1.00  0.00     0.163 HD
ATOM     31  O   UNL A   1      35.936  30.938  30.849  1.00  0.00    -0.269 OA
BRANCH  29  32
ATOM     32  C   UNL A   1      37.605  30.015  29.480  1.00  0.00     0.039 A 
ATOM     33  C   UNL A   1      38.025  29.953  28.143  1.00  0.00     0.014 A 
ATOM     34  C   UNL A   1      38.479  29.596  30.486  1.00  0.00     0.014 A 
ATOM     35  C   UNL A   1      39.319  29.530  27.823  1.00  0.00     0.010 A 
ATOM     36  C   UNL A   1      39.789  29.216  30.171  1.00  0.00     0.010 A 
ATOM     37  C   UNL A   1      40.223  29.179  28.836  1.00  0.00    -0.014 A 
BRANCH  37  38
ATOM     38  C   UNL A   1      41.616  28.775  28.511  1.00  0.00     0.031 A 
ATOM     39  C   UNL A   1      42.726  29.790  28.493  1.00  0.00     0.074 A 
ATOM     40  C   UNL A   1      41.883  27.495  28.186  1.00  0.00     0.049 A 
ATOM     41  N   UNL A   1      43.983  29.635  28.157  1.00  0.00    -0.248 NA
ATOM     42  C   UNL A   1      42.373  31.162  28.888  1.00  0.00     0.031 C 
ATOM     43  C   UNL A   1      40.899  26.413  28.132  1.00  0.00     0.029 A 
ATOM     44  N   UNL A   1      43.063  26.890  27.826  1.00  0.00    -0.354 N 
ATOM     45  C   UNL A   1      44.566  30.891  28.277  1.00  0.00     0.074 A 
ATOM     46  C   UNL A   1      43.520  31.801  28.701  1.00  0.00     0.031 C 
ATOM     47  C   UNL A   1      41.515  25.277  27.767  1.00  0.00     0.029 A 
ATOM     48  C   UNL A   1      42.932  25.553  27.539  1.00  0.00     0.049 A 
ATOM     49  H   UNL A   1      43.921  27.369  27.779  1.00  0.00     0.167 HD
ATOM     50  C   UNL A   1      45.854  31.254  28.063  1.00  0.00     0.037 A 
ATOM     51  C   UNL A   1      43.844  24.651  27.130  1.00  0.00     0.037 A 
ATOM     52  C   UNL A   1      46.906  30.354  27.671  1.00  0.00     0.049 A 
ATOM     53  C   UNL A   1      45.274  25.065  26.939  1.00  0.00     0.074 A 
ATOM     54  C   UNL A   1      48.247  30.632  27.459  1.00  0.00     0.029 A 
ATOM     55  N   UNL A   1      46.740  28.998  27.437  1.00  0.00    -0.354 N 
ATOM     56  N   UNL A   1      45.811  26.253  27.078  1.00  0.00    -0.248 NA
ATOM     57  C   UNL A   1      46.225  24.017  26.542  1.00  0.00     0.031 C 
ATOM     58  C   UNL A   1      48.889  29.445  27.086  1.00  0.00     0.029 A 
ATOM     59  C   UNL A   1      47.951  28.425  27.083  1.00  0.00     0.049 A 
ATOM     60  H   UNL A   1      45.887  28.512  27.511  1.00  0.00     0.167 HD
ATOM     61  C   UNL A   1      47.161  26.095  26.792  1.00  0.00     0.074 A 
ATOM     62  C   UNL A   1      47.365  24.694  26.484  1.00  0.00     0.031 C 
ATOM     63  C   UNL A   1      48.142  27.030  26.782  1.00  0.00     0.037 A 
BRANCH  50  64
ATOM     64  C   UNL A   1      46.189  32.705  28.247  1.00  0.00     0.058 A 
ATOM     65  C   UNL A   1      46.076  33.620  27.189  1.00  0.00     0.135 A 
ATOM     66  C   UNL A   1      46.632  33.184  29.489  1.00  0.00     0.135 A 
ATOM     67  F   UNL A   1      45.671  33.207  25.978  1.00  0.00    -0.206 F 
ATOM     68  C   UNL A   1      46.424  34.958  27.347  1.00  0.00     0.059 A 
ATOM     69  C   UNL A   1      46.969  34.521  29.675  1.00  0.00     0.059 A 
ATOM     70  F   UNL A   1      46.757  32.347  30.530  1.00  0.00    -0.206 F 
ATOM     71  C   UNL A   1      46.882  35.396  28.591  1.00  0.00     0.060 A 
BRANCH  71  72
ATOM     72  S   UNL A   1      47.367  37.123  28.788  1.00  0.00     0.124 S 
ATOM     73  O   UNL A   1      46.971  37.378  30.169  1.00  0.00    -0.237 OA
ATOM     74  O   UNL A   1      48.806  37.085  28.540  1.00  0.00    -0.237 OA
ATOM     75  O   UNL A   1      46.580  37.810  27.770  1.00  0.00    -0.744 OA
ENDBRANCH  71  72
ENDBRANCH  50  64
BRANCH  51  76
ATOM     76  C   UNL A   1      43.423  23.249  26.887  1.00  0.00     0.058 A 
ATOM     77  C   UNL A   1      43.285  22.758  25.581  1.00  0.00     0.135 A 
ATOM     78  C   UNL A   1      43.193  22.368  27.952  1.00  0.00     0.135 A 
ATOM     79  F   UNL A   1      43.490  23.571  24.534  1.00  0.00    -0.206 F 
ATOM     80  C   UNL A   1      42.932  21.436  25.337  1.00  0.00     0.059 A 
ATOM     81  C   UNL A   1      42.852  21.037  27.734  1.00  0.00     0.059 A 
ATOM     82  F   UNL A   1      43.325  22.794  29.217  1.00  0.00    -0.206 F 
ATOM     83  C   UNL A   1      42.720  20.582  26.421  1.00  0.00     0.060 A 
BRANCH  83  84
ATOM     84  S   UNL A   1      42.339  18.844  26.106  1.00  0.00     0.124 S 
ATOM     85  O   UNL A   1      40.956  18.925  25.656  1.00  0.00    -0.237 OA
ATOM     86  O   UNL A   1      43.322  18.486  25.087  1.00  0.00    -0.237 OA
ATOM     87  O   UNL A   1      42.549  18.220  27.409  1.00  0.00    -0.744 OA
ENDBRANCH  83  84
ENDBRANCH  51  76
BRANCH  63  88
ATOM     88  C   UNL A   1      49.527  26.566  26.439  1.00  0.00     0.058 A 
ATOM     89  C   UNL A   1      50.365  25.995  27.409  1.00  0.00     0.135 A 
ATOM     90  C   UNL A   1      50.007  26.657  25.124  1.00  0.00     0.135 A 
ATOM     91  F   UNL A   1      49.953  25.894  28.682  1.00  0.00    -0.206 F 
ATOM     92  C   UNL A   1      51.641  25.541  27.088  1.00  0.00     0.059 A 
ATOM     93  C   UNL A   1      51.274  26.197  24.778  1.00  0.00     0.059 A 
ATOM     94  F   UNL A   1      49.240  27.192  24.160  1.00  0.00    -0.206 F 
ATOM     95  C   UNL A   1      52.087  25.649  25.770  1.00  0.00     0.060 A 
BRANCH  95  96
ATOM     96  S   UNL A   1      53.730  25.027  25.347  1.00  0.00     0.124 S 
ATOM     97  O   UNL A   1      54.538  25.572  26.434  1.00  0.00    -0.237 OA
ATOM     98  O   UNL A   1      53.539  23.580  25.364  1.00  0.00    -0.237 OA
ATOM     99  O   UNL A   1      53.977  25.604  24.028  1.00  0.00    -0.744 OA
ENDBRANCH  95  96
ENDBRANCH  63  88
ENDBRANCH  37  38
ENDBRANCH  29  32
ENDBRANCH  27  28
ENDBRANCH  26  27
ENDBRANCH   1  26
TORSDOF 17
ENDMDL
