MODEL 1
REMARK VINA RESULT:     -10.4      0.000      0.000
REMARK SMILES CCC[NH2+][C@]1(C(=O)NCCCCCCNC(=O)c2ccc(-c3c4nc(c(-c5c(F)cc(S(=O)(=O)[O-])cc5F)c5ccc([nH]5)c(-c5c(F)cc(S(=O)(=O)[O-])cc5F)c5nc(c(-c6c(F)cc(S(=O)(=O)[O-])cc6F)c6ccc3[nH]6)C=C5)C=C4)cc2)CCC[C@H](OC(C)(C)C)C1
REMARK SMILES IDX 11 1 10 2 9 3 8 4 6 5 7 6 5 8 84 9 93 10 85 11 87 12 86 13
REMARK SMILES IDX 4 14 3 17 2 18 1 19 88 20 89 21 90 22 91 23 92 24 12 25
REMARK SMILES IDX 13 26 14 27 15 28 16 29 17 31 18 32 19 33 83 34 20 35 82 36
REMARK SMILES IDX 21 37 22 38 23 39 76 40 24 41 81 42 75 43 77 44 25 45 80 46
REMARK SMILES IDX 74 47 73 48 26 50 60 51 39 52 59 53 40 54 43 55 58 56 78 57
REMARK SMILES IDX 41 58 42 59 57 61 79 62 44 63 27 64 28 65 37 66 29 67 30 68
REMARK SMILES IDX 36 69 38 70 31 71 32 72 33 73 34 74 35 75 61 76 62 77 71 78
REMARK SMILES IDX 63 79 64 80 70 81 72 82 65 83 66 84 67 85 68 86 69 87 45 88
REMARK SMILES IDX 46 89 55 90 47 91 48 92 54 93 56 94 49 95 50 96 51 97 52 98
REMARK SMILES IDX 53 99
REMARK H PARENT 8 7 4 15 4 16 15 30 77 49 43 60
REMARK Flexibility Score: inf
ROOT
ATOM      1  C   UNL A   1      38.794  21.492  25.809  1.00  0.00     0.002 C 
ENDROOT
BRANCH   1   2
ATOM      2  C   UNL A   1      37.460  21.859  25.166  1.00  0.00     0.021 C 
BRANCH   2   3
ATOM      3  C   UNL A   1      36.697  22.972  25.889  1.00  0.00     0.116 C 
BRANCH   3   4
ATOM      4  N   UNL A   1      35.570  22.426  26.614  1.00  0.00    -0.351 N 
ATOM      5  C   UNL A   1      34.340  22.953  26.867  1.00  0.00     0.281 C 
ATOM      6  O   UNL A   1      33.889  22.642  27.983  1.00  0.00    -0.268 OA
ATOM      7  H   UNL A   1      35.715  21.526  26.984  1.00  0.00     0.163 HD
BRANCH   5   8
ATOM      8  C   UNL A   1      33.414  23.698  25.830  1.00  0.00     0.178 C 
ATOM      9  C   UNL A   1      31.989  23.461  26.436  1.00  0.00     0.079 C 
ATOM     10  C   UNL A   1      33.736  25.227  25.897  1.00  0.00     0.111 C 
ATOM     11  C   UNL A   1      30.903  24.462  26.053  1.00  0.00     0.010 C 
ATOM     12  C   UNL A   1      32.647  26.136  25.288  1.00  0.00     0.125 C 
ATOM     13  C   UNL A   1      31.366  25.915  26.085  1.00  0.00     0.032 C 
BRANCH   8  14
ATOM     14  N   UNL A   1      33.435  23.147  24.447  1.00  0.00    -0.334 N 
ATOM     15  H   UNL A   1      32.914  23.788  23.849  1.00  0.00     0.347 HD
ATOM     16  H   UNL A   1      34.422  23.055  24.204  1.00  0.00     0.347 HD
BRANCH  14  17
ATOM     17  C   UNL A   1      32.863  21.809  24.276  1.00  0.00     0.261 C 
BRANCH  17  18
ATOM     18  C   UNL A   1      32.214  21.547  22.907  1.00  0.00     0.058 C 
ATOM     19  C   UNL A   1      32.636  22.514  21.817  1.00  0.00     0.010 C 
ENDBRANCH  17  18
ENDBRANCH  14  17
ENDBRANCH   8  14
BRANCH  12  20
ATOM     20  O   UNL A   1      32.565  25.851  23.901  1.00  0.00    -0.372 OA
BRANCH  20  21
ATOM     21  C   UNL A   1      32.520  26.832  22.870  1.00  0.00     0.060 C 
ATOM     22  C   UNL A   1      31.078  27.272  22.596  1.00  0.00     0.042 C 
ATOM     23  C   UNL A   1      33.446  28.022  23.103  1.00  0.00     0.042 C 
ATOM     24  C   UNL A   1      32.995  26.086  21.610  1.00  0.00     0.042 C 
ENDBRANCH  20  21
ENDBRANCH  12  20
ENDBRANCH   5   8
ENDBRANCH   3   4
ENDBRANCH   2   3
ENDBRANCH   1   2
BRANCH   1  25
ATOM     25  C   UNL A   1      39.566  22.681  26.387  1.00  0.00     0.002 C 
BRANCH  25  26
ATOM     26  C   UNL A   1      40.493  22.362  27.566  1.00  0.00     0.021 C 
BRANCH  26  27
ATOM     27  C   UNL A   1      41.763  23.209  27.646  1.00  0.00     0.116 C 
BRANCH  27  28
ATOM     28  N   UNL A   1      41.967  23.990  26.440  1.00  0.00    -0.352 N 
ATOM     29  C   UNL A   1      41.744  25.323  26.209  1.00  0.00     0.251 C 
ATOM     30  H   UNL A   1      42.319  23.486  25.671  1.00  0.00     0.163 HD
ATOM     31  O   UNL A   1      41.745  25.748  25.058  1.00  0.00    -0.269 OA
BRANCH  29  32
ATOM     32  C   UNL A   1      41.500  26.244  27.339  1.00  0.00     0.039 A 
ATOM     33  C   UNL A   1      42.419  27.269  27.580  1.00  0.00     0.014 A 
ATOM     34  C   UNL A   1      40.405  26.068  28.190  1.00  0.00     0.014 A 
ATOM     35  C   UNL A   1      42.222  28.137  28.656  1.00  0.00     0.010 A 
ATOM     36  C   UNL A   1      40.176  26.974  29.225  1.00  0.00     0.010 A 
ATOM     37  C   UNL A   1      41.092  28.006  29.477  1.00  0.00    -0.014 A 
BRANCH  37  38
ATOM     38  C   UNL A   1      40.869  28.925  30.622  1.00  0.00     0.031 A 
ATOM     39  C   UNL A   1      41.699  28.788  31.871  1.00  0.00     0.074 A 
ATOM     40  C   UNL A   1      39.893  29.850  30.553  1.00  0.00     0.049 A 
ATOM     41  N   UNL A   1      41.623  29.461  32.990  1.00  0.00    -0.248 NA
ATOM     42  C   UNL A   1      42.731  27.738  31.871  1.00  0.00     0.031 C 
ATOM     43  C   UNL A   1      38.992  30.046  29.414  1.00  0.00     0.029 A 
ATOM     44  N   UNL A   1      39.486  30.793  31.463  1.00  0.00    -0.354 N 
ATOM     45  C   UNL A   1      42.583  28.909  33.831  1.00  0.00     0.074 A 
ATOM     46  C   UNL A   1      43.195  27.814  33.111  1.00  0.00     0.031 C 
ATOM     47  C   UNL A   1      38.152  31.057  29.686  1.00  0.00     0.029 A 
ATOM     48  C   UNL A   1      38.432  31.562  31.028  1.00  0.00     0.049 A 
ATOM     49  H   UNL A   1      39.908  30.909  32.344  1.00  0.00     0.167 HD
ATOM     50  C   UNL A   1      42.936  29.293  35.080  1.00  0.00     0.037 A 
ATOM     51  C   UNL A   1      37.767  32.560  31.641  1.00  0.00     0.037 A 
ATOM     52  C   UNL A   1      42.344  30.405  35.778  1.00  0.00     0.049 A 
ATOM     53  C   UNL A   1      38.195  32.986  33.018  1.00  0.00     0.074 A 
ATOM     54  C   UNL A   1      42.669  30.912  37.024  1.00  0.00     0.029 A 
ATOM     55  N   UNL A   1      41.306  31.184  35.287  1.00  0.00    -0.354 N 
ATOM     56  N   UNL A   1      39.144  32.490  33.776  1.00  0.00    -0.248 NA
ATOM     57  C   UNL A   1      37.472  34.114  33.620  1.00  0.00     0.031 C 
ATOM     58  C   UNL A   1      41.804  31.976  37.302  1.00  0.00     0.029 A 
ATOM     59  C   UNL A   1      40.971  32.161  36.210  1.00  0.00     0.049 A 
ATOM     60  H   UNL A   1      40.872  31.061  34.412  1.00  0.00     0.167 HD
ATOM     61  C   UNL A   1      39.153  33.265  34.930  1.00  0.00     0.074 A 
ATOM     62  C   UNL A   1      38.120  34.267  34.767  1.00  0.00     0.031 C 
ATOM     63  C   UNL A   1      39.947  33.159  36.024  1.00  0.00     0.037 A 
BRANCH  50  64
ATOM     64  C   UNL A   1      44.019  28.509  35.773  1.00  0.00     0.058 A 
ATOM     65  C   UNL A   1      45.377  28.821  35.603  1.00  0.00     0.135 A 
ATOM     66  C   UNL A   1      43.692  27.458  36.645  1.00  0.00     0.135 A 
ATOM     67  F   UNL A   1      45.746  29.806  34.769  1.00  0.00    -0.206 F 
ATOM     68  C   UNL A   1      46.376  28.100  36.250  1.00  0.00     0.059 A 
ATOM     69  C   UNL A   1      44.674  26.741  37.324  1.00  0.00     0.059 A 
ATOM     70  F   UNL A   1      42.410  27.118  36.845  1.00  0.00    -0.206 F 
ATOM     71  C   UNL A   1      46.014  27.059  37.108  1.00  0.00     0.060 A 
BRANCH  71  72
ATOM     72  S   UNL A   1      47.320  26.138  37.946  1.00  0.00     0.124 S 
ATOM     73  O   UNL A   1      47.690  27.064  39.011  1.00  0.00    -0.237 OA
ATOM     74  O   UNL A   1      46.626  24.927  38.372  1.00  0.00    -0.237 OA
ATOM     75  O   UNL A   1      48.325  25.947  36.904  1.00  0.00    -0.744 OA
ENDBRANCH  71  72
ENDBRANCH  50  64
BRANCH  51  76
ATOM     76  C   UNL A   1      36.646  33.241  30.942  1.00  0.00     0.058 A 
ATOM     77  C   UNL A   1      35.316  33.038  31.341  1.00  0.00     0.135 A 
ATOM     78  C   UNL A   1      36.879  34.122  29.875  1.00  0.00     0.135 A 
ATOM     79  F   UNL A   1      35.042  32.201  32.354  1.00  0.00    -0.206 F 
ATOM     80  C   UNL A   1      34.257  33.669  30.699  1.00  0.00     0.059 A 
ATOM     81  C   UNL A   1      35.839  34.784  29.232  1.00  0.00     0.059 A 
ATOM     82  F   UNL A   1      38.135  34.366  29.467  1.00  0.00    -0.206 F 
ATOM     83  C   UNL A   1      34.529  34.543  29.645  1.00  0.00     0.060 A 
BRANCH  83  84
ATOM     84  S   UNL A   1      33.151  35.397  28.849  1.00  0.00     0.124 S 
ATOM     85  O   UNL A   1      33.847  36.407  28.061  1.00  0.00    -0.237 OA
ATOM     86  O   UNL A   1      32.518  34.321  28.093  1.00  0.00    -0.237 OA
ATOM     87  O   UNL A   1      32.373  35.899  29.977  1.00  0.00    -0.744 OA
ENDBRANCH  83  84
ENDBRANCH  51  76
BRANCH  63  88
ATOM     88  C   UNL A   1      39.763  34.178  37.113  1.00  0.00     0.058 A 
ATOM     89  C   UNL A   1      38.914  33.947  38.206  1.00  0.00     0.135 A 
ATOM     90  C   UNL A   1      40.486  35.382  37.086  1.00  0.00     0.135 A 
ATOM     91  F   UNL A   1      38.196  32.815  38.276  1.00  0.00    -0.206 F 
ATOM     92  C   UNL A   1      38.770  34.885  39.223  1.00  0.00     0.059 A 
ATOM     93  C   UNL A   1      40.376  36.322  38.105  1.00  0.00     0.059 A 
ATOM     94  F   UNL A   1      41.321  35.647  36.068  1.00  0.00    -0.206 F 
ATOM     95  C   UNL A   1      39.506  36.069  39.164  1.00  0.00     0.060 A 
BRANCH  95  96
ATOM     96  S   UNL A   1      39.333  37.266  40.504  1.00  0.00     0.124 S 
ATOM     97  O   UNL A   1      38.963  36.405  41.622  1.00  0.00    -0.237 OA
ATOM     98  O   UNL A   1      40.668  37.855  40.573  1.00  0.00    -0.237 OA
ATOM     99  O   UNL A   1      38.284  38.162  40.026  1.00  0.00    -0.744 OA
ENDBRANCH  95  96
ENDBRANCH  63  88
ENDBRANCH  37  38
ENDBRANCH  29  32
ENDBRANCH  27  28
ENDBRANCH  26  27
ENDBRANCH  25  26
ENDBRANCH   1  25
TORSDOF 21
ENDMDL
MODEL 2
REMARK VINA RESULT:     -10.3      2.494      8.709
REMARK SMILES CCC[NH2+][C@]1(C(=O)NCCCCCCNC(=O)c2ccc(-c3c4nc(c(-c5c(F)cc(S(=O)(=O)[O-])cc5F)c5ccc([nH]5)c(-c5c(F)cc(S(=O)(=O)[O-])cc5F)c5nc(c(-c6c(F)cc(S(=O)(=O)[O-])cc6F)c6ccc3[nH]6)C=C5)C=C4)cc2)CCC[C@H](OC(C)(C)C)C1
REMARK SMILES IDX 11 1 10 2 9 3 8 4 6 5 7 6 5 8 84 9 93 10 85 11 87 12 86 13
REMARK SMILES IDX 4 14 3 17 2 18 1 19 88 20 89 21 90 22 91 23 92 24 12 25
REMARK SMILES IDX 13 26 14 27 15 28 16 29 17 31 18 32 19 33 83 34 20 35 82 36
REMARK SMILES IDX 21 37 22 38 23 39 76 40 24 41 81 42 75 43 77 44 25 45 80 46
REMARK SMILES IDX 74 47 73 48 26 50 60 51 39 52 59 53 40 54 43 55 58 56 78 57
REMARK SMILES IDX 41 58 42 59 57 61 79 62 44 63 27 64 28 65 37 66 29 67 30 68
REMARK SMILES IDX 36 69 38 70 31 71 32 72 33 73 34 74 35 75 61 76 62 77 71 78
REMARK SMILES IDX 63 79 64 80 70 81 72 82 65 83 66 84 67 85 68 86 69 87 45 88
REMARK SMILES IDX 46 89 55 90 47 91 48 92 54 93 56 94 49 95 50 96 51 97 52 98
REMARK SMILES IDX 53 99
REMARK H PARENT 8 7 4 15 4 16 15 30 77 49 43 60
REMARK Flexibility Score: inf
ROOT
ATOM      1  C   UNL A   1      32.560  30.225  26.853  1.00  0.00     0.002 C 
ENDROOT
BRANCH   1   2
ATOM      2  C   UNL A   1      32.701  28.944  26.038  1.00  0.00     0.021 C 
BRANCH   2   3
ATOM      3  C   UNL A   1      34.006  28.843  25.244  1.00  0.00     0.116 C 
BRANCH   3   4
ATOM      4  N   UNL A   1      33.731  28.746  23.827  1.00  0.00    -0.351 N 
ATOM      5  C   UNL A   1      33.714  27.663  23.000  1.00  0.00     0.281 C 
ATOM      6  O   UNL A   1      34.126  27.910  21.853  1.00  0.00    -0.268 OA
ATOM      7  H   UNL A   1      33.522  29.601  23.388  1.00  0.00     0.163 HD
BRANCH   5   8
ATOM      8  C   UNL A   1      33.046  26.267  23.306  1.00  0.00     0.178 C 
ATOM      9  C   UNL A   1      33.143  25.547  21.919  1.00  0.00     0.079 C 
ATOM     10  C   UNL A   1      33.953  25.506  24.328  1.00  0.00     0.111 C 
ATOM     11  C   UNL A   1      33.121  24.022  21.932  1.00  0.00     0.010 C 
ATOM     12  C   UNL A   1      33.695  23.985  24.401  1.00  0.00     0.125 C 
ATOM     13  C   UNL A   1      33.988  23.403  23.023  1.00  0.00     0.032 C 
BRANCH   8  14
ATOM     14  N   UNL A   1      31.614  26.321  23.710  1.00  0.00    -0.334 N 
ATOM     15  H   UNL A   1      31.244  25.372  23.669  1.00  0.00     0.347 HD
ATOM     16  H   UNL A   1      31.608  26.734  24.643  1.00  0.00     0.347 HD
BRANCH  14  17
ATOM     17  C   UNL A   1      30.746  27.176  22.897  1.00  0.00     0.261 C 
BRANCH  17  18
ATOM     18  C   UNL A   1      29.953  28.235  23.680  1.00  0.00     0.058 C 
ATOM     19  C   UNL A   1      30.032  29.635  23.099  1.00  0.00     0.010 C 
ENDBRANCH  17  18
ENDBRANCH  14  17
ENDBRANCH   8  14
BRANCH  12  20
ATOM     20  O   UNL A   1      32.375  23.790  24.883  1.00  0.00    -0.372 OA
BRANCH  20  21
ATOM     21  C   UNL A   1      32.025  22.945  25.975  1.00  0.00     0.060 C 
ATOM     22  C   UNL A   1      33.210  22.763  26.929  1.00  0.00     0.042 C 
ATOM     23  C   UNL A   1      30.759  23.374  26.711  1.00  0.00     0.042 C 
ATOM     24  C   UNL A   1      31.770  21.571  25.329  1.00  0.00     0.042 C 
ENDBRANCH  20  21
ENDBRANCH  12  20
ENDBRANCH   5   8
ENDBRANCH   3   4
ENDBRANCH   2   3
ENDBRANCH   1   2
BRANCH   1  25
ATOM     25  C   UNL A   1      31.325  31.062  26.508  1.00  0.00     0.002 C 
BRANCH  25  26
ATOM     26  C   UNL A   1      31.519  32.583  26.553  1.00  0.00     0.021 C 
BRANCH  26  27
ATOM     27  C   UNL A   1      32.705  33.065  27.387  1.00  0.00     0.116 C 
BRANCH  27  28
ATOM     28  N   UNL A   1      32.553  34.451  27.789  1.00  0.00    -0.352 N 
ATOM     29  C   UNL A   1      33.124  35.128  28.835  1.00  0.00     0.251 C 
ATOM     30  H   UNL A   1      31.949  34.986  27.225  1.00  0.00     0.163 HD
ATOM     31  O   UNL A   1      32.686  36.228  29.158  1.00  0.00    -0.269 OA
BRANCH  29  32
ATOM     32  C   UNL A   1      34.260  34.538  29.574  1.00  0.00     0.039 A 
ATOM     33  C   UNL A   1      35.532  34.580  28.996  1.00  0.00     0.014 A 
ATOM     34  C   UNL A   1      34.068  33.899  30.803  1.00  0.00     0.014 A 
ATOM     35  C   UNL A   1      36.616  34.007  29.664  1.00  0.00     0.010 A 
ATOM     36  C   UNL A   1      35.161  33.385  31.498  1.00  0.00     0.010 A 
ATOM     37  C   UNL A   1      36.443  33.419  30.927  1.00  0.00    -0.014 A 
BRANCH  37  38
ATOM     38  C   UNL A   1      37.588  32.811  31.650  1.00  0.00     0.031 A 
ATOM     39  C   UNL A   1      38.275  31.595  31.087  1.00  0.00     0.074 A 
ATOM     40  C   UNL A   1      37.979  33.326  32.831  1.00  0.00     0.049 A 
ATOM     41  N   UNL A   1      39.257  30.894  31.591  1.00  0.00    -0.248 NA
ATOM     42  C   UNL A   1      37.772  31.084  29.800  1.00  0.00     0.031 C 
ATOM     43  C   UNL A   1      37.359  34.472  33.500  1.00  0.00     0.029 A 
ATOM     44  N   UNL A   1      38.984  32.947  33.686  1.00  0.00    -0.354 N 
ATOM     45  C   UNL A   1      39.480  29.854  30.695  1.00  0.00     0.074 A 
ATOM     46  C   UNL A   1      38.499  29.987  29.641  1.00  0.00     0.031 C 
ATOM     47  C   UNL A   1      38.008  34.714  34.651  1.00  0.00     0.029 A 
ATOM     48  C   UNL A   1      39.068  33.723  34.817  1.00  0.00     0.049 A 
ATOM     49  H   UNL A   1      39.586  32.189  33.506  1.00  0.00     0.167 HD
ATOM     50  C   UNL A   1      40.430  28.890  30.737  1.00  0.00     0.037 A 
ATOM     51  C   UNL A   1      39.906  33.646  35.869  1.00  0.00     0.037 A 
ATOM     52  C   UNL A   1      41.424  28.784  31.774  1.00  0.00     0.049 A 
ATOM     53  C   UNL A   1      40.969  32.582  35.880  1.00  0.00     0.074 A 
ATOM     54  C   UNL A   1      42.465  27.878  31.880  1.00  0.00     0.029 A 
ATOM     55  N   UNL A   1      41.502  29.614  32.883  1.00  0.00    -0.354 N 
ATOM     56  N   UNL A   1      41.203  31.642  34.995  1.00  0.00    -0.248 NA
ATOM     57  C   UNL A   1      41.891  32.574  37.024  1.00  0.00     0.031 C 
ATOM     58  C   UNL A   1      43.151  28.138  33.071  1.00  0.00     0.029 A 
ATOM     59  C   UNL A   1      42.566  29.235  33.684  1.00  0.00     0.049 A 
ATOM     60  H   UNL A   1      40.890  30.363  33.073  1.00  0.00     0.167 HD
ATOM     61  C   UNL A   1      42.316  30.951  35.460  1.00  0.00     0.074 A 
ATOM     62  C   UNL A   1      42.714  31.586  36.700  1.00  0.00     0.031 C 
ATOM     63  C   UNL A   1      42.954  29.889  34.909  1.00  0.00     0.037 A 
BRANCH  50  64
ATOM     64  C   UNL A   1      40.445  27.874  29.627  1.00  0.00     0.058 A 
ATOM     65  C   UNL A   1      41.346  27.969  28.554  1.00  0.00     0.135 A 
ATOM     66  C   UNL A   1      39.573  26.773  29.653  1.00  0.00     0.135 A 
ATOM     67  F   UNL A   1      42.191  29.009  28.470  1.00  0.00    -0.206 F 
ATOM     68  C   UNL A   1      41.363  27.026  27.531  1.00  0.00     0.059 A 
ATOM     69  C   UNL A   1      39.591  25.803  28.655  1.00  0.00     0.059 A 
ATOM     70  F   UNL A   1      38.691  26.632  30.655  1.00  0.00    -0.206 F 
ATOM     71  C   UNL A   1      40.480  25.946  27.590  1.00  0.00     0.060 A 
BRANCH  71  72
ATOM     72  S   UNL A   1      40.519  24.726  26.260  1.00  0.00     0.124 S 
ATOM     73  O   UNL A   1      41.138  25.492  25.183  1.00  0.00    -0.237 OA
ATOM     74  O   UNL A   1      41.338  23.663  26.833  1.00  0.00    -0.237 OA
ATOM     75  O   UNL A   1      39.111  24.392  26.063  1.00  0.00    -0.744 OA
ENDBRANCH  71  72
ENDBRANCH  50  64
BRANCH  51  76
ATOM     76  C   UNL A   1      39.788  34.623  36.983  1.00  0.00     0.058 A 
ATOM     77  C   UNL A   1      38.930  34.382  38.067  1.00  0.00     0.135 A 
ATOM     78  C   UNL A   1      40.543  35.807  36.997  1.00  0.00     0.135 A 
ATOM     79  F   UNL A   1      38.186  33.266  38.096  1.00  0.00    -0.206 F 
ATOM     80  C   UNL A   1      38.811  35.285  39.117  1.00  0.00     0.059 A 
ATOM     81  C   UNL A   1      40.458  36.714  38.048  1.00  0.00     0.059 A 
ATOM     82  F   UNL A   1      41.393  36.074  35.993  1.00  0.00    -0.206 F 
ATOM     83  C   UNL A   1      39.582  36.450  39.099  1.00  0.00     0.060 A 
BRANCH  83  84
ATOM     84  S   UNL A   1      39.457  37.594  40.491  1.00  0.00     0.124 S 
ATOM     85  O   UNL A   1      39.275  36.676  41.609  1.00  0.00    -0.237 OA
ATOM     86  O   UNL A   1      40.740  38.287  40.435  1.00  0.00    -0.237 OA
ATOM     87  O   UNL A   1      38.297  38.412  40.147  1.00  0.00    -0.744 OA
ENDBRANCH  83  84
ENDBRANCH  51  76
BRANCH  63  88
ATOM     88  C   UNL A   1      44.176  29.373  35.616  1.00  0.00     0.058 A 
ATOM     89  C   UNL A   1      44.102  28.335  36.557  1.00  0.00     0.135 A 
ATOM     90  C   UNL A   1      45.444  29.892  35.309  1.00  0.00     0.135 A 
ATOM     91  F   UNL A   1      42.913  27.808  36.890  1.00  0.00    -0.206 F 
ATOM     92  C   UNL A   1      45.242  27.845  37.187  1.00  0.00     0.059 A 
ATOM     93  C   UNL A   1      46.599  29.401  35.908  1.00  0.00     0.059 A 
ATOM     94  F   UNL A   1      45.570  30.879  34.407  1.00  0.00    -0.206 F 
ATOM     95  C   UNL A   1      46.486  28.385  36.855  1.00  0.00     0.060 A 
BRANCH  95  96
ATOM     96  S   UNL A   1      47.961  27.722  37.658  1.00  0.00     0.124 S 
ATOM     97  O   UNL A   1      48.969  28.706  37.281  1.00  0.00    -0.237 OA
ATOM     98  O   UNL A   1      47.576  27.716  39.067  1.00  0.00    -0.237 OA
ATOM     99  O   UNL A   1      48.113  26.403  37.052  1.00  0.00    -0.744 OA
ENDBRANCH  95  96
ENDBRANCH  63  88
ENDBRANCH  37  38
ENDBRANCH  29  32
ENDBRANCH  27  28
ENDBRANCH  26  27
ENDBRANCH  25  26
ENDBRANCH   1  25
TORSDOF 21
ENDMDL
MODEL 3
REMARK VINA RESULT:     -10.1      6.357     11.926
REMARK SMILES CCC[NH2+][C@]1(C(=O)NCCCCCCNC(=O)c2ccc(-c3c4nc(c(-c5c(F)cc(S(=O)(=O)[O-])cc5F)c5ccc([nH]5)c(-c5c(F)cc(S(=O)(=O)[O-])cc5F)c5nc(c(-c6c(F)cc(S(=O)(=O)[O-])cc6F)c6ccc3[nH]6)C=C5)C=C4)cc2)CCC[C@H](OC(C)(C)C)C1
REMARK SMILES IDX 11 1 10 2 9 3 8 4 6 5 7 6 5 8 84 9 93 10 85 11 87 12 86 13
REMARK SMILES IDX 4 14 3 17 2 18 1 19 88 20 89 21 90 22 91 23 92 24 12 25
REMARK SMILES IDX 13 26 14 27 15 28 16 29 17 31 18 32 19 33 83 34 20 35 82 36
REMARK SMILES IDX 21 37 22 38 23 39 76 40 24 41 81 42 75 43 77 44 25 45 80 46
REMARK SMILES IDX 74 47 73 48 26 50 60 51 39 52 59 53 40 54 43 55 58 56 78 57
REMARK SMILES IDX 41 58 42 59 57 61 79 62 44 63 27 64 28 65 37 66 29 67 30 68
REMARK SMILES IDX 36 69 38 70 31 71 32 72 33 73 34 74 35 75 61 76 62 77 71 78
REMARK SMILES IDX 63 79 64 80 70 81 72 82 65 83 66 84 67 85 68 86 69 87 45 88
REMARK SMILES IDX 46 89 55 90 47 91 48 92 54 93 56 94 49 95 50 96 51 97 52 98
REMARK SMILES IDX 53 99
REMARK H PARENT 8 7 4 15 4 16 15 30 77 49 43 60
REMARK Flexibility Score: inf
ROOT
ATOM      1  C   UNL A   1      33.331  30.684  27.121  1.00  0.00     0.002 C 
ENDROOT
BRANCH   1   2
ATOM      2  C   UNL A   1      33.191  29.363  26.370  1.00  0.00     0.021 C 
BRANCH   2   3
ATOM      3  C   UNL A   1      31.819  28.698  26.515  1.00  0.00     0.116 C 
BRANCH   3   4
ATOM      4  N   UNL A   1      31.253  28.415  25.214  1.00  0.00    -0.351 N 
ATOM      5  C   UNL A   1      31.677  27.580  24.225  1.00  0.00     0.281 C 
ATOM      6  O   UNL A   1      31.459  28.015  23.082  1.00  0.00    -0.268 OA
ATOM      7  H   UNL A   1      30.423  28.904  25.010  1.00  0.00     0.163 HD
BRANCH   5   8
ATOM      8  C   UNL A   1      32.192  26.100  24.412  1.00  0.00     0.178 C 
ATOM      9  C   UNL A   1      31.397  25.335  23.301  1.00  0.00     0.079 C 
ATOM     10  C   UNL A   1      33.713  26.063  24.052  1.00  0.00     0.111 C 
ATOM     11  C   UNL A   1      32.004  24.030  22.795  1.00  0.00     0.010 C 
ATOM     12  C   UNL A   1      34.265  24.651  23.758  1.00  0.00     0.125 C 
ATOM     13  C   UNL A   1      33.508  24.104  22.553  1.00  0.00     0.032 C 
BRANCH   8  14
ATOM     14  N   UNL A   1      31.878  25.479  25.729  1.00  0.00    -0.334 N 
ATOM     15  H   UNL A   1      32.610  24.799  25.933  1.00  0.00     0.347 HD
ATOM     16  H   UNL A   1      31.827  26.252  26.391  1.00  0.00     0.347 HD
BRANCH  14  17
ATOM     17  C   UNL A   1      30.588  24.791  25.827  1.00  0.00     0.261 C 
BRANCH  17  18
ATOM     18  C   UNL A   1      30.597  23.504  26.667  1.00  0.00     0.058 C 
ATOM     19  C   UNL A   1      31.004  22.258  25.902  1.00  0.00     0.010 C 
ENDBRANCH  17  18
ENDBRANCH  14  17
ENDBRANCH   8  14
BRANCH  12  20
ATOM     20  O   UNL A   1      34.163  23.886  24.948  1.00  0.00    -0.372 OA
BRANCH  20  21
ATOM     21  C   UNL A   1      35.004  22.786  25.283  1.00  0.00     0.060 C 
ATOM     22  C   UNL A   1      34.458  21.482  24.694  1.00  0.00     0.042 C 
ATOM     23  C   UNL A   1      36.475  22.999  24.936  1.00  0.00     0.042 C 
ATOM     24  C   UNL A   1      34.879  22.660  26.812  1.00  0.00     0.042 C 
ENDBRANCH  20  21
ENDBRANCH  12  20
ENDBRANCH   5   8
ENDBRANCH   3   4
ENDBRANCH   2   3
ENDBRANCH   1   2
BRANCH   1  25
ATOM     25  C   UNL A   1      34.751  30.989  27.605  1.00  0.00     0.002 C 
BRANCH  25  26
ATOM     26  C   UNL A   1      35.011  32.439  28.029  1.00  0.00     0.021 C 
BRANCH  26  27
ATOM     27  C   UNL A   1      36.143  32.631  29.039  1.00  0.00     0.116 C 
BRANCH  27  28
ATOM     28  N   UNL A   1      35.867  31.954  30.293  1.00  0.00    -0.352 N 
ATOM     29  C   UNL A   1      36.521  30.905  30.885  1.00  0.00     0.251 C 
ATOM     30  H   UNL A   1      35.095  32.302  30.794  1.00  0.00     0.163 HD
ATOM     31  O   UNL A   1      35.994  30.314  31.822  1.00  0.00    -0.269 OA
BRANCH  29  32
ATOM     32  C   UNL A   1      37.850  30.483  30.396  1.00  0.00     0.039 A 
ATOM     33  C   UNL A   1      38.869  30.263  31.328  1.00  0.00     0.014 A 
ATOM     34  C   UNL A   1      38.111  30.359  29.028  1.00  0.00     0.014 A 
ATOM     35  C   UNL A   1      40.140  29.888  30.888  1.00  0.00     0.010 A 
ATOM     36  C   UNL A   1      39.362  29.922  28.595  1.00  0.00     0.010 A 
ATOM     37  C   UNL A   1      40.393  29.699  29.520  1.00  0.00    -0.014 A 
BRANCH  37  38
ATOM     38  C   UNL A   1      41.739  29.296  29.041  1.00  0.00     0.031 A 
ATOM     39  C   UNL A   1      42.846  30.313  28.960  1.00  0.00     0.074 A 
ATOM     40  C   UNL A   1      41.950  28.029  28.637  1.00  0.00     0.049 A 
ATOM     41  N   UNL A   1      44.071  30.168  28.525  1.00  0.00    -0.248 NA
ATOM     42  C   UNL A   1      42.525  31.681  29.403  1.00  0.00     0.031 C 
ATOM     43  C   UNL A   1      40.940  26.967  28.623  1.00  0.00     0.029 A 
ATOM     44  N   UNL A   1      43.079  27.419  28.150  1.00  0.00    -0.354 N 
ATOM     45  C   UNL A   1      44.661  31.422  28.626  1.00  0.00     0.074 A 
ATOM     46  C   UNL A   1      43.647  32.328  29.117  1.00  0.00     0.031 C 
ATOM     47  C   UNL A   1      41.500  25.834  28.169  1.00  0.00     0.029 A 
ATOM     48  C   UNL A   1      42.897  26.094  27.831  1.00  0.00     0.049 A 
ATOM     49  H   UNL A   1      43.937  27.887  28.039  1.00  0.00     0.167 HD
ATOM     50  C   UNL A   1      45.938  31.781  28.354  1.00  0.00     0.037 A 
ATOM     51  C   UNL A   1      43.759  25.192  27.324  1.00  0.00     0.037 A 
ATOM     52  C   UNL A   1      46.951  30.866  27.895  1.00  0.00     0.049 A 
ATOM     53  C   UNL A   1      45.178  25.608  27.054  1.00  0.00     0.074 A 
ATOM     54  C   UNL A   1      48.289  31.116  27.644  1.00  0.00     0.029 A 
ATOM     55  N   UNL A   1      46.738  29.522  27.622  1.00  0.00    -0.354 N 
ATOM     56  N   UNL A   1      45.736  26.786  27.211  1.00  0.00    -0.248 NA
ATOM     57  C   UNL A   1      46.091  24.572  26.552  1.00  0.00     0.031 C 
ATOM     58  C   UNL A   1      48.877  29.932  27.186  1.00  0.00     0.029 A 
ATOM     59  C   UNL A   1      47.916  28.933  27.195  1.00  0.00     0.049 A 
ATOM     60  H   UNL A   1      45.876  29.056  27.718  1.00  0.00     0.167 HD
ATOM     61  C   UNL A   1      47.070  26.625  26.856  1.00  0.00     0.074 A 
ATOM     62  C   UNL A   1      47.238  25.235  26.485  1.00  0.00     0.031 C 
ATOM     63  C   UNL A   1      48.067  27.544  26.842  1.00  0.00     0.037 A 
BRANCH  50  64
ATOM     64  C   UNL A   1      46.316  33.225  28.550  1.00  0.00     0.058 A 
ATOM     65  C   UNL A   1      46.202  34.164  27.512  1.00  0.00     0.135 A 
ATOM     66  C   UNL A   1      46.764  33.682  29.800  1.00  0.00     0.135 A 
ATOM     67  F   UNL A   1      45.795  33.778  26.292  1.00  0.00    -0.206 F 
ATOM     68  C   UNL A   1      46.546  35.499  27.697  1.00  0.00     0.059 A 
ATOM     69  C   UNL A   1      47.087  35.019  30.016  1.00  0.00     0.059 A 
ATOM     70  F   UNL A   1      46.891  32.828  30.827  1.00  0.00    -0.206 F 
ATOM     71  C   UNL A   1      46.989  35.917  28.954  1.00  0.00     0.060 A 
BRANCH  71  72
ATOM     72  S   UNL A   1      47.424  37.654  29.181  1.00  0.00     0.124 S 
ATOM     73  O   UNL A   1      46.979  37.888  30.551  1.00  0.00    -0.237 OA
ATOM     74  O   UNL A   1      48.869  37.645  28.978  1.00  0.00    -0.237 OA
ATOM     75  O   UNL A   1      46.653  38.337  28.146  1.00  0.00    -0.744 OA
ENDBRANCH  71  72
ENDBRANCH  50  64
BRANCH  51  76
ATOM     76  C   UNL A   1      43.306  23.800  27.066  1.00  0.00     0.058 A 
ATOM     77  C   UNL A   1      43.216  22.866  28.109  1.00  0.00     0.135 A 
ATOM     78  C   UNL A   1      42.937  23.379  25.779  1.00  0.00     0.135 A 
ATOM     79  F   UNL A   1      43.562  23.220  29.357  1.00  0.00    -0.206 F 
ATOM     80  C   UNL A   1      42.793  21.560  27.885  1.00  0.00     0.059 A 
ATOM     81  C   UNL A   1      42.488  22.086  25.533  1.00  0.00     0.059 A 
ATOM     82  F   UNL A   1      42.986  24.241  24.751  1.00  0.00    -0.206 F 
ATOM     83  C   UNL A   1      42.428  21.180  26.592  1.00  0.00     0.060 A 
BRANCH  83  84
ATOM     84  S   UNL A   1      41.833  19.497  26.318  1.00  0.00     0.124 S 
ATOM     85  O   UNL A   1      42.218  18.843  27.563  1.00  0.00    -0.237 OA
ATOM     86  O   UNL A   1      40.402  19.706  26.122  1.00  0.00    -0.237 OA
ATOM     87  O   UNL A   1      42.564  19.074  25.127  1.00  0.00    -0.744 OA
ENDBRANCH  83  84
ENDBRANCH  51  76
BRANCH  63  88
ATOM     88  C   UNL A   1      49.440  27.069  26.456  1.00  0.00     0.058 A 
ATOM     89  C   UNL A   1      49.899  27.135  25.132  1.00  0.00     0.135 A 
ATOM     90  C   UNL A   1      50.324  26.587  27.435  1.00  0.00     0.135 A 
ATOM     91  F   UNL A   1      49.092  27.582  24.158  1.00  0.00    -0.206 F 
ATOM     92  C   UNL A   1      51.182  26.718  24.788  1.00  0.00     0.059 A 
ATOM     93  C   UNL A   1      51.618  26.189  27.118  1.00  0.00     0.059 A 
ATOM     94  F   UNL A   1      49.936  26.514  28.719  1.00  0.00    -0.206 F 
ATOM     95  C   UNL A   1      52.033  26.247  25.789  1.00  0.00     0.060 A 
BRANCH  95  96
ATOM     96  S   UNL A   1      53.704  25.736  25.335  1.00  0.00     0.124 S 
ATOM     97  O   UNL A   1      54.437  26.992  25.447  1.00  0.00    -0.237 OA
ATOM     98  O   UNL A   1      54.011  24.730  26.349  1.00  0.00    -0.237 OA
ATOM     99  O   UNL A   1      53.545  25.220  23.979  1.00  0.00    -0.744 OA
ENDBRANCH  95  96
ENDBRANCH  63  88
ENDBRANCH  37  38
ENDBRANCH  29  32
ENDBRANCH  27  28
ENDBRANCH  26  27
ENDBRANCH  25  26
ENDBRANCH   1  25
TORSDOF 21
ENDMDL
