MODEL 1
REMARK VINA RESULT:     -13.5      0.000      0.000
REMARK SMILES Cc1ccc(-c2cnnc(-n3nc(C)c4c3NC(=O)C[C@@H]4c3ccc(C(=O)NCCCCCCNC(=O)c4ccc(-c5c6nc(c(-c7c(F)cc(S(=O)(=O)[O-])cc7F)c7ccc([nH]7)c(-c7c(F)cc(S(=O)(=O)[O-])cc7F)c7nc(c(-c8c(F)cc(S(=O)(=O)[O-])cc8F)c8ccc5[nH]8)C=C7)C=C6)cc4)cc3)n2)cc1
REMARK SMILES IDX 31 1 30 2 29 3 28 4 26 5 27 6 25 8 22 9 23 10 105 11 24 12
REMARK SMILES IDX 104 13 21 14 11 15 12 16 16 17 13 18 15 19 17 20 14 21 18 22
REMARK SMILES IDX 20 24 19 25 10 26 6 27 7 28 106 29 8 30 9 31 5 32 1 33 2 34
REMARK SMILES IDX 3 35 108 36 4 37 107 38 32 39 33 40 34 41 35 42 36 43 37 45
REMARK SMILES IDX 38 46 39 47 103 48 40 49 102 50 41 51 42 52 43 53 96 54
REMARK SMILES IDX 44 55 101 56 95 57 97 58 45 59 100 60 94 61 93 62 46 64
REMARK SMILES IDX 80 65 59 66 79 67 60 68 63 69 78 70 98 71 61 72 62 73 77 75
REMARK SMILES IDX 99 76 64 77 47 78 48 79 57 80 49 81 50 82 56 83 58 84 51 85
REMARK SMILES IDX 52 86 53 87 54 88 55 89 81 90 82 91 91 92 83 93 84 94 90 95
REMARK SMILES IDX 92 96 85 97 86 98 87 99 88 100 89 101 65 102 66 103 75 104
REMARK SMILES IDX 67 105 68 106 74 107 76 108 69 109 70 110 71 111 72 112
REMARK SMILES IDX 73 113
REMARK H PARENT 28 7 17 23 35 44 97 63 63 74
REMARK Flexibility Score: inf
ROOT
ATOM      1  C   UNL A   1      36.502  22.410  24.626  1.00  0.00     0.002 C 
ENDROOT
BRANCH   1   2
ATOM      2  C   UNL A   1      36.232  20.897  24.635  1.00  0.00     0.021 C 
BRANCH   2   3
ATOM      3  C   UNL A   1      35.067  20.470  25.529  1.00  0.00     0.116 C 
BRANCH   3   4
ATOM      4  N   UNL A   1      34.188  19.527  24.848  1.00  0.00    -0.352 N 
ATOM      5  C   UNL A   1      33.001  19.710  24.183  1.00  0.00     0.251 C 
ATOM      6  O   UNL A   1      32.517  18.789  23.530  1.00  0.00    -0.269 OA
ATOM      7  H   UNL A   1      34.501  18.594  24.868  1.00  0.00     0.163 HD
BRANCH   5   8
ATOM      8  C   UNL A   1      32.326  21.028  24.170  1.00  0.00     0.039 A 
ATOM      9  C   UNL A   1      31.428  23.686  24.180  1.00  0.00    -0.040 A 
ATOM     10  C   UNL A   1      31.912  23.098  22.997  1.00  0.00     0.005 A 
ATOM     11  C   UNL A   1      31.221  22.857  25.291  1.00  0.00     0.005 A 
ATOM     12  C   UNL A   1      32.352  21.774  22.991  1.00  0.00     0.014 A 
ATOM     13  C   UNL A   1      31.679  21.541  25.291  1.00  0.00     0.014 A 
BRANCH   9  14
ATOM     14  C   UNL A   1      31.216  25.185  24.188  1.00  0.00     0.064 C 
ATOM     15  N   UNL A   1      33.132  27.312  26.397  1.00  0.00    -0.180 N 
ATOM     16  N   UNL A   1      34.211  26.668  25.873  1.00  0.00    -0.168 NA
ATOM     17  C   UNL A   1      32.002  26.540  26.172  1.00  0.00     0.143 A 
ATOM     18  C   UNL A   1      33.698  25.861  24.940  1.00  0.00     0.066 A 
ATOM     19  C   UNL A   1      32.276  25.856  24.999  1.00  0.00     0.026 A 
ATOM     20  N   UNL A   1      30.810  26.334  26.840  1.00  0.00    -0.310 N 
ATOM     21  C   UNL A   1      34.644  25.045  24.139  1.00  0.00     0.069 C 
ATOM     22  C   UNL A   1      29.779  25.576  26.180  1.00  0.00     0.226 C 
ATOM     23  H   UNL A   1      30.669  26.696  27.744  1.00  0.00     0.171 HD
ATOM     24  C   UNL A   1      29.824  25.594  24.670  1.00  0.00     0.113 C 
ATOM     25  O   UNL A   1      28.902  25.093  26.854  1.00  0.00    -0.275 OA
BRANCH  15  26
ATOM     26  C   UNL A   1      33.190  28.721  26.635  1.00  0.00     0.272 A 
ATOM     27  C   UNL A   1      34.108  30.618  27.510  1.00  0.00     0.095 A 
ATOM     28  C   UNL A   1      32.909  31.281  27.303  1.00  0.00     0.164 A 
ATOM     29  N   UNL A   1      34.259  29.289  27.235  1.00  0.00    -0.208 NA
ATOM     30  N   UNL A   1      31.859  30.658  26.757  1.00  0.00    -0.153 NA
ATOM     31  N   UNL A   1      32.023  29.375  26.380  1.00  0.00    -0.109 NA
BRANCH  27  32
ATOM     32  C   UNL A   1      35.297  31.368  27.930  1.00  0.00     0.002 A 
ATOM     33  C   UNL A   1      38.679  33.648  29.387  1.00  0.00     0.044 C 
ATOM     34  C   UNL A   1      37.496  32.863  28.903  1.00  0.00    -0.051 A 
ATOM     35  C   UNL A   1      37.520  31.465  28.935  1.00  0.00     0.004 A 
ATOM     36  C   UNL A   1      36.365  33.511  28.399  1.00  0.00     0.004 A 
ATOM     37  C   UNL A   1      36.433  30.727  28.456  1.00  0.00     0.011 A 
ATOM     38  C   UNL A   1      35.282  32.771  27.915  1.00  0.00     0.011 A 
ENDBRANCH  27  32
ENDBRANCH  15  26
ENDBRANCH   9  14
ENDBRANCH   5   8
ENDBRANCH   3   4
ENDBRANCH   2   3
ENDBRANCH   1   2
BRANCH   1  39
ATOM     39  C   UNL A   1      37.799  22.876  25.312  1.00  0.00     0.002 C 
BRANCH  39  40
ATOM     40  C   UNL A   1      37.674  24.104  26.213  1.00  0.00     0.021 C 
BRANCH  40  41
ATOM     41  C   UNL A   1      38.816  24.252  27.201  1.00  0.00     0.116 C 
BRANCH  41  42
ATOM     42  N   UNL A   1      39.699  23.100  27.299  1.00  0.00    -0.352 N 
ATOM     43  C   UNL A   1      40.984  23.076  26.756  1.00  0.00     0.251 C 
ATOM     44  H   UNL A   1      39.376  22.301  27.771  1.00  0.00     0.163 HD
ATOM     45  O   UNL A   1      41.392  22.184  26.026  1.00  0.00    -0.269 OA
BRANCH  43  46
ATOM     46  C   UNL A   1      41.892  24.145  27.234  1.00  0.00     0.039 A 
ATOM     47  C   UNL A   1      42.480  24.044  28.500  1.00  0.00     0.014 A 
ATOM     48  C   UNL A   1      41.924  25.342  26.529  1.00  0.00     0.014 A 
ATOM     49  C   UNL A   1      42.918  25.199  29.140  1.00  0.00     0.010 A 
ATOM     50  C   UNL A   1      42.174  26.491  27.215  1.00  0.00     0.010 A 
ATOM     51  C   UNL A   1      42.665  26.415  28.519  1.00  0.00    -0.014 A 
BRANCH  51  52
ATOM     52  C   UNL A   1      42.958  27.722  29.051  1.00  0.00     0.031 A 
ATOM     53  C   UNL A   1      41.825  28.462  29.642  1.00  0.00     0.074 A 
ATOM     54  C   UNL A   1      44.258  28.019  29.256  1.00  0.00     0.049 A 
ATOM     55  N   UNL A   1      41.836  29.720  29.882  1.00  0.00    -0.248 NA
ATOM     56  C   UNL A   1      40.541  27.839  29.980  1.00  0.00     0.031 C 
ATOM     57  C   UNL A   1      44.831  28.976  30.192  1.00  0.00     0.029 A 
ATOM     58  N   UNL A   1      45.356  27.566  28.530  1.00  0.00    -0.354 N 
ATOM     59  C   UNL A   1      40.751  30.000  30.690  1.00  0.00     0.074 A 
ATOM     60  C   UNL A   1      39.913  28.833  30.618  1.00  0.00     0.031 C 
ATOM     61  C   UNL A   1      46.104  29.231  29.835  1.00  0.00     0.029 A 
ATOM     62  C   UNL A   1      46.342  28.563  28.563  1.00  0.00     0.049 A 
ATOM     63  H   UNL A   1      45.427  26.697  28.073  1.00  0.00     0.167 HD
ATOM     64  C   UNL A   1      40.801  31.124  31.458  1.00  0.00     0.037 A 
ATOM     65  C   UNL A   1      46.681  29.217  27.407  1.00  0.00     0.037 A 
ATOM     66  C   UNL A   1      42.070  31.802  31.216  1.00  0.00     0.049 A 
ATOM     67  C   UNL A   1      46.243  30.662  27.423  1.00  0.00     0.074 A 
ATOM     68  C   UNL A   1      43.281  31.732  31.882  1.00  0.00     0.029 A 
ATOM     69  N   UNL A   1      42.321  32.364  29.974  1.00  0.00    -0.354 N 
ATOM     70  N   UNL A   1      45.229  31.106  28.115  1.00  0.00    -0.248 NA
ATOM     71  C   UNL A   1      46.951  31.727  26.718  1.00  0.00     0.031 C 
ATOM     72  C   UNL A   1      44.279  32.226  31.013  1.00  0.00     0.029 A 
ATOM     73  C   UNL A   1      43.671  32.597  29.824  1.00  0.00     0.049 A 
ATOM     74  H   UNL A   1      41.635  32.568  29.299  1.00  0.00     0.167 HD
ATOM     75  C   UNL A   1      45.143  32.467  27.972  1.00  0.00     0.074 A 
ATOM     76  C   UNL A   1      46.240  32.806  27.088  1.00  0.00     0.031 C 
ATOM     77  C   UNL A   1      44.192  33.209  28.614  1.00  0.00     0.037 A 
BRANCH  64  78
ATOM     78  C   UNL A   1      39.912  31.484  32.629  1.00  0.00     0.058 A 
ATOM     79  C   UNL A   1      39.629  32.848  32.888  1.00  0.00     0.135 A 
ATOM     80  C   UNL A   1      39.320  30.584  33.535  1.00  0.00     0.135 A 
ATOM     81  F   UNL A   1      40.066  33.827  32.085  1.00  0.00    -0.206 F 
ATOM     82  C   UNL A   1      38.892  33.285  33.982  1.00  0.00     0.059 A 
ATOM     83  C   UNL A   1      38.589  31.001  34.657  1.00  0.00     0.059 A 
ATOM     84  F   UNL A   1      39.389  29.259  33.357  1.00  0.00    -0.206 F 
ATOM     85  C   UNL A   1      38.388  32.357  34.876  1.00  0.00     0.060 A 
BRANCH  85  86
ATOM     86  S   UNL A   1      37.460  32.967  36.292  1.00  0.00     0.124 S 
ATOM     87  O   UNL A   1      36.198  33.370  35.676  1.00  0.00    -0.237 OA
ATOM     88  O   UNL A   1      37.399  31.789  37.150  1.00  0.00    -0.237 OA
ATOM     89  O   UNL A   1      38.283  34.065  36.792  1.00  0.00    -0.744 OA
ENDBRANCH  85  86
ENDBRANCH  64  78
BRANCH  65  90
ATOM     90  C   UNL A   1      46.648  28.311  26.215  1.00  0.00     0.058 A 
ATOM     91  C   UNL A   1      47.771  27.481  26.024  1.00  0.00     0.135 A 
ATOM     92  C   UNL A   1      45.427  27.880  25.672  1.00  0.00     0.135 A 
ATOM     93  F   UNL A   1      48.974  27.866  26.484  1.00  0.00    -0.206 F 
ATOM     94  C   UNL A   1      47.646  26.187  25.531  1.00  0.00     0.059 A 
ATOM     95  C   UNL A   1      45.283  26.586  25.164  1.00  0.00     0.059 A 
ATOM     96  F   UNL A   1      44.327  28.638  25.791  1.00  0.00    -0.206 F 
ATOM     97  C   UNL A   1      46.379  25.721  25.190  1.00  0.00     0.060 A 
BRANCH  97  98
ATOM     98  S   UNL A   1      46.164  23.935  24.972  1.00  0.00     0.124 S 
ATOM     99  O   UNL A   1      46.715  23.409  26.215  1.00  0.00    -0.237 OA
ATOM    100  O   UNL A   1      44.711  23.821  24.824  1.00  0.00    -0.237 OA
ATOM    101  O   UNL A   1      46.939  23.649  23.771  1.00  0.00    -0.744 OA
ENDBRANCH  97  98
ENDBRANCH  65  90
BRANCH  77 102
ATOM    102  C   UNL A   1      43.764  34.617  28.265  1.00  0.00     0.058 A 
ATOM    103  C   UNL A   1      43.223  34.982  27.023  1.00  0.00     0.135 A 
ATOM    104  C   UNL A   1      43.761  35.642  29.248  1.00  0.00     0.135 A 
ATOM    105  F   UNL A   1      43.020  34.084  26.051  1.00  0.00    -0.206 F 
ATOM    106  C   UNL A   1      42.827  36.288  26.735  1.00  0.00     0.059 A 
ATOM    107  C   UNL A   1      43.297  36.930  29.007  1.00  0.00     0.059 A 
ATOM    108  F   UNL A   1      44.198  35.435  30.500  1.00  0.00    -0.206 F 
ATOM    109  C   UNL A   1      42.879  37.257  27.730  1.00  0.00     0.060 A 
BRANCH 109 110
ATOM    110  S   UNL A   1      42.387  38.941  27.346  1.00  0.00     0.124 S 
ATOM    111  O   UNL A   1      43.683  39.570  27.113  1.00  0.00    -0.237 OA
ATOM    112  O   UNL A   1      41.547  38.764  26.165  1.00  0.00    -0.237 OA
ATOM    113  O   UNL A   1      41.683  39.372  28.550  1.00  0.00    -0.744 OA
ENDBRANCH 109 110
ENDBRANCH  77 102
ENDBRANCH  51  52
ENDBRANCH  43  46
ENDBRANCH  41  42
ENDBRANCH  40  41
ENDBRANCH  39  40
ENDBRANCH   1  39
TORSDOF 19
ENDMDL
MODEL 2
REMARK VINA RESULT:     -13.1      1.523      2.051
REMARK SMILES Cc1ccc(-c2cnnc(-n3nc(C)c4c3NC(=O)C[C@@H]4c3ccc(C(=O)NCCCCCCNC(=O)c4ccc(-c5c6nc(c(-c7c(F)cc(S(=O)(=O)[O-])cc7F)c7ccc([nH]7)c(-c7c(F)cc(S(=O)(=O)[O-])cc7F)c7nc(c(-c8c(F)cc(S(=O)(=O)[O-])cc8F)c8ccc5[nH]8)C=C7)C=C6)cc4)cc3)n2)cc1
REMARK SMILES IDX 31 1 30 2 29 3 28 4 26 5 27 6 25 8 22 9 23 10 105 11 24 12
REMARK SMILES IDX 104 13 21 14 11 15 12 16 16 17 13 18 15 19 17 20 14 21 18 22
REMARK SMILES IDX 20 24 19 25 10 26 6 27 7 28 106 29 8 30 9 31 5 32 1 33 2 34
REMARK SMILES IDX 3 35 108 36 4 37 107 38 32 39 33 40 34 41 35 42 36 43 37 45
REMARK SMILES IDX 38 46 39 47 103 48 40 49 102 50 41 51 42 52 43 53 96 54
REMARK SMILES IDX 44 55 101 56 95 57 97 58 45 59 100 60 94 61 93 62 46 64
REMARK SMILES IDX 80 65 59 66 79 67 60 68 63 69 78 70 98 71 61 72 62 73 77 75
REMARK SMILES IDX 99 76 64 77 47 78 48 79 57 80 49 81 50 82 56 83 58 84 51 85
REMARK SMILES IDX 52 86 53 87 54 88 55 89 81 90 82 91 91 92 83 93 84 94 90 95
REMARK SMILES IDX 92 96 85 97 86 98 87 99 88 100 89 101 65 102 66 103 75 104
REMARK SMILES IDX 67 105 68 106 74 107 76 108 69 109 70 110 71 111 72 112
REMARK SMILES IDX 73 113
REMARK H PARENT 28 7 17 23 35 44 97 63 63 74
REMARK Flexibility Score: inf
ROOT
ATOM      1  C   UNL A   1      37.245  21.558  24.407  1.00  0.00     0.002 C 
ENDROOT
BRANCH   1   2
ATOM      2  C   UNL A   1      35.727  21.653  24.618  1.00  0.00     0.021 C 
BRANCH   2   3
ATOM      3  C   UNL A   1      35.166  20.655  25.632  1.00  0.00     0.116 C 
BRANCH   3   4
ATOM      4  N   UNL A   1      34.322  19.656  24.988  1.00  0.00    -0.352 N 
ATOM      5  C   UNL A   1      33.118  19.767  24.340  1.00  0.00     0.251 C 
ATOM      6  O   UNL A   1      32.666  18.809  23.717  1.00  0.00    -0.269 OA
ATOM      7  H   UNL A   1      34.679  18.739  25.025  1.00  0.00     0.163 HD
BRANCH   5   8
ATOM      8  C   UNL A   1      32.382  21.051  24.307  1.00  0.00     0.039 A 
ATOM      9  C   UNL A   1      31.361  23.665  24.242  1.00  0.00    -0.040 A 
ATOM     10  C   UNL A   1      31.784  23.031  23.059  1.00  0.00     0.005 A 
ATOM     11  C   UNL A   1      31.276  22.892  25.408  1.00  0.00     0.005 A 
ATOM     12  C   UNL A   1      32.285  21.730  23.091  1.00  0.00     0.014 A 
ATOM     13  C   UNL A   1      31.794  21.599  25.445  1.00  0.00     0.014 A 
BRANCH   9  14
ATOM     14  C   UNL A   1      31.078  25.151  24.184  1.00  0.00     0.064 C 
ATOM     15  N   UNL A   1      32.917  27.462  26.271  1.00  0.00    -0.180 N 
ATOM     16  N   UNL A   1      34.020  26.846  25.762  1.00  0.00    -0.168 NA
ATOM     17  C   UNL A   1      31.823  26.629  26.095  1.00  0.00     0.143 A 
ATOM     18  C   UNL A   1      33.535  25.975  24.873  1.00  0.00     0.066 A 
ATOM     19  C   UNL A   1      32.115  25.906  24.951  1.00  0.00     0.026 A 
ATOM     20  N   UNL A   1      30.649  26.399  26.787  1.00  0.00    -0.310 N 
ATOM     21  C   UNL A   1      34.509  25.168  24.097  1.00  0.00     0.069 C 
ATOM     22  C   UNL A   1      29.648  25.565  26.176  1.00  0.00     0.226 C 
ATOM     23  H   UNL A   1      30.501  26.795  27.676  1.00  0.00     0.171 HD
ATOM     24  C   UNL A   1      29.675  25.516  24.666  1.00  0.00     0.113 C 
ATOM     25  O   UNL A   1      28.802  25.073  26.883  1.00  0.00    -0.275 OA
BRANCH  15  26
ATOM     26  C   UNL A   1      32.912  28.882  26.444  1.00  0.00     0.272 A 
ATOM     27  C   UNL A   1      33.666  30.844  27.334  1.00  0.00     0.095 A 
ATOM     28  C   UNL A   1      32.489  31.461  26.944  1.00  0.00     0.164 A 
ATOM     29  N   UNL A   1      33.882  29.509  27.145  1.00  0.00    -0.208 NA
ATOM     30  N   UNL A   1      31.532  30.783  26.301  1.00  0.00    -0.153 NA
ATOM     31  N   UNL A   1      31.772  29.489  26.012  1.00  0.00    -0.109 NA
BRANCH  27  32
ATOM     32  C   UNL A   1      34.774  31.647  27.863  1.00  0.00     0.002 A 
ATOM     33  C   UNL A   1      38.152  34.011  29.189  1.00  0.00     0.044 C 
ATOM     34  C   UNL A   1      36.991  33.192  28.707  1.00  0.00    -0.051 A 
ATOM     35  C   UNL A   1      35.748  33.796  28.492  1.00  0.00     0.004 A 
ATOM     36  C   UNL A   1      37.127  31.820  28.484  1.00  0.00     0.004 A 
ATOM     37  C   UNL A   1      34.653  33.032  28.073  1.00  0.00     0.011 A 
ATOM     38  C   UNL A   1      36.030  31.058  28.072  1.00  0.00     0.011 A 
ENDBRANCH  27  32
ENDBRANCH  15  26
ENDBRANCH   9  14
ENDBRANCH   5   8
ENDBRANCH   3   4
ENDBRANCH   2   3
ENDBRANCH   1   2
BRANCH   1  39
ATOM     39  C   UNL A   1      37.922  20.259  24.881  1.00  0.00     0.002 C 
BRANCH  39  40
ATOM     40  C   UNL A   1      38.862  20.392  26.078  1.00  0.00     0.021 C 
BRANCH  40  41
ATOM     41  C   UNL A   1      39.688  21.665  26.062  1.00  0.00     0.116 C 
BRANCH  41  42
ATOM     42  N   UNL A   1      41.086  21.497  26.430  1.00  0.00    -0.352 N 
ATOM     43  C   UNL A   1      42.080  22.410  26.080  1.00  0.00     0.251 C 
ATOM     44  H   UNL A   1      41.341  20.702  26.951  1.00  0.00     0.163 HD
ATOM     45  O   UNL A   1      43.128  22.091  25.535  1.00  0.00    -0.269 OA
BRANCH  43  46
ATOM     46  C   UNL A   1      41.853  23.800  26.540  1.00  0.00     0.039 A 
ATOM     47  C   UNL A   1      42.029  24.865  25.650  1.00  0.00     0.014 A 
ATOM     48  C   UNL A   1      41.734  24.027  27.906  1.00  0.00     0.014 A 
ATOM     49  C   UNL A   1      42.290  26.135  26.153  1.00  0.00     0.010 A 
ATOM     50  C   UNL A   1      42.171  25.216  28.405  1.00  0.00     0.010 A 
ATOM     51  C   UNL A   1      42.452  26.264  27.527  1.00  0.00    -0.014 A 
BRANCH  51  52
ATOM     52  C   UNL A   1      42.810  27.466  28.235  1.00  0.00     0.031 A 
ATOM     53  C   UNL A   1      41.702  28.376  28.591  1.00  0.00     0.074 A 
ATOM     54  C   UNL A   1      44.041  27.506  28.786  1.00  0.00     0.049 A 
ATOM     55  N   UNL A   1      41.862  29.597  28.944  1.00  0.00    -0.248 NA
ATOM     56  C   UNL A   1      40.289  27.988  28.539  1.00  0.00     0.031 C 
ATOM     57  C   UNL A   1      44.501  28.293  29.920  1.00  0.00     0.029 A 
ATOM     58  N   UNL A   1      45.199  26.891  28.317  1.00  0.00    -0.354 N 
ATOM     59  C   UNL A   1      40.665  30.035  29.478  1.00  0.00     0.074 A 
ATOM     60  C   UNL A   1      39.692  29.050  29.090  1.00  0.00     0.031 C 
ATOM     61  C   UNL A   1      45.847  28.324  29.917  1.00  0.00     0.029 A 
ATOM     62  C   UNL A   1      46.295  27.684  28.687  1.00  0.00     0.049 A 
ATOM     63  H   UNL A   1      45.240  26.047  27.813  1.00  0.00     0.167 HD
ATOM     64  C   UNL A   1      40.700  31.094  30.336  1.00  0.00     0.037 A 
ATOM     65  C   UNL A   1      47.030  28.317  27.719  1.00  0.00     0.037 A 
ATOM     66  C   UNL A   1      42.083  31.533  30.483  1.00  0.00     0.049 A 
ATOM     67  C   UNL A   1      46.852  29.816  27.762  1.00  0.00     0.074 A 
ATOM     68  C   UNL A   1      43.047  31.207  31.421  1.00  0.00     0.029 A 
ATOM     69  N   UNL A   1      42.742  32.097  29.402  1.00  0.00    -0.354 N 
ATOM     70  N   UNL A   1      45.782  30.408  28.217  1.00  0.00    -0.248 NA
ATOM     71  C   UNL A   1      47.889  30.762  27.358  1.00  0.00     0.031 C 
ATOM     72  C   UNL A   1      44.307  31.548  30.878  1.00  0.00     0.029 A 
ATOM     73  C   UNL A   1      44.104  32.081  29.616  1.00  0.00     0.049 A 
ATOM     74  H   UNL A   1      42.301  32.457  28.599  1.00  0.00     0.167 HD
ATOM     75  C   UNL A   1      45.965  31.766  28.186  1.00  0.00     0.074 A 
ATOM     76  C   UNL A   1      47.297  31.937  27.639  1.00  0.00     0.031 C 
ATOM     77  C   UNL A   1      45.018  32.642  28.637  1.00  0.00     0.037 A 
BRANCH  64  78
ATOM     78  C   UNL A   1      39.608  31.557  31.277  1.00  0.00     0.058 A 
ATOM     79  C   UNL A   1      39.678  32.861  31.827  1.00  0.00     0.135 A 
ATOM     80  C   UNL A   1      38.494  30.806  31.696  1.00  0.00     0.135 A 
ATOM     81  F   UNL A   1      40.643  33.725  31.483  1.00  0.00    -0.206 F 
ATOM     82  C   UNL A   1      38.771  33.350  32.760  1.00  0.00     0.059 A 
ATOM     83  C   UNL A   1      37.577  31.271  32.651  1.00  0.00     0.059 A 
ATOM     84  F   UNL A   1      38.218  29.605  31.175  1.00  0.00    -0.206 F 
ATOM     85  C   UNL A   1      37.731  32.543  33.183  1.00  0.00     0.060 A 
BRANCH  85  86
ATOM     86  S   UNL A   1      36.594  33.208  34.411  1.00  0.00     0.124 S 
ATOM     87  O   UNL A   1      35.302  32.746  33.907  1.00  0.00    -0.237 OA
ATOM     88  O   UNL A   1      37.061  32.572  35.637  1.00  0.00    -0.237 OA
ATOM     89  O   UNL A   1      36.810  34.649  34.330  1.00  0.00    -0.744 OA
ENDBRANCH  85  86
ENDBRANCH  64  78
BRANCH  65  90
ATOM     90  C   UNL A   1      47.159  27.490  26.478  1.00  0.00     0.058 A 
ATOM     91  C   UNL A   1      46.345  27.859  25.388  1.00  0.00     0.135 A 
ATOM     92  C   UNL A   1      48.351  26.804  26.190  1.00  0.00     0.135 A 
ATOM     93  F   UNL A   1      45.173  28.478  25.609  1.00  0.00    -0.206 F 
ATOM     94  C   UNL A   1      46.796  27.766  24.076  1.00  0.00     0.059 A 
ATOM     95  C   UNL A   1      48.817  26.692  24.878  1.00  0.00     0.059 A 
ATOM     96  F   UNL A   1      49.154  26.396  27.183  1.00  0.00    -0.206 F 
ATOM     97  C   UNL A   1      48.073  27.264  23.842  1.00  0.00     0.060 A 
BRANCH  97  98
ATOM     98  S   UNL A   1      48.810  27.548  22.212  1.00  0.00     0.124 S 
ATOM     99  O   UNL A   1      48.704  26.230  21.597  1.00  0.00    -0.237 OA
ATOM    100  O   UNL A   1      47.929  28.579  21.658  1.00  0.00    -0.237 OA
ATOM    101  O   UNL A   1      50.163  27.986  22.528  1.00  0.00    -0.744 OA
ENDBRANCH  97  98
ENDBRANCH  65  90
BRANCH  77 102
ATOM    102  C   UNL A   1      44.940  34.119  28.326  1.00  0.00     0.058 A 
ATOM    103  C   UNL A   1      44.203  34.653  27.258  1.00  0.00     0.135 A 
ATOM    104  C   UNL A   1      45.512  35.080  29.202  1.00  0.00     0.135 A 
ATOM    105  F   UNL A   1      43.482  33.875  26.440  1.00  0.00    -0.206 F 
ATOM    106  C   UNL A   1      44.141  36.023  27.003  1.00  0.00     0.059 A 
ATOM    107  C   UNL A   1      45.395  36.452  29.012  1.00  0.00     0.059 A 
ATOM    108  F   UNL A   1      46.202  34.727  30.297  1.00  0.00    -0.206 F 
ATOM    109  C   UNL A   1      44.750  36.913  27.879  1.00  0.00     0.060 A 
BRANCH 109 110
ATOM    110  S   UNL A   1      44.683  38.674  27.535  1.00  0.00     0.124 S 
ATOM    111  O   UNL A   1      43.462  38.762  26.741  1.00  0.00    -0.237 OA
ATOM    112  O   UNL A   1      44.613  39.256  28.872  1.00  0.00    -0.237 OA
ATOM    113  O   UNL A   1      45.926  38.927  26.812  1.00  0.00    -0.744 OA
ENDBRANCH 109 110
ENDBRANCH  77 102
ENDBRANCH  51  52
ENDBRANCH  43  46
ENDBRANCH  41  42
ENDBRANCH  40  41
ENDBRANCH  39  40
ENDBRANCH   1  39
TORSDOF 19
ENDMDL
MODEL 3
REMARK VINA RESULT:     -12.1      5.925      9.625
REMARK SMILES Cc1ccc(-c2cnnc(-n3nc(C)c4c3NC(=O)C[C@@H]4c3ccc(C(=O)NCCCCCCNC(=O)c4ccc(-c5c6nc(c(-c7c(F)cc(S(=O)(=O)[O-])cc7F)c7ccc([nH]7)c(-c7c(F)cc(S(=O)(=O)[O-])cc7F)c7nc(c(-c8c(F)cc(S(=O)(=O)[O-])cc8F)c8ccc5[nH]8)C=C7)C=C6)cc4)cc3)n2)cc1
REMARK SMILES IDX 31 1 30 2 29 3 28 4 26 5 27 6 25 8 22 9 23 10 105 11 24 12
REMARK SMILES IDX 104 13 21 14 11 15 12 16 16 17 13 18 15 19 17 20 14 21 18 22
REMARK SMILES IDX 20 24 19 25 10 26 6 27 7 28 106 29 8 30 9 31 5 32 1 33 2 34
REMARK SMILES IDX 3 35 108 36 4 37 107 38 32 39 33 40 34 41 35 42 36 43 37 45
REMARK SMILES IDX 38 46 39 47 103 48 40 49 102 50 41 51 42 52 43 53 96 54
REMARK SMILES IDX 44 55 101 56 95 57 97 58 45 59 100 60 94 61 93 62 46 64
REMARK SMILES IDX 80 65 59 66 79 67 60 68 63 69 78 70 98 71 61 72 62 73 77 75
REMARK SMILES IDX 99 76 64 77 47 78 48 79 57 80 49 81 50 82 56 83 58 84 51 85
REMARK SMILES IDX 52 86 53 87 54 88 55 89 81 90 82 91 91 92 83 93 84 94 90 95
REMARK SMILES IDX 92 96 85 97 86 98 87 99 88 100 89 101 65 102 66 103 75 104
REMARK SMILES IDX 67 105 68 106 74 107 76 108 69 109 70 110 71 111 72 112
REMARK SMILES IDX 73 113
REMARK H PARENT 28 7 17 23 35 44 97 63 63 74
REMARK Flexibility Score: inf
ROOT
ATOM      1  C   UNL A   1      44.050  22.191  25.660  1.00  0.00     0.002 C 
ENDROOT
BRANCH   1   2
ATOM      2  C   UNL A   1      43.228  20.906  25.481  1.00  0.00     0.021 C 
BRANCH   2   3
ATOM      3  C   UNL A   1      42.387  20.519  26.699  1.00  0.00     0.116 C 
BRANCH   3   4
ATOM      4  N   UNL A   1      40.969  20.767  26.470  1.00  0.00    -0.352 N 
ATOM      5  C   UNL A   1      40.230  21.923  26.522  1.00  0.00     0.251 C 
ATOM      6  O   UNL A   1      39.069  21.926  26.119  1.00  0.00    -0.269 OA
ATOM      7  H   UNL A   1      40.450  19.965  26.236  1.00  0.00     0.163 HD
BRANCH   5   8
ATOM      8  C   UNL A   1      40.830  23.195  26.984  1.00  0.00     0.039 A 
ATOM      9  C   UNL A   1      41.645  25.628  28.121  1.00  0.00    -0.040 A 
ATOM     10  C   UNL A   1      41.932  24.407  28.759  1.00  0.00     0.005 A 
ATOM     11  C   UNL A   1      41.125  25.584  26.820  1.00  0.00     0.005 A 
ATOM     12  C   UNL A   1      41.532  23.197  28.190  1.00  0.00     0.014 A 
ATOM     13  C   UNL A   1      40.709  24.379  26.260  1.00  0.00     0.014 A 
BRANCH   9  14
ATOM     14  C   UNL A   1      41.866  26.903  28.906  1.00  0.00     0.064 C 
ATOM     15  N   UNL A   1      39.387  29.536  28.891  1.00  0.00    -0.180 N 
ATOM     16  N   UNL A   1      38.516  28.543  29.223  1.00  0.00    -0.168 NA
ATOM     17  C   UNL A   1      40.519  28.963  28.330  1.00  0.00     0.143 A 
ATOM     18  C   UNL A   1      39.283  27.458  29.359  1.00  0.00     0.066 A 
ATOM     19  C   UNL A   1      40.616  27.720  28.933  1.00  0.00     0.026 A 
ATOM     20  N   UNL A   1      41.441  29.351  27.376  1.00  0.00    -0.310 N 
ATOM     21  C   UNL A   1      38.623  26.196  29.776  1.00  0.00     0.069 C 
ATOM     22  C   UNL A   1      42.614  28.540  27.189  1.00  0.00     0.226 C 
ATOM     23  H   UNL A   1      41.297  30.162  26.836  1.00  0.00     0.171 HD
ATOM     24  C   UNL A   1      43.043  27.730  28.390  1.00  0.00     0.113 C 
ATOM     25  O   UNL A   1      43.230  28.650  26.157  1.00  0.00    -0.275 OA
BRANCH  15  26
ATOM     26  C   UNL A   1      39.279  30.817  29.516  1.00  0.00     0.272 A 
ATOM     27  C   UNL A   1      39.786  32.374  31.106  1.00  0.00     0.095 A 
ATOM     28  C   UNL A   1      38.647  33.083  30.761  1.00  0.00     0.164 A 
ATOM     29  N   UNL A   1      40.100  31.178  30.527  1.00  0.00    -0.208 NA
ATOM     30  N   UNL A   1      37.833  32.654  29.790  1.00  0.00    -0.153 NA
ATOM     31  N   UNL A   1      38.184  31.531  29.134  1.00  0.00    -0.109 NA
BRANCH  27  32
ATOM     32  C   UNL A   1      40.759  32.959  32.037  1.00  0.00     0.002 A 
ATOM     33  C   UNL A   1      43.480  34.600  34.979  1.00  0.00     0.044 C 
ATOM     34  C   UNL A   1      42.524  34.023  33.977  1.00  0.00    -0.051 A 
ATOM     35  C   UNL A   1      42.856  32.855  33.282  1.00  0.00     0.004 A 
ATOM     36  C   UNL A   1      41.303  34.646  33.712  1.00  0.00     0.004 A 
ATOM     37  C   UNL A   1      41.983  32.329  32.324  1.00  0.00     0.011 A 
ATOM     38  C   UNL A   1      40.434  34.122  32.751  1.00  0.00     0.011 A 
ENDBRANCH  27  32
ENDBRANCH  15  26
ENDBRANCH   9  14
ENDBRANCH   5   8
ENDBRANCH   3   4
ENDBRANCH   2   3
ENDBRANCH   1   2
BRANCH   1  39
ATOM     39  C   UNL A   1      43.798  23.313  24.636  1.00  0.00     0.002 C 
BRANCH  39  40
ATOM     40  C   UNL A   1      44.341  24.692  25.007  1.00  0.00     0.021 C 
BRANCH  40  41
ATOM     41  C   UNL A   1      44.786  24.801  26.453  1.00  0.00     0.116 C 
BRANCH  41  42
ATOM     42  N   UNL A   1      46.222  24.929  26.649  1.00  0.00    -0.352 N 
ATOM     43  C   UNL A   1      46.786  25.647  27.703  1.00  0.00     0.251 C 
ATOM     44  H   UNL A   1      46.823  24.488  26.008  1.00  0.00     0.163 HD
ATOM     45  O   UNL A   1      47.648  26.502  27.552  1.00  0.00    -0.269 OA
BRANCH  43  46
ATOM     46  C   UNL A   1      46.374  25.210  29.057  1.00  0.00     0.039 A 
ATOM     47  C   UNL A   1      45.212  24.448  29.219  1.00  0.00     0.014 A 
ATOM     48  C   UNL A   1      47.001  25.791  30.152  1.00  0.00     0.014 A 
ATOM     49  C   UNL A   1      44.569  24.443  30.453  1.00  0.00     0.010 A 
ATOM     50  C   UNL A   1      46.287  25.946  31.301  1.00  0.00     0.010 A 
ATOM     51  C   UNL A   1      45.072  25.275  31.445  1.00  0.00    -0.014 A 
BRANCH  51  52
ATOM     52  C   UNL A   1      44.506  25.481  32.754  1.00  0.00     0.031 A 
ATOM     53  C   UNL A   1      44.023  26.843  33.056  1.00  0.00     0.074 A 
ATOM     54  C   UNL A   1      44.173  24.377  33.455  1.00  0.00     0.049 A 
ATOM     55  N   UNL A   1      43.774  27.271  34.239  1.00  0.00    -0.248 NA
ATOM     56  C   UNL A   1      43.814  27.874  32.034  1.00  0.00     0.031 C 
ATOM     57  C   UNL A   1      43.180  24.239  34.510  1.00  0.00     0.029 A 
ATOM     58  N   UNL A   1      44.792  23.131  33.416  1.00  0.00    -0.354 N 
ATOM     59  C   UNL A   1      43.074  28.456  34.114  1.00  0.00     0.074 A 
ATOM     60  C   UNL A   1      43.234  28.849  32.740  1.00  0.00     0.031 C 
ATOM     61  C   UNL A   1      43.411  23.096  35.184  1.00  0.00     0.029 A 
ATOM     62  C   UNL A   1      44.658  22.538  34.680  1.00  0.00     0.049 A 
ATOM     63  H   UNL A   1      45.245  22.735  32.637  1.00  0.00     0.167 HD
ATOM     64  C   UNL A   1      42.298  28.850  35.163  1.00  0.00     0.037 A 
ATOM     65  C   UNL A   1      45.771  22.332  35.453  1.00  0.00     0.037 A 
ATOM     66  C   UNL A   1      42.411  27.861  36.229  1.00  0.00     0.049 A 
ATOM     67  C   UNL A   1      45.788  23.224  36.672  1.00  0.00     0.074 A 
ATOM     68  C   UNL A   1      41.631  26.760  36.536  1.00  0.00     0.029 A 
ATOM     69  N   UNL A   1      43.619  27.700  36.889  1.00  0.00    -0.354 N 
ATOM     70  N   UNL A   1      45.196  24.385  36.730  1.00  0.00    -0.248 NA
ATOM     71  C   UNL A   1      46.415  22.849  37.936  1.00  0.00     0.031 C 
ATOM     72  C   UNL A   1      42.396  25.908  37.364  1.00  0.00     0.029 A 
ATOM     73  C   UNL A   1      43.636  26.496  37.559  1.00  0.00     0.049 A 
ATOM     74  H   UNL A   1      44.356  28.352  36.881  1.00  0.00     0.167 HD
ATOM     75  C   UNL A   1      45.337  24.905  37.991  1.00  0.00     0.074 A 
ATOM     76  C   UNL A   1      46.108  23.908  38.706  1.00  0.00     0.031 C 
ATOM     77  C   UNL A   1      44.785  26.101  38.354  1.00  0.00     0.037 A 
BRANCH  64  78
ATOM     78  C   UNL A   1      41.216  29.909  35.164  1.00  0.00     0.058 A 
ATOM     79  C   UNL A   1      41.324  31.004  36.056  1.00  0.00     0.135 A 
ATOM     80  C   UNL A   1      40.062  29.925  34.359  1.00  0.00     0.135 A 
ATOM     81  F   UNL A   1      42.391  31.171  36.849  1.00  0.00    -0.206 F 
ATOM     82  C   UNL A   1      40.347  31.984  36.191  1.00  0.00     0.059 A 
ATOM     83  C   UNL A   1      39.053  30.891  34.491  1.00  0.00     0.059 A 
ATOM     84  F   UNL A   1      39.873  29.030  33.382  1.00  0.00    -0.206 F 
ATOM     85  C   UNL A   1      39.203  31.913  35.418  1.00  0.00     0.060 A 
BRANCH  85  86
ATOM     86  S   UNL A   1      37.952  33.188  35.642  1.00  0.00     0.124 S 
ATOM     87  O   UNL A   1      38.747  34.303  36.152  1.00  0.00    -0.237 OA
ATOM     88  O   UNL A   1      37.431  33.347  34.290  1.00  0.00    -0.237 OA
ATOM     89  O   UNL A   1      37.029  32.595  36.605  1.00  0.00    -0.744 OA
ENDBRANCH  85  86
ENDBRANCH  64  78
BRANCH  65  90
ATOM     90  C   UNL A   1      46.966  21.956  34.633  1.00  0.00     0.058 A 
ATOM     91  C   UNL A   1      47.998  22.912  34.549  1.00  0.00     0.135 A 
ATOM     92  C   UNL A   1      47.316  20.609  34.446  1.00  0.00     0.135 A 
ATOM     93  F   UNL A   1      47.712  24.219  34.675  1.00  0.00    -0.206 F 
ATOM     94  C   UNL A   1      49.337  22.539  34.520  1.00  0.00     0.059 A 
ATOM     95  C   UNL A   1      48.656  20.214  34.406  1.00  0.00     0.059 A 
ATOM     96  F   UNL A   1      46.376  19.653  34.481  1.00  0.00    -0.206 F 
ATOM     97  C   UNL A   1      49.654  21.182  34.541  1.00  0.00     0.060 A 
BRANCH  97  98
ATOM     98  S   UNL A   1      51.359  20.716  34.940  1.00  0.00     0.124 S 
ATOM     99  O   UNL A   1      51.793  20.071  33.707  1.00  0.00    -0.237 OA
ATOM    100  O   UNL A   1      51.969  22.018  35.225  1.00  0.00    -0.237 OA
ATOM    101  O   UNL A   1      51.203  19.834  36.089  1.00  0.00    -0.744 OA
ENDBRANCH  97  98
ENDBRANCH  65  90
BRANCH  77 102
ATOM    102  C   UNL A   1      45.165  26.938  39.554  1.00  0.00     0.058 A 
ATOM    103  C   UNL A   1      45.957  28.094  39.480  1.00  0.00     0.135 A 
ATOM    104  C   UNL A   1      44.614  26.667  40.835  1.00  0.00     0.135 A 
ATOM    105  F   UNL A   1      46.416  28.560  38.312  1.00  0.00    -0.206 F 
ATOM    106  C   UNL A   1      46.281  28.852  40.605  1.00  0.00     0.059 A 
ATOM    107  C   UNL A   1      44.860  27.455  41.955  1.00  0.00     0.059 A 
ATOM    108  F   UNL A   1      43.796  25.628  41.057  1.00  0.00    -0.206 F 
ATOM    109  C   UNL A   1      45.738  28.517  41.839  1.00  0.00     0.060 A 
BRANCH 109 110
ATOM    110  S   UNL A   1      46.175  29.485  43.287  1.00  0.00     0.124 S 
ATOM    111  O   UNL A   1      45.826  28.561  44.362  1.00  0.00    -0.237 OA
ATOM    112  O   UNL A   1      47.603  29.720  43.092  1.00  0.00    -0.237 OA
ATOM    113  O   UNL A   1      45.330  30.669  43.173  1.00  0.00    -0.744 OA
ENDBRANCH 109 110
ENDBRANCH  77 102
ENDBRANCH  51  52
ENDBRANCH  43  46
ENDBRANCH  41  42
ENDBRANCH  40  41
ENDBRANCH  39  40
ENDBRANCH   1  39
TORSDOF 19
ENDMDL
