MODEL 1
REMARK VINA RESULT:     -10.6      0.000      0.000
REMARK SMILES CCOc1c(CNC(=O)[C@H]2CCCC[C@@H]2C(=O)NCCCCCCNC(=O)c2ccc(-c3c4nc(c(-c5c(F)cc(S(=O)(=O)[O-])cc5F)c5ccc([nH]5)c(-c5c(F)cc(S(=O)(=O)[O-])cc5F)c5nc(c(-c6c(F)cc(S(=O)(=O)[O-])cc6F)c6ccc3[nH]6)C=C5)C=C4)cc2)cccc1OC
REMARK SMILES IDX 20 1 19 2 18 3 16 4 17 5 15 7 10 8 11 9 12 10 14 11 13 12
REMARK SMILES IDX 8 13 7 14 9 16 6 17 5 18 4 19 97 20 94 21 96 22 95 23 3 24
REMARK SMILES IDX 2 25 1 26 98 27 99 28 21 29 22 30 23 31 24 32 25 33 26 34
REMARK SMILES IDX 27 36 28 37 29 38 93 39 30 40 92 41 31 42 32 43 33 44 86 45
REMARK SMILES IDX 34 46 91 47 85 48 87 49 35 50 90 51 84 52 83 53 36 55 70 56
REMARK SMILES IDX 49 57 69 58 50 59 53 60 68 61 88 62 51 63 52 64 67 66 89 67
REMARK SMILES IDX 54 68 37 69 38 70 47 71 39 72 40 73 46 74 48 75 41 76 42 77
REMARK SMILES IDX 43 78 44 79 45 80 71 81 72 82 81 83 73 84 74 85 80 86 82 87
REMARK SMILES IDX 75 88 76 89 77 90 78 91 79 92 55 93 56 94 65 95 57 96 58 97
REMARK SMILES IDX 64 98 66 99 59 100 60 101 61 102 62 103 63 104
REMARK H PARENT 18 6 7 15 25 35 87 54 53 65
REMARK Flexibility Score: inf
ROOT
ATOM      1  C   UNL A   1      38.175  21.995  25.713  1.00  0.00     0.021 C 
ENDROOT
BRANCH   1   2
ATOM      2  C   UNL A   1      37.092  22.931  25.181  1.00  0.00     0.116 C 
BRANCH   2   3
ATOM      3  N   UNL A   1      36.016  23.023  26.151  1.00  0.00    -0.356 N 
ATOM      4  C   UNL A   1      34.672  23.077  25.944  1.00  0.00     0.223 C 
ATOM      5  O   UNL A   1      33.957  23.484  26.859  1.00  0.00    -0.275 OA
ATOM      6  H   UNL A   1      36.299  23.049  27.094  1.00  0.00     0.163 HD
BRANCH   4   7
ATOM      7  C   UNL A   1      34.121  22.500  24.644  1.00  0.00     0.091 C 
ATOM      8  C   UNL A   1      32.599  22.484  24.597  1.00  0.00     0.091 C 
ATOM      9  C   UNL A   1      31.992  21.357  25.454  1.00  0.00     0.014 C 
ATOM     10  C   UNL A   1      32.625  19.999  25.185  1.00  0.00     0.001 C 
ATOM     11  C   UNL A   1      34.772  21.124  24.457  1.00  0.00     0.014 C 
ATOM     12  C   UNL A   1      34.141  20.036  25.318  1.00  0.00     0.001 C 
BRANCH   8  13
ATOM     13  C   UNL A   1      31.894  22.557  23.228  1.00  0.00     0.224 C 
ATOM     14  N   UNL A   1      30.929  23.409  22.819  1.00  0.00    -0.352 N 
ATOM     15  H   UNL A   1      30.613  23.161  21.919  1.00  0.00     0.163 HD
ATOM     16  O   UNL A   1      32.222  21.729  22.363  1.00  0.00    -0.275 OA
BRANCH  14  17
ATOM     17  C   UNL A   1      30.208  24.589  23.306  1.00  0.00     0.155 C 
BRANCH  17  18
ATOM     18  C   UNL A   1      31.025  25.508  24.202  1.00  0.00     0.017 A 
ATOM     19  C   UNL A   1      31.745  26.621  23.683  1.00  0.00     0.166 A 
ATOM     20  C   UNL A   1      32.202  27.623  24.567  1.00  0.00     0.161 A 
ATOM     21  C   UNL A   1      30.930  25.367  25.603  1.00  0.00     0.010 A 
ATOM     22  C   UNL A   1      32.030  27.470  25.946  1.00  0.00     0.050 A 
ATOM     23  C   UNL A   1      31.425  26.337  26.467  1.00  0.00     0.004 A 
BRANCH  19  24
ATOM     24  O   UNL A   1      31.863  26.840  22.332  1.00  0.00    -0.490 OA
BRANCH  24  25
ATOM     25  C   UNL A   1      32.969  26.177  21.701  1.00  0.00     0.226 C 
ATOM     26  C   UNL A   1      32.546  25.520  20.395  1.00  0.00     0.049 C 
ENDBRANCH  24  25
ENDBRANCH  19  24
BRANCH  20  27
ATOM     27  O   UNL A   1      32.716  28.854  24.253  1.00  0.00    -0.493 OA
ATOM     28  C   UNL A   1      34.064  28.909  23.821  1.00  0.00     0.278 C 
ENDBRANCH  20  27
ENDBRANCH  17  18
ENDBRANCH  14  17
ENDBRANCH   8  13
ENDBRANCH   4   7
ENDBRANCH   2   3
ENDBRANCH   1   2
BRANCH   1  29
ATOM     29  C   UNL A   1      39.216  22.715  26.578  1.00  0.00     0.002 C 
BRANCH  29  30
ATOM     30  C   UNL A   1      40.586  22.030  26.610  1.00  0.00     0.002 C 
BRANCH  30  31
ATOM     31  C   UNL A   1      41.330  22.177  27.939  1.00  0.00     0.021 C 
BRANCH  31  32
ATOM     32  C   UNL A   1      42.447  23.212  27.906  1.00  0.00     0.116 C 
BRANCH  32  33
ATOM     33  N   UNL A   1      42.553  23.845  26.601  1.00  0.00    -0.352 N 
ATOM     34  C   UNL A   1      42.206  25.122  26.233  1.00  0.00     0.251 C 
ATOM     35  H   UNL A   1      42.924  23.282  25.884  1.00  0.00     0.163 HD
ATOM     36  O   UNL A   1      42.147  25.430  25.049  1.00  0.00    -0.269 OA
BRANCH  34  37
ATOM     37  C   UNL A   1      41.889  26.110  27.284  1.00  0.00     0.039 A 
ATOM     38  C   UNL A   1      40.778  25.900  28.100  1.00  0.00     0.014 A 
ATOM     39  C   UNL A   1      42.704  27.232  27.470  1.00  0.00     0.014 A 
ATOM     40  C   UNL A   1      40.514  26.788  29.144  1.00  0.00     0.010 A 
ATOM     41  C   UNL A   1      42.485  28.069  28.558  1.00  0.00     0.010 A 
ATOM     42  C   UNL A   1      41.385  27.860  29.402  1.00  0.00    -0.014 A 
BRANCH  42  43
ATOM     43  C   UNL A   1      41.159  28.780  30.545  1.00  0.00     0.031 A 
ATOM     44  C   UNL A   1      41.999  28.656  31.787  1.00  0.00     0.074 A 
ATOM     45  C   UNL A   1      40.161  29.685  30.486  1.00  0.00     0.049 A 
ATOM     46  N   UNL A   1      41.904  29.308  32.916  1.00  0.00    -0.248 NA
ATOM     47  C   UNL A   1      43.072  27.648  31.765  1.00  0.00     0.031 C 
ATOM     48  C   UNL A   1      39.254  29.874  29.352  1.00  0.00     0.029 A 
ATOM     49  N   UNL A   1      39.735  30.610  31.407  1.00  0.00    -0.354 N 
ATOM     50  C   UNL A   1      42.897  28.788  33.739  1.00  0.00     0.074 A 
ATOM     51  C   UNL A   1      43.540  27.722  33.002  1.00  0.00     0.031 C 
ATOM     52  C   UNL A   1      38.396  30.868  29.633  1.00  0.00     0.029 A 
ATOM     53  C   UNL A   1      38.660  31.356  30.983  1.00  0.00     0.049 A 
ATOM     54  H   UNL A   1      40.159  30.728  32.287  1.00  0.00     0.167 HD
ATOM     55  C   UNL A   1      43.261  29.183  34.982  1.00  0.00     0.037 A 
ATOM     56  C   UNL A   1      37.957  32.316  31.617  1.00  0.00     0.037 A 
ATOM     57  C   UNL A   1      42.624  30.254  35.702  1.00  0.00     0.049 A 
ATOM     58  C   UNL A   1      38.358  32.714  33.014  1.00  0.00     0.074 A 
ATOM     59  C   UNL A   1      42.938  30.755  36.953  1.00  0.00     0.029 A 
ATOM     60  N   UNL A   1      41.545  30.992  35.236  1.00  0.00    -0.354 N 
ATOM     61  N   UNL A   1      39.334  32.246  33.756  1.00  0.00    -0.248 NA
ATOM     62  C   UNL A   1      37.569  33.773  33.656  1.00  0.00     0.031 C 
ATOM     63  C   UNL A   1      42.018  31.760  37.266  1.00  0.00     0.029 A 
ATOM     64  C   UNL A   1      41.168  31.929  36.185  1.00  0.00     0.049 A 
ATOM     65  H   UNL A   1      41.111  30.867  34.362  1.00  0.00     0.167 HD
ATOM     66  C   UNL A   1      39.297  32.978  34.938  1.00  0.00     0.074 A 
ATOM     67  C   UNL A   1      38.210  33.925  34.807  1.00  0.00     0.031 C 
ATOM     68  C   UNL A   1      40.092  32.877  36.032  1.00  0.00     0.037 A 
BRANCH  55  69
ATOM     69  C   UNL A   1      44.404  28.457  35.638  1.00  0.00     0.058 A 
ATOM     70  C   UNL A   1      44.192  27.334  36.454  1.00  0.00     0.135 A 
ATOM     71  C   UNL A   1      45.731  28.864  35.420  1.00  0.00     0.135 A 
ATOM     72  F   UNL A   1      42.944  26.911  36.711  1.00  0.00    -0.206 F 
ATOM     73  C   UNL A   1      45.249  26.659  37.055  1.00  0.00     0.059 A 
ATOM     74  C   UNL A   1      46.807  28.183  35.984  1.00  0.00     0.059 A 
ATOM     75  F   UNL A   1      45.994  29.931  34.650  1.00  0.00    -0.206 F 
ATOM     76  C   UNL A   1      46.555  27.090  36.812  1.00  0.00     0.060 A 
BRANCH  76  77
ATOM     77  S   UNL A   1      47.914  26.196  37.592  1.00  0.00     0.124 S 
ATOM     78  O   UNL A   1      49.032  26.553  36.724  1.00  0.00    -0.237 OA
ATOM     79  O   UNL A   1      47.940  26.777  38.930  1.00  0.00    -0.237 OA
ATOM     80  O   UNL A   1      47.489  24.802  37.524  1.00  0.00    -0.744 OA
ENDBRANCH  76  77
ENDBRANCH  55  69
BRANCH  56  81
ATOM     81  C   UNL A   1      36.810  32.977  30.937  1.00  0.00     0.058 A 
ATOM     82  C   UNL A   1      35.488  32.601  31.220  1.00  0.00     0.135 A 
ATOM     83  C   UNL A   1      37.011  33.990  29.987  1.00  0.00     0.135 A 
ATOM     84  F   UNL A   1      35.243  31.633  32.117  1.00  0.00    -0.206 F 
ATOM     85  C   UNL A   1      34.408  33.183  30.564  1.00  0.00     0.059 A 
ATOM     86  C   UNL A   1      35.945  34.609  29.340  1.00  0.00     0.059 A 
ATOM     87  F   UNL A   1      38.253  34.401  29.693  1.00  0.00    -0.206 F 
ATOM     88  C   UNL A   1      34.647  34.186  29.624  1.00  0.00     0.060 A 
BRANCH  88  89
ATOM     89  S   UNL A   1      33.237  34.953  28.797  1.00  0.00     0.124 S 
ATOM     90  O   UNL A   1      32.822  33.893  27.885  1.00  0.00    -0.237 OA
ATOM     91  O   UNL A   1      32.339  35.225  29.913  1.00  0.00    -0.237 OA
ATOM     92  O   UNL A   1      33.820  36.134  28.167  1.00  0.00    -0.744 OA
ENDBRANCH  88  89
ENDBRANCH  56  81
BRANCH  68  93
ATOM     93  C   UNL A   1      39.853  33.845  37.159  1.00  0.00     0.058 A 
ATOM     94  C   UNL A   1      39.074  33.506  38.276  1.00  0.00     0.135 A 
ATOM     95  C   UNL A   1      40.462  35.111  37.145  1.00  0.00     0.135 A 
ATOM     96  F   UNL A   1      38.463  32.312  38.337  1.00  0.00    -0.206 F 
ATOM     97  C   UNL A   1      38.891  34.395  39.330  1.00  0.00     0.059 A 
ATOM     98  C   UNL A   1      40.319  36.004  38.203  1.00  0.00     0.059 A 
ATOM     99  F   UNL A   1      41.225  35.483  36.105  1.00  0.00    -0.206 F 
ATOM    100  C   UNL A   1      39.522  35.640  39.287  1.00  0.00     0.060 A 
BRANCH 100 101
ATOM    101  S   UNL A   1      39.309  36.765  40.681  1.00  0.00     0.124 S 
ATOM    102  O   UNL A   1      40.559  36.572  41.409  1.00  0.00    -0.237 OA
ATOM    103  O   UNL A   1      39.153  38.057  40.019  1.00  0.00    -0.237 OA
ATOM    104  O   UNL A   1      38.112  36.260  41.347  1.00  0.00    -0.744 OA
ENDBRANCH 100 101
ENDBRANCH  68  93
ENDBRANCH  42  43
ENDBRANCH  34  37
ENDBRANCH  32  33
ENDBRANCH  31  32
ENDBRANCH  30  31
ENDBRANCH  29  30
ENDBRANCH   1  29
TORSDOF 22
ENDMDL
MODEL 2
REMARK VINA RESULT:     -10.5      1.140      2.041
REMARK SMILES CCOc1c(CNC(=O)[C@H]2CCCC[C@@H]2C(=O)NCCCCCCNC(=O)c2ccc(-c3c4nc(c(-c5c(F)cc(S(=O)(=O)[O-])cc5F)c5ccc([nH]5)c(-c5c(F)cc(S(=O)(=O)[O-])cc5F)c5nc(c(-c6c(F)cc(S(=O)(=O)[O-])cc6F)c6ccc3[nH]6)C=C5)C=C4)cc2)cccc1OC
REMARK SMILES IDX 20 1 19 2 18 3 16 4 17 5 15 7 10 8 11 9 12 10 14 11 13 12
REMARK SMILES IDX 8 13 7 14 9 16 6 17 5 18 4 19 97 20 94 21 96 22 95 23 3 24
REMARK SMILES IDX 2 25 1 26 98 27 99 28 21 29 22 30 23 31 24 32 25 33 26 34
REMARK SMILES IDX 27 36 28 37 29 38 93 39 30 40 92 41 31 42 32 43 33 44 86 45
REMARK SMILES IDX 34 46 91 47 85 48 87 49 35 50 90 51 84 52 83 53 36 55 70 56
REMARK SMILES IDX 49 57 69 58 50 59 53 60 68 61 88 62 51 63 52 64 67 66 89 67
REMARK SMILES IDX 54 68 37 69 38 70 47 71 39 72 40 73 46 74 48 75 41 76 42 77
REMARK SMILES IDX 43 78 44 79 45 80 71 81 72 82 81 83 73 84 74 85 80 86 82 87
REMARK SMILES IDX 75 88 76 89 77 90 78 91 79 92 55 93 56 94 65 95 57 96 58 97
REMARK SMILES IDX 64 98 66 99 59 100 60 101 61 102 62 103 63 104
REMARK H PARENT 18 6 7 15 25 35 87 54 53 65
REMARK Flexibility Score: inf
ROOT
ATOM      1  C   UNL A   1      39.827  20.656  26.150  1.00  0.00     0.021 C 
ENDROOT
BRANCH   1   2
ATOM      2  C   UNL A   1      38.632  21.260  25.417  1.00  0.00     0.116 C 
BRANCH   2   3
ATOM      3  N   UNL A   1      38.214  22.475  26.095  1.00  0.00    -0.356 N 
ATOM      4  C   UNL A   1      37.209  23.336  25.777  1.00  0.00     0.223 C 
ATOM      5  O   UNL A   1      37.229  24.462  26.271  1.00  0.00    -0.275 OA
ATOM      6  H   UNL A   1      38.731  22.708  26.899  1.00  0.00     0.163 HD
BRANCH   4   7
ATOM      7  C   UNL A   1      36.047  22.808  24.942  1.00  0.00     0.091 C 
ATOM      8  C   UNL A   1      35.064  23.896  24.534  1.00  0.00     0.091 C 
ATOM      9  C   UNL A   1      34.145  24.330  25.693  1.00  0.00     0.014 C 
ATOM     10  C   UNL A   1      33.492  23.153  26.405  1.00  0.00     0.001 C 
ATOM     11  C   UNL A   1      35.418  21.655  25.733  1.00  0.00     0.014 C 
ATOM     12  C   UNL A   1      34.513  22.123  26.867  1.00  0.00     0.001 C 
BRANCH   8  13
ATOM     13  C   UNL A   1      34.247  23.717  23.239  1.00  0.00     0.224 C 
ATOM     14  N   UNL A   1      33.046  24.244  22.917  1.00  0.00    -0.352 N 
ATOM     15  H   UNL A   1      32.734  23.885  22.055  1.00  0.00     0.163 HD
ATOM     16  O   UNL A   1      34.718  22.986  22.354  1.00  0.00    -0.275 OA
BRANCH  14  17
ATOM     17  C   UNL A   1      32.063  25.187  23.462  1.00  0.00     0.155 C 
BRANCH  17  18
ATOM     18  C   UNL A   1      32.458  26.653  23.347  1.00  0.00     0.017 A 
ATOM     19  C   UNL A   1      32.200  27.586  24.389  1.00  0.00     0.166 A 
ATOM     20  C   UNL A   1      32.869  28.830  24.386  1.00  0.00     0.161 A 
ATOM     21  C   UNL A   1      33.255  27.067  22.259  1.00  0.00     0.010 A 
ATOM     22  C   UNL A   1      33.701  29.174  23.315  1.00  0.00     0.050 A 
ATOM     23  C   UNL A   1      33.872  28.313  22.242  1.00  0.00     0.004 A 
BRANCH  19  24
ATOM     24  O   UNL A   1      31.452  27.252  25.492  1.00  0.00    -0.490 OA
BRANCH  24  25
ATOM     25  C   UNL A   1      32.153  27.309  26.745  1.00  0.00     0.226 C 
ATOM     26  C   UNL A   1      31.239  27.774  27.868  1.00  0.00     0.049 C 
ENDBRANCH  24  25
ENDBRANCH  19  24
BRANCH  20  27
ATOM     27  O   UNL A   1      32.922  29.762  25.390  1.00  0.00    -0.493 OA
ATOM     28  C   UNL A   1      31.801  30.612  25.553  1.00  0.00     0.278 C 
ENDBRANCH  20  27
ENDBRANCH  17  18
ENDBRANCH  14  17
ENDBRANCH   8  13
ENDBRANCH   4   7
ENDBRANCH   2   3
ENDBRANCH   1   2
BRANCH   1  29
ATOM     29  C   UNL A   1      40.487  21.636  27.128  1.00  0.00     0.002 C 
BRANCH  29  30
ATOM     30  C   UNL A   1      41.970  21.357  27.389  1.00  0.00     0.002 C 
BRANCH  30  31
ATOM     31  C   UNL A   1      42.606  22.275  28.435  1.00  0.00     0.021 C 
BRANCH  31  32
ATOM     32  C   UNL A   1      43.695  23.183  27.874  1.00  0.00     0.116 C 
BRANCH  32  33
ATOM     33  N   UNL A   1      43.353  23.673  26.549  1.00  0.00    -0.352 N 
ATOM     34  C   UNL A   1      42.618  24.781  26.203  1.00  0.00     0.251 C 
ATOM     35  H   UNL A   1      43.696  23.139  25.796  1.00  0.00     0.163 HD
ATOM     36  O   UNL A   1      42.231  24.931  25.052  1.00  0.00    -0.269 OA
BRANCH  34  37
ATOM     37  C   UNL A   1      42.287  25.775  27.244  1.00  0.00     0.039 A 
ATOM     38  C   UNL A   1      41.196  25.542  28.083  1.00  0.00     0.014 A 
ATOM     39  C   UNL A   1      43.068  26.924  27.400  1.00  0.00     0.014 A 
ATOM     40  C   UNL A   1      40.922  26.437  29.117  1.00  0.00     0.010 A 
ATOM     41  C   UNL A   1      42.841  27.771  28.479  1.00  0.00     0.010 A 
ATOM     42  C   UNL A   1      41.762  27.540  29.344  1.00  0.00    -0.014 A 
BRANCH  42  43
ATOM     43  C   UNL A   1      41.526  28.471  30.476  1.00  0.00     0.031 A 
ATOM     44  C   UNL A   1      42.368  28.371  31.720  1.00  0.00     0.074 A 
ATOM     45  C   UNL A   1      40.517  29.364  30.408  1.00  0.00     0.049 A 
ATOM     46  N   UNL A   1      42.265  29.034  32.841  1.00  0.00    -0.248 NA
ATOM     47  C   UNL A   1      43.452  27.375  31.708  1.00  0.00     0.031 C 
ATOM     48  C   UNL A   1      39.608  29.529  29.272  1.00  0.00     0.029 A 
ATOM     49  N   UNL A   1      40.081  30.294  31.318  1.00  0.00    -0.354 N 
ATOM     50  C   UNL A   1      43.265  28.535  33.669  1.00  0.00     0.074 A 
ATOM     51  C   UNL A   1      43.920  27.469  32.944  1.00  0.00     0.031 C 
ATOM     52  C   UNL A   1      38.738  30.516  29.543  1.00  0.00     0.029 A 
ATOM     53  C   UNL A   1      38.997  31.023  30.887  1.00  0.00     0.049 A 
ATOM     54  H   UNL A   1      40.504  30.427  32.197  1.00  0.00     0.167 HD
ATOM     55  C   UNL A   1      43.624  28.949  34.907  1.00  0.00     0.037 A 
ATOM     56  C   UNL A   1      38.284  31.981  31.510  1.00  0.00     0.037 A 
ATOM     57  C   UNL A   1      42.976  30.021  35.616  1.00  0.00     0.049 A 
ATOM     58  C   UNL A   1      38.681  32.400  32.902  1.00  0.00     0.074 A 
ATOM     59  C   UNL A   1      43.284  30.539  36.861  1.00  0.00     0.029 A 
ATOM     60  N   UNL A   1      41.888  30.741  35.142  1.00  0.00    -0.354 N 
ATOM     61  N   UNL A   1      39.662  31.951  33.649  1.00  0.00    -0.248 NA
ATOM     62  C   UNL A   1      37.879  33.456  33.533  1.00  0.00     0.031 C 
ATOM     63  C   UNL A   1      42.352  31.537  37.163  1.00  0.00     0.029 A 
ATOM     64  C   UNL A   1      41.500  31.684  36.080  1.00  0.00     0.049 A 
ATOM     65  H   UNL A   1      41.455  30.601  34.269  1.00  0.00     0.167 HD
ATOM     66  C   UNL A   1      39.616  32.697  34.822  1.00  0.00     0.074 A 
ATOM     67  C   UNL A   1      38.519  33.630  34.681  1.00  0.00     0.031 C 
ATOM     68  C   UNL A   1      40.413  32.618  35.917  1.00  0.00     0.037 A 
BRANCH  55  69
ATOM     69  C   UNL A   1      44.777  28.244  35.572  1.00  0.00     0.058 A 
ATOM     70  C   UNL A   1      44.579  27.115  36.384  1.00  0.00     0.135 A 
ATOM     71  C   UNL A   1      46.097  28.677  35.364  1.00  0.00     0.135 A 
ATOM     72  F   UNL A   1      43.338  26.668  36.630  1.00  0.00    -0.206 F 
ATOM     73  C   UNL A   1      45.645  26.460  36.991  1.00  0.00     0.059 A 
ATOM     74  C   UNL A   1      47.181  28.016  35.936  1.00  0.00     0.059 A 
ATOM     75  F   UNL A   1      46.346  29.750  34.598  1.00  0.00    -0.206 F 
ATOM     76  C   UNL A   1      46.944  26.916  36.759  1.00  0.00     0.060 A 
BRANCH  76  77
ATOM     77  S   UNL A   1      48.314  26.047  37.549  1.00  0.00     0.124 S 
ATOM     78  O   UNL A   1      48.499  26.838  38.762  1.00  0.00    -0.237 OA
ATOM     79  O   UNL A   1      47.763  24.710  37.743  1.00  0.00    -0.237 OA
ATOM     80  O   UNL A   1      49.389  26.144  36.568  1.00  0.00    -0.744 OA
ENDBRANCH  76  77
ENDBRANCH  55  69
BRANCH  56  81
ATOM     81  C   UNL A   1      37.129  32.621  30.823  1.00  0.00     0.058 A 
ATOM     82  C   UNL A   1      35.812  32.225  31.103  1.00  0.00     0.135 A 
ATOM     83  C   UNL A   1      37.317  33.633  29.869  1.00  0.00     0.135 A 
ATOM     84  F   UNL A   1      35.579  31.258  32.004  1.00  0.00    -0.206 F 
ATOM     85  C   UNL A   1      34.724  32.787  30.441  1.00  0.00     0.059 A 
ATOM     86  C   UNL A   1      36.244  34.232  29.216  1.00  0.00     0.059 A 
ATOM     87  F   UNL A   1      38.553  34.062  29.577  1.00  0.00    -0.206 F 
ATOM     88  C   UNL A   1      34.951  33.790  29.498  1.00  0.00     0.060 A 
BRANCH  88  89
ATOM     89  S   UNL A   1      33.532  34.531  28.662  1.00  0.00     0.124 S 
ATOM     90  O   UNL A   1      32.641  34.803  29.783  1.00  0.00    -0.237 OA
ATOM     91  O   UNL A   1      34.130  35.697  28.021  1.00  0.00    -0.237 OA
ATOM     92  O   UNL A   1      33.095  33.478  27.749  1.00  0.00    -0.744 OA
ENDBRANCH  88  89
ENDBRANCH  56  81
BRANCH  68  93
ATOM     93  C   UNL A   1      40.163  33.596  37.033  1.00  0.00     0.058 A 
ATOM     94  C   UNL A   1      40.888  34.792  37.147  1.00  0.00     0.135 A 
ATOM     95  C   UNL A   1      39.141  33.357  37.967  1.00  0.00     0.135 A 
ATOM     96  F   UNL A   1      41.880  35.066  36.286  1.00  0.00    -0.206 F 
ATOM     97  C   UNL A   1      40.622  35.707  38.161  1.00  0.00     0.059 A 
ATOM     98  C   UNL A   1      38.837  34.273  38.969  1.00  0.00     0.059 A 
ATOM     99  F   UNL A   1      38.411  32.233  37.897  1.00  0.00    -0.206 F 
ATOM    100  C   UNL A   1      39.591  35.441  39.064  1.00  0.00     0.060 A 
BRANCH 100 101
ATOM    101  S   UNL A   1      39.231  36.659  40.346  1.00  0.00     0.124 S 
ATOM    102  O   UNL A   1      40.546  36.853  40.946  1.00  0.00    -0.237 OA
ATOM    103  O   UNL A   1      38.714  37.783  39.571  1.00  0.00    -0.237 OA
ATOM    104  O   UNL A   1      38.249  35.984  41.190  1.00  0.00    -0.744 OA
ENDBRANCH 100 101
ENDBRANCH  68  93
ENDBRANCH  42  43
ENDBRANCH  34  37
ENDBRANCH  32  33
ENDBRANCH  31  32
ENDBRANCH  30  31
ENDBRANCH  29  30
ENDBRANCH   1  29
TORSDOF 22
ENDMDL
MODEL 3
REMARK VINA RESULT:     -10.5      5.166     12.777
REMARK SMILES CCOc1c(CNC(=O)[C@H]2CCCC[C@@H]2C(=O)NCCCCCCNC(=O)c2ccc(-c3c4nc(c(-c5c(F)cc(S(=O)(=O)[O-])cc5F)c5ccc([nH]5)c(-c5c(F)cc(S(=O)(=O)[O-])cc5F)c5nc(c(-c6c(F)cc(S(=O)(=O)[O-])cc6F)c6ccc3[nH]6)C=C5)C=C4)cc2)cccc1OC
REMARK SMILES IDX 20 1 19 2 18 3 16 4 17 5 15 7 10 8 11 9 12 10 14 11 13 12
REMARK SMILES IDX 8 13 7 14 9 16 6 17 5 18 4 19 97 20 94 21 96 22 95 23 3 24
REMARK SMILES IDX 2 25 1 26 98 27 99 28 21 29 22 30 23 31 24 32 25 33 26 34
REMARK SMILES IDX 27 36 28 37 29 38 93 39 30 40 92 41 31 42 32 43 33 44 86 45
REMARK SMILES IDX 34 46 91 47 85 48 87 49 35 50 90 51 84 52 83 53 36 55 70 56
REMARK SMILES IDX 49 57 69 58 50 59 53 60 68 61 88 62 51 63 52 64 67 66 89 67
REMARK SMILES IDX 54 68 37 69 38 70 47 71 39 72 40 73 46 74 48 75 41 76 42 77
REMARK SMILES IDX 43 78 44 79 45 80 71 81 72 82 81 83 73 84 74 85 80 86 82 87
REMARK SMILES IDX 75 88 76 89 77 90 78 91 79 92 55 93 56 94 65 95 57 96 58 97
REMARK SMILES IDX 64 98 66 99 59 100 60 101 61 102 62 103 63 104
REMARK H PARENT 18 6 7 15 25 35 87 54 53 65
REMARK Flexibility Score: inf
ROOT
ATOM      1  C   UNL A   1      34.054  35.404  32.303  1.00  0.00     0.021 C 
ENDROOT
BRANCH   1   2
ATOM      2  C   UNL A   1      35.187  35.228  33.310  1.00  0.00     0.116 C 
BRANCH   2   3
ATOM      3  N   UNL A   1      36.441  35.052  32.600  1.00  0.00    -0.356 N 
ATOM      4  C   UNL A   1      37.547  34.349  32.967  1.00  0.00     0.223 C 
ATOM      5  O   UNL A   1      38.608  34.592  32.394  1.00  0.00    -0.275 OA
ATOM      6  H   UNL A   1      36.499  35.505  31.728  1.00  0.00     0.163 HD
BRANCH   4   7
ATOM      7  C   UNL A   1      37.375  33.206  33.963  1.00  0.00     0.091 C 
ATOM      8  C   UNL A   1      38.658  32.420  34.195  1.00  0.00     0.091 C 
ATOM      9  C   UNL A   1      38.988  31.467  33.029  1.00  0.00     0.014 C 
ATOM     10  C   UNL A   1      37.806  30.600  32.619  1.00  0.00     0.001 C 
ATOM     11  C   UNL A   1      36.197  32.358  33.469  1.00  0.00     0.014 C 
ATOM     12  C   UNL A   1      36.563  31.426  32.319  1.00  0.00     0.001 C 
BRANCH   8  13
ATOM     13  C   UNL A   1      38.863  31.707  35.545  1.00  0.00     0.224 C 
ATOM     14  N   UNL A   1      40.013  31.284  36.113  1.00  0.00    -0.352 N 
ATOM     15  H   UNL A   1      39.823  30.787  36.943  1.00  0.00     0.163 HD
ATOM     16  O   UNL A   1      37.855  31.458  36.227  1.00  0.00    -0.275 OA
BRANCH  14  17
ATOM     17  C   UNL A   1      41.458  31.338  35.870  1.00  0.00     0.155 C 
BRANCH  17  18
ATOM     18  C   UNL A   1      42.221  30.090  36.292  1.00  0.00     0.017 A 
ATOM     19  C   UNL A   1      41.841  28.791  35.854  1.00  0.00     0.166 A 
ATOM     20  C   UNL A   1      42.752  27.721  35.988  1.00  0.00     0.161 A 
ATOM     21  C   UNL A   1      43.439  30.232  36.991  1.00  0.00     0.010 A 
ATOM     22  C   UNL A   1      43.977  27.922  36.633  1.00  0.00     0.050 A 
ATOM     23  C   UNL A   1      44.309  29.161  37.159  1.00  0.00     0.004 A 
BRANCH  19  24
ATOM     24  O   UNL A   1      40.681  28.575  35.148  1.00  0.00    -0.490 OA
BRANCH  24  25
ATOM     25  C   UNL A   1      40.855  28.381  33.736  1.00  0.00     0.226 C 
ATOM     26  C   UNL A   1      42.035  29.183  33.209  1.00  0.00     0.049 C 
ENDBRANCH  24  25
ENDBRANCH  19  24
BRANCH  20  27
ATOM     27  O   UNL A   1      42.665  26.465  35.445  1.00  0.00    -0.493 OA
ATOM     28  C   UNL A   1      41.848  25.520  36.113  1.00  0.00     0.278 C 
ENDBRANCH  20  27
ENDBRANCH  17  18
ENDBRANCH  14  17
ENDBRANCH   8  13
ENDBRANCH   4   7
ENDBRANCH   2   3
ENDBRANCH   1   2
BRANCH   1  29
ATOM     29  C   UNL A   1      34.116  34.393  31.151  1.00  0.00     0.002 C 
BRANCH  29  30
ATOM     30  C   UNL A   1      34.045  35.026  29.758  1.00  0.00     0.002 C 
BRANCH  30  31
ATOM     31  C   UNL A   1      34.524  34.112  28.628  1.00  0.00     0.021 C 
BRANCH  31  32
ATOM     32  C   UNL A   1      34.969  32.733  29.101  1.00  0.00     0.116 C 
BRANCH  32  33
ATOM     33  N   UNL A   1      34.119  31.683  28.565  1.00  0.00    -0.352 N 
ATOM     34  C   UNL A   1      34.479  30.457  28.061  1.00  0.00     0.251 C 
ATOM     35  H   UNL A   1      33.153  31.876  28.565  1.00  0.00     0.163 HD
ATOM     36  O   UNL A   1      33.666  29.781  27.444  1.00  0.00    -0.269 OA
BRANCH  34  37
ATOM     37  C   UNL A   1      35.862  29.978  28.258  1.00  0.00     0.039 A 
ATOM     38  C   UNL A   1      36.809  30.211  27.260  1.00  0.00     0.014 A 
ATOM     39  C   UNL A   1      36.221  29.319  29.437  1.00  0.00     0.014 A 
ATOM     40  C   UNL A   1      38.135  29.829  27.470  1.00  0.00     0.010 A 
ATOM     41  C   UNL A   1      37.556  29.012  29.676  1.00  0.00     0.010 A 
ATOM     42  C   UNL A   1      38.525  29.258  28.693  1.00  0.00    -0.014 A 
BRANCH  42  43
ATOM     43  C   UNL A   1      39.941  28.902  28.962  1.00  0.00     0.031 A 
ATOM     44  C   UNL A   1      40.882  29.933  29.524  1.00  0.00     0.074 A 
ATOM     45  C   UNL A   1      40.392  27.672  28.644  1.00  0.00     0.049 A 
ATOM     46  N   UNL A   1      42.166  29.843  29.751  1.00  0.00    -0.248 NA
ATOM     47  C   UNL A   1      40.306  31.249  29.849  1.00  0.00     0.031 C 
ATOM     48  C   UNL A   1      39.586  26.599  28.057  1.00  0.00     0.029 A 
ATOM     49  N   UNL A   1      41.642  27.118  28.762  1.00  0.00    -0.354 N 
ATOM     50  C   UNL A   1      42.552  31.086  30.241  1.00  0.00     0.074 A 
ATOM     51  C   UNL A   1      41.380  31.932  30.214  1.00  0.00     0.031 C 
ATOM     52  C   UNL A   1      40.355  25.511  27.888  1.00  0.00     0.029 A 
ATOM     53  C   UNL A   1      41.717  25.821  28.310  1.00  0.00     0.049 A 
ATOM     54  H   UNL A   1      42.413  27.603  29.133  1.00  0.00     0.167 HD
ATOM     55  C   UNL A   1      43.765  31.475  30.699  1.00  0.00     0.037 A 
ATOM     56  C   UNL A   1      42.768  24.981  28.233  1.00  0.00     0.037 A 
ATOM     57  C   UNL A   1      44.923  30.621  30.734  1.00  0.00     0.049 A 
ATOM     58  C   UNL A   1      44.116  25.449  28.716  1.00  0.00     0.074 A 
ATOM     59  C   UNL A   1      46.190  30.909  31.209  1.00  0.00     0.029 A 
ATOM     60  N   UNL A   1      44.957  29.311  30.277  1.00  0.00    -0.354 N 
ATOM     61  N   UNL A   1      44.451  26.612  29.223  1.00  0.00    -0.248 NA
ATOM     62  C   UNL A   1      45.226  24.492  28.621  1.00  0.00     0.031 C 
ATOM     63  C   UNL A   1      47.003  29.792  30.993  1.00  0.00     0.029 A 
ATOM     64  C   UNL A   1      46.228  28.785  30.440  1.00  0.00     0.049 A 
ATOM     65  H   UNL A   1      44.190  28.827  29.892  1.00  0.00     0.167 HD
ATOM     66  C   UNL A   1      45.801  26.512  29.541  1.00  0.00     0.074 A 
ATOM     67  C   UNL A   1      46.217  25.174  29.178  1.00  0.00     0.031 C 
ATOM     68  C   UNL A   1      46.623  27.444  30.087  1.00  0.00     0.037 A 
BRANCH  55  69
ATOM     69  C   UNL A   1      43.899  32.886  31.206  1.00  0.00     0.058 A 
ATOM     70  C   UNL A   1      44.156  33.959  30.337  1.00  0.00     0.135 A 
ATOM     71  C   UNL A   1      43.732  33.176  32.570  1.00  0.00     0.135 A 
ATOM     72  F   UNL A   1      44.341  33.739  29.026  1.00  0.00    -0.206 F 
ATOM     73  C   UNL A   1      44.272  35.264  30.805  1.00  0.00     0.059 A 
ATOM     74  C   UNL A   1      43.812  34.479  33.056  1.00  0.00     0.059 A 
ATOM     75  F   UNL A   1      43.486  32.190  33.447  1.00  0.00    -0.206 F 
ATOM     76  C   UNL A   1      44.096  35.514  32.167  1.00  0.00     0.060 A 
BRANCH  76  77
ATOM     77  S   UNL A   1      44.241  37.215  32.754  1.00  0.00     0.124 S 
ATOM     78  O   UNL A   1      43.715  37.099  34.111  1.00  0.00    -0.237 OA
ATOM     79  O   UNL A   1      45.676  37.458  32.650  1.00  0.00    -0.237 OA
ATOM     80  O   UNL A   1      43.410  37.969  31.823  1.00  0.00    -0.744 OA
ENDBRANCH  76  77
ENDBRANCH  55  69
BRANCH  56  81
ATOM     81  C   UNL A   1      42.590  23.607  27.687  1.00  0.00     0.058 A 
ATOM     82  C   UNL A   1      42.399  22.510  28.540  1.00  0.00     0.135 A 
ATOM     83  C   UNL A   1      42.617  23.362  26.305  1.00  0.00     0.135 A 
ATOM     84  F   UNL A   1      42.371  22.690  29.870  1.00  0.00    -0.206 F 
ATOM     85  C   UNL A   1      42.270  21.215  28.047  1.00  0.00     0.059 A 
ATOM     86  C   UNL A   1      42.460  22.081  25.786  1.00  0.00     0.059 A 
ATOM     87  F   UNL A   1      42.779  24.377  25.444  1.00  0.00    -0.206 F 
ATOM     88  C   UNL A   1      42.303  21.011  26.667  1.00  0.00     0.060 A 
BRANCH  88  89
ATOM     89  S   UNL A   1      42.111  19.330  26.035  1.00  0.00     0.124 S 
ATOM     90  O   UNL A   1      43.002  19.348  24.881  1.00  0.00    -0.237 OA
ATOM     91  O   UNL A   1      42.551  18.525  27.169  1.00  0.00    -0.237 OA
ATOM     92  O   UNL A   1      40.686  19.247  25.731  1.00  0.00    -0.744 OA
ENDBRANCH  88  89
ENDBRANCH  56  81
BRANCH  68  93
ATOM     93  C   UNL A   1      48.043  27.038  30.372  1.00  0.00     0.058 A 
ATOM     94  C   UNL A   1      49.080  27.277  29.458  1.00  0.00     0.135 A 
ATOM     95  C   UNL A   1      48.378  26.456  31.606  1.00  0.00     0.135 A 
ATOM     96  F   UNL A   1      48.815  27.824  28.261  1.00  0.00    -0.206 F 
ATOM     97  C   UNL A   1      50.397  26.932  29.748  1.00  0.00     0.059 A 
ATOM     98  C   UNL A   1      49.692  26.134  31.930  1.00  0.00     0.059 A 
ATOM     99  F   UNL A   1      47.426  26.215  32.521  1.00  0.00    -0.206 F 
ATOM    100  C   UNL A   1      50.694  26.366  30.989  1.00  0.00     0.060 A 
BRANCH 100 101
ATOM    101  S   UNL A   1      52.412  25.966  31.367  1.00  0.00     0.124 S 
ATOM    102  O   UNL A   1      53.020  25.992  30.041  1.00  0.00    -0.237 OA
ATOM    103  O   UNL A   1      52.796  27.053  32.262  1.00  0.00    -0.237 OA
ATOM    104  O   UNL A   1      52.325  24.649  31.991  1.00  0.00    -0.744 OA
ENDBRANCH 100 101
ENDBRANCH  68  93
ENDBRANCH  42  43
ENDBRANCH  34  37
ENDBRANCH  32  33
ENDBRANCH  31  32
ENDBRANCH  30  31
ENDBRANCH  29  30
ENDBRANCH   1  29
TORSDOF 22
ENDMDL
