MODEL 1
REMARK VINA RESULT:     -12.4      0.000      0.000
REMARK SMILES O=C(NCCCCCCNC(=O)[C@@H]1CCC(=O)N1C(=O)/C=C/c1ccccc1)c1ccc(-c2c3nc(c(-c4c(F)cc(S(=O)(=O)[O-])cc4F)c4ccc([nH]4)c(-c4c(F)cc(S(=O)(=O)[O-])cc4F)c4nc(c(-c5c(F)cc(S(=O)(=O)[O-])cc5F)c5ccc2[nH]5)C=C4)C=C3)cc1
REMARK SMILES IDX 6 1 5 2 4 3 3 4 1 5 2 6 29 8 30 9 94 10 31 11 93 12 32 13
REMARK SMILES IDX 33 14 34 15 87 16 35 17 92 18 86 19 88 20 36 21 91 22 85 23
REMARK SMILES IDX 84 24 37 26 71 27 50 28 70 29 51 30 54 31 69 32 89 33 52 34
REMARK SMILES IDX 53 35 68 37 90 38 55 39 38 40 39 41 48 42 40 43 41 44 47 45
REMARK SMILES IDX 49 46 42 47 43 48 44 49 45 50 46 51 72 52 73 53 82 54 74 55
REMARK SMILES IDX 75 56 81 57 83 58 76 59 77 60 78 61 79 62 80 63 56 64 57 65
REMARK SMILES IDX 66 66 58 67 59 68 65 69 67 70 60 71 61 72 62 73 63 74 64 75
REMARK SMILES IDX 7 76 8 77 9 78 10 79 11 80 12 82 13 83 14 84 18 85 15 86
REMARK SMILES IDX 16 87 17 88 19 89 20 90 21 91 22 92 23 93 24 94 28 95 25 96
REMARK SMILES IDX 27 97 26 98
REMARK H PARENT 3 7 88 25 54 36 10 81
REMARK Flexibility Score: inf
ROOT
ATOM      1  C   UNL A   1      32.941  29.715  27.338  1.00  0.00     0.002 C 
ENDROOT
BRANCH   1   2
ATOM      2  C   UNL A   1      34.388  29.226  27.220  1.00  0.00     0.021 C 
BRANCH   2   3
ATOM      3  C   UNL A   1      35.431  30.249  27.662  1.00  0.00     0.116 C 
BRANCH   3   4
ATOM      4  N   UNL A   1      35.310  30.543  29.080  1.00  0.00    -0.352 N 
ATOM      5  O   UNL A   1      35.828  30.344  31.262  1.00  0.00    -0.269 OA
ATOM      6  C   UNL A   1      36.199  30.287  30.093  1.00  0.00     0.251 C 
ATOM      7  H   UNL A   1      34.475  30.989  29.350  1.00  0.00     0.163 HD
BRANCH   6   8
ATOM      8  C   UNL A   1      37.600  29.943  29.773  1.00  0.00     0.039 A 
ATOM      9  C   UNL A   1      38.483  29.544  30.782  1.00  0.00     0.014 A 
ATOM     10  C   UNL A   1      38.021  29.974  28.442  1.00  0.00     0.014 A 
ATOM     11  C   UNL A   1      39.811  29.264  30.472  1.00  0.00     0.010 A 
ATOM     12  C   UNL A   1      39.338  29.636  28.124  1.00  0.00     0.010 A 
ATOM     13  C   UNL A   1      40.247  29.293  29.139  1.00  0.00    -0.014 A 
BRANCH  13  14
ATOM     14  C   UNL A   1      41.637  28.904  28.799  1.00  0.00     0.031 A 
ATOM     15  C   UNL A   1      42.742  29.919  28.812  1.00  0.00     0.074 A 
ATOM     16  C   UNL A   1      41.888  27.628  28.449  1.00  0.00     0.049 A 
ATOM     17  N   UNL A   1      43.996  29.776  28.471  1.00  0.00    -0.248 NA
ATOM     18  C   UNL A   1      42.390  31.275  29.261  1.00  0.00     0.031 C 
ATOM     19  C   UNL A   1      40.890  26.559  28.395  1.00  0.00     0.029 A 
ATOM     20  N   UNL A   1      43.052  27.017  28.062  1.00  0.00    -0.354 N 
ATOM     21  C   UNL A   1      44.581  31.026  28.637  1.00  0.00     0.074 A 
ATOM     22  C   UNL A   1      43.538  31.919  29.098  1.00  0.00     0.031 C 
ATOM     23  C   UNL A   1      41.484  25.421  28.007  1.00  0.00     0.029 A 
ATOM     24  C   UNL A   1      42.892  25.692  27.733  1.00  0.00     0.049 A 
ATOM     25  H   UNL A   1      43.919  27.482  28.023  1.00  0.00     0.167 HD
ATOM     26  C   UNL A   1      45.870  31.389  28.427  1.00  0.00     0.037 A 
ATOM     27  C   UNL A   1      43.770  24.800  27.237  1.00  0.00     0.037 A 
ATOM     28  C   UNL A   1      46.898  30.489  27.974  1.00  0.00     0.049 A 
ATOM     29  C   UNL A   1      45.188  25.228  26.995  1.00  0.00     0.074 A 
ATOM     30  C   UNL A   1      48.239  30.752  27.756  1.00  0.00     0.029 A 
ATOM     31  N   UNL A   1      46.699  29.151  27.662  1.00  0.00    -0.354 N 
ATOM     32  N   UNL A   1      45.733  26.407  27.182  1.00  0.00    -0.248 NA
ATOM     33  C   UNL A   1      46.113  24.212  26.477  1.00  0.00     0.031 C 
ATOM     34  C   UNL A   1      48.843  29.583  27.279  1.00  0.00     0.029 A 
ATOM     35  C   UNL A   1      47.887  28.579  27.239  1.00  0.00     0.049 A 
ATOM     36  H   UNL A   1      45.838  28.677  27.732  1.00  0.00     0.167 HD
ATOM     37  C   UNL A   1      47.067  26.270  26.825  1.00  0.00     0.074 A 
ATOM     38  C   UNL A   1      47.250  24.893  26.413  1.00  0.00     0.031 C 
ATOM     39  C   UNL A   1      48.052  27.203  26.841  1.00  0.00     0.037 A 
BRANCH  26  40
ATOM     40  C   UNL A   1      46.225  32.832  28.657  1.00  0.00     0.058 A 
ATOM     41  C   UNL A   1      46.664  33.296  29.908  1.00  0.00     0.135 A 
ATOM     42  C   UNL A   1      46.126  33.765  27.612  1.00  0.00     0.135 A 
ATOM     43  F   UNL A   1      46.765  32.449  30.945  1.00  0.00    -0.206 F 
ATOM     44  C   UNL A   1      46.953  34.639  30.125  1.00  0.00     0.059 A 
ATOM     45  C   UNL A   1      46.431  35.111  27.801  1.00  0.00     0.059 A 
ATOM     46  F   UNL A   1      45.715  33.376  26.395  1.00  0.00    -0.206 F 
ATOM     47  C   UNL A   1      46.822  35.542  29.068  1.00  0.00     0.060 A 
BRANCH  47  48
ATOM     48  S   UNL A   1      47.155  37.289  29.374  1.00  0.00     0.124 S 
ATOM     49  O   UNL A   1      46.692  37.433  30.751  1.00  0.00    -0.237 OA
ATOM     50  O   UNL A   1      48.600  37.373  29.182  1.00  0.00    -0.237 OA
ATOM     51  O   UNL A   1      46.351  37.970  28.365  1.00  0.00    -0.744 OA
ENDBRANCH  47  48
ENDBRANCH  26  40
BRANCH  27  52
ATOM     52  C   UNL A   1      43.310  23.420  26.944  1.00  0.00     0.058 A 
ATOM     53  C   UNL A   1      43.147  22.979  25.624  1.00  0.00     0.135 A 
ATOM     54  C   UNL A   1      43.106  22.491  27.976  1.00  0.00     0.135 A 
ATOM     55  F   UNL A   1      43.329  23.833  24.604  1.00  0.00    -0.206 F 
ATOM     56  C   UNL A   1      42.807  21.663  25.335  1.00  0.00     0.059 A 
ATOM     57  C   UNL A   1      42.785  21.164  27.711  1.00  0.00     0.059 A 
ATOM     58  F   UNL A   1      43.267  22.862  29.256  1.00  0.00    -0.206 F 
ATOM     59  C   UNL A   1      42.639  20.760  26.386  1.00  0.00     0.060 A 
BRANCH  59  60
ATOM     60  S   UNL A   1      42.294  19.029  25.996  1.00  0.00     0.124 S 
ATOM     61  O   UNL A   1      43.161  18.811  24.843  1.00  0.00    -0.237 OA
ATOM     62  O   UNL A   1      42.686  18.353  27.227  1.00  0.00    -0.237 OA
ATOM     63  O   UNL A   1      40.860  19.028  25.718  1.00  0.00    -0.744 OA
ENDBRANCH  59  60
ENDBRANCH  27  52
BRANCH  39  64
ATOM     64  C   UNL A   1      49.429  26.759  26.439  1.00  0.00     0.058 A 
ATOM     65  C   UNL A   1      50.266  26.064  27.324  1.00  0.00     0.135 A 
ATOM     66  C   UNL A   1      49.884  26.967  25.128  1.00  0.00     0.135 A 
ATOM     67  F   UNL A   1      49.881  25.849  28.592  1.00  0.00    -0.206 F 
ATOM     68  C   UNL A   1      51.513  25.593  26.924  1.00  0.00     0.059 A 
ATOM     69  C   UNL A   1      51.117  26.488  24.699  1.00  0.00     0.059 A 
ATOM     70  F   UNL A   1      49.116  27.623  24.242  1.00  0.00    -0.206 F 
ATOM     71  C   UNL A   1      51.926  25.806  25.607  1.00  0.00     0.060 A 
BRANCH  71  72
ATOM     72  S   UNL A   1      53.518  25.137  25.078  1.00  0.00     0.124 S 
ATOM     73  O   UNL A   1      53.347  23.715  25.355  1.00  0.00    -0.237 OA
ATOM     74  O   UNL A   1      53.561  25.506  23.665  1.00  0.00    -0.237 OA
ATOM     75  O   UNL A   1      54.479  25.834  25.929  1.00  0.00    -0.744 OA
ENDBRANCH  71  72
ENDBRANCH  39  64
ENDBRANCH  13  14
ENDBRANCH   6   8
ENDBRANCH   3   4
ENDBRANCH   2   3
ENDBRANCH   1   2
BRANCH   1  76
ATOM     76  C   UNL A   1      31.930  28.971  26.455  1.00  0.00     0.002 C 
BRANCH  76  77
ATOM     77  C   UNL A   1      32.386  27.585  25.971  1.00  0.00     0.021 C 
BRANCH  77  78
ATOM     78  C   UNL A   1      31.230  26.695  25.509  1.00  0.00     0.116 C 
BRANCH  78  79
ATOM     79  N   UNL A   1      31.039  25.588  26.426  1.00  0.00    -0.354 N 
ATOM     80  C   UNL A   1      31.575  24.348  26.546  1.00  0.00     0.243 C 
ATOM     81  H   UNL A   1      30.368  25.781  27.119  1.00  0.00     0.163 HD
ATOM     82  O   UNL A   1      30.976  23.624  27.351  1.00  0.00    -0.273 OA
BRANCH  80  83
ATOM     83  C   UNL A   1      32.811  23.806  25.779  1.00  0.00     0.183 C 
ATOM     84  C   UNL A   1      34.178  24.409  26.047  1.00  0.00     0.046 C 
ATOM     85  N   UNL A   1      32.654  23.954  24.328  1.00  0.00    -0.266 N 
ATOM     86  C   UNL A   1      34.948  24.110  24.785  1.00  0.00     0.103 C 
ATOM     87  C   UNL A   1      33.875  24.355  23.761  1.00  0.00     0.230 C 
ATOM     88  O   UNL A   1      34.087  24.839  22.665  1.00  0.00    -0.274 OA
BRANCH  85  89
ATOM     89  C   UNL A   1      31.757  23.148  23.642  1.00  0.00     0.253 C 
ATOM     90  O   UNL A   1      30.568  23.413  23.487  1.00  0.00    -0.269 OA
BRANCH  89  91
ATOM     91  C   UNL A   1      32.263  21.833  23.177  1.00  0.00     0.072 C 
ATOM     92  C   UNL A   1      32.434  20.857  24.082  1.00  0.00     0.014 C 
BRANCH  92  93
ATOM     93  C   UNL A   1      32.981  19.513  23.831  1.00  0.00    -0.025 A 
ATOM     94  C   UNL A   1      34.130  19.127  24.539  1.00  0.00     0.008 A 
ATOM     95  C   UNL A   1      32.413  18.599  22.937  1.00  0.00     0.008 A 
ATOM     96  C   UNL A   1      34.695  17.862  24.362  1.00  0.00     0.001 A 
ATOM     97  C   UNL A   1      32.978  17.332  22.757  1.00  0.00     0.001 A 
ATOM     98  C   UNL A   1      34.117  16.963  23.471  1.00  0.00     0.000 A 
ENDBRANCH  92  93
ENDBRANCH  89  91
ENDBRANCH  85  89
ENDBRANCH  80  83
ENDBRANCH  78  79
ENDBRANCH  77  78
ENDBRANCH  76  77
ENDBRANCH   1  76
TORSDOF 19
ENDMDL
MODEL 2
REMARK VINA RESULT:     -12.1      6.428     12.116
REMARK SMILES O=C(NCCCCCCNC(=O)[C@@H]1CCC(=O)N1C(=O)/C=C/c1ccccc1)c1ccc(-c2c3nc(c(-c4c(F)cc(S(=O)(=O)[O-])cc4F)c4ccc([nH]4)c(-c4c(F)cc(S(=O)(=O)[O-])cc4F)c4nc(c(-c5c(F)cc(S(=O)(=O)[O-])cc5F)c5ccc2[nH]5)C=C4)C=C3)cc1
REMARK SMILES IDX 6 1 5 2 4 3 3 4 1 5 2 6 29 8 30 9 94 10 31 11 93 12 32 13
REMARK SMILES IDX 33 14 34 15 87 16 35 17 92 18 86 19 88 20 36 21 91 22 85 23
REMARK SMILES IDX 84 24 37 26 71 27 50 28 70 29 51 30 54 31 69 32 89 33 52 34
REMARK SMILES IDX 53 35 68 37 90 38 55 39 38 40 39 41 48 42 40 43 41 44 47 45
REMARK SMILES IDX 49 46 42 47 43 48 44 49 45 50 46 51 72 52 73 53 82 54 74 55
REMARK SMILES IDX 75 56 81 57 83 58 76 59 77 60 78 61 79 62 80 63 56 64 57 65
REMARK SMILES IDX 66 66 58 67 59 68 65 69 67 70 60 71 61 72 62 73 63 74 64 75
REMARK SMILES IDX 7 76 8 77 9 78 10 79 11 80 12 82 13 83 14 84 18 85 15 86
REMARK SMILES IDX 16 87 17 88 19 89 20 90 21 91 22 92 23 93 24 94 28 95 25 96
REMARK SMILES IDX 27 97 26 98
REMARK H PARENT 3 7 88 25 54 36 10 81
REMARK Flexibility Score: inf
ROOT
ATOM      1  C   UNL A   1      37.034  22.419  25.282  1.00  0.00     0.002 C 
ENDROOT
BRANCH   1   2
ATOM      2  C   UNL A   1      37.391  23.874  25.601  1.00  0.00     0.021 C 
BRANCH   2   3
ATOM      3  C   UNL A   1      38.397  24.036  26.736  1.00  0.00     0.116 C 
BRANCH   3   4
ATOM      4  N   UNL A   1      39.761  23.919  26.250  1.00  0.00    -0.352 N 
ATOM      5  O   UNL A   1      41.830  24.661  25.763  1.00  0.00    -0.269 OA
ATOM      6  C   UNL A   1      40.830  24.752  26.469  1.00  0.00     0.251 C 
ATOM      7  H   UNL A   1      39.944  23.132  25.687  1.00  0.00     0.163 HD
BRANCH   6   8
ATOM      8  C   UNL A   1      40.771  25.756  27.551  1.00  0.00     0.039 A 
ATOM      9  C   UNL A   1      41.762  26.736  27.668  1.00  0.00     0.014 A 
ATOM     10  C   UNL A   1      39.686  25.745  28.430  1.00  0.00     0.014 A 
ATOM     11  C   UNL A   1      41.717  27.649  28.717  1.00  0.00     0.010 A 
ATOM     12  C   UNL A   1      39.610  26.697  29.449  1.00  0.00     0.010 A 
ATOM     13  C   UNL A   1      40.633  27.647  29.609  1.00  0.00    -0.014 A 
BRANCH  13  14
ATOM     14  C   UNL A   1      40.539  28.679  30.670  1.00  0.00     0.031 A 
ATOM     15  C   UNL A   1      41.412  28.608  31.888  1.00  0.00     0.074 A 
ATOM     16  C   UNL A   1      39.632  29.666  30.539  1.00  0.00     0.049 A 
ATOM     17  N   UNL A   1      41.414  29.375  32.947  1.00  0.00    -0.248 NA
ATOM     18  C   UNL A   1      42.413  27.530  31.923  1.00  0.00     0.031 C 
ATOM     19  C   UNL A   1      38.725  29.829  29.400  1.00  0.00     0.029 A 
ATOM     20  N   UNL A   1      39.315  30.709  31.369  1.00  0.00    -0.354 N 
ATOM     21  C   UNL A   1      42.393  28.861  33.788  1.00  0.00     0.074 A 
ATOM     22  C   UNL A   1      42.956  27.706  33.120  1.00  0.00     0.031 C 
ATOM     23  C   UNL A   1      37.961  30.913  29.600  1.00  0.00     0.029 A 
ATOM     24  C   UNL A   1      38.284  31.488  30.901  1.00  0.00     0.049 A 
ATOM     25  H   UNL A   1      39.781  30.883  32.219  1.00  0.00     0.167 HD
ATOM     26  C   UNL A   1      42.785  29.315  35.004  1.00  0.00     0.037 A 
ATOM     27  C   UNL A   1      37.649  32.532  31.466  1.00  0.00     0.037 A 
ATOM     28  C   UNL A   1      42.219  30.469  35.654  1.00  0.00     0.049 A 
ATOM     29  C   UNL A   1      38.087  33.008  32.820  1.00  0.00     0.074 A 
ATOM     30  C   UNL A   1      42.565  31.026  36.873  1.00  0.00     0.029 A 
ATOM     31  N   UNL A   1      41.185  31.239  35.142  1.00  0.00    -0.354 N 
ATOM     32  N   UNL A   1      39.032  32.528  33.593  1.00  0.00    -0.248 NA
ATOM     33  C   UNL A   1      37.378  34.164  33.383  1.00  0.00     0.031 C 
ATOM     34  C   UNL A   1      41.715  32.112  37.114  1.00  0.00     0.029 A 
ATOM     35  C   UNL A   1      40.867  32.257  36.026  1.00  0.00     0.049 A 
ATOM     36  H   UNL A   1      40.740  31.085  34.277  1.00  0.00     0.167 HD
ATOM     37  C   UNL A   1      39.047  33.334  34.723  1.00  0.00     0.074 A 
ATOM     38  C   UNL A   1      38.017  34.337  34.533  1.00  0.00     0.031 C 
ATOM     39  C   UNL A   1      39.845  33.252  35.816  1.00  0.00     0.037 A 
BRANCH  26  40
ATOM     40  C   UNL A   1      43.857  28.539  35.717  1.00  0.00     0.058 A 
ATOM     41  C   UNL A   1      45.220  28.819  35.534  1.00  0.00     0.135 A 
ATOM     42  C   UNL A   1      43.515  27.499  36.597  1.00  0.00     0.135 A 
ATOM     43  F   UNL A   1      45.603  29.794  34.694  1.00  0.00    -0.206 F 
ATOM     44  C   UNL A   1      46.208  28.070  36.165  1.00  0.00     0.059 A 
ATOM     45  C   UNL A   1      44.487  26.751  37.258  1.00  0.00     0.059 A 
ATOM     46  F   UNL A   1      42.227  27.190  36.812  1.00  0.00    -0.206 F 
ATOM     47  C   UNL A   1      45.831  27.030  37.017  1.00  0.00     0.060 A 
BRANCH  47  48
ATOM     48  S   UNL A   1      47.123  26.037  37.795  1.00  0.00     0.124 S 
ATOM     49  O   UNL A   1      47.295  26.734  39.066  1.00  0.00    -0.237 OA
ATOM     50  O   UNL A   1      46.501  24.719  37.877  1.00  0.00    -0.237 OA
ATOM     51  O   UNL A   1      48.240  26.144  36.863  1.00  0.00    -0.744 OA
ENDBRANCH  47  48
ENDBRANCH  26  40
BRANCH  27  52
ATOM     52  C   UNL A   1      36.533  33.180  30.734  1.00  0.00     0.058 A 
ATOM     53  C   UNL A   1      35.200  32.950  31.100  1.00  0.00     0.135 A 
ATOM     54  C   UNL A   1      36.781  34.107  29.709  1.00  0.00     0.135 A 
ATOM     55  F   UNL A   1      34.913  32.070  32.071  1.00  0.00    -0.206 F 
ATOM     56  C   UNL A   1      34.151  33.622  30.483  1.00  0.00     0.059 A 
ATOM     57  C   UNL A   1      35.750  34.807  29.092  1.00  0.00     0.059 A 
ATOM     58  F   UNL A   1      38.043  34.374  29.336  1.00  0.00    -0.206 F 
ATOM     59  C   UNL A   1      34.437  34.557  29.486  1.00  0.00     0.060 A 
BRANCH  59  60
ATOM     60  S   UNL A   1      33.075  35.497  28.761  1.00  0.00     0.124 S 
ATOM     61  O   UNL A   1      32.346  35.920  29.950  1.00  0.00    -0.237 OA
ATOM     62  O   UNL A   1      33.779  36.547  28.034  1.00  0.00    -0.237 OA
ATOM     63  O   UNL A   1      32.399  34.511  27.922  1.00  0.00    -0.744 OA
ENDBRANCH  59  60
ENDBRANCH  27  52
BRANCH  39  64
ATOM     64  C   UNL A   1      39.667  34.297  36.880  1.00  0.00     0.058 A 
ATOM     65  C   UNL A   1      38.895  34.056  38.025  1.00  0.00     0.135 A 
ATOM     66  C   UNL A   1      40.341  35.525  36.785  1.00  0.00     0.135 A 
ATOM     67  F   UNL A   1      38.222  32.902  38.158  1.00  0.00    -0.206 F 
ATOM     68  C   UNL A   1      38.792  35.001  39.042  1.00  0.00     0.059 A 
ATOM     69  C   UNL A   1      40.270  36.476  37.797  1.00  0.00     0.059 A 
ATOM     70  F   UNL A   1      41.098  35.799  35.710  1.00  0.00    -0.206 F 
ATOM     71  C   UNL A   1      39.488  36.206  38.920  1.00  0.00     0.060 A 
BRANCH  71  72
ATOM     72  S   UNL A   1      39.399  37.401  40.271  1.00  0.00     0.124 S 
ATOM     73  O   UNL A   1      38.753  36.615  41.317  1.00  0.00    -0.237 OA
ATOM     74  O   UNL A   1      40.806  37.723  40.499  1.00  0.00    -0.237 OA
ATOM     75  O   UNL A   1      38.598  38.486  39.713  1.00  0.00    -0.744 OA
ENDBRANCH  71  72
ENDBRANCH  39  64
ENDBRANCH  13  14
ENDBRANCH   6   8
ENDBRANCH   3   4
ENDBRANCH   2   3
ENDBRANCH   1   2
BRANCH   1  76
ATOM     76  C   UNL A   1      35.839  22.235  24.336  1.00  0.00     0.002 C 
BRANCH  76  77
ATOM     77  C   UNL A   1      34.657  21.453  24.928  1.00  0.00     0.021 C 
BRANCH  77  78
ATOM     78  C   UNL A   1      33.394  21.520  24.066  1.00  0.00     0.116 C 
BRANCH  78  79
ATOM     79  N   UNL A   1      32.209  21.591  24.899  1.00  0.00    -0.354 N 
ATOM     80  C   UNL A   1      31.355  22.582  25.257  1.00  0.00     0.243 C 
ATOM     81  H   UNL A   1      31.970  20.722  25.294  1.00  0.00     0.163 HD
ATOM     82  O   UNL A   1      30.581  22.266  26.169  1.00  0.00    -0.273 OA
BRANCH  80  83
ATOM     83  C   UNL A   1      31.294  24.006  24.641  1.00  0.00     0.183 C 
ATOM     84  C   UNL A   1      30.730  24.189  23.243  1.00  0.00     0.046 C 
ATOM     85  N   UNL A   1      32.626  24.614  24.552  1.00  0.00    -0.266 N 
ATOM     86  C   UNL A   1      31.363  25.477  22.775  1.00  0.00     0.103 C 
ATOM     87  C   UNL A   1      32.748  25.306  23.335  1.00  0.00     0.230 C 
ATOM     88  O   UNL A   1      33.754  25.697  22.775  1.00  0.00    -0.274 OA
BRANCH  85  89
ATOM     89  C   UNL A   1      33.272  25.038  25.703  1.00  0.00     0.253 C 
ATOM     90  O   UNL A   1      33.980  24.319  26.404  1.00  0.00    -0.269 OA
BRANCH  89  91
ATOM     91  C   UNL A   1      32.981  26.419  26.162  1.00  0.00     0.072 C 
ATOM     92  C   UNL A   1      33.989  27.303  26.208  1.00  0.00     0.014 C 
BRANCH  92  93
ATOM     93  C   UNL A   1      33.917  28.692  26.690  1.00  0.00    -0.025 A 
ATOM     94  C   UNL A   1      32.707  29.386  26.522  1.00  0.00     0.008 A 
ATOM     95  C   UNL A   1      34.979  29.353  27.317  1.00  0.00     0.008 A 
ATOM     96  C   UNL A   1      32.562  30.701  26.969  1.00  0.00     0.001 A 
ATOM     97  C   UNL A   1      34.836  30.671  27.763  1.00  0.00     0.001 A 
ATOM     98  C   UNL A   1      33.627  31.343  27.591  1.00  0.00     0.000 A 
ENDBRANCH  92  93
ENDBRANCH  89  91
ENDBRANCH  85  89
ENDBRANCH  80  83
ENDBRANCH  78  79
ENDBRANCH  77  78
ENDBRANCH  76  77
ENDBRANCH   1  76
TORSDOF 19
ENDMDL
MODEL 3
REMARK VINA RESULT:     -12.1      4.611      8.291
REMARK SMILES O=C(NCCCCCCNC(=O)[C@@H]1CCC(=O)N1C(=O)/C=C/c1ccccc1)c1ccc(-c2c3nc(c(-c4c(F)cc(S(=O)(=O)[O-])cc4F)c4ccc([nH]4)c(-c4c(F)cc(S(=O)(=O)[O-])cc4F)c4nc(c(-c5c(F)cc(S(=O)(=O)[O-])cc5F)c5ccc2[nH]5)C=C4)C=C3)cc1
REMARK SMILES IDX 6 1 5 2 4 3 3 4 1 5 2 6 29 8 30 9 94 10 31 11 93 12 32 13
REMARK SMILES IDX 33 14 34 15 87 16 35 17 92 18 86 19 88 20 36 21 91 22 85 23
REMARK SMILES IDX 84 24 37 26 71 27 50 28 70 29 51 30 54 31 69 32 89 33 52 34
REMARK SMILES IDX 53 35 68 37 90 38 55 39 38 40 39 41 48 42 40 43 41 44 47 45
REMARK SMILES IDX 49 46 42 47 43 48 44 49 45 50 46 51 72 52 73 53 82 54 74 55
REMARK SMILES IDX 75 56 81 57 83 58 76 59 77 60 78 61 79 62 80 63 56 64 57 65
REMARK SMILES IDX 66 66 58 67 59 68 65 69 67 70 60 71 61 72 62 73 63 74 64 75
REMARK SMILES IDX 7 76 8 77 9 78 10 79 11 80 12 82 13 83 14 84 18 85 15 86
REMARK SMILES IDX 16 87 17 88 19 89 20 90 21 91 22 92 23 93 24 94 28 95 25 96
REMARK SMILES IDX 27 97 26 98
REMARK H PARENT 3 7 88 25 54 36 10 81
REMARK Flexibility Score: inf
ROOT
ATOM      1  C   UNL A   1      37.107  33.479  28.865  1.00  0.00     0.002 C 
ENDROOT
BRANCH   1   2
ATOM      2  C   UNL A   1      35.669  33.287  28.370  1.00  0.00     0.021 C 
BRANCH   2   3
ATOM      3  C   UNL A   1      34.799  32.441  29.294  1.00  0.00     0.116 C 
BRANCH   3   4
ATOM      4  N   UNL A   1      34.135  31.376  28.561  1.00  0.00    -0.352 N 
ATOM      5  O   UNL A   1      34.016  29.649  27.121  1.00  0.00    -0.269 OA
ATOM      6  C   UNL A   1      34.686  30.293  27.923  1.00  0.00     0.251 C 
ATOM      7  H   UNL A   1      33.154  31.440  28.517  1.00  0.00     0.163 HD
BRANCH   6   8
ATOM      8  C   UNL A   1      36.085  29.908  28.203  1.00  0.00     0.039 A 
ATOM      9  C   UNL A   1      37.078  30.076  27.232  1.00  0.00     0.014 A 
ATOM     10  C   UNL A   1      36.414  29.418  29.469  1.00  0.00     0.014 A 
ATOM     11  C   UNL A   1      38.383  29.669  27.495  1.00  0.00     0.010 A 
ATOM     12  C   UNL A   1      37.736  29.064  29.752  1.00  0.00     0.010 A 
ATOM     13  C   UNL A   1      38.726  29.173  28.762  1.00  0.00    -0.014 A 
BRANCH  13  14
ATOM     14  C   UNL A   1      40.136  28.828  29.071  1.00  0.00     0.031 A 
ATOM     15  C   UNL A   1      41.047  29.833  29.712  1.00  0.00     0.074 A 
ATOM     16  C   UNL A   1      40.594  27.607  28.738  1.00  0.00     0.049 A 
ATOM     17  N   UNL A   1      42.323  29.732  29.983  1.00  0.00    -0.248 NA
ATOM     18  C   UNL A   1      40.449  31.121  30.094  1.00  0.00     0.031 C 
ATOM     19  C   UNL A   1      39.798  26.553  28.104  1.00  0.00     0.029 A 
ATOM     20  N   UNL A   1      41.838  27.048  28.874  1.00  0.00    -0.354 N 
ATOM     21  C   UNL A   1      42.690  30.950  30.543  1.00  0.00     0.074 A 
ATOM     22  C   UNL A   1      41.503  31.779  30.559  1.00  0.00     0.031 C 
ATOM     23  C   UNL A   1      40.570  25.473  27.914  1.00  0.00     0.029 A 
ATOM     24  C   UNL A   1      41.926  25.776  28.362  1.00  0.00     0.049 A 
ATOM     25  H   UNL A   1      42.596  27.513  29.297  1.00  0.00     0.167 HD
ATOM     26  C   UNL A   1      43.906  31.336  31.001  1.00  0.00     0.037 A 
ATOM     27  C   UNL A   1      42.984  24.952  28.238  1.00  0.00     0.037 A 
ATOM     28  C   UNL A   1      45.077  30.499  30.983  1.00  0.00     0.049 A 
ATOM     29  C   UNL A   1      44.325  25.406  28.736  1.00  0.00     0.074 A 
ATOM     30  C   UNL A   1      46.348  30.786  31.448  1.00  0.00     0.029 A 
ATOM     31  N   UNL A   1      45.123  29.212  30.467  1.00  0.00    -0.354 N 
ATOM     32  N   UNL A   1      44.651  26.551  29.287  1.00  0.00    -0.248 NA
ATOM     33  C   UNL A   1      45.441  24.462  28.600  1.00  0.00     0.031 C 
ATOM     34  C   UNL A   1      47.171  29.687  31.181  1.00  0.00     0.029 A 
ATOM     35  C   UNL A   1      46.403  28.696  30.587  1.00  0.00     0.049 A 
ATOM     36  H   UNL A   1      44.358  28.734  30.072  1.00  0.00     0.167 HD
ATOM     37  C   UNL A   1      46.005  26.459  29.582  1.00  0.00     0.074 A 
ATOM     38  C   UNL A   1      46.437  25.144  29.152  1.00  0.00     0.031 C 
ATOM     39  C   UNL A   1      46.813  27.381  30.161  1.00  0.00     0.037 A 
BRANCH  26  40
ATOM     40  C   UNL A   1      44.029  32.738  31.531  1.00  0.00     0.058 A 
ATOM     41  C   UNL A   1      43.803  33.041  32.883  1.00  0.00     0.135 A 
ATOM     42  C   UNL A   1      44.380  33.794  30.674  1.00  0.00     0.135 A 
ATOM     43  F   UNL A   1      43.452  32.071  33.743  1.00  0.00    -0.206 F 
ATOM     44  C   UNL A   1      43.879  34.346  33.359  1.00  0.00     0.059 A 
ATOM     45  C   UNL A   1      44.485  35.105  31.133  1.00  0.00     0.059 A 
ATOM     46  F   UNL A   1      44.611  33.561  29.373  1.00  0.00    -0.206 F 
ATOM     47  C   UNL A   1      44.209  35.374  32.473  1.00  0.00     0.060 A 
BRANCH  47  48
ATOM     48  S   UNL A   1      44.261  37.068  33.093  1.00  0.00     0.124 S 
ATOM     49  O   UNL A   1      42.978  37.162  33.782  1.00  0.00    -0.237 OA
ATOM     50  O   UNL A   1      45.440  37.054  33.953  1.00  0.00    -0.237 OA
ATOM     51  O   UNL A   1      44.383  37.870  31.879  1.00  0.00    -0.744 OA
ENDBRANCH  47  48
ENDBRANCH  26  40
BRANCH  27  52
ATOM     52  C   UNL A   1      42.793  23.620  27.612  1.00  0.00     0.058 A 
ATOM     53  C   UNL A   1      43.031  23.426  26.244  1.00  0.00     0.135 A 
ATOM     54  C   UNL A   1      42.451  22.500  28.384  1.00  0.00     0.135 A 
ATOM     55  F   UNL A   1      43.357  24.469  25.465  1.00  0.00    -0.206 F 
ATOM     56  C   UNL A   1      42.946  22.166  25.664  1.00  0.00     0.059 A 
ATOM     57  C   UNL A   1      42.381  21.225  27.831  1.00  0.00     0.059 A 
ATOM     58  F   UNL A   1      42.232  22.633  29.702  1.00  0.00    -0.206 F 
ATOM     59  C   UNL A   1      42.630  21.069  26.469  1.00  0.00     0.060 A 
BRANCH  59  60
ATOM     60  S   UNL A   1      42.620  19.422  25.725  1.00  0.00     0.124 S 
ATOM     61  O   UNL A   1      43.072  18.596  26.839  1.00  0.00    -0.237 OA
ATOM     62  O   UNL A   1      41.221  19.267  25.341  1.00  0.00    -0.237 OA
ATOM     63  O   UNL A   1      43.557  19.552  24.612  1.00  0.00    -0.744 OA
ENDBRANCH  59  60
ENDBRANCH  27  52
BRANCH  39  64
ATOM     64  C   UNL A   1      48.243  26.990  30.402  1.00  0.00     0.058 A 
ATOM     65  C   UNL A   1      49.276  27.419  29.556  1.00  0.00     0.135 A 
ATOM     66  C   UNL A   1      48.590  26.242  31.538  1.00  0.00     0.135 A 
ATOM     67  F   UNL A   1      48.995  28.129  28.452  1.00  0.00    -0.206 F 
ATOM     68  C   UNL A   1      50.607  27.114  29.824  1.00  0.00     0.059 A 
ATOM     69  C   UNL A   1      49.915  25.942  31.838  1.00  0.00     0.059 A 
ATOM     70  F   UNL A   1      47.637  25.814  32.382  1.00  0.00    -0.206 F 
ATOM     71  C   UNL A   1      50.916  26.380  30.971  1.00  0.00     0.060 A 
BRANCH  71  72
ATOM     72  S   UNL A   1      52.650  26.042  31.344  1.00  0.00     0.124 S 
ATOM     73  O   UNL A   1      53.216  25.893  30.008  1.00  0.00    -0.237 OA
ATOM     74  O   UNL A   1      53.054  27.241  32.073  1.00  0.00    -0.237 OA
ATOM     75  O   UNL A   1      52.593  24.821  32.143  1.00  0.00    -0.744 OA
ENDBRANCH  71  72
ENDBRANCH  39  64
ENDBRANCH  13  14
ENDBRANCH   6   8
ENDBRANCH   3   4
ENDBRANCH   2   3
ENDBRANCH   1   2
BRANCH   1  76
ATOM     76  C   UNL A   1      37.316  33.232  30.365  1.00  0.00     0.002 C 
BRANCH  76  77
ATOM     77  C   UNL A   1      37.986  34.387  31.126  1.00  0.00     0.021 C 
BRANCH  77  78
ATOM     78  C   UNL A   1      39.495  34.198  31.305  1.00  0.00     0.116 C 
BRANCH  78  79
ATOM     79  N   UNL A   1      39.924  34.710  32.592  1.00  0.00    -0.354 N 
ATOM     80  C   UNL A   1      39.832  34.269  33.871  1.00  0.00     0.243 C 
ATOM     81  H   UNL A   1      40.389  35.574  32.521  1.00  0.00     0.163 HD
ATOM     82  O   UNL A   1      40.145  35.119  34.714  1.00  0.00    -0.273 OA
BRANCH  80  83
ATOM     83  C   UNL A   1      39.377  32.854  34.321  1.00  0.00     0.183 C 
ATOM     84  C   UNL A   1      40.044  31.630  33.719  1.00  0.00     0.046 C 
ATOM     85  N   UNL A   1      37.953  32.633  34.050  1.00  0.00    -0.266 N 
ATOM     86  C   UNL A   1      39.009  30.546  33.893  1.00  0.00     0.103 C 
ATOM     87  C   UNL A   1      37.761  31.323  33.579  1.00  0.00     0.230 C 
ATOM     88  O   UNL A   1      36.802  30.852  32.996  1.00  0.00    -0.274 OA
BRANCH  85  89
ATOM     89  C   UNL A   1      36.993  33.285  34.809  1.00  0.00     0.253 C 
ATOM     90  O   UNL A   1      36.599  32.899  35.907  1.00  0.00    -0.269 OA
BRANCH  89  91
ATOM     91  C   UNL A   1      36.328  34.454  34.182  1.00  0.00     0.072 C 
ATOM     92  C   UNL A   1      35.247  34.241  33.416  1.00  0.00     0.014 C 
BRANCH  92  93
ATOM     93  C   UNL A   1      34.491  35.255  32.663  1.00  0.00    -0.025 A 
ATOM     94  C   UNL A   1      33.954  34.887  31.419  1.00  0.00     0.008 A 
ATOM     95  C   UNL A   1      34.269  36.557  33.124  1.00  0.00     0.008 A 
ATOM     96  C   UNL A   1      33.213  35.793  30.657  1.00  0.00     0.001 A 
ATOM     97  C   UNL A   1      33.529  37.467  32.360  1.00  0.00     0.001 A 
ATOM     98  C   UNL A   1      32.999  37.084  31.130  1.00  0.00     0.000 A 
ENDBRANCH  92  93
ENDBRANCH  89  91
ENDBRANCH  85  89
ENDBRANCH  80  83
ENDBRANCH  78  79
ENDBRANCH  77  78
ENDBRANCH  76  77
ENDBRANCH   1  76
TORSDOF 19
ENDMDL
