MODEL 1
REMARK VINA RESULT:     -11.5      0.000      0.000
REMARK SMILES CN(c1ccc(C(N)=O)nn1)[C@H]1COC[C@@H]1C(=O)NCCCCCCNC(=O)c1ccc(-c2c3nc(c(-c4c(F)cc(S(=O)(=O)[O-])cc4F)c4ccc([nH]4)c(-c4c(F)cc(S(=O)(=O)[O-])cc4F)c4nc(c(-c5c(F)cc(S(=O)(=O)[O-])cc5F)c5ccc2[nH]5)C=C4)C=C3)cc1
REMARK SMILES IDX 22 1 21 2 20 3 19 4 17 5 18 6 16 8 12 9 13 10 14 11 15 12
REMARK SMILES IDX 2 13 1 14 3 15 4 16 11 17 5 18 10 19 6 20 7 21 8 22 9 23
REMARK SMILES IDX 23 26 24 27 25 28 26 29 27 30 28 32 29 33 30 34 94 35 31 36
REMARK SMILES IDX 93 37 32 38 33 39 34 40 87 41 35 42 92 43 86 44 88 45 36 46
REMARK SMILES IDX 91 47 85 48 84 49 37 51 71 52 50 53 70 54 51 55 54 56 69 57
REMARK SMILES IDX 89 58 52 59 53 60 68 62 90 63 55 64 38 65 39 66 48 67 40 68
REMARK SMILES IDX 41 69 47 70 49 71 42 72 43 73 44 74 45 75 46 76 72 77 73 78
REMARK SMILES IDX 82 79 74 80 75 81 81 82 83 83 76 84 77 85 78 86 79 87 80 88
REMARK SMILES IDX 56 89 57 90 66 91 58 92 59 93 65 94 67 95 60 96 61 97 62 98
REMARK SMILES IDX 63 99 64 100
REMARK H PARENT 19 7 8 24 8 25 26 31 88 50 54 61
REMARK Flexibility Score: inf
ROOT
ATOM      1  C   UNL A   1      35.414  24.088  25.767  1.00  0.00     0.002 C 
ENDROOT
BRANCH   1   2
ATOM      2  C   UNL A   1      33.969  23.778  26.188  1.00  0.00     0.021 C 
BRANCH   2   3
ATOM      3  C   UNL A   1      33.236  22.831  25.235  1.00  0.00     0.116 C 
BRANCH   3   4
ATOM      4  N   UNL A   1      33.665  23.069  23.869  1.00  0.00    -0.356 N 
ATOM      5  C   UNL A   1      33.296  24.055  23.003  1.00  0.00     0.227 C 
ATOM      6  O   UNL A   1      33.531  23.885  21.808  1.00  0.00    -0.275 OA
ATOM      7  H   UNL A   1      34.320  22.425  23.517  1.00  0.00     0.163 HD
BRANCH   5   8
ATOM      8  C   UNL A   1      32.676  25.329  23.550  1.00  0.00     0.129 C 
ATOM      9  C   UNL A   1      31.282  25.563  22.987  1.00  0.00     0.124 C 
ATOM     10  C   UNL A   1      31.582  26.270  21.667  1.00  0.00     0.186 C 
ATOM     11  O   UNL A   1      32.839  26.960  21.808  1.00  0.00    -0.378 OA
ATOM     12  C   UNL A   1      33.471  26.508  23.014  1.00  0.00     0.176 C 
BRANCH   9  13
ATOM     13  N   UNL A   1      30.446  26.292  23.985  1.00  0.00    -0.352 N 
ATOM     14  C   UNL A   1      30.393  25.735  25.331  1.00  0.00     0.145 C 
BRANCH  13  15
ATOM     15  C   UNL A   1      29.881  27.527  23.734  1.00  0.00     0.151 A 
ATOM     16  C   UNL A   1      28.597  27.665  23.206  1.00  0.00     0.051 A 
ATOM     17  N   UNL A   1      30.590  28.648  23.980  1.00  0.00    -0.132 NA
ATOM     18  C   UNL A   1      28.070  28.931  22.936  1.00  0.00     0.040 A 
ATOM     19  N   UNL A   1      30.095  29.907  23.716  1.00  0.00    -0.143 NA
ATOM     20  C   UNL A   1      28.858  30.031  23.201  1.00  0.00     0.150 A 
BRANCH  20  21
ATOM     21  C   UNL A   1      28.397  31.418  22.922  1.00  0.00     0.269 C 
ATOM     22  N   UNL A   1      29.241  32.190  22.170  1.00  0.00    -0.364 N 
ATOM     23  O   UNL A   1      27.322  31.847  23.329  1.00  0.00    -0.268 OA
ATOM     24  H   UNL A   1      30.098  31.820  21.855  1.00  0.00     0.160 HD
ATOM     25  H   UNL A   1      28.992  33.115  21.943  1.00  0.00     0.160 HD
ENDBRANCH  20  21
ENDBRANCH  13  15
ENDBRANCH   9  13
ENDBRANCH   5   8
ENDBRANCH   3   4
ENDBRANCH   2   3
ENDBRANCH   1   2
BRANCH   1  26
ATOM     26  C   UNL A   1      36.444  23.025  26.164  1.00  0.00     0.002 C 
BRANCH  26  27
ATOM     27  C   UNL A   1      37.853  23.261  25.617  1.00  0.00     0.021 C 
BRANCH  27  28
ATOM     28  C   UNL A   1      38.702  24.209  26.457  1.00  0.00     0.116 C 
BRANCH  28  29
ATOM     29  N   UNL A   1      40.114  24.117  26.125  1.00  0.00    -0.352 N 
ATOM     30  C   UNL A   1      41.144  24.947  26.497  1.00  0.00     0.251 C 
ATOM     31  H   UNL A   1      40.368  23.357  25.554  1.00  0.00     0.163 HD
ATOM     32  O   UNL A   1      42.245  24.839  25.967  1.00  0.00    -0.269 OA
BRANCH  30  33
ATOM     33  C   UNL A   1      40.908  25.982  27.526  1.00  0.00     0.039 A 
ATOM     34  C   UNL A   1      39.943  25.758  28.510  1.00  0.00     0.014 A 
ATOM     35  C   UNL A   1      41.651  27.166  27.524  1.00  0.00     0.014 A 
ATOM     36  C   UNL A   1      39.766  26.697  29.529  1.00  0.00     0.010 A 
ATOM     37  C   UNL A   1      41.530  28.059  28.584  1.00  0.00     0.010 A 
ATOM     38  C   UNL A   1      40.582  27.839  29.594  1.00  0.00    -0.014 A 
BRANCH  38  39
ATOM     39  C   UNL A   1      40.455  28.823  30.699  1.00  0.00     0.031 A 
ATOM     40  C   UNL A   1      41.322  28.692  31.924  1.00  0.00     0.074 A 
ATOM     41  C   UNL A   1      39.519  29.791  30.634  1.00  0.00     0.049 A 
ATOM     42  N   UNL A   1      41.301  29.388  33.030  1.00  0.00    -0.248 NA
ATOM     43  C   UNL A   1      42.325  27.614  31.911  1.00  0.00     0.031 C 
ATOM     44  C   UNL A   1      38.597  30.003  29.516  1.00  0.00     0.029 A 
ATOM     45  N   UNL A   1      39.181  30.774  31.531  1.00  0.00    -0.354 N 
ATOM     46  C   UNL A   1      42.276  28.829  33.848  1.00  0.00     0.074 A 
ATOM     47  C   UNL A   1      42.825  27.695  33.136  1.00  0.00     0.031 C 
ATOM     48  C   UNL A   1      37.818  31.063  29.783  1.00  0.00     0.029 A 
ATOM     49  C   UNL A   1      38.150  31.578  31.108  1.00  0.00     0.049 A 
ATOM     50  H   UNL A   1      39.635  30.891  32.397  1.00  0.00     0.167 HD
ATOM     51  C   UNL A   1      42.696  29.238  35.069  1.00  0.00     0.037 A 
ATOM     52  C   UNL A   1      37.534  32.608  31.722  1.00  0.00     0.037 A 
ATOM     53  C   UNL A   1      42.155  30.376  35.765  1.00  0.00     0.049 A 
ATOM     54  C   UNL A   1      37.995  33.024  33.093  1.00  0.00     0.074 A 
ATOM     55  C   UNL A   1      42.537  30.897  36.989  1.00  0.00     0.029 A 
ATOM     56  N   UNL A   1      41.114  31.169  35.300  1.00  0.00    -0.354 N 
ATOM     57  N   UNL A   1      38.951  32.515  33.833  1.00  0.00    -0.248 NA
ATOM     58  C   UNL A   1      37.296  34.158  33.715  1.00  0.00     0.031 C 
ATOM     59  C   UNL A   1      41.693  31.972  37.288  1.00  0.00     0.029 A 
ATOM     60  C   UNL A   1      40.827  32.161  36.224  1.00  0.00     0.049 A 
ATOM     61  H   UNL A   1      40.650  31.044  34.441  1.00  0.00     0.167 HD
ATOM     62  C   UNL A   1      38.996  33.289  34.987  1.00  0.00     0.074 A 
ATOM     63  C   UNL A   1      37.971  34.305  34.846  1.00  0.00     0.031 C 
ATOM     64  C   UNL A   1      39.813  33.174  36.063  1.00  0.00     0.037 A 
BRANCH  51  65
ATOM     65  C   UNL A   1      43.793  28.445  35.729  1.00  0.00     0.058 A 
ATOM     66  C   UNL A   1      43.513  27.366  36.585  1.00  0.00     0.135 A 
ATOM     67  C   UNL A   1      45.143  28.752  35.488  1.00  0.00     0.135 A 
ATOM     68  F   UNL A   1      42.241  27.036  36.864  1.00  0.00    -0.206 F 
ATOM     69  C   UNL A   1      44.527  26.648  37.210  1.00  0.00     0.059 A 
ATOM     70  C   UNL A   1      46.174  28.025  36.076  1.00  0.00     0.059 A 
ATOM     71  F   UNL A   1      45.470  29.771  34.679  1.00  0.00    -0.206 F 
ATOM     72  C   UNL A   1      45.856  26.987  36.950  1.00  0.00     0.060 A 
BRANCH  72  73
ATOM     73  S   UNL A   1      47.159  26.052  37.777  1.00  0.00     0.124 S 
ATOM     74  O   UNL A   1      48.323  26.902  37.537  1.00  0.00    -0.237 OA
ATOM     75  O   UNL A   1      46.683  26.005  39.155  1.00  0.00    -0.237 OA
ATOM     76  O   UNL A   1      47.162  24.774  37.072  1.00  0.00    -0.744 OA
ENDBRANCH  72  73
ENDBRANCH  51  65
BRANCH  52  77
ATOM     77  C   UNL A   1      36.433  33.336  31.034  1.00  0.00     0.058 A 
ATOM     78  C   UNL A   1      36.706  34.236  29.993  1.00  0.00     0.135 A 
ATOM     79  C   UNL A   1      35.089  33.140  31.392  1.00  0.00     0.135 A 
ATOM     80  F   UNL A   1      37.974  34.463  29.619  1.00  0.00    -0.206 F 
ATOM     81  C   UNL A   1      35.691  34.929  29.343  1.00  0.00     0.059 A 
ATOM     82  C   UNL A   1      34.055  33.799  30.737  1.00  0.00     0.059 A 
ATOM     83  F   UNL A   1      34.772  32.277  32.370  1.00  0.00    -0.206 F 
ATOM     84  C   UNL A   1      34.366  34.701  29.720  1.00  0.00     0.060 A 
BRANCH  84  85
ATOM     85  S   UNL A   1      33.054  35.571  28.835  1.00  0.00     0.124 S 
ATOM     86  O   UNL A   1      32.410  34.479  28.115  1.00  0.00    -0.237 OA
ATOM     87  O   UNL A   1      32.286  36.156  29.931  1.00  0.00    -0.237 OA
ATOM     88  O   UNL A   1      33.785  36.528  28.010  1.00  0.00    -0.744 OA
ENDBRANCH  84  85
ENDBRANCH  52  77
BRANCH  64  89
ATOM     89  C   UNL A   1      39.675  34.199  37.156  1.00  0.00     0.058 A 
ATOM     90  C   UNL A   1      38.876  33.979  38.287  1.00  0.00     0.135 A 
ATOM     91  C   UNL A   1      40.411  35.396  37.098  1.00  0.00     0.135 A 
ATOM     92  F   UNL A   1      38.147  32.855  38.391  1.00  0.00    -0.206 F 
ATOM     93  C   UNL A   1      38.793  34.915  39.313  1.00  0.00     0.059 A 
ATOM     94  C   UNL A   1      40.368  36.332  38.126  1.00  0.00     0.059 A 
ATOM     95  F   UNL A   1      41.199  35.655  36.043  1.00  0.00    -0.206 F 
ATOM     96  C   UNL A   1      39.548  36.087  39.226  1.00  0.00     0.060 A 
BRANCH  96  97
ATOM     97  S   UNL A   1      39.467  37.271  40.586  1.00  0.00     0.124 S 
ATOM     98  O   UNL A   1      40.811  37.836  40.564  1.00  0.00    -0.237 OA
ATOM     99  O   UNL A   1      38.395  38.165  40.156  1.00  0.00    -0.237 OA
ATOM    100  O   UNL A   1      39.154  36.439  41.744  1.00  0.00    -0.744 OA
ENDBRANCH  96  97
ENDBRANCH  64  89
ENDBRANCH  38  39
ENDBRANCH  30  33
ENDBRANCH  28  29
ENDBRANCH  27  28
ENDBRANCH  26  27
ENDBRANCH   1  26
TORSDOF 19
ENDMDL
MODEL 2
REMARK VINA RESULT:     -11.4      6.603      9.460
REMARK SMILES CN(c1ccc(C(N)=O)nn1)[C@H]1COC[C@@H]1C(=O)NCCCCCCNC(=O)c1ccc(-c2c3nc(c(-c4c(F)cc(S(=O)(=O)[O-])cc4F)c4ccc([nH]4)c(-c4c(F)cc(S(=O)(=O)[O-])cc4F)c4nc(c(-c5c(F)cc(S(=O)(=O)[O-])cc5F)c5ccc2[nH]5)C=C4)C=C3)cc1
REMARK SMILES IDX 22 1 21 2 20 3 19 4 17 5 18 6 16 8 12 9 13 10 14 11 15 12
REMARK SMILES IDX 2 13 1 14 3 15 4 16 11 17 5 18 10 19 6 20 7 21 8 22 9 23
REMARK SMILES IDX 23 26 24 27 25 28 26 29 27 30 28 32 29 33 30 34 94 35 31 36
REMARK SMILES IDX 93 37 32 38 33 39 34 40 87 41 35 42 92 43 86 44 88 45 36 46
REMARK SMILES IDX 91 47 85 48 84 49 37 51 71 52 50 53 70 54 51 55 54 56 69 57
REMARK SMILES IDX 89 58 52 59 53 60 68 62 90 63 55 64 38 65 39 66 48 67 40 68
REMARK SMILES IDX 41 69 47 70 49 71 42 72 43 73 44 74 45 75 46 76 72 77 73 78
REMARK SMILES IDX 82 79 74 80 75 81 81 82 83 83 76 84 77 85 78 86 79 87 80 88
REMARK SMILES IDX 56 89 57 90 66 91 58 92 59 93 65 94 67 95 60 96 61 97 62 98
REMARK SMILES IDX 63 99 64 100
REMARK H PARENT 19 7 8 24 8 25 26 31 88 50 54 61
REMARK Flexibility Score: inf
ROOT
ATOM      1  C   UNL A   1      39.243  22.251  26.137  1.00  0.00     0.002 C 
ENDROOT
BRANCH   1   2
ATOM      2  C   UNL A   1      38.561  23.628  26.132  1.00  0.00     0.021 C 
BRANCH   2   3
ATOM      3  C   UNL A   1      37.033  23.563  26.167  1.00  0.00     0.116 C 
BRANCH   3   4
ATOM      4  N   UNL A   1      36.488  23.986  24.889  1.00  0.00    -0.356 N 
ATOM      5  C   UNL A   1      35.281  23.701  24.324  1.00  0.00     0.227 C 
ATOM      6  O   UNL A   1      35.154  23.892  23.115  1.00  0.00    -0.275 OA
ATOM      7  H   UNL A   1      37.077  24.563  24.352  1.00  0.00     0.163 HD
BRANCH   5   8
ATOM      8  C   UNL A   1      34.141  23.227  25.209  1.00  0.00     0.129 C 
ATOM      9  C   UNL A   1      32.878  22.958  24.405  1.00  0.00     0.124 C 
ATOM     10  C   UNL A   1      32.245  24.347  24.325  1.00  0.00     0.186 C 
ATOM     11  O   UNL A   1      32.673  25.097  25.477  1.00  0.00    -0.378 OA
ATOM     12  C   UNL A   1      33.738  24.378  26.116  1.00  0.00     0.176 C 
BRANCH   9  13
ATOM     13  N   UNL A   1      32.083  21.874  25.052  1.00  0.00    -0.352 N 
ATOM     14  C   UNL A   1      30.875  22.278  25.760  1.00  0.00     0.145 C 
BRANCH  13  15
ATOM     15  C   UNL A   1      32.347  20.532  24.862  1.00  0.00     0.151 A 
ATOM     16  C   UNL A   1      32.456  19.967  23.592  1.00  0.00     0.051 A 
ATOM     17  N   UNL A   1      32.485  19.721  25.932  1.00  0.00    -0.132 NA
ATOM     18  C   UNL A   1      32.694  18.597  23.439  1.00  0.00     0.040 A 
ATOM     19  N   UNL A   1      32.712  18.368  25.808  1.00  0.00    -0.143 NA
ATOM     20  C   UNL A   1      32.810  17.829  24.578  1.00  0.00     0.150 A 
BRANCH  20  21
ATOM     21  C   UNL A   1      33.035  16.360  24.519  1.00  0.00     0.269 C 
ATOM     22  N   UNL A   1      32.144  15.588  25.216  1.00  0.00    -0.364 N 
ATOM     23  O   UNL A   1      33.955  15.861  23.879  1.00  0.00    -0.268 OA
ATOM     24  H   UNL A   1      31.414  16.014  25.722  1.00  0.00     0.160 HD
ATOM     25  H   UNL A   1      32.233  14.607  25.212  1.00  0.00     0.160 HD
ENDBRANCH  20  21
ENDBRANCH  13  15
ENDBRANCH   9  13
ENDBRANCH   5   8
ENDBRANCH   3   4
ENDBRANCH   2   3
ENDBRANCH   1   2
BRANCH   1  26
ATOM     26  C   UNL A   1      38.491  21.156  25.373  1.00  0.00     0.002 C 
BRANCH  26  27
ATOM     27  C   UNL A   1      39.181  19.791  25.361  1.00  0.00     0.021 C 
BRANCH  27  28
ATOM     28  C   UNL A   1      40.134  19.560  26.529  1.00  0.00     0.116 C 
BRANCH  28  29
ATOM     29  N   UNL A   1      41.339  18.856  26.120  1.00  0.00    -0.352 N 
ATOM     30  C   UNL A   1      42.572  19.370  25.800  1.00  0.00     0.251 C 
ATOM     31  H   UNL A   1      41.260  17.876  26.064  1.00  0.00     0.163 HD
ATOM     32  O   UNL A   1      43.423  18.653  25.283  1.00  0.00    -0.269 OA
BRANCH  30  33
ATOM     33  C   UNL A   1      42.856  20.796  26.064  1.00  0.00     0.039 A 
ATOM     34  C   UNL A   1      42.957  21.238  27.384  1.00  0.00     0.014 A 
ATOM     35  C   UNL A   1      43.038  21.691  25.005  1.00  0.00     0.014 A 
ATOM     36  C   UNL A   1      43.300  22.568  27.643  1.00  0.00     0.010 A 
ATOM     37  C   UNL A   1      43.458  22.992  25.264  1.00  0.00     0.010 A 
ATOM     38  C   UNL A   1      43.586  23.447  26.585  1.00  0.00    -0.014 A 
BRANCH  38  39
ATOM     39  C   UNL A   1      44.010  24.849  26.832  1.00  0.00     0.031 A 
ATOM     40  C   UNL A   1      45.455  25.237  26.660  1.00  0.00     0.074 A 
ATOM     41  C   UNL A   1      43.115  25.754  27.274  1.00  0.00     0.049 A 
ATOM     42  N   UNL A   1      46.041  26.378  26.914  1.00  0.00    -0.248 NA
ATOM     43  C   UNL A   1      46.366  24.192  26.165  1.00  0.00     0.031 C 
ATOM     44  C   UNL A   1      41.693  25.494  27.511  1.00  0.00     0.029 A 
ATOM     45  N   UNL A   1      43.268  27.076  27.613  1.00  0.00    -0.354 N 
ATOM     46  C   UNL A   1      47.387  26.187  26.621  1.00  0.00     0.074 A 
ATOM     47  C   UNL A   1      47.541  24.802  26.233  1.00  0.00     0.031 C 
ATOM     48  C   UNL A   1      41.102  26.624  27.931  1.00  0.00     0.029 A 
ATOM     49  C   UNL A   1      42.107  27.677  28.038  1.00  0.00     0.049 A 
ATOM     50  H   UNL A   1      44.130  27.549  27.555  1.00  0.00     0.167 HD
ATOM     51  C   UNL A   1      48.397  27.089  26.647  1.00  0.00     0.037 A 
ATOM     52  C   UNL A   1      41.880  28.931  28.476  1.00  0.00     0.037 A 
ATOM     53  C   UNL A   1      48.232  28.469  27.020  1.00  0.00     0.049 A 
ATOM     54  C   UNL A   1      43.024  29.907  28.528  1.00  0.00     0.074 A 
ATOM     55  C   UNL A   1      49.183  29.474  27.041  1.00  0.00     0.029 A 
ATOM     56  N   UNL A   1      47.038  29.040  27.440  1.00  0.00    -0.354 N 
ATOM     57  N   UNL A   1      44.282  29.723  28.201  1.00  0.00    -0.248 NA
ATOM     58  C   UNL A   1      42.721  31.264  29.005  1.00  0.00     0.031 C 
ATOM     59  C   UNL A   1      48.578  30.638  27.524  1.00  0.00     0.029 A 
ATOM     60  C   UNL A   1      47.235  30.378  27.744  1.00  0.00     0.049 A 
ATOM     61  H   UNL A   1      46.179  28.565  27.511  1.00  0.00     0.167 HD
ATOM     62  C   UNL A   1      44.910  30.949  28.394  1.00  0.00     0.074 A 
ATOM     63  C   UNL A   1      43.892  31.868  28.863  1.00  0.00     0.031 C 
ATOM     64  C   UNL A   1      46.209  31.285  28.196  1.00  0.00     0.037 A 
BRANCH  51  65
ATOM     65  C   UNL A   1      49.770  26.606  26.261  1.00  0.00     0.058 A 
ATOM     66  C   UNL A   1      50.618  25.974  27.187  1.00  0.00     0.135 A 
ATOM     67  C   UNL A   1      50.239  26.757  24.945  1.00  0.00     0.135 A 
ATOM     68  F   UNL A   1      50.229  25.816  28.462  1.00  0.00    -0.206 F 
ATOM     69  C   UNL A   1      51.893  25.547  26.834  1.00  0.00     0.059 A 
ATOM     70  C   UNL A   1      51.498  26.306  24.562  1.00  0.00     0.059 A 
ATOM     71  F   UNL A   1      49.472  27.351  24.018  1.00  0.00    -0.206 F 
ATOM     72  C   UNL A   1      52.325  25.720  25.518  1.00  0.00     0.060 A 
BRANCH  72  73
ATOM     73  S   UNL A   1      53.988  25.169  25.081  1.00  0.00     0.124 S 
ATOM     74  O   UNL A   1      54.751  25.593  26.252  1.00  0.00    -0.237 OA
ATOM     75  O   UNL A   1      53.810  23.730  24.928  1.00  0.00    -0.237 OA
ATOM     76  O   UNL A   1      54.275  25.898  23.849  1.00  0.00    -0.744 OA
ENDBRANCH  72  73
ENDBRANCH  51  65
BRANCH  52  77
ATOM     77  C   UNL A   1      40.507  29.344  28.874  1.00  0.00     0.058 A 
ATOM     78  C   UNL A   1      40.184  29.562  30.222  1.00  0.00     0.135 A 
ATOM     79  C   UNL A   1      39.494  29.540  27.921  1.00  0.00     0.135 A 
ATOM     80  F   UNL A   1      41.114  29.381  31.172  1.00  0.00    -0.206 F 
ATOM     81  C   UNL A   1      38.905  29.942  30.614  1.00  0.00     0.059 A 
ATOM     82  C   UNL A   1      38.216  29.948  28.285  1.00  0.00     0.059 A 
ATOM     83  F   UNL A   1      39.754  29.360  26.617  1.00  0.00    -0.206 F 
ATOM     84  C   UNL A   1      37.927  30.137  29.637  1.00  0.00     0.060 A 
BRANCH  84  85
ATOM     85  S   UNL A   1      36.283  30.677  30.154  1.00  0.00     0.124 S 
ATOM     86  O   UNL A   1      35.525  30.542  28.916  1.00  0.00    -0.237 OA
ATOM     87  O   UNL A   1      35.966  29.717  31.207  1.00  0.00    -0.237 OA
ATOM     88  O   UNL A   1      36.509  32.045  30.611  1.00  0.00    -0.744 OA
ENDBRANCH  84  85
ENDBRANCH  52  77
BRANCH  64  89
ATOM     89  C   UNL A   1      46.603  32.718  28.434  1.00  0.00     0.058 A 
ATOM     90  C   UNL A   1      47.125  33.152  29.661  1.00  0.00     0.135 A 
ATOM     91  C   UNL A   1      46.516  33.656  27.390  1.00  0.00     0.135 A 
ATOM     92  F   UNL A   1      47.223  32.299  30.694  1.00  0.00    -0.206 F 
ATOM     93  C   UNL A   1      47.529  34.470  29.854  1.00  0.00     0.059 A 
ATOM     94  C   UNL A   1      46.943  34.970  27.551  1.00  0.00     0.059 A 
ATOM     95  F   UNL A   1      46.033  33.292  26.192  1.00  0.00    -0.206 F 
ATOM     96  C   UNL A   1      47.439  35.370  28.790  1.00  0.00     0.060 A 
BRANCH  96  97
ATOM     97  S   UNL A   1      48.010  37.064  29.040  1.00  0.00     0.124 S 
ATOM     98  O   UNL A   1      46.755  37.765  29.285  1.00  0.00    -0.237 OA
ATOM     99  O   UNL A   1      48.896  36.927  30.194  1.00  0.00    -0.237 OA
ATOM    100  O   UNL A   1      48.676  37.389  27.782  1.00  0.00    -0.744 OA
ENDBRANCH  96  97
ENDBRANCH  64  89
ENDBRANCH  38  39
ENDBRANCH  30  33
ENDBRANCH  28  29
ENDBRANCH  27  28
ENDBRANCH  26  27
ENDBRANCH   1  26
TORSDOF 19
ENDMDL
MODEL 3
REMARK VINA RESULT:     -11.3      6.441      8.673
REMARK SMILES CN(c1ccc(C(N)=O)nn1)[C@H]1COC[C@@H]1C(=O)NCCCCCCNC(=O)c1ccc(-c2c3nc(c(-c4c(F)cc(S(=O)(=O)[O-])cc4F)c4ccc([nH]4)c(-c4c(F)cc(S(=O)(=O)[O-])cc4F)c4nc(c(-c5c(F)cc(S(=O)(=O)[O-])cc5F)c5ccc2[nH]5)C=C4)C=C3)cc1
REMARK SMILES IDX 22 1 21 2 20 3 19 4 17 5 18 6 16 8 12 9 13 10 14 11 15 12
REMARK SMILES IDX 2 13 1 14 3 15 4 16 11 17 5 18 10 19 6 20 7 21 8 22 9 23
REMARK SMILES IDX 23 26 24 27 25 28 26 29 27 30 28 32 29 33 30 34 94 35 31 36
REMARK SMILES IDX 93 37 32 38 33 39 34 40 87 41 35 42 92 43 86 44 88 45 36 46
REMARK SMILES IDX 91 47 85 48 84 49 37 51 71 52 50 53 70 54 51 55 54 56 69 57
REMARK SMILES IDX 89 58 52 59 53 60 68 62 90 63 55 64 38 65 39 66 48 67 40 68
REMARK SMILES IDX 41 69 47 70 49 71 42 72 43 73 44 74 45 75 46 76 72 77 73 78
REMARK SMILES IDX 82 79 74 80 75 81 81 82 83 83 76 84 77 85 78 86 79 87 80 88
REMARK SMILES IDX 56 89 57 90 66 91 58 92 59 93 65 94 67 95 60 96 61 97 62 98
REMARK SMILES IDX 63 99 64 100
REMARK H PARENT 19 7 8 24 8 25 26 31 88 50 54 61
REMARK Flexibility Score: inf
ROOT
ATOM      1  C   UNL A   1      36.996  21.796  24.762  1.00  0.00     0.002 C 
ENDROOT
BRANCH   1   2
ATOM      2  C   UNL A   1      36.081  20.582  24.985  1.00  0.00     0.021 C 
BRANCH   2   3
ATOM      3  C   UNL A   1      34.590  20.928  25.014  1.00  0.00     0.116 C 
BRANCH   3   4
ATOM      4  N   UNL A   1      34.158  21.155  26.381  1.00  0.00    -0.356 N 
ATOM      5  C   UNL A   1      33.248  22.045  26.866  1.00  0.00     0.227 C 
ATOM      6  O   UNL A   1      33.271  22.289  28.072  1.00  0.00    -0.275 OA
ATOM      7  H   UNL A   1      34.585  20.581  27.057  1.00  0.00     0.163 HD
BRANCH   5   8
ATOM      8  C   UNL A   1      32.218  22.642  25.923  1.00  0.00     0.129 C 
ATOM      9  C   UNL A   1      32.673  23.985  25.371  1.00  0.00     0.124 C 
ATOM     10  C   UNL A   1      32.233  24.951  26.470  1.00  0.00     0.186 C 
ATOM     11  O   UNL A   1      31.103  24.369  27.147  1.00  0.00    -0.378 OA
ATOM     12  C   UNL A   1      30.985  22.999  26.736  1.00  0.00     0.176 C 
BRANCH   9  13
ATOM     13  N   UNL A   1      32.108  24.192  24.005  1.00  0.00    -0.352 N 
ATOM     14  C   UNL A   1      32.019  23.017  23.147  1.00  0.00     0.145 C 
BRANCH  13  15
ATOM     15  C   UNL A   1      31.528  25.379  23.602  1.00  0.00     0.151 A 
ATOM     16  C   UNL A   1      30.265  25.776  24.041  1.00  0.00     0.051 A 
ATOM     17  N   UNL A   1      32.182  26.182  22.738  1.00  0.00    -0.132 NA
ATOM     18  C   UNL A   1      29.697  26.970  23.587  1.00  0.00     0.040 A 
ATOM     19  N   UNL A   1      31.641  27.359  22.270  1.00  0.00    -0.143 NA
ATOM     20  C   UNL A   1      30.419  27.733  22.693  1.00  0.00     0.150 A 
BRANCH  20  21
ATOM     21  C   UNL A   1      29.887  29.004  22.132  1.00  0.00     0.269 C 
ATOM     22  N   UNL A   1      30.824  29.914  21.717  1.00  0.00    -0.364 N 
ATOM     23  O   UNL A   1      28.685  29.228  22.035  1.00  0.00    -0.268 OA
ATOM     24  H   UNL A   1      31.783  29.708  21.806  1.00  0.00     0.160 HD
ATOM     25  H   UNL A   1      30.538  30.773  21.329  1.00  0.00     0.160 HD
ENDBRANCH  20  21
ENDBRANCH  13  15
ENDBRANCH   9  13
ENDBRANCH   5   8
ENDBRANCH   3   4
ENDBRANCH   2   3
ENDBRANCH   1   2
BRANCH   1  26
ATOM     26  C   UNL A   1      38.374  21.695  25.425  1.00  0.00     0.002 C 
BRANCH  26  27
ATOM     27  C   UNL A   1      39.004  20.302  25.389  1.00  0.00     0.021 C 
BRANCH  27  28
ATOM     28  C   UNL A   1      39.973  20.021  26.533  1.00  0.00     0.116 C 
BRANCH  28  29
ATOM     29  N   UNL A   1      41.030  19.103  26.141  1.00  0.00    -0.352 N 
ATOM     30  C   UNL A   1      42.337  19.378  25.819  1.00  0.00     0.251 C 
ATOM     31  H   UNL A   1      40.774  18.153  26.099  1.00  0.00     0.163 HD
ATOM     32  O   UNL A   1      43.044  18.510  25.318  1.00  0.00    -0.269 OA
BRANCH  30  33
ATOM     33  C   UNL A   1      42.875  20.733  26.062  1.00  0.00     0.039 A 
ATOM     34  C   UNL A   1      43.138  21.568  24.974  1.00  0.00     0.014 A 
ATOM     35  C   UNL A   1      43.106  21.181  27.366  1.00  0.00     0.014 A 
ATOM     36  C   UNL A   1      43.576  22.876  25.197  1.00  0.00     0.010 A 
ATOM     37  C   UNL A   1      43.463  22.507  27.588  1.00  0.00     0.010 A 
ATOM     38  C   UNL A   1      43.709  23.367  26.507  1.00  0.00    -0.014 A 
BRANCH  38  39
ATOM     39  C   UNL A   1      44.115  24.771  26.773  1.00  0.00     0.031 A 
ATOM     40  C   UNL A   1      45.557  25.177  26.616  1.00  0.00     0.074 A 
ATOM     41  C   UNL A   1      43.207  25.661  27.220  1.00  0.00     0.049 A 
ATOM     42  N   UNL A   1      46.128  26.321  26.887  1.00  0.00    -0.248 NA
ATOM     43  C   UNL A   1      46.482  24.148  26.114  1.00  0.00     0.031 C 
ATOM     44  C   UNL A   1      41.787  25.381  27.445  1.00  0.00     0.029 A 
ATOM     45  N   UNL A   1      43.344  26.980  27.576  1.00  0.00    -0.354 N 
ATOM     46  C   UNL A   1      47.478  26.149  26.600  1.00  0.00     0.074 A 
ATOM     47  C   UNL A   1      47.650  24.770  26.196  1.00  0.00     0.031 C 
ATOM     48  C   UNL A   1      41.181  26.500  27.875  1.00  0.00     0.029 A 
ATOM     49  C   UNL A   1      42.174  27.562  28.001  1.00  0.00     0.049 A 
ATOM     50  H   UNL A   1      44.200  27.463  27.530  1.00  0.00     0.167 HD
ATOM     51  C   UNL A   1      48.478  27.061  26.642  1.00  0.00     0.037 A 
ATOM     52  C   UNL A   1      41.929  28.809  28.453  1.00  0.00     0.037 A 
ATOM     53  C   UNL A   1      48.295  28.435  27.031  1.00  0.00     0.049 A 
ATOM     54  C   UNL A   1      43.062  29.797  28.523  1.00  0.00     0.074 A 
ATOM     55  C   UNL A   1      49.235  29.450  27.071  1.00  0.00     0.029 A 
ATOM     56  N   UNL A   1      47.092  28.988  27.450  1.00  0.00    -0.354 N 
ATOM     57  N   UNL A   1      44.324  29.631  28.202  1.00  0.00    -0.248 NA
ATOM     58  C   UNL A   1      42.741  31.144  29.014  1.00  0.00     0.031 C 
ATOM     59  C   UNL A   1      48.613  30.602  27.563  1.00  0.00     0.029 A 
ATOM     60  C   UNL A   1      47.272  30.324  27.772  1.00  0.00     0.049 A 
ATOM     61  H   UNL A   1      46.238  28.502  27.510  1.00  0.00     0.167 HD
ATOM     62  C   UNL A   1      44.937  30.861  28.414  1.00  0.00     0.074 A 
ATOM     63  C   UNL A   1      43.906  31.763  28.888  1.00  0.00     0.031 C 
ATOM     64  C   UNL A   1      46.233  31.214  28.229  1.00  0.00     0.037 A 
BRANCH  51  65
ATOM     65  C   UNL A   1      49.858  26.599  26.260  1.00  0.00     0.058 A 
ATOM     66  C   UNL A   1      50.740  26.045  27.204  1.00  0.00     0.135 A 
ATOM     67  C   UNL A   1      50.301  26.689  24.930  1.00  0.00     0.135 A 
ATOM     68  F   UNL A   1      50.377  25.947  28.493  1.00  0.00    -0.206 F 
ATOM     69  C   UNL A   1      52.022  25.637  26.853  1.00  0.00     0.059 A 
ATOM     70  C   UNL A   1      51.568  26.255  24.550  1.00  0.00     0.059 A 
ATOM     71  F   UNL A   1      49.502  27.208  23.985  1.00  0.00    -0.206 F 
ATOM     72  C   UNL A   1      52.427  25.748  25.522  1.00  0.00     0.060 A 
BRANCH  72  73
ATOM     73  S   UNL A   1      54.099  25.224  25.086  1.00  0.00     0.124 S 
ATOM     74  O   UNL A   1      54.869  25.742  26.214  1.00  0.00    -0.237 OA
ATOM     75  O   UNL A   1      53.964  23.772  25.025  1.00  0.00    -0.237 OA
ATOM     76  O   UNL A   1      54.341  25.884  23.807  1.00  0.00    -0.744 OA
ENDBRANCH  72  73
ENDBRANCH  51  65
BRANCH  52  77
ATOM     77  C   UNL A   1      40.549  29.201  28.847  1.00  0.00     0.058 A 
ATOM     78  C   UNL A   1      39.568  29.457  27.877  1.00  0.00     0.135 A 
ATOM     79  C   UNL A   1      40.178  29.318  30.197  1.00  0.00     0.135 A 
ATOM     80  F   UNL A   1      39.876  29.366  26.574  1.00  0.00    -0.206 F 
ATOM     81  C   UNL A   1      38.276  29.831  28.227  1.00  0.00     0.059 A 
ATOM     82  C   UNL A   1      38.883  29.662  30.572  1.00  0.00     0.059 A 
ATOM     83  F   UNL A   1      41.073  29.069  31.165  1.00  0.00    -0.206 F 
ATOM     84  C   UNL A   1      37.941  29.927  29.579  1.00  0.00     0.060 A 
BRANCH  84  85
ATOM     85  S   UNL A   1      36.245  30.367  30.020  1.00  0.00     0.124 S 
ATOM     86  O   UNL A   1      35.500  29.845  28.881  1.00  0.00    -0.237 OA
ATOM     87  O   UNL A   1      36.067  29.656  31.283  1.00  0.00    -0.237 OA
ATOM     88  O   UNL A   1      36.296  31.822  30.129  1.00  0.00    -0.744 OA
ENDBRANCH  84  85
ENDBRANCH  52  77
BRANCH  64  89
ATOM     89  C   UNL A   1      46.610  32.648  28.486  1.00  0.00     0.058 A 
ATOM     90  C   UNL A   1      46.931  33.115  29.769  1.00  0.00     0.135 A 
ATOM     91  C   UNL A   1      46.713  33.553  27.415  1.00  0.00     0.135 A 
ATOM     92  F   UNL A   1      46.842  32.294  30.828  1.00  0.00    -0.206 F 
ATOM     93  C   UNL A   1      47.322  34.432  29.987  1.00  0.00     0.059 A 
ATOM     94  C   UNL A   1      47.132  34.866  27.605  1.00  0.00     0.059 A 
ATOM     95  F   UNL A   1      46.426  33.158  26.165  1.00  0.00    -0.206 F 
ATOM     96  C   UNL A   1      47.425  35.299  28.897  1.00  0.00     0.060 A 
BRANCH  96  97
ATOM     97  S   UNL A   1      47.979  36.992  29.188  1.00  0.00     0.124 S 
ATOM     98  O   UNL A   1      47.759  37.132  30.623  1.00  0.00    -0.237 OA
ATOM     99  O   UNL A   1      49.375  36.940  28.763  1.00  0.00    -0.237 OA
ATOM    100  O   UNL A   1      47.100  37.789  28.338  1.00  0.00    -0.744 OA
ENDBRANCH  96  97
ENDBRANCH  64  89
ENDBRANCH  38  39
ENDBRANCH  30  33
ENDBRANCH  28  29
ENDBRANCH  27  28
ENDBRANCH  26  27
ENDBRANCH   1  26
TORSDOF 19
ENDMDL
