MODEL 1
REMARK VINA RESULT:     -12.1      0.000      0.000
REMARK SMILES O=C(NCCCCCCNC(=O)[C@@H]1CCCC[C@H]1C(=O)Nc1cccc(-c2nnc(-c3ccccc3)o2)c1)c1ccc(-c2c3nc(c(-c4c(F)cc(S(=O)(=O)[O-])cc4F)c4ccc([nH]4)c(-c4c(F)cc(S(=O)(=O)[O-])cc4F)c4nc(c(-c5c(F)cc(S(=O)(=O)[O-])cc5F)c5ccc2[nH]5)C=C4)C=C3)cc1
REMARK SMILES IDX 7 1 6 2 5 3 4 4 3 5 1 6 2 7 39 9 40 10 104 11 41 12 103 13
REMARK SMILES IDX 42 14 43 15 44 16 97 17 45 18 102 19 96 20 98 21 46 22
REMARK SMILES IDX 101 23 95 24 94 25 47 27 81 28 60 29 80 30 61 31 64 32 79 33
REMARK SMILES IDX 99 34 62 35 63 36 78 38 100 39 65 40 48 41 49 42 58 43 50 44
REMARK SMILES IDX 51 45 57 46 59 47 52 48 53 49 54 50 55 51 56 52 82 53 83 54
REMARK SMILES IDX 92 55 84 56 85 57 91 58 93 59 86 60 87 61 88 62 89 63 90 64
REMARK SMILES IDX 66 65 67 66 76 67 68 68 69 69 75 70 77 71 70 72 71 73 72 74
REMARK SMILES IDX 73 75 74 76 8 77 9 78 10 79 11 80 12 82 13 83 14 84 18 85
REMARK SMILES IDX 15 86 17 87 16 88 19 89 20 90 21 91 22 93 23 94 38 95 24 96
REMARK SMILES IDX 26 97 25 98 27 99 28 100 37 101 29 102 30 103 31 104 32 105
REMARK SMILES IDX 36 106 33 107 35 108 34 109
REMARK H PARENT 3 8 98 26 64 37 10 81 21 92
REMARK Flexibility Score: inf
ROOT
ATOM      1  C   UNL A   1      37.095  22.683  25.776  1.00  0.00     0.002 C 
ENDROOT
BRANCH   1   2
ATOM      2  C   UNL A   1      38.601  22.764  26.046  1.00  0.00     0.002 C 
BRANCH   2   3
ATOM      3  C   UNL A   1      39.258  21.474  26.549  1.00  0.00     0.021 C 
BRANCH   3   4
ATOM      4  C   UNL A   1      39.580  20.444  25.470  1.00  0.00     0.116 C 
BRANCH   4   5
ATOM      5  N   UNL A   1      40.501  19.419  25.936  1.00  0.00    -0.352 N 
ATOM      6  O   UNL A   1      42.494  18.566  26.563  1.00  0.00    -0.269 OA
ATOM      7  C   UNL A   1      41.801  19.558  26.370  1.00  0.00     0.251 C 
ATOM      8  H   UNL A   1      40.147  18.501  25.943  1.00  0.00     0.163 HD
BRANCH   7   9
ATOM      9  C   UNL A   1      42.353  20.910  26.605  1.00  0.00     0.039 A 
ATOM     10  C   UNL A   1      42.657  21.732  25.524  1.00  0.00     0.014 A 
ATOM     11  C   UNL A   1      42.538  21.381  27.907  1.00  0.00     0.014 A 
ATOM     12  C   UNL A   1      43.250  22.974  25.740  1.00  0.00     0.010 A 
ATOM     13  C   UNL A   1      43.065  22.665  28.121  1.00  0.00     0.010 A 
ATOM     14  C   UNL A   1      43.440  23.474  27.038  1.00  0.00    -0.014 A 
BRANCH  14  15
ATOM     15  C   UNL A   1      43.935  24.871  27.223  1.00  0.00     0.031 A 
ATOM     16  C   UNL A   1      45.304  25.298  26.756  1.00  0.00     0.074 A 
ATOM     17  C   UNL A   1      43.128  25.771  27.826  1.00  0.00     0.049 A 
ATOM     18  N   UNL A   1      45.911  26.445  26.935  1.00  0.00    -0.248 NA
ATOM     19  C   UNL A   1      46.098  24.321  25.995  1.00  0.00     0.031 C 
ATOM     20  C   UNL A   1      41.775  25.493  28.320  1.00  0.00     0.029 A 
ATOM     21  N   UNL A   1      43.317  27.097  28.132  1.00  0.00    -0.354 N 
ATOM     22  C   UNL A   1      47.168  26.317  26.354  1.00  0.00     0.074 A 
ATOM     23  C   UNL A   1      47.236  24.979  25.804  1.00  0.00     0.031 C 
ATOM     24  C   UNL A   1      41.248  26.612  28.833  1.00  0.00     0.029 A 
ATOM     25  C   UNL A   1      42.258  27.660  28.808  1.00  0.00     0.049 A 
ATOM     26  H   UNL A   1      44.130  27.596  27.890  1.00  0.00     0.167 HD
ATOM     27  C   UNL A   1      48.169  27.229  26.294  1.00  0.00     0.037 A 
ATOM     28  C   UNL A   1      42.126  28.859  29.409  1.00  0.00     0.037 A 
ATOM     29  C   UNL A   1      48.076  28.573  26.810  1.00  0.00     0.049 A 
ATOM     30  C   UNL A   1      43.273  29.826  29.371  1.00  0.00     0.074 A 
ATOM     31  C   UNL A   1      49.016  29.589  26.725  1.00  0.00     0.029 A 
ATOM     32  N   UNL A   1      47.001  29.087  27.516  1.00  0.00    -0.354 N 
ATOM     33  N   UNL A   1      44.434  29.700  28.776  1.00  0.00    -0.248 NA
ATOM     34  C   UNL A   1      43.103  31.090  30.100  1.00  0.00     0.031 C 
ATOM     35  C   UNL A   1      48.538  30.691  27.440  1.00  0.00     0.029 A 
ATOM     36  C   UNL A   1      47.275  30.385  27.918  1.00  0.00     0.049 A 
ATOM     37  H   UNL A   1      46.165  28.602  27.706  1.00  0.00     0.167 HD
ATOM     38  C   UNL A   1      45.131  30.868  29.057  1.00  0.00     0.074 A 
ATOM     39  C   UNL A   1      44.250  31.704  29.845  1.00  0.00     0.031 C 
ATOM     40  C   UNL A   1      46.393  31.211  28.703  1.00  0.00     0.037 A 
BRANCH  27  41
ATOM     41  C   UNL A   1      49.484  26.825  25.680  1.00  0.00     0.058 A 
ATOM     42  C   UNL A   1      49.831  27.162  24.363  1.00  0.00     0.135 A 
ATOM     43  C   UNL A   1      50.466  26.209  26.477  1.00  0.00     0.135 A 
ATOM     44  F   UNL A   1      48.930  27.742  23.554  1.00  0.00    -0.206 F 
ATOM     45  C   UNL A   1      51.103  26.906  23.859  1.00  0.00     0.059 A 
ATOM     46  C   UNL A   1      51.751  25.964  26.002  1.00  0.00     0.059 A 
ATOM     47  F   UNL A   1      50.188  25.867  27.745  1.00  0.00    -0.206 F 
ATOM     48  C   UNL A   1      52.060  26.316  24.689  1.00  0.00     0.060 A 
BRANCH  48  49
ATOM     49  S   UNL A   1      53.721  26.041  24.034  1.00  0.00     0.124 S 
ATOM     50  O   UNL A   1      54.408  27.256  24.463  1.00  0.00    -0.237 OA
ATOM     51  O   UNL A   1      54.123  24.813  24.713  1.00  0.00    -0.237 OA
ATOM     52  O   UNL A   1      53.506  25.917  22.596  1.00  0.00    -0.744 OA
ENDBRANCH  48  49
ENDBRANCH  27  41
BRANCH  28  53
ATOM     53  C   UNL A   1      40.891  29.173  30.179  1.00  0.00     0.058 A 
ATOM     54  C   UNL A   1      40.810  28.939  31.559  1.00  0.00     0.135 A 
ATOM     55  C   UNL A   1      39.756  29.700  29.538  1.00  0.00     0.135 A 
ATOM     56  F   UNL A   1      41.863  28.429  32.215  1.00  0.00    -0.206 F 
ATOM     57  C   UNL A   1      39.641  29.189  32.271  1.00  0.00     0.059 A 
ATOM     58  C   UNL A   1      38.591  29.995  30.235  1.00  0.00     0.059 A 
ATOM     59  F   UNL A   1      39.784  29.958  28.221  1.00  0.00    -0.206 F 
ATOM     60  C   UNL A   1      38.537  29.716  31.599  1.00  0.00     0.060 A 
BRANCH  60  61
ATOM     61  S   UNL A   1      37.029  30.050  32.533  1.00  0.00     0.124 S 
ATOM     62  O   UNL A   1      37.047  28.967  33.510  1.00  0.00    -0.237 OA
ATOM     63  O   UNL A   1      37.282  31.388  33.056  1.00  0.00    -0.237 OA
ATOM     64  O   UNL A   1      35.983  29.969  31.518  1.00  0.00    -0.744 OA
ENDBRANCH  60  61
ENDBRANCH  28  53
BRANCH  40  65
ATOM     65  C   UNL A   1      46.898  32.553  29.156  1.00  0.00     0.058 A 
ATOM     66  C   UNL A   1      46.625  33.722  28.429  1.00  0.00     0.135 A 
ATOM     67  C   UNL A   1      47.611  32.680  30.359  1.00  0.00     0.135 A 
ATOM     68  F   UNL A   1      45.959  33.654  27.265  1.00  0.00    -0.206 F 
ATOM     69  C   UNL A   1      47.052  34.969  28.872  1.00  0.00     0.059 A 
ATOM     70  C   UNL A   1      48.022  33.920  30.836  1.00  0.00     0.059 A 
ATOM     71  F   UNL A   1      47.896  31.593  31.094  1.00  0.00    -0.206 F 
ATOM     72  C   UNL A   1      47.742  35.059  30.082  1.00  0.00     0.060 A 
BRANCH  72  73
ATOM     73  S   UNL A   1      48.239  36.691  30.672  1.00  0.00     0.124 S 
ATOM     74  O   UNL A   1      49.517  36.874  29.993  1.00  0.00    -0.237 OA
ATOM     75  O   UNL A   1      47.145  37.536  30.202  1.00  0.00    -0.237 OA
ATOM     76  O   UNL A   1      48.315  36.522  32.119  1.00  0.00    -0.744 OA
ENDBRANCH  72  73
ENDBRANCH  40  65
ENDBRANCH  14  15
ENDBRANCH   7   9
ENDBRANCH   4   5
ENDBRANCH   3   4
ENDBRANCH   2   3
ENDBRANCH   1   2
BRANCH   1  77
ATOM     77  C   UNL A   1      36.446  23.986  25.311  1.00  0.00     0.021 C 
BRANCH  77  78
ATOM     78  C   UNL A   1      34.976  24.146  25.672  1.00  0.00     0.116 C 
BRANCH  78  79
ATOM     79  N   UNL A   1      34.589  23.331  26.809  1.00  0.00    -0.356 N 
ATOM     80  C   UNL A   1      33.537  22.471  26.950  1.00  0.00     0.223 C 
ATOM     81  H   UNL A   1      35.173  23.410  27.598  1.00  0.00     0.163 HD
ATOM     82  O   UNL A   1      33.381  21.907  28.032  1.00  0.00    -0.275 OA
BRANCH  80  83
ATOM     83  C   UNL A   1      32.568  22.287  25.791  1.00  0.00     0.091 C 
ATOM     84  C   UNL A   1      33.253  21.511  24.663  1.00  0.00     0.014 C 
ATOM     85  C   UNL A   1      31.942  23.616  25.348  1.00  0.00     0.091 C 
ATOM     86  C   UNL A   1      32.316  21.353  23.472  1.00  0.00     0.001 C 
ATOM     87  C   UNL A   1      31.172  23.529  24.018  1.00  0.00     0.014 C 
ATOM     88  C   UNL A   1      31.895  22.716  22.945  1.00  0.00     0.001 C 
BRANCH  85  89
ATOM     89  C   UNL A   1      31.107  24.327  26.441  1.00  0.00     0.228 C 
ATOM     90  O   UNL A   1      30.452  23.636  27.234  1.00  0.00    -0.274 OA
ATOM     91  N   UNL A   1      31.122  25.673  26.706  1.00  0.00    -0.326 N 
ATOM     92  H   UNL A   1      30.602  25.928  27.503  1.00  0.00     0.169 HD
BRANCH  91  93
ATOM     93  C   UNL A   1      31.735  26.755  26.061  1.00  0.00     0.041 A 
ATOM     94  C   UNL A   1      31.207  27.191  24.846  1.00  0.00     0.026 A 
ATOM     95  C   UNL A   1      32.840  27.414  26.587  1.00  0.00     0.040 A 
ATOM     96  C   UNL A   1      31.669  28.378  24.272  1.00  0.00     0.003 A 
ATOM     97  C   UNL A   1      33.224  28.669  26.105  1.00  0.00     0.041 A 
ATOM     98  C   UNL A   1      32.635  29.142  24.930  1.00  0.00     0.014 A 
BRANCH  97  99
ATOM     99  C   UNL A   1      33.986  29.574  26.950  1.00  0.00     0.248 A 
ATOM    100  N   UNL A   1      35.264  29.479  27.251  1.00  0.00    -0.107 NA
ATOM    101  O   UNL A   1      33.418  30.748  27.378  1.00  0.00    -0.416 OA
ATOM    102  N   UNL A   1      35.605  30.646  27.887  1.00  0.00    -0.107 NA
ATOM    103  C   UNL A   1      34.497  31.348  27.989  1.00  0.00     0.248 A 
BRANCH 103 104
ATOM    104  C   UNL A   1      34.300  32.623  28.650  1.00  0.00     0.039 A 
ATOM    105  C   UNL A   1      34.777  32.819  29.957  1.00  0.00     0.014 A 
ATOM    106  C   UNL A   1      33.540  33.625  28.044  1.00  0.00     0.014 A 
ATOM    107  C   UNL A   1      34.487  33.993  30.651  1.00  0.00     0.001 A 
ATOM    108  C   UNL A   1      33.214  34.778  28.756  1.00  0.00     0.001 A 
ATOM    109  C   UNL A   1      33.685  34.961  30.056  1.00  0.00     0.000 A 
ENDBRANCH 103 104
ENDBRANCH  97  99
ENDBRANCH  91  93
ENDBRANCH  85  89
ENDBRANCH  80  83
ENDBRANCH  78  79
ENDBRANCH  77  78
ENDBRANCH   1  77
TORSDOF 20
ENDMDL
MODEL 2
REMARK VINA RESULT:     -12.1      2.295      9.486
REMARK SMILES O=C(NCCCCCCNC(=O)[C@@H]1CCCC[C@H]1C(=O)Nc1cccc(-c2nnc(-c3ccccc3)o2)c1)c1ccc(-c2c3nc(c(-c4c(F)cc(S(=O)(=O)[O-])cc4F)c4ccc([nH]4)c(-c4c(F)cc(S(=O)(=O)[O-])cc4F)c4nc(c(-c5c(F)cc(S(=O)(=O)[O-])cc5F)c5ccc2[nH]5)C=C4)C=C3)cc1
REMARK SMILES IDX 7 1 6 2 5 3 4 4 3 5 1 6 2 7 39 9 40 10 104 11 41 12 103 13
REMARK SMILES IDX 42 14 43 15 44 16 97 17 45 18 102 19 96 20 98 21 46 22
REMARK SMILES IDX 101 23 95 24 94 25 47 27 81 28 60 29 80 30 61 31 64 32 79 33
REMARK SMILES IDX 99 34 62 35 63 36 78 38 100 39 65 40 48 41 49 42 58 43 50 44
REMARK SMILES IDX 51 45 57 46 59 47 52 48 53 49 54 50 55 51 56 52 82 53 83 54
REMARK SMILES IDX 92 55 84 56 85 57 91 58 93 59 86 60 87 61 88 62 89 63 90 64
REMARK SMILES IDX 66 65 67 66 76 67 68 68 69 69 75 70 77 71 70 72 71 73 72 74
REMARK SMILES IDX 73 75 74 76 8 77 9 78 10 79 11 80 12 82 13 83 14 84 18 85
REMARK SMILES IDX 15 86 17 87 16 88 19 89 20 90 21 91 22 93 23 94 38 95 24 96
REMARK SMILES IDX 26 97 25 98 27 99 28 100 37 101 29 102 30 103 31 104 32 105
REMARK SMILES IDX 36 106 33 107 35 108 34 109
REMARK H PARENT 3 8 98 26 64 37 10 81 21 92
REMARK Flexibility Score: inf
ROOT
ATOM      1  C   UNL A   1      34.641  23.491  23.722  1.00  0.00     0.002 C 
ENDROOT
BRANCH   1   2
ATOM      2  C   UNL A   1      36.005  22.878  23.389  1.00  0.00     0.002 C 
BRANCH   2   3
ATOM      3  C   UNL A   1      37.191  23.412  24.199  1.00  0.00     0.021 C 
BRANCH   3   4
ATOM      4  C   UNL A   1      37.200  23.022  25.674  1.00  0.00     0.116 C 
BRANCH   4   5
ATOM      5  N   UNL A   1      38.030  21.856  25.936  1.00  0.00    -0.352 N 
ATOM      6  O   UNL A   1      39.942  20.740  26.370  1.00  0.00    -0.269 OA
ATOM      7  C   UNL A   1      39.337  21.805  26.366  1.00  0.00     0.251 C 
ATOM      8  H   UNL A   1      37.598  20.985  25.786  1.00  0.00     0.163 HD
BRANCH   7   9
ATOM      9  C   UNL A   1      40.004  23.042  26.828  1.00  0.00     0.039 A 
ATOM     10  C   UNL A   1      39.819  24.232  26.129  1.00  0.00     0.014 A 
ATOM     11  C   UNL A   1      40.790  23.032  27.983  1.00  0.00     0.014 A 
ATOM     12  C   UNL A   1      40.507  25.380  26.515  1.00  0.00     0.010 A 
ATOM     13  C   UNL A   1      41.421  24.211  28.413  1.00  0.00     0.010 A 
ATOM     14  C   UNL A   1      41.297  25.398  27.675  1.00  0.00    -0.014 A 
BRANCH  14  15
ATOM     15  C   UNL A   1      41.893  26.687  28.139  1.00  0.00     0.031 A 
ATOM     16  C   UNL A   1      41.050  27.780  28.747  1.00  0.00     0.074 A 
ATOM     17  C   UNL A   1      43.226  26.871  28.006  1.00  0.00     0.049 A 
ATOM     18  N   UNL A   1      41.408  28.989  29.103  1.00  0.00    -0.248 NA
ATOM     19  C   UNL A   1      39.629  27.488  28.986  1.00  0.00     0.031 C 
ATOM     20  C   UNL A   1      44.160  25.892  27.440  1.00  0.00     0.029 A 
ATOM     21  N   UNL A   1      44.030  27.936  28.329  1.00  0.00    -0.354 N 
ATOM     22  C   UNL A   1      40.255  29.617  29.564  1.00  0.00     0.074 A 
ATOM     23  C   UNL A   1      39.183  28.650  29.452  1.00  0.00     0.031 C 
ATOM     24  C   UNL A   1      45.404  26.384  27.486  1.00  0.00     0.029 A 
ATOM     25  C   UNL A   1      45.350  27.753  27.979  1.00  0.00     0.049 A 
ATOM     26  H   UNL A   1      43.697  28.750  28.769  1.00  0.00     0.167 HD
ATOM     27  C   UNL A   1      40.109  30.882  30.028  1.00  0.00     0.037 A 
ATOM     28  C   UNL A   1      46.395  28.603  27.983  1.00  0.00     0.037 A 
ATOM     29  C   UNL A   1      41.192  31.825  30.172  1.00  0.00     0.049 A 
ATOM     30  C   UNL A   1      46.188  30.014  28.451  1.00  0.00     0.074 A 
ATOM     31  C   UNL A   1      41.147  33.104  30.704  1.00  0.00     0.029 A 
ATOM     32  N   UNL A   1      42.501  31.608  29.773  1.00  0.00    -0.354 N 
ATOM     33  N   UNL A   1      45.099  30.570  28.925  1.00  0.00    -0.248 NA
ATOM     34  C   UNL A   1      47.341  30.919  28.369  1.00  0.00     0.031 C 
ATOM     35  C   UNL A   1      42.411  33.684  30.562  1.00  0.00     0.029 A 
ATOM     36  C   UNL A   1      43.259  32.746  29.998  1.00  0.00     0.049 A 
ATOM     37  H   UNL A   1      42.842  30.770  29.386  1.00  0.00     0.167 HD
ATOM     38  C   UNL A   1      45.440  31.889  29.200  1.00  0.00     0.074 A 
ATOM     39  C   UNL A   1      46.841  32.039  28.873  1.00  0.00     0.031 C 
ATOM     40  C   UNL A   1      44.655  32.888  29.670  1.00  0.00     0.037 A 
BRANCH  27  41
ATOM     41  C   UNL A   1      38.730  31.368  30.393  1.00  0.00     0.058 A 
ATOM     42  C   UNL A   1      38.336  31.568  31.724  1.00  0.00     0.135 A 
ATOM     43  C   UNL A   1      37.841  31.768  29.380  1.00  0.00     0.135 A 
ATOM     44  F   UNL A   1      39.140  31.195  32.731  1.00  0.00    -0.206 F 
ATOM     45  C   UNL A   1      37.111  32.151  32.038  1.00  0.00     0.059 A 
ATOM     46  C   UNL A   1      36.622  32.374  29.670  1.00  0.00     0.059 A 
ATOM     47  F   UNL A   1      38.169  31.601  28.089  1.00  0.00    -0.206 F 
ATOM     48  C   UNL A   1      36.265  32.560  31.004  1.00  0.00     0.060 A 
BRANCH  48  49
ATOM     49  S   UNL A   1      34.705  33.363  31.432  1.00  0.00     0.124 S 
ATOM     50  O   UNL A   1      34.118  32.391  32.349  1.00  0.00    -0.237 OA
ATOM     51  O   UNL A   1      35.155  34.613  32.037  1.00  0.00    -0.237 OA
ATOM     52  O   UNL A   1      34.026  33.501  30.147  1.00  0.00    -0.744 OA
ENDBRANCH  48  49
ENDBRANCH  27  41
BRANCH  28  53
ATOM     53  C   UNL A   1      47.709  28.167  27.437  1.00  0.00     0.058 A 
ATOM     54  C   UNL A   1      48.735  27.710  28.276  1.00  0.00     0.135 A 
ATOM     55  C   UNL A   1      47.969  28.218  26.056  1.00  0.00     0.135 A 
ATOM     56  F   UNL A   1      48.539  27.650  29.603  1.00  0.00    -0.206 F 
ATOM     57  C   UNL A   1      49.979  27.345  27.771  1.00  0.00     0.059 A 
ATOM     58  C   UNL A   1      49.190  27.822  25.524  1.00  0.00     0.059 A 
ATOM     59  F   UNL A   1      47.018  28.633  25.206  1.00  0.00    -0.206 F 
ATOM     60  C   UNL A   1      50.196  27.407  26.394  1.00  0.00     0.060 A 
BRANCH  60  61
ATOM     61  S   UNL A   1      51.809  26.920  25.745  1.00  0.00     0.124 S 
ATOM     62  O   UNL A   1      51.951  25.578  26.298  1.00  0.00    -0.237 OA
ATOM     63  O   UNL A   1      51.597  26.999  24.304  1.00  0.00    -0.237 OA
ATOM     64  O   UNL A   1      52.709  27.929  26.295  1.00  0.00    -0.744 OA
ENDBRANCH  60  61
ENDBRANCH  28  53
BRANCH  40  65
ATOM     65  C   UNL A   1      45.294  34.234  29.869  1.00  0.00     0.058 A 
ATOM     66  C   UNL A   1      45.261  35.217  28.867  1.00  0.00     0.135 A 
ATOM     67  C   UNL A   1      45.895  34.567  31.094  1.00  0.00     0.135 A 
ATOM     68  F   UNL A   1      44.712  34.945  27.672  1.00  0.00    -0.206 F 
ATOM     69  C   UNL A   1      45.811  36.478  29.068  1.00  0.00     0.059 A 
ATOM     70  C   UNL A   1      46.425  35.832  31.328  1.00  0.00     0.059 A 
ATOM     71  F   UNL A   1      45.951  33.665  32.087  1.00  0.00    -0.206 F 
ATOM     72  C   UNL A   1      46.383  36.779  30.305  1.00  0.00     0.060 A 
BRANCH  72  73
ATOM     73  S   UNL A   1      47.041  38.439  30.569  1.00  0.00     0.124 S 
ATOM     74  O   UNL A   1      48.187  38.169  31.431  1.00  0.00    -0.237 OA
ATOM     75  O   UNL A   1      47.357  38.867  29.210  1.00  0.00    -0.237 OA
ATOM     76  O   UNL A   1      45.934  39.149  31.201  1.00  0.00    -0.744 OA
ENDBRANCH  72  73
ENDBRANCH  40  65
ENDBRANCH  14  15
ENDBRANCH   7   9
ENDBRANCH   4   5
ENDBRANCH   3   4
ENDBRANCH   2   3
ENDBRANCH   1   2
BRANCH   1  77
ATOM     77  C   UNL A   1      33.616  23.454  22.590  1.00  0.00     0.021 C 
BRANCH  77  78
ATOM     78  C   UNL A   1      32.751  24.699  22.452  1.00  0.00     0.116 C 
BRANCH  78  79
ATOM     79  N   UNL A   1      33.522  25.878  22.104  1.00  0.00    -0.356 N 
ATOM     80  C   UNL A   1      33.258  27.197  22.339  1.00  0.00     0.223 C 
ATOM     81  H   UNL A   1      34.364  25.699  21.625  1.00  0.00     0.163 HD
ATOM     82  O   UNL A   1      34.047  28.039  21.914  1.00  0.00    -0.275 OA
BRANCH  80  83
ATOM     83  C   UNL A   1      31.975  27.579  23.063  1.00  0.00     0.091 C 
ATOM     84  C   UNL A   1      30.849  27.782  22.046  1.00  0.00     0.014 C 
ATOM     85  C   UNL A   1      32.183  28.766  24.014  1.00  0.00     0.091 C 
ATOM     86  C   UNL A   1      29.563  28.209  22.745  1.00  0.00     0.001 C 
ATOM     87  C   UNL A   1      30.874  29.363  24.561  1.00  0.00     0.014 C 
ATOM     88  C   UNL A   1      29.781  29.510  23.503  1.00  0.00     0.001 C 
BRANCH  85  89
ATOM     89  C   UNL A   1      33.205  28.507  25.147  1.00  0.00     0.228 C 
ATOM     90  O   UNL A   1      34.097  29.343  25.348  1.00  0.00    -0.274 OA
ATOM     91  N   UNL A   1      33.145  27.481  26.056  1.00  0.00    -0.326 N 
ATOM     92  H   UNL A   1      33.826  27.535  26.765  1.00  0.00     0.169 HD
BRANCH  91  93
ATOM     93  C   UNL A   1      32.298  26.370  26.170  1.00  0.00     0.041 A 
ATOM     94  C   UNL A   1      30.944  26.533  25.882  1.00  0.00     0.026 A 
ATOM     95  C   UNL A   1      32.757  25.114  26.549  1.00  0.00     0.040 A 
ATOM     96  C   UNL A   1      30.110  25.415  25.799  1.00  0.00     0.003 A 
ATOM     97  C   UNL A   1      31.978  23.972  26.341  1.00  0.00     0.041 A 
ATOM     98  C   UNL A   1      30.640  24.135  25.973  1.00  0.00     0.014 A 
BRANCH  97  99
ATOM     99  C   UNL A   1      32.609  22.668  26.222  1.00  0.00     0.248 A 
ATOM    100  N   UNL A   1      33.413  22.101  27.098  1.00  0.00    -0.107 NA
ATOM    101  O   UNL A   1      32.251  21.827  25.199  1.00  0.00    -0.416 OA
ATOM    102  N   UNL A   1      33.595  20.807  26.682  1.00  0.00    -0.107 NA
ATOM    103  C   UNL A   1      32.945  20.689  25.546  1.00  0.00     0.248 A 
BRANCH 103 104
ATOM    104  C   UNL A   1      32.885  19.543  24.660  1.00  0.00     0.039 A 
ATOM    105  C   UNL A   1      33.533  18.348  25.013  1.00  0.00     0.014 A 
ATOM    106  C   UNL A   1      32.287  19.649  23.403  1.00  0.00     0.014 A 
ATOM    107  C   UNL A   1      33.592  17.279  24.118  1.00  0.00     0.001 A 
ATOM    108  C   UNL A   1      32.385  18.597  22.494  1.00  0.00     0.001 A 
ATOM    109  C   UNL A   1      33.038  17.416  22.850  1.00  0.00     0.000 A 
ENDBRANCH 103 104
ENDBRANCH  97  99
ENDBRANCH  91  93
ENDBRANCH  85  89
ENDBRANCH  80  83
ENDBRANCH  78  79
ENDBRANCH  77  78
ENDBRANCH   1  77
TORSDOF 20
ENDMDL
MODEL 3
REMARK VINA RESULT:     -11.8      8.682     15.000
REMARK SMILES O=C(NCCCCCCNC(=O)[C@@H]1CCCC[C@H]1C(=O)Nc1cccc(-c2nnc(-c3ccccc3)o2)c1)c1ccc(-c2c3nc(c(-c4c(F)cc(S(=O)(=O)[O-])cc4F)c4ccc([nH]4)c(-c4c(F)cc(S(=O)(=O)[O-])cc4F)c4nc(c(-c5c(F)cc(S(=O)(=O)[O-])cc5F)c5ccc2[nH]5)C=C4)C=C3)cc1
REMARK SMILES IDX 7 1 6 2 5 3 4 4 3 5 1 6 2 7 39 9 40 10 104 11 41 12 103 13
REMARK SMILES IDX 42 14 43 15 44 16 97 17 45 18 102 19 96 20 98 21 46 22
REMARK SMILES IDX 101 23 95 24 94 25 47 27 81 28 60 29 80 30 61 31 64 32 79 33
REMARK SMILES IDX 99 34 62 35 63 36 78 38 100 39 65 40 48 41 49 42 58 43 50 44
REMARK SMILES IDX 51 45 57 46 59 47 52 48 53 49 54 50 55 51 56 52 82 53 83 54
REMARK SMILES IDX 92 55 84 56 85 57 91 58 93 59 86 60 87 61 88 62 89 63 90 64
REMARK SMILES IDX 66 65 67 66 76 67 68 68 69 69 75 70 77 71 70 72 71 73 72 74
REMARK SMILES IDX 73 75 74 76 8 77 9 78 10 79 11 80 12 82 13 83 14 84 18 85
REMARK SMILES IDX 15 86 17 87 16 88 19 89 20 90 21 91 22 93 23 94 38 95 24 96
REMARK SMILES IDX 26 97 25 98 27 99 28 100 37 101 29 102 30 103 31 104 32 105
REMARK SMILES IDX 36 106 33 107 35 108 34 109
REMARK H PARENT 3 8 98 26 64 37 10 81 21 92
REMARK Flexibility Score: inf
ROOT
ATOM      1  C   UNL A   1      44.753  24.534  34.715  1.00  0.00     0.002 C 
ENDROOT
BRANCH   1   2
ATOM      2  C   UNL A   1      44.714  24.504  36.247  1.00  0.00     0.002 C 
BRANCH   2   3
ATOM      3  C   UNL A   1      46.065  24.322  36.945  1.00  0.00     0.021 C 
BRANCH   3   4
ATOM      4  C   UNL A   1      47.223  25.107  36.336  1.00  0.00     0.116 C 
BRANCH   4   5
ATOM      5  N   UNL A   1      47.824  26.035  37.281  1.00  0.00    -0.352 N 
ATOM      6  O   UNL A   1      48.217  28.040  38.238  1.00  0.00    -0.269 OA
ATOM      7  C   UNL A   1      47.494  27.348  37.532  1.00  0.00     0.251 C 
ATOM      8  H   UNL A   1      48.569  25.675  37.814  1.00  0.00     0.163 HD
BRANCH   7   9
ATOM      9  C   UNL A   1      46.259  27.917  36.948  1.00  0.00     0.039 A 
ATOM     10  C   UNL A   1      46.328  28.665  35.776  1.00  0.00     0.014 A 
ATOM     11  C   UNL A   1      45.019  27.677  37.545  1.00  0.00     0.014 A 
ATOM     12  C   UNL A   1      45.179  29.266  35.267  1.00  0.00     0.010 A 
ATOM     13  C   UNL A   1      43.853  28.221  36.985  1.00  0.00     0.010 A 
ATOM     14  C   UNL A   1      43.920  29.035  35.843  1.00  0.00    -0.014 A 
BRANCH  14  15
ATOM     15  C   UNL A   1      42.696  29.573  35.177  1.00  0.00     0.031 A 
ATOM     16  C   UNL A   1      42.176  28.997  33.884  1.00  0.00     0.074 A 
ATOM     17  C   UNL A   1      42.043  30.605  35.756  1.00  0.00     0.049 A 
ATOM     18  N   UNL A   1      41.187  29.420  33.137  1.00  0.00    -0.248 NA
ATOM     19  C   UNL A   1      42.845  27.797  33.357  1.00  0.00     0.031 C 
ATOM     20  C   UNL A   1      42.434  31.253  37.012  1.00  0.00     0.029 A 
ATOM     21  N   UNL A   1      40.918  31.295  35.373  1.00  0.00    -0.354 N 
ATOM     22  C   UNL A   1      41.141  28.574  32.034  1.00  0.00     0.074 A 
ATOM     23  C   UNL A   1      42.198  27.602  32.213  1.00  0.00     0.031 C 
ATOM     24  C   UNL A   1      41.554  32.216  37.311  1.00  0.00     0.029 A 
ATOM     25  C   UNL A   1      40.598  32.333  36.219  1.00  0.00     0.049 A 
ATOM     26  H   UNL A   1      40.392  31.068  34.573  1.00  0.00     0.167 HD
ATOM     27  C   UNL A   1      40.299  28.614  30.972  1.00  0.00     0.037 A 
ATOM     28  C   UNL A   1      39.686  33.319  36.107  1.00  0.00     0.037 A 
ATOM     29  C   UNL A   1      39.223  29.563  30.823  1.00  0.00     0.049 A 
ATOM     30  C   UNL A   1      38.806  33.367  34.893  1.00  0.00     0.074 A 
ATOM     31  C   UNL A   1      38.274  29.629  29.814  1.00  0.00     0.029 A 
ATOM     32  N   UNL A   1      38.959  30.616  31.684  1.00  0.00    -0.354 N 
ATOM     33  N   UNL A   1      38.750  32.529  33.885  1.00  0.00    -0.248 NA
ATOM     34  C   UNL A   1      37.878  34.500  34.786  1.00  0.00     0.031 C 
ATOM     35  C   UNL A   1      37.483  30.761  30.029  1.00  0.00     0.029 A 
ATOM     36  C   UNL A   1      37.897  31.366  31.204  1.00  0.00     0.049 A 
ATOM     37  H   UNL A   1      39.452  30.804  32.515  1.00  0.00     0.167 HD
ATOM     38  C   UNL A   1      37.780  33.033  33.029  1.00  0.00     0.074 A 
ATOM     39  C   UNL A   1      37.250  34.228  33.650  1.00  0.00     0.031 C 
ATOM     40  C   UNL A   1      37.374  32.555  31.828  1.00  0.00     0.037 A 
BRANCH  27  41
ATOM     41  C   UNL A   1      40.502  27.632  29.847  1.00  0.00     0.058 A 
ATOM     42  C   UNL A   1      39.608  26.579  29.603  1.00  0.00     0.135 A 
ATOM     43  C   UNL A   1      41.537  27.840  28.918  1.00  0.00     0.135 A 
ATOM     44  F   UNL A   1      38.608  26.328  30.462  1.00  0.00    -0.206 F 
ATOM     45  C   UNL A   1      39.731  25.769  28.478  1.00  0.00     0.059 A 
ATOM     46  C   UNL A   1      41.666  27.057  27.774  1.00  0.00     0.059 A 
ATOM     47  F   UNL A   1      42.419  28.834  29.103  1.00  0.00    -0.206 F 
ATOM     48  C   UNL A   1      40.757  26.022  27.564  1.00  0.00     0.060 A 
BRANCH  48  49
ATOM     49  S   UNL A   1      40.867  24.994  26.082  1.00  0.00     0.124 S 
ATOM     50  O   UNL A   1      39.518  24.439  26.011  1.00  0.00    -0.237 OA
ATOM     51  O   UNL A   1      41.204  25.971  25.051  1.00  0.00    -0.237 OA
ATOM     52  O   UNL A   1      41.922  24.038  26.405  1.00  0.00    -0.744 OA
ENDBRANCH  48  49
ENDBRANCH  27  41
BRANCH  28  53
ATOM     53  C   UNL A   1      39.626  34.396  37.133  1.00  0.00     0.058 A 
ATOM     54  C   UNL A   1      38.773  34.303  38.242  1.00  0.00     0.135 A 
ATOM     55  C   UNL A   1      40.415  35.553  37.011  1.00  0.00     0.135 A 
ATOM     56  F   UNL A   1      37.994  33.223  38.401  1.00  0.00    -0.206 F 
ATOM     57  C   UNL A   1      38.683  35.330  39.178  1.00  0.00     0.059 A 
ATOM     58  C   UNL A   1      40.372  36.573  37.953  1.00  0.00     0.059 A 
ATOM     59  F   UNL A   1      41.260  35.687  35.977  1.00  0.00    -0.206 F 
ATOM     60  C   UNL A   1      39.487  36.461  39.022  1.00  0.00     0.060 A 
BRANCH  60  61
ATOM     61  S   UNL A   1      39.374  37.782  40.247  1.00  0.00     0.124 S 
ATOM     62  O   UNL A   1      38.130  38.435  39.854  1.00  0.00    -0.237 OA
ATOM     63  O   UNL A   1      39.336  37.037  41.500  1.00  0.00    -0.237 OA
ATOM     64  O   UNL A   1      40.592  38.553  40.020  1.00  0.00    -0.744 OA
ENDBRANCH  60  61
ENDBRANCH  28  53
BRANCH  40  65
ATOM     65  C   UNL A   1      36.298  33.317  31.107  1.00  0.00     0.058 A 
ATOM     66  C   UNL A   1      34.972  33.325  31.569  1.00  0.00     0.135 A 
ATOM     67  C   UNL A   1      36.604  34.094  29.979  1.00  0.00     0.135 A 
ATOM     68  F   UNL A   1      34.623  32.588  32.635  1.00  0.00    -0.206 F 
ATOM     69  C   UNL A   1      33.985  34.068  30.930  1.00  0.00     0.059 A 
ATOM     70  C   UNL A   1      35.639  34.868  29.341  1.00  0.00     0.059 A 
ATOM     71  F   UNL A   1      37.857  34.123  29.498  1.00  0.00    -0.206 F 
ATOM     72  C   UNL A   1      34.330  34.843  29.821  1.00  0.00     0.060 A 
BRANCH  72  73
ATOM     73  S   UNL A   1      33.051  35.846  29.038  1.00  0.00     0.124 S 
ATOM     74  O   UNL A   1      33.847  36.844  28.333  1.00  0.00    -0.237 OA
ATOM     75  O   UNL A   1      32.366  34.870  28.194  1.00  0.00    -0.237 OA
ATOM     76  O   UNL A   1      32.271  36.346  30.165  1.00  0.00    -0.744 OA
ENDBRANCH  72  73
ENDBRANCH  40  65
ENDBRANCH  14  15
ENDBRANCH   7   9
ENDBRANCH   4   5
ENDBRANCH   3   4
ENDBRANCH   2   3
ENDBRANCH   1   2
BRANCH   1  77
ATOM     77  C   UNL A   1      44.477  23.197  34.030  1.00  0.00     0.021 C 
BRANCH  77  78
ATOM     78  C   UNL A   1      45.635  22.208  34.037  1.00  0.00     0.116 C 
BRANCH  78  79
ATOM     79  N   UNL A   1      45.462  21.154  35.018  1.00  0.00    -0.356 N 
ATOM     80  C   UNL A   1      46.398  20.397  35.663  1.00  0.00     0.223 C 
ATOM     81  H   UNL A   1      44.527  20.954  35.256  1.00  0.00     0.163 HD
ATOM     82  O   UNL A   1      46.015  19.523  36.438  1.00  0.00    -0.275 OA
BRANCH  80  83
ATOM     83  C   UNL A   1      47.873  20.622  35.357  1.00  0.00     0.091 C 
ATOM     84  C   UNL A   1      48.247  19.898  34.060  1.00  0.00     0.014 C 
ATOM     85  C   UNL A   1      48.768  20.269  36.552  1.00  0.00     0.091 C 
ATOM     86  C   UNL A   1      49.730  20.072  33.756  1.00  0.00     0.001 C 
ATOM     87  C   UNL A   1      50.269  20.217  36.212  1.00  0.00     0.014 C 
ATOM     88  C   UNL A   1      50.572  19.511  34.892  1.00  0.00     0.001 C 
BRANCH  85  89
ATOM     89  C   UNL A   1      48.503  21.115  37.822  1.00  0.00     0.228 C 
ATOM     90  O   UNL A   1      48.565  22.350  37.739  1.00  0.00    -0.274 OA
ATOM     91  N   UNL A   1      48.072  20.627  39.029  1.00  0.00    -0.326 N 
ATOM     92  H   UNL A   1      47.863  21.326  39.690  1.00  0.00     0.169 HD
BRANCH  91  93
ATOM     93  C   UNL A   1      47.872  19.323  39.503  1.00  0.00     0.041 A 
ATOM     94  C   UNL A   1      48.869  18.738  40.282  1.00  0.00     0.026 A 
ATOM     95  C   UNL A   1      46.718  18.597  39.233  1.00  0.00     0.040 A 
ATOM     96  C   UNL A   1      48.625  17.523  40.927  1.00  0.00     0.003 A 
ATOM     97  C   UNL A   1      46.401  17.453  39.971  1.00  0.00     0.041 A 
ATOM     98  C   UNL A   1      47.374  16.912  40.815  1.00  0.00     0.014 A 
BRANCH  97  99
ATOM     99  C   UNL A   1      45.020  17.014  40.082  1.00  0.00     0.248 A 
ATOM    100  N   UNL A   1      43.994  17.465  39.391  1.00  0.00    -0.107 NA
ATOM    101  O   UNL A   1      44.712  15.917  40.848  1.00  0.00    -0.416 OA
ATOM    102  N   UNL A   1      42.940  16.631  39.665  1.00  0.00    -0.107 NA
ATOM    103  C   UNL A   1      43.374  15.766  40.554  1.00  0.00     0.248 A 
BRANCH 103 104
ATOM    104  C   UNL A   1      42.630  14.722  41.230  1.00  0.00     0.039 A 
ATOM    105  C   UNL A   1      41.926  13.764  40.481  1.00  0.00     0.014 A 
ATOM    106  C   UNL A   1      42.508  14.724  42.621  1.00  0.00     0.014 A 
ATOM    107  C   UNL A   1      41.105  12.829  41.113  1.00  0.00     0.001 A 
ATOM    108  C   UNL A   1      41.653  13.819  43.246  1.00  0.00     0.001 A 
ATOM    109  C   UNL A   1      40.951  12.875  42.494  1.00  0.00     0.000 A 
ENDBRANCH 103 104
ENDBRANCH  97  99
ENDBRANCH  91  93
ENDBRANCH  85  89
ENDBRANCH  80  83
ENDBRANCH  78  79
ENDBRANCH  77  78
ENDBRANCH   1  77
TORSDOF 20
ENDMDL
