MODEL 1
REMARK VINA RESULT:     -12.4      0.000      0.000
REMARK SMILES O=C(C[C@H](NC(=O)[C@]12C[C@H]3C[C@H](C[C@H](C3)C1)C2)c1cccc([N+](=O)[O-])c1)NCCCCCCNC(=O)c1ccc(-c2c3nc(c(-c4c(F)cc(S(=O)(=O)[O-])cc4F)c4ccc([nH]4)c(-c4c(F)cc(S(=O)(=O)[O-])cc4F)c4nc(c(-c5c(F)cc(S(=O)(=O)[O-])cc5F)c5ccc2[nH]5)C=C4)C=C3)cc1
REMARK SMILES IDX 30 1 29 2 28 3 27 4 1 5 2 6 3 8 4 9 18 10 19 11 26 12 20 13
REMARK SMILES IDX 22 14 21 15 23 16 24 17 25 18 5 19 6 20 7 22 8 23 9 24 16 25
REMARK SMILES IDX 17 26 10 27 14 28 12 29 11 30 15 31 13 32 31 33 32 34 33 35
REMARK SMILES IDX 34 36 35 37 36 39 37 40 38 41 102 42 39 43 101 44 40 45
REMARK SMILES IDX 41 46 42 47 95 48 43 49 100 50 94 51 96 52 44 53 99 54 93 55
REMARK SMILES IDX 92 56 45 58 79 59 58 60 78 61 59 62 62 63 77 64 97 65 60 66
REMARK SMILES IDX 61 67 76 69 98 70 63 71 46 72 47 73 56 74 48 75 49 76 55 77
REMARK SMILES IDX 57 78 50 79 51 80 52 81 53 82 54 83 80 84 81 85 90 86 82 87
REMARK SMILES IDX 83 88 89 89 91 90 84 91 85 92 86 93 87 94 88 95 64 96 65 97
REMARK SMILES IDX 74 98 66 99 67 100 73 101 75 102 68 103 69 104 70 105 71 106
REMARK SMILES IDX 72 107
REMARK H PARENT 27 7 5 21 34 38 96 57 62 68
REMARK Flexibility Score: inf
ROOT
ATOM      1  C   UNL A   1      39.672  21.422  26.157  1.00  0.00     0.002 C 
ENDROOT
BRANCH   1   2
ATOM      2  C   UNL A   1      38.836  22.647  26.536  1.00  0.00     0.021 C 
BRANCH   2   3
ATOM      3  C   UNL A   1      37.775  23.019  25.500  1.00  0.00     0.116 C 
BRANCH   3   4
ATOM      4  N   UNL A   1      36.407  22.751  25.908  1.00  0.00    -0.356 N 
ATOM      5  O   UNL A   1      36.353  20.642  25.032  1.00  0.00    -0.275 OA
ATOM      6  C   UNL A   1      35.840  21.518  25.728  1.00  0.00     0.222 C 
ATOM      7  H   UNL A   1      35.877  23.470  26.322  1.00  0.00     0.163 HD
BRANCH   6   8
ATOM      8  C   UNL A   1      34.535  21.225  26.418  1.00  0.00     0.129 C 
BRANCH   8   9
ATOM      9  C   UNL A   1      33.187  21.469  25.721  1.00  0.00     0.122 C 
BRANCH   9  10
ATOM     10  C   UNL A   1      32.862  20.254  24.836  1.00  0.00    -0.018 A 
ATOM     11  C   UNL A   1      32.405  20.474  23.518  1.00  0.00     0.006 A 
ATOM     12  C   UNL A   1      33.074  18.929  25.246  1.00  0.00     0.091 A 
ATOM     13  C   UNL A   1      32.213  19.418  22.625  1.00  0.00     0.007 A 
ATOM     14  C   UNL A   1      32.892  17.871  24.340  1.00  0.00     0.269 A 
ATOM     15  C   UNL A   1      32.466  18.110  23.029  1.00  0.00     0.085 A 
BRANCH  14  16
ATOM     16  N   UNL A   1      33.192  16.496  24.760  1.00  0.00     0.062 N 
ATOM     17  O   UNL A   1      34.171  15.937  24.245  1.00  0.00    -0.258 OA
ATOM     18  O   UNL A   1      32.459  15.982  25.616  1.00  0.00    -0.258 OA
ENDBRANCH  14  16
ENDBRANCH   9  10
BRANCH   9  19
ATOM     19  N   UNL A   1      31.992  21.982  26.432  1.00  0.00    -0.348 N 
ATOM     20  C   UNL A   1      31.267  23.119  26.625  1.00  0.00     0.226 C 
ATOM     21  H   UNL A   1      31.580  21.247  26.940  1.00  0.00     0.164 HD
ATOM     22  O   UNL A   1      30.503  23.078  27.597  1.00  0.00    -0.274 OA
BRANCH  20  23
ATOM     23  C   UNL A   1      31.289  24.356  25.718  1.00  0.00     0.050 C 
ATOM     24  C   UNL A   1      32.629  25.102  25.811  1.00  0.00     0.020 C 
ATOM     25  C   UNL A   1      30.196  25.410  26.088  1.00  0.00     0.020 C 
ATOM     26  C   UNL A   1      30.908  23.913  24.300  1.00  0.00     0.020 C 
ATOM     27  C   UNL A   1      32.698  26.237  24.785  1.00  0.00    -0.010 C 
ATOM     28  C   UNL A   1      30.229  26.600  25.088  1.00  0.00    -0.010 C 
ATOM     29  C   UNL A   1      31.043  25.050  23.291  1.00  0.00    -0.010 C 
ATOM     30  C   UNL A   1      32.451  25.661  23.381  1.00  0.00     0.007 C 
ATOM     31  C   UNL A   1      31.614  27.268  25.129  1.00  0.00     0.007 C 
ATOM     32  C   UNL A   1      29.989  26.102  23.650  1.00  0.00     0.007 C 
ENDBRANCH  20  23
ENDBRANCH   9  19
ENDBRANCH   8   9
ENDBRANCH   6   8
ENDBRANCH   3   4
ENDBRANCH   2   3
ENDBRANCH   1   2
BRANCH   1  33
ATOM     33  C   UNL A   1      40.959  21.266  26.968  1.00  0.00     0.002 C 
BRANCH  33  34
ATOM     34  C   UNL A   1      41.287  22.459  27.865  1.00  0.00     0.021 C 
BRANCH  34  35
ATOM     35  C   UNL A   1      42.484  23.280  27.399  1.00  0.00     0.116 C 
BRANCH  35  36
ATOM     36  N   UNL A   1      42.163  24.084  26.228  1.00  0.00    -0.352 N 
ATOM     37  C   UNL A   1      41.633  25.349  26.176  1.00  0.00     0.251 C 
ATOM     38  H   UNL A   1      42.353  23.665  25.357  1.00  0.00     0.163 HD
ATOM     39  O   UNL A   1      41.211  25.803  25.116  1.00  0.00    -0.269 OA
BRANCH  37  40
ATOM     40  C   UNL A   1      41.556  26.144  27.417  1.00  0.00     0.039 A 
ATOM     41  C   UNL A   1      42.565  27.066  27.698  1.00  0.00     0.014 A 
ATOM     42  C   UNL A   1      40.462  26.000  28.278  1.00  0.00     0.014 A 
ATOM     43  C   UNL A   1      42.441  27.895  28.814  1.00  0.00     0.010 A 
ATOM     44  C   UNL A   1      40.304  26.880  29.342  1.00  0.00     0.010 A 
ATOM     45  C   UNL A   1      41.292  27.837  29.620  1.00  0.00    -0.014 A 
BRANCH  45  46
ATOM     46  C   UNL A   1      41.095  28.781  30.750  1.00  0.00     0.031 A 
ATOM     47  C   UNL A   1      41.920  28.646  31.999  1.00  0.00     0.074 A 
ATOM     48  C   UNL A   1      40.121  29.709  30.676  1.00  0.00     0.049 A 
ATOM     49  N   UNL A   1      41.844  29.325  33.115  1.00  0.00    -0.248 NA
ATOM     50  C   UNL A   1      42.944  27.590  32.008  1.00  0.00     0.031 C 
ATOM     51  C   UNL A   1      39.218  29.896  29.537  1.00  0.00     0.029 A 
ATOM     52  N   UNL A   1      39.714  30.656  31.580  1.00  0.00    -0.354 N 
ATOM     53  C   UNL A   1      42.802  28.776  33.958  1.00  0.00     0.074 A 
ATOM     54  C   UNL A   1      43.404  27.669  33.247  1.00  0.00     0.031 C 
ATOM     55  C   UNL A   1      38.374  30.903  29.807  1.00  0.00     0.029 A 
ATOM     56  C   UNL A   1      38.643  31.405  31.151  1.00  0.00     0.049 A 
ATOM     57  H   UNL A   1      40.148  30.789  32.454  1.00  0.00     0.167 HD
ATOM     58  C   UNL A   1      43.166  29.175  35.200  1.00  0.00     0.037 A 
ATOM     59  C   UNL A   1      37.943  32.372  31.775  1.00  0.00     0.037 A 
ATOM     60  C   UNL A   1      42.563  30.283  35.895  1.00  0.00     0.049 A 
ATOM     61  C   UNL A   1      38.352  32.791  33.160  1.00  0.00     0.074 A 
ATOM     62  C   UNL A   1      42.894  30.805  37.134  1.00  0.00     0.029 A 
ATOM     63  N   UNL A   1      41.495  31.032  35.419  1.00  0.00    -0.354 N 
ATOM     64  N   UNL A   1      39.315  32.315  33.914  1.00  0.00    -0.248 NA
ATOM     65  C   UNL A   1      37.586  33.881  33.779  1.00  0.00     0.031 C 
ATOM     66  C   UNL A   1      41.990  31.831  37.430  1.00  0.00     0.029 A 
ATOM     67  C   UNL A   1      41.135  31.991  36.352  1.00  0.00     0.049 A 
ATOM     68  H   UNL A   1      41.058  30.901  34.548  1.00  0.00     0.167 HD
ATOM     69  C   UNL A   1      39.283  33.058  35.088  1.00  0.00     0.074 A 
ATOM     70  C   UNL A   1      38.217  34.028  34.937  1.00  0.00     0.031 C 
ATOM     71  C   UNL A   1      40.066  32.948  36.190  1.00  0.00     0.037 A 
BRANCH  58  72
ATOM     72  C   UNL A   1      44.260  28.400  35.887  1.00  0.00     0.058 A 
ATOM     73  C   UNL A   1      43.977  27.323  36.743  1.00  0.00     0.135 A 
ATOM     74  C   UNL A   1      45.609  28.730  35.678  1.00  0.00     0.135 A 
ATOM     75  F   UNL A   1      42.705  26.969  36.990  1.00  0.00    -0.206 F 
ATOM     76  C   UNL A   1      44.988  26.631  37.402  1.00  0.00     0.059 A 
ATOM     77  C   UNL A   1      46.639  28.029  36.300  1.00  0.00     0.059 A 
ATOM     78  F   UNL A   1      45.940  29.748  34.868  1.00  0.00    -0.206 F 
ATOM     79  C   UNL A   1      46.317  26.995  37.177  1.00  0.00     0.060 A 
BRANCH  79  80
ATOM     80  S   UNL A   1      47.615  26.099  38.055  1.00  0.00     0.124 S 
ATOM     81  O   UNL A   1      48.589  25.883  36.989  1.00  0.00    -0.237 OA
ATOM     82  O   UNL A   1      48.007  27.050  39.089  1.00  0.00    -0.237 OA
ATOM     83  O   UNL A   1      46.936  24.899  38.534  1.00  0.00    -0.744 OA
ENDBRANCH  79  80
ENDBRANCH  58  72
BRANCH  59  84
ATOM     84  C   UNL A   1      36.788  33.005  31.083  1.00  0.00     0.058 A 
ATOM     85  C   UNL A   1      36.979  33.943  30.059  1.00  0.00     0.135 A 
ATOM     86  C   UNL A   1      35.468  32.653  31.408  1.00  0.00     0.135 A 
ATOM     87  F   UNL A   1      38.221  34.319  29.716  1.00  0.00    -0.206 F 
ATOM     88  C   UNL A   1      35.905  34.515  29.383  1.00  0.00     0.059 A 
ATOM     89  C   UNL A   1      34.379  33.189  30.729  1.00  0.00     0.059 A 
ATOM     90  F   UNL A   1      35.231  31.747  32.370  1.00  0.00    -0.206 F 
ATOM     91  C   UNL A   1      34.608  34.124  29.721  1.00  0.00     0.060 A 
BRANCH  91  92
ATOM     92  S   UNL A   1      33.224  34.816  28.788  1.00  0.00     0.124 S 
ATOM     93  O   UNL A   1      32.317  35.213  29.859  1.00  0.00    -0.237 OA
ATOM     94  O   UNL A   1      33.865  35.903  28.055  1.00  0.00    -0.237 OA
ATOM     95  O   UNL A   1      32.779  33.694  27.966  1.00  0.00    -0.744 OA
ENDBRANCH  91  92
ENDBRANCH  59  84
BRANCH  71  96
ATOM     96  C   UNL A   1      39.816  33.913  37.319  1.00  0.00     0.058 A 
ATOM     97  C   UNL A   1      39.049  33.556  38.438  1.00  0.00     0.135 A 
ATOM     98  C   UNL A   1      40.407  35.187  37.308  1.00  0.00     0.135 A 
ATOM     99  F   UNL A   1      38.455  32.354  38.496  1.00  0.00    -0.206 F 
ATOM    100  C   UNL A   1      38.861  34.435  39.500  1.00  0.00     0.059 A 
ATOM    101  C   UNL A   1      40.257  36.071  38.372  1.00  0.00     0.059 A 
ATOM    102  F   UNL A   1      41.157  35.576  36.265  1.00  0.00    -0.206 F 
ATOM    103  C   UNL A   1      39.474  35.689  39.460  1.00  0.00     0.060 A 
BRANCH 103 104
ATOM    104  S   UNL A   1      39.260  36.802  40.866  1.00  0.00     0.124 S 
ATOM    105  O   UNL A   1      40.622  36.891  41.381  1.00  0.00    -0.237 OA
ATOM    106  O   UNL A   1      38.740  38.009  40.231  1.00  0.00    -0.237 OA
ATOM    107  O   UNL A   1      38.312  36.092  41.720  1.00  0.00    -0.744 OA
ENDBRANCH 103 104
ENDBRANCH  71  96
ENDBRANCH  45  46
ENDBRANCH  37  40
ENDBRANCH  35  36
ENDBRANCH  34  35
ENDBRANCH  33  34
ENDBRANCH   1  33
TORSDOF 21
ENDMDL
MODEL 2
REMARK VINA RESULT:     -12.2      6.073      8.244
REMARK SMILES O=C(C[C@H](NC(=O)[C@]12C[C@H]3C[C@H](C[C@H](C3)C1)C2)c1cccc([N+](=O)[O-])c1)NCCCCCCNC(=O)c1ccc(-c2c3nc(c(-c4c(F)cc(S(=O)(=O)[O-])cc4F)c4ccc([nH]4)c(-c4c(F)cc(S(=O)(=O)[O-])cc4F)c4nc(c(-c5c(F)cc(S(=O)(=O)[O-])cc5F)c5ccc2[nH]5)C=C4)C=C3)cc1
REMARK SMILES IDX 30 1 29 2 28 3 27 4 1 5 2 6 3 8 4 9 18 10 19 11 26 12 20 13
REMARK SMILES IDX 22 14 21 15 23 16 24 17 25 18 5 19 6 20 7 22 8 23 9 24 16 25
REMARK SMILES IDX 17 26 10 27 14 28 12 29 11 30 15 31 13 32 31 33 32 34 33 35
REMARK SMILES IDX 34 36 35 37 36 39 37 40 38 41 102 42 39 43 101 44 40 45
REMARK SMILES IDX 41 46 42 47 95 48 43 49 100 50 94 51 96 52 44 53 99 54 93 55
REMARK SMILES IDX 92 56 45 58 79 59 58 60 78 61 59 62 62 63 77 64 97 65 60 66
REMARK SMILES IDX 61 67 76 69 98 70 63 71 46 72 47 73 56 74 48 75 49 76 55 77
REMARK SMILES IDX 57 78 50 79 51 80 52 81 53 82 54 83 80 84 81 85 90 86 82 87
REMARK SMILES IDX 83 88 89 89 91 90 84 91 85 92 86 93 87 94 88 95 64 96 65 97
REMARK SMILES IDX 74 98 66 99 67 100 73 101 75 102 68 103 69 104 70 105 71 106
REMARK SMILES IDX 72 107
REMARK H PARENT 27 7 5 21 34 38 96 57 62 68
REMARK Flexibility Score: inf
ROOT
ATOM      1  C   UNL A   1      40.697  22.241  26.462  1.00  0.00     0.002 C 
ENDROOT
BRANCH   1   2
ATOM      2  C   UNL A   1      39.275  22.780  26.637  1.00  0.00     0.021 C 
BRANCH   2   3
ATOM      3  C   UNL A   1      38.240  22.110  25.733  1.00  0.00     0.116 C 
BRANCH   3   4
ATOM      4  N   UNL A   1      36.875  22.164  26.225  1.00  0.00    -0.356 N 
ATOM      5  O   UNL A   1      36.034  20.777  24.616  1.00  0.00    -0.275 OA
ATOM      6  C   UNL A   1      35.890  21.389  25.674  1.00  0.00     0.222 C 
ATOM      7  H   UNL A   1      36.653  22.769  26.969  1.00  0.00     0.163 HD
BRANCH   6   8
ATOM      8  C   UNL A   1      34.577  21.280  26.402  1.00  0.00     0.129 C 
BRANCH   8   9
ATOM      9  C   UNL A   1      33.242  21.558  25.693  1.00  0.00     0.122 C 
BRANCH   9  10
ATOM     10  C   UNL A   1      32.881  20.342  24.825  1.00  0.00    -0.018 A 
ATOM     11  C   UNL A   1      32.452  20.555  23.497  1.00  0.00     0.006 A 
ATOM     12  C   UNL A   1      33.034  19.017  25.261  1.00  0.00     0.091 A 
ATOM     13  C   UNL A   1      32.229  19.492  22.620  1.00  0.00     0.007 A 
ATOM     14  C   UNL A   1      32.822  17.951  24.371  1.00  0.00     0.269 A 
ATOM     15  C   UNL A   1      32.424  18.183  23.050  1.00  0.00     0.085 A 
BRANCH  14  16
ATOM     16  N   UNL A   1      33.062  16.573  24.820  1.00  0.00     0.062 N 
ATOM     17  O   UNL A   1      33.730  15.835  24.081  1.00  0.00    -0.258 OA
ATOM     18  O   UNL A   1      32.595  16.234  25.916  1.00  0.00    -0.258 OA
ENDBRANCH  14  16
ENDBRANCH   9  10
BRANCH   9  19
ATOM     19  N   UNL A   1      32.062  22.123  26.388  1.00  0.00    -0.348 N 
ATOM     20  C   UNL A   1      31.409  23.298  26.609  1.00  0.00     0.226 C 
ATOM     21  H   UNL A   1      31.583  21.397  26.850  1.00  0.00     0.164 HD
ATOM     22  O   UNL A   1      30.611  23.270  27.555  1.00  0.00    -0.274 OA
BRANCH  20  23
ATOM     23  C   UNL A   1      31.546  24.568  25.760  1.00  0.00     0.050 C 
ATOM     24  C   UNL A   1      30.356  25.518  25.966  1.00  0.00     0.020 C 
ATOM     25  C   UNL A   1      31.590  24.280  24.224  1.00  0.00     0.020 C 
ATOM     26  C   UNL A   1      32.915  25.194  26.056  1.00  0.00     0.020 C 
ATOM     27  C   UNL A   1      30.582  26.847  25.240  1.00  0.00    -0.010 C 
ATOM     28  C   UNL A   1      31.800  25.599  23.430  1.00  0.00    -0.010 C 
ATOM     29  C   UNL A   1      33.087  26.544  25.366  1.00  0.00    -0.010 C 
ATOM     30  C   UNL A   1      31.907  27.464  25.721  1.00  0.00     0.007 C 
ATOM     31  C   UNL A   1      30.647  26.571  23.732  1.00  0.00     0.007 C 
ATOM     32  C   UNL A   1      33.114  26.282  23.857  1.00  0.00     0.007 C 
ENDBRANCH  20  23
ENDBRANCH   9  19
ENDBRANCH   8   9
ENDBRANCH   6   8
ENDBRANCH   3   4
ENDBRANCH   2   3
ENDBRANCH   1   2
BRANCH   1  33
ATOM     33  C   UNL A   1      40.933  20.874  27.106  1.00  0.00     0.002 C 
BRANCH  33  34
ATOM     34  C   UNL A   1      41.346  19.778  26.123  1.00  0.00     0.021 C 
BRANCH  34  35
ATOM     35  C   UNL A   1      42.630  19.051  26.505  1.00  0.00     0.116 C 
BRANCH  35  36
ATOM     36  N   UNL A   1      43.488  18.829  25.349  1.00  0.00    -0.352 N 
ATOM     37  C   UNL A   1      44.156  19.755  24.588  1.00  0.00     0.251 C 
ATOM     38  H   UNL A   1      43.605  17.889  25.078  1.00  0.00     0.163 HD
ATOM     39  O   UNL A   1      44.657  19.431  23.514  1.00  0.00    -0.269 OA
BRANCH  37  40
ATOM     40  C   UNL A   1      44.245  21.147  25.069  1.00  0.00     0.039 A 
ATOM     41  C   UNL A   1      44.852  21.405  26.299  1.00  0.00     0.014 A 
ATOM     42  C   UNL A   1      43.761  22.196  24.280  1.00  0.00     0.014 A 
ATOM     43  C   UNL A   1      45.034  22.727  26.707  1.00  0.00     0.010 A 
ATOM     44  C   UNL A   1      44.015  23.510  24.652  1.00  0.00     0.010 A 
ATOM     45  C   UNL A   1      44.654  23.789  25.870  1.00  0.00    -0.014 A 
BRANCH  45  46
ATOM     46  C   UNL A   1      44.933  25.200  26.240  1.00  0.00     0.031 A 
ATOM     47  C   UNL A   1      46.338  25.732  26.182  1.00  0.00     0.074 A 
ATOM     48  C   UNL A   1      43.932  25.975  26.700  1.00  0.00     0.049 A 
ATOM     49  N   UNL A   1      46.789  26.909  26.534  1.00  0.00    -0.248 NA
ATOM     50  C   UNL A   1      47.377  24.813  25.693  1.00  0.00     0.031 C 
ATOM     51  C   UNL A   1      42.538  25.550  26.855  1.00  0.00     0.029 A 
ATOM     52  N   UNL A   1      43.932  27.275  27.137  1.00  0.00    -0.354 N 
ATOM     53  C   UNL A   1      48.161  26.868  26.316  1.00  0.00     0.074 A 
ATOM     54  C   UNL A   1      48.476  25.531  25.861  1.00  0.00     0.031 C 
ATOM     55  C   UNL A   1      41.819  26.572  27.341  1.00  0.00     0.029 A 
ATOM     56  C   UNL A   1      42.702  27.711  27.573  1.00  0.00     0.049 A 
ATOM     57  H   UNL A   1      44.736  27.843  27.140  1.00  0.00     0.167 HD
ATOM     58  C   UNL A   1      49.071  27.862  26.459  1.00  0.00     0.037 A 
ATOM     59  C   UNL A   1      42.330  28.886  28.116  1.00  0.00     0.037 A 
ATOM     60  C   UNL A   1      48.744  29.190  26.908  1.00  0.00     0.049 A 
ATOM     61  C   UNL A   1      43.358  29.972  28.280  1.00  0.00     0.074 A 
ATOM     62  C   UNL A   1      49.580  30.286  27.033  1.00  0.00     0.029 A 
ATOM     63  N   UNL A   1      47.483  29.602  27.318  1.00  0.00    -0.354 N 
ATOM     64  N   UNL A   1      44.638  29.945  27.993  1.00  0.00    -0.248 NA
ATOM     65  C   UNL A   1      42.893  31.251  28.834  1.00  0.00     0.031 C 
ATOM     66  C   UNL A   1      48.837  31.342  27.574  1.00  0.00     0.029 A 
ATOM     67  C   UNL A   1      47.525  30.925  27.727  1.00  0.00     0.049 A 
ATOM     68  H   UNL A   1      46.678  29.036  27.319  1.00  0.00     0.167 HD
ATOM     69  C   UNL A   1      45.129  31.205  28.314  1.00  0.00     0.074 A 
ATOM     70  C   UNL A   1      44.002  31.977  28.801  1.00  0.00     0.031 C 
ATOM     71  C   UNL A   1      46.395  31.680  28.215  1.00  0.00     0.037 A 
BRANCH  58  72
ATOM     72  C   UNL A   1      50.506  27.542  26.132  1.00  0.00     0.058 A 
ATOM     73  C   UNL A   1      51.003  27.635  24.821  1.00  0.00     0.135 A 
ATOM     74  C   UNL A   1      51.399  27.149  27.141  1.00  0.00     0.135 A 
ATOM     75  F   UNL A   1      50.193  27.994  23.812  1.00  0.00    -0.206 F 
ATOM     76  C   UNL A   1      52.320  27.306  24.516  1.00  0.00     0.059 A 
ATOM     77  C   UNL A   1      52.731  26.848  26.865  1.00  0.00     0.059 A 
ATOM     78  F   UNL A   1      50.981  27.046  28.413  1.00  0.00    -0.206 F 
ATOM     79  C   UNL A   1      53.176  26.909  25.546  1.00  0.00     0.060 A 
BRANCH  79  80
ATOM     80  S   UNL A   1      54.876  26.468  25.130  1.00  0.00     0.124 S 
ATOM     81  O   UNL A   1      55.552  26.687  26.405  1.00  0.00    -0.237 OA
ATOM     82  O   UNL A   1      54.744  25.076  24.713  1.00  0.00    -0.237 OA
ATOM     83  O   UNL A   1      55.221  27.408  24.068  1.00  0.00    -0.744 OA
ENDBRANCH  79  80
ENDBRANCH  58  72
BRANCH  59  84
ATOM     84  C   UNL A   1      40.918  29.087  28.538  1.00  0.00     0.058 A 
ATOM     85  C   UNL A   1      40.558  29.096  29.893  1.00  0.00     0.135 A 
ATOM     86  C   UNL A   1      39.905  29.313  27.592  1.00  0.00     0.135 A 
ATOM     87  F   UNL A   1      41.487  28.878  30.836  1.00  0.00    -0.206 F 
ATOM     88  C   UNL A   1      39.245  29.318  30.297  1.00  0.00     0.059 A 
ATOM     89  C   UNL A   1      38.591  29.564  27.971  1.00  0.00     0.059 A 
ATOM     90  F   UNL A   1      40.200  29.331  26.282  1.00  0.00    -0.206 F 
ATOM     91  C   UNL A   1      38.269  29.559  29.327  1.00  0.00     0.060 A 
BRANCH  91  92
ATOM     92  S   UNL A   1      36.583  29.917  29.866  1.00  0.00     0.124 S 
ATOM     93  O   UNL A   1      36.497  29.143  31.099  1.00  0.00    -0.237 OA
ATOM     94  O   UNL A   1      36.615  31.368  30.022  1.00  0.00    -0.237 OA
ATOM     95  O   UNL A   1      35.766  29.432  28.757  1.00  0.00    -0.744 OA
ENDBRANCH  91  92
ENDBRANCH  59  84
BRANCH  71  96
ATOM     96  C   UNL A   1      46.635  33.110  28.621  1.00  0.00     0.058 A 
ATOM     97  C   UNL A   1      46.494  34.169  27.712  1.00  0.00     0.135 A 
ATOM     98  C   UNL A   1      46.948  33.426  29.954  1.00  0.00     0.135 A 
ATOM     99  F   UNL A   1      46.204  33.921  26.425  1.00  0.00    -0.206 F 
ATOM    100  C   UNL A   1      46.671  35.492  28.105  1.00  0.00     0.059 A 
ATOM    101  C   UNL A   1      47.100  34.744  30.375  1.00  0.00     0.059 A 
ATOM    102  F   UNL A   1      47.087  32.452  30.867  1.00  0.00    -0.206 F 
ATOM    103  C   UNL A   1      46.969  35.769  29.440  1.00  0.00     0.060 A 
BRANCH 103 104
ATOM    104  S   UNL A   1      47.151  37.494  29.945  1.00  0.00     0.124 S 
ATOM    105  O   UNL A   1      45.817  38.021  29.676  1.00  0.00    -0.237 OA
ATOM    106  O   UNL A   1      47.511  37.369  31.354  1.00  0.00    -0.237 OA
ATOM    107  O   UNL A   1      48.210  37.994  29.074  1.00  0.00    -0.744 OA
ENDBRANCH 103 104
ENDBRANCH  71  96
ENDBRANCH  45  46
ENDBRANCH  37  40
ENDBRANCH  35  36
ENDBRANCH  34  35
ENDBRANCH  33  34
ENDBRANCH   1  33
TORSDOF 21
ENDMDL
MODEL 3
REMARK VINA RESULT:     -12.0      3.362      9.416
REMARK SMILES O=C(C[C@H](NC(=O)[C@]12C[C@H]3C[C@H](C[C@H](C3)C1)C2)c1cccc([N+](=O)[O-])c1)NCCCCCCNC(=O)c1ccc(-c2c3nc(c(-c4c(F)cc(S(=O)(=O)[O-])cc4F)c4ccc([nH]4)c(-c4c(F)cc(S(=O)(=O)[O-])cc4F)c4nc(c(-c5c(F)cc(S(=O)(=O)[O-])cc5F)c5ccc2[nH]5)C=C4)C=C3)cc1
REMARK SMILES IDX 30 1 29 2 28 3 27 4 1 5 2 6 3 8 4 9 18 10 19 11 26 12 20 13
REMARK SMILES IDX 22 14 21 15 23 16 24 17 25 18 5 19 6 20 7 22 8 23 9 24 16 25
REMARK SMILES IDX 17 26 10 27 14 28 12 29 11 30 15 31 13 32 31 33 32 34 33 35
REMARK SMILES IDX 34 36 35 37 36 39 37 40 38 41 102 42 39 43 101 44 40 45
REMARK SMILES IDX 41 46 42 47 95 48 43 49 100 50 94 51 96 52 44 53 99 54 93 55
REMARK SMILES IDX 92 56 45 58 79 59 58 60 78 61 59 62 62 63 77 64 97 65 60 66
REMARK SMILES IDX 61 67 76 69 98 70 63 71 46 72 47 73 56 74 48 75 49 76 55 77
REMARK SMILES IDX 57 78 50 79 51 80 52 81 53 82 54 83 80 84 81 85 90 86 82 87
REMARK SMILES IDX 83 88 89 89 91 90 84 91 85 92 86 93 87 94 88 95 64 96 65 97
REMARK SMILES IDX 74 98 66 99 67 100 73 101 75 102 68 103 69 104 70 105 71 106
REMARK SMILES IDX 72 107
REMARK H PARENT 27 7 5 21 34 38 96 57 62 68
REMARK Flexibility Score: inf
ROOT
ATOM      1  C   UNL A   1      35.398  32.786  28.340  1.00  0.00     0.002 C 
ENDROOT
BRANCH   1   2
ATOM      2  C   UNL A   1      35.065  31.293  28.270  1.00  0.00     0.021 C 
BRANCH   2   3
ATOM      3  C   UNL A   1      33.691  30.991  27.673  1.00  0.00     0.116 C 
BRANCH   3   4
ATOM      4  N   UNL A   1      33.719  30.440  26.329  1.00  0.00    -0.356 N 
ATOM      5  O   UNL A   1      31.779  29.257  26.565  1.00  0.00    -0.275 OA
ATOM      6  C   UNL A   1      32.680  29.690  25.847  1.00  0.00     0.222 C 
ATOM      7  H   UNL A   1      34.499  30.609  25.753  1.00  0.00     0.163 HD
BRANCH   6   8
ATOM      8  C   UNL A   1      32.640  29.389  24.372  1.00  0.00     0.129 C 
BRANCH   8   9
ATOM      9  C   UNL A   1      31.998  28.101  23.834  1.00  0.00     0.122 C 
BRANCH   9  10
ATOM     10  C   UNL A   1      30.523  28.385  23.506  1.00  0.00    -0.018 A 
ATOM     11  C   UNL A   1      29.597  27.321  23.558  1.00  0.00     0.006 A 
ATOM     12  C   UNL A   1      30.032  29.670  23.232  1.00  0.00     0.091 A 
ATOM     13  C   UNL A   1      28.226  27.535  23.393  1.00  0.00     0.007 A 
ATOM     14  C   UNL A   1      28.652  29.884  23.082  1.00  0.00     0.269 A 
ATOM     15  C   UNL A   1      27.746  28.821  23.165  1.00  0.00     0.085 A 
BRANCH  14  16
ATOM     16  N   UNL A   1      28.147  31.247  22.874  1.00  0.00     0.062 N 
ATOM     17  O   UNL A   1      28.726  31.954  22.036  1.00  0.00    -0.258 OA
ATOM     18  O   UNL A   1      27.163  31.605  23.536  1.00  0.00    -0.258 OA
ENDBRANCH  14  16
ENDBRANCH   9  10
BRANCH   9  19
ATOM     19  N   UNL A   1      32.646  27.242  22.815  1.00  0.00    -0.348 N 
ATOM     20  C   UNL A   1      33.288  26.049  22.671  1.00  0.00     0.226 C 
ATOM     21  H   UNL A   1      32.594  27.687  21.938  1.00  0.00     0.164 HD
ATOM     22  O   UNL A   1      33.929  25.937  21.619  1.00  0.00    -0.274 OA
BRANCH  20  23
ATOM     23  C   UNL A   1      33.213  24.871  23.652  1.00  0.00     0.050 C 
ATOM     24  C   UNL A   1      33.783  25.245  25.029  1.00  0.00     0.020 C 
ATOM     25  C   UNL A   1      34.034  23.627  23.183  1.00  0.00     0.020 C 
ATOM     26  C   UNL A   1      31.764  24.368  23.681  1.00  0.00     0.020 C 
ATOM     27  C   UNL A   1      33.555  24.119  26.041  1.00  0.00    -0.010 C 
ATOM     28  C   UNL A   1      33.856  22.451  24.185  1.00  0.00    -0.010 C 
ATOM     29  C   UNL A   1      31.556  23.288  24.739  1.00  0.00    -0.010 C 
ATOM     30  C   UNL A   1      32.053  23.794  26.103  1.00  0.00     0.007 C 
ATOM     31  C   UNL A   1      34.341  22.885  25.578  1.00  0.00     0.007 C 
ATOM     32  C   UNL A   1      32.369  22.065  24.304  1.00  0.00     0.007 C 
ENDBRANCH  20  23
ENDBRANCH   9  19
ENDBRANCH   8   9
ENDBRANCH   6   8
ENDBRANCH   3   4
ENDBRANCH   2   3
ENDBRANCH   1   2
BRANCH   1  33
ATOM     33  C   UNL A   1      34.360  33.691  27.676  1.00  0.00     0.002 C 
BRANCH  33  34
ATOM     34  C   UNL A   1      33.279  34.210  28.624  1.00  0.00     0.021 C 
BRANCH  34  35
ATOM     35  C   UNL A   1      33.388  35.697  28.941  1.00  0.00     0.116 C 
BRANCH  35  36
ATOM     36  N   UNL A   1      32.653  36.047  30.148  1.00  0.00    -0.352 N 
ATOM     37  C   UNL A   1      32.820  35.567  31.423  1.00  0.00     0.251 C 
ATOM     38  H   UNL A   1      31.941  36.718  30.035  1.00  0.00     0.163 HD
ATOM     39  O   UNL A   1      31.977  35.792  32.287  1.00  0.00    -0.269 OA
BRANCH  37  40
ATOM     40  C   UNL A   1      34.016  34.759  31.732  1.00  0.00     0.039 A 
ATOM     41  C   UNL A   1      35.281  35.322  31.556  1.00  0.00     0.014 A 
ATOM     42  C   UNL A   1      33.878  33.461  32.234  1.00  0.00     0.014 A 
ATOM     43  C   UNL A   1      36.410  34.601  31.949  1.00  0.00     0.010 A 
ATOM     44  C   UNL A   1      34.997  32.780  32.697  1.00  0.00     0.010 A 
ATOM     45  C   UNL A   1      36.275  33.343  32.559  1.00  0.00    -0.014 A 
BRANCH  45  46
ATOM     46  C   UNL A   1      37.456  32.607  33.077  1.00  0.00     0.031 A 
ATOM     47  C   UNL A   1      38.096  33.022  34.372  1.00  0.00     0.074 A 
ATOM     48  C   UNL A   1      37.993  31.614  32.341  1.00  0.00     0.049 A 
ATOM     49  N   UNL A   1      39.172  32.551  34.948  1.00  0.00    -0.248 NA
ATOM     50  C   UNL A   1      37.462  34.132  35.100  1.00  0.00     0.031 C 
ATOM     51  C   UNL A   1      37.493  31.161  31.041  1.00  0.00     0.029 A 
ATOM     52  N   UNL A   1      39.087  30.819  32.570  1.00  0.00    -0.354 N 
ATOM     53  C   UNL A   1      39.348  33.310  36.099  1.00  0.00     0.074 A 
ATOM     54  C   UNL A   1      38.303  34.311  36.107  1.00  0.00     0.031 C 
ATOM     55  C   UNL A   1      38.269  30.163  30.595  1.00  0.00     0.029 A 
ATOM     56  C   UNL A   1      39.347  29.932  31.552  1.00  0.00     0.049 A 
ATOM     57  H   UNL A   1      39.634  30.877  33.386  1.00  0.00     0.167 HD
ATOM     58  C   UNL A   1      40.279  33.168  37.073  1.00  0.00     0.037 A 
ATOM     59  C   UNL A   1      40.350  29.045  31.396  1.00  0.00     0.037 A 
ATOM     60  C   UNL A   1      41.311  32.164  37.055  1.00  0.00     0.049 A 
ATOM     61  C   UNL A   1      41.383  28.914  32.481  1.00  0.00     0.074 A 
ATOM     62  C   UNL A   1      42.269  31.899  38.018  1.00  0.00     0.029 A 
ATOM     63  N   UNL A   1      41.529  31.268  36.018  1.00  0.00    -0.354 N 
ATOM     64  N   UNL A   1      41.488  29.584  33.604  1.00  0.00    -0.248 NA
ATOM     65  C   UNL A   1      42.429  27.901  32.284  1.00  0.00     0.031 C 
ATOM     66  C   UNL A   1      43.101  30.882  37.537  1.00  0.00     0.029 A 
ATOM     67  C   UNL A   1      42.625  30.470  36.303  1.00  0.00     0.049 A 
ATOM     68  H   UNL A   1      40.985  31.209  35.200  1.00  0.00     0.167 HD
ATOM     69  C   UNL A   1      42.600  29.064  34.256  1.00  0.00     0.074 A 
ATOM     70  C   UNL A   1      43.123  28.011  33.409  1.00  0.00     0.031 C 
ATOM     71  C   UNL A   1      43.139  29.426  35.447  1.00  0.00     0.037 A 
BRANCH  58  72
ATOM     72  C   UNL A   1      40.224  34.129  38.231  1.00  0.00     0.058 A 
ATOM     73  C   UNL A   1      39.461  33.860  39.379  1.00  0.00     0.135 A 
ATOM     74  C   UNL A   1      40.953  35.329  38.200  1.00  0.00     0.135 A 
ATOM     75  F   UNL A   1      38.734  32.734  39.461  1.00  0.00    -0.206 F 
ATOM     76  C   UNL A   1      39.385  34.765  40.433  1.00  0.00     0.059 A 
ATOM     77  C   UNL A   1      40.919  36.235  39.258  1.00  0.00     0.059 A 
ATOM     78  F   UNL A   1      41.703  35.639  37.130  1.00  0.00    -0.206 F 
ATOM     79  C   UNL A   1      40.115  35.953  40.360  1.00  0.00     0.060 A 
BRANCH  79  80
ATOM     80  S   UNL A   1      39.991  37.124  41.728  1.00  0.00     0.124 S 
ATOM     81  O   UNL A   1      41.398  37.344  42.049  1.00  0.00    -0.237 OA
ATOM     82  O   UNL A   1      39.298  38.250  41.113  1.00  0.00    -0.237 OA
ATOM     83  O   UNL A   1      39.226  36.393  42.734  1.00  0.00    -0.744 OA
ENDBRANCH  79  80
ENDBRANCH  58  72
BRANCH  59  84
ATOM     84  C   UNL A   1      40.413  28.218  30.161  1.00  0.00     0.058 A 
ATOM     85  C   UNL A   1      41.354  28.483  29.156  1.00  0.00     0.135 A 
ATOM     86  C   UNL A   1      39.557  27.119  29.982  1.00  0.00     0.135 A 
ATOM     87  F   UNL A   1      42.190  29.525  29.277  1.00  0.00    -0.206 F 
ATOM     88  C   UNL A   1      41.444  27.692  28.014  1.00  0.00     0.059 A 
ATOM     89  C   UNL A   1      39.645  26.298  28.862  1.00  0.00     0.059 A 
ATOM     90  F   UNL A   1      38.650  26.813  30.922  1.00  0.00    -0.206 F 
ATOM     91  C   UNL A   1      40.588  26.596  27.881  1.00  0.00     0.060 A 
BRANCH  91  92
ATOM     92  S   UNL A   1      40.762  25.534  26.430  1.00  0.00     0.124 S 
ATOM     93  O   UNL A   1      41.803  24.610  26.865  1.00  0.00    -0.237 OA
ATOM     94  O   UNL A   1      39.421  24.973  26.300  1.00  0.00    -0.237 OA
ATOM     95  O   UNL A   1      41.147  26.469  25.375  1.00  0.00    -0.744 OA
ENDBRANCH  91  92
ENDBRANCH  59  84
BRANCH  71  96
ATOM     96  C   UNL A   1      44.348  28.666  35.923  1.00  0.00     0.058 A 
ATOM     97  C   UNL A   1      44.229  27.496  36.689  1.00  0.00     0.135 A 
ATOM     98  C   UNL A   1      45.638  29.080  35.551  1.00  0.00     0.135 A 
ATOM     99  F   UNL A   1      43.021  27.062  37.078  1.00  0.00    -0.206 F 
ATOM    100  C   UNL A   1      45.349  26.772  37.086  1.00  0.00     0.059 A 
ATOM    101  C   UNL A   1      46.769  28.354  35.912  1.00  0.00     0.059 A 
ATOM    102  F   UNL A   1      45.808  30.187  34.812  1.00  0.00    -0.206 F 
ATOM    103  C   UNL A   1      46.615  27.207  36.688  1.00  0.00     0.060 A 
BRANCH 103 104
ATOM    104  S   UNL A   1      48.056  26.231  37.172  1.00  0.00     0.124 S 
ATOM    105  O   UNL A   1      49.083  27.261  37.285  1.00  0.00    -0.237 OA
ATOM    106  O   UNL A   1      47.617  25.631  38.428  1.00  0.00    -0.237 OA
ATOM    107  O   UNL A   1      48.223  25.297  36.062  1.00  0.00    -0.744 OA
ENDBRANCH 103 104
ENDBRANCH  71  96
ENDBRANCH  45  46
ENDBRANCH  37  40
ENDBRANCH  35  36
ENDBRANCH  34  35
ENDBRANCH  33  34
ENDBRANCH   1  33
TORSDOF 21
ENDMDL
