MODEL 1
REMARK VINA RESULT:     -11.4      0.000      0.000
REMARK SMILES CC(C)(C)C[N@H+]1[C@@H](C(=O)NCCCCCCNC(=O)c2ccc(-c3c4nc(c(-c5c(F)cc(S(=O)(=O)[O-])cc5F)c5ccc([nH]5)c(-c5c(F)cc(S(=O)(=O)[O-])cc5F)c5nc(c(-c6c(F)cc(S(=O)(=O)[O-])cc6F)c6ccc3[nH]6)C=C5)C=C4)cc2)CC[C@H]2CCCC[C@@H]21
REMARK SMILES IDX 14 1 13 2 12 3 11 4 10 5 8 6 9 7 7 9 6 10 93 11 86 13 88 14
REMARK SMILES IDX 92 15 87 16 89 17 91 18 90 19 5 20 2 21 1 22 3 23 4 24 15 25
REMARK SMILES IDX 16 26 17 27 18 28 19 30 20 31 21 32 85 33 22 34 84 35 23 36
REMARK SMILES IDX 24 37 25 38 78 39 26 40 83 41 77 42 79 43 27 44 82 45 76 46
REMARK SMILES IDX 75 47 28 49 62 50 41 51 61 52 42 53 45 54 60 55 80 56 43 57
REMARK SMILES IDX 44 58 59 60 81 61 46 62 29 63 30 64 39 65 31 66 32 67 38 68
REMARK SMILES IDX 40 69 33 70 34 71 35 72 36 73 37 74 63 75 64 76 73 77 65 78
REMARK SMILES IDX 66 79 72 80 74 81 67 82 68 83 69 84 70 85 71 86 47 87 48 88
REMARK SMILES IDX 57 89 49 90 50 91 56 92 58 93 51 94 52 95 53 96 54 97 55 98
REMARK H PARENT 10 8 6 12 17 29 79 48 45 59
REMARK Flexibility Score: inf
ROOT
ATOM      1  C   UNL A   1      32.860  29.129  24.759  1.00  0.00     0.002 C 
ENDROOT
BRANCH   1   2
ATOM      2  C   UNL A   1      32.128  28.522  23.559  1.00  0.00     0.002 C 
BRANCH   2   3
ATOM      3  C   UNL A   1      32.531  27.088  23.184  1.00  0.00     0.021 C 
BRANCH   3   4
ATOM      4  C   UNL A   1      31.707  26.515  22.030  1.00  0.00     0.116 C 
BRANCH   4   5
ATOM      5  N   UNL A   1      32.366  25.381  21.378  1.00  0.00    -0.351 N 
ATOM      6  C   UNL A   1      33.050  24.238  21.548  1.00  0.00     0.278 C 
ATOM      7  O   UNL A   1      33.319  23.745  20.428  1.00  0.00    -0.268 OA
ATOM      8  H   UNL A   1      32.264  25.512  20.407  1.00  0.00     0.163 HD
BRANCH   6   9
ATOM      9  C   UNL A   1      33.479  23.381  22.796  1.00  0.00     0.274 C 
ATOM     10  N   UNL A   1      32.310  22.799  23.477  1.00  0.00    -0.322 N 
ATOM     11  C   UNL A   1      32.540  21.460  24.051  1.00  0.00     0.187 C 
ATOM     12  H   UNL A   1      31.677  22.571  22.710  1.00  0.00     0.349 HD
ATOM     13  C   UNL A   1      34.697  23.536  23.744  1.00  0.00     0.076 C 
ATOM     14  C   UNL A   1      34.016  21.250  24.466  1.00  0.00     0.048 C 
ATOM     15  C   UNL A   1      32.237  20.306  23.052  1.00  0.00     0.065 C 
ATOM     16  C   UNL A   1      34.601  22.562  24.975  1.00  0.00     0.016 C 
ATOM     17  C   UNL A   1      34.093  20.002  25.348  1.00  0.00     0.010 C 
ATOM     18  C   UNL A   1      32.513  18.910  23.655  1.00  0.00     0.006 C 
ATOM     19  C   UNL A   1      33.824  18.786  24.448  1.00  0.00     0.001 C 
BRANCH  10  20
ATOM     20  C   UNL A   1      31.350  23.707  24.107  1.00  0.00     0.269 C 
BRANCH  20  21
ATOM     21  C   UNL A   1      31.270  24.147  25.635  1.00  0.00     0.011 C 
ATOM     22  C   UNL A   1      30.794  22.994  26.548  1.00  0.00     0.017 C 
ATOM     23  C   UNL A   1      30.189  25.269  25.671  1.00  0.00     0.017 C 
ATOM     24  C   UNL A   1      32.530  24.739  26.291  1.00  0.00     0.017 C 
ENDBRANCH  20  21
ENDBRANCH  10  20
ENDBRANCH   6   9
ENDBRANCH   4   5
ENDBRANCH   3   4
ENDBRANCH   2   3
ENDBRANCH   1   2
BRANCH   1  25
ATOM     25  C   UNL A   1      33.710  28.149  25.571  1.00  0.00     0.021 C 
BRANCH  25  26
ATOM     26  C   UNL A   1      33.679  28.359  27.085  1.00  0.00     0.116 C 
BRANCH  26  27
ATOM     27  N   UNL A   1      33.573  29.767  27.448  1.00  0.00    -0.352 N 
ATOM     28  C   UNL A   1      34.468  30.565  28.109  1.00  0.00     0.251 C 
ATOM     29  H   UNL A   1      32.735  30.209  27.178  1.00  0.00     0.163 HD
ATOM     30  O   UNL A   1      34.117  31.672  28.528  1.00  0.00    -0.269 OA
BRANCH  28  31
ATOM     31  C   UNL A   1      35.849  30.097  28.322  1.00  0.00     0.039 A 
ATOM     32  C   UNL A   1      36.761  30.145  27.265  1.00  0.00     0.014 A 
ATOM     33  C   UNL A   1      36.238  29.606  29.571  1.00  0.00     0.014 A 
ATOM     34  C   UNL A   1      38.082  29.750  27.479  1.00  0.00     0.010 A 
ATOM     35  C   UNL A   1      37.570  29.290  29.803  1.00  0.00     0.010 A 
ATOM     36  C   UNL A   1      38.504  29.348  28.758  1.00  0.00    -0.014 A 
BRANCH  36  37
ATOM     37  C   UNL A   1      39.915  28.982  29.027  1.00  0.00     0.031 A 
ATOM     38  C   UNL A   1      40.849  29.988  29.643  1.00  0.00     0.074 A 
ATOM     39  C   UNL A   1      40.369  27.771  28.650  1.00  0.00     0.049 A 
ATOM     40  N   UNL A   1      42.124  29.876  29.908  1.00  0.00    -0.248 NA
ATOM     41  C   UNL A   1      40.279  31.303  29.974  1.00  0.00     0.031 C 
ATOM     42  C   UNL A   1      39.563  26.732  28.005  1.00  0.00     0.029 A 
ATOM     43  N   UNL A   1      41.615  27.211  28.750  1.00  0.00    -0.354 N 
ATOM     44  C   UNL A   1      42.513  31.109  30.421  1.00  0.00     0.074 A 
ATOM     45  C   UNL A   1      41.352  31.971  30.369  1.00  0.00     0.031 C 
ATOM     46  C   UNL A   1      40.326  25.646  27.805  1.00  0.00     0.029 A 
ATOM     47  C   UNL A   1      41.683  25.926  28.265  1.00  0.00     0.049 A 
ATOM     48  H   UNL A   1      42.389  27.684  29.133  1.00  0.00     0.167 HD
ATOM     49  C   UNL A   1      43.720  31.481  30.910  1.00  0.00     0.037 A 
ATOM     50  C   UNL A   1      42.721  25.072  28.200  1.00  0.00     0.037 A 
ATOM     51  C   UNL A   1      44.863  30.606  30.963  1.00  0.00     0.049 A 
ATOM     52  C   UNL A   1      44.060  25.512  28.726  1.00  0.00     0.074 A 
ATOM     53  C   UNL A   1      46.115  30.856  31.496  1.00  0.00     0.029 A 
ATOM     54  N   UNL A   1      44.896  29.315  30.450  1.00  0.00    -0.354 N 
ATOM     55  N   UNL A   1      44.394  26.655  29.277  1.00  0.00    -0.248 NA
ATOM     56  C   UNL A   1      45.163  24.547  28.621  1.00  0.00     0.031 C 
ATOM     57  C   UNL A   1      46.923  29.740  31.251  1.00  0.00     0.029 A 
ATOM     58  C   UNL A   1      46.158  28.770  30.622  1.00  0.00     0.049 A 
ATOM     59  H   UNL A   1      44.135  28.856  30.027  1.00  0.00     0.167 HD
ATOM     60  C   UNL A   1      45.738  26.536  29.614  1.00  0.00     0.074 A 
ATOM     61  C   UNL A   1      46.151  25.207  29.209  1.00  0.00     0.031 C 
ATOM     62  C   UNL A   1      46.554  27.443  30.208  1.00  0.00     0.037 A 
BRANCH  49  63
ATOM     63  C   UNL A   1      43.862  32.898  31.400  1.00  0.00     0.058 A 
ATOM     64  C   UNL A   1      43.634  33.248  32.742  1.00  0.00     0.135 A 
ATOM     65  C   UNL A   1      44.216  33.928  30.512  1.00  0.00     0.135 A 
ATOM     66  F   UNL A   1      43.282  32.309  33.636  1.00  0.00    -0.206 F 
ATOM     67  C   UNL A   1      43.691  34.570  33.172  1.00  0.00     0.059 A 
ATOM     68  C   UNL A   1      44.315  35.252  30.928  1.00  0.00     0.059 A 
ATOM     69  F   UNL A   1      44.452  33.655  29.219  1.00  0.00    -0.206 F 
ATOM     70  C   UNL A   1      44.024  35.567  32.255  1.00  0.00     0.060 A 
BRANCH  70  71
ATOM     71  S   UNL A   1      44.051  37.282  32.817  1.00  0.00     0.124 S 
ATOM     72  O   UNL A   1      43.848  38.001  31.562  1.00  0.00    -0.237 OA
ATOM     73  O   UNL A   1      42.934  37.321  33.756  1.00  0.00    -0.237 OA
ATOM     74  O   UNL A   1      45.375  37.425  33.413  1.00  0.00    -0.744 OA
ENDBRANCH  70  71
ENDBRANCH  49  63
BRANCH  50  75
ATOM     75  C   UNL A   1      42.514  23.699  27.667  1.00  0.00     0.058 A 
ATOM     76  C   UNL A   1      42.568  23.453  26.288  1.00  0.00     0.135 A 
ATOM     77  C   UNL A   1      42.312  22.601  28.520  1.00  0.00     0.135 A 
ATOM     78  F   UNL A   1      42.753  24.471  25.434  1.00  0.00    -0.206 F 
ATOM     79  C   UNL A   1      42.429  22.172  25.769  1.00  0.00     0.059 A 
ATOM     80  C   UNL A   1      42.194  21.306  28.025  1.00  0.00     0.059 A 
ATOM     81  F   UNL A   1      42.268  22.780  29.849  1.00  0.00    -0.206 F 
ATOM     82  C   UNL A   1      42.253  21.101  26.647  1.00  0.00     0.060 A 
BRANCH  82  83
ATOM     83  S   UNL A   1      42.153  19.433  25.964  1.00  0.00     0.124 S 
ATOM     84  O   UNL A   1      43.024  19.538  24.800  1.00  0.00    -0.237 OA
ATOM     85  O   UNL A   1      42.655  18.622  27.068  1.00  0.00    -0.237 OA
ATOM     86  O   UNL A   1      40.730  19.272  25.677  1.00  0.00    -0.744 OA
ENDBRANCH  82  83
ENDBRANCH  50  75
BRANCH  62  87
ATOM     87  C   UNL A   1      47.971  27.021  30.485  1.00  0.00     0.058 A 
ATOM     88  C   UNL A   1      49.031  27.386  29.641  1.00  0.00     0.135 A 
ATOM     89  C   UNL A   1      48.278  26.287  31.643  1.00  0.00     0.135 A 
ATOM     90  F   UNL A   1      48.791  28.079  28.517  1.00  0.00    -0.206 F 
ATOM     91  C   UNL A   1      50.343  27.021  29.924  1.00  0.00     0.059 A 
ATOM     92  C   UNL A   1      49.587  25.939  31.962  1.00  0.00     0.059 A 
ATOM     93  F   UNL A   1      47.304  25.920  32.491  1.00  0.00    -0.206 F 
ATOM     94  C   UNL A   1      50.612  26.301  31.090  1.00  0.00     0.060 A 
BRANCH  94  95
ATOM     95  S   UNL A   1      52.325  25.871  31.464  1.00  0.00     0.124 S 
ATOM     96  O   UNL A   1      52.932  25.901  30.137  1.00  0.00    -0.237 OA
ATOM     97  O   UNL A   1      52.724  26.944  32.369  1.00  0.00    -0.237 OA
ATOM     98  O   UNL A   1      52.217  24.550  32.075  1.00  0.00    -0.744 OA
ENDBRANCH  94  95
ENDBRANCH  62  87
ENDBRANCH  36  37
ENDBRANCH  28  31
ENDBRANCH  26  27
ENDBRANCH  25  26
ENDBRANCH   1  25
TORSDOF 18
ENDMDL
MODEL 2
REMARK VINA RESULT:     -11.3      2.812      3.875
REMARK SMILES CC(C)(C)C[N@H+]1[C@@H](C(=O)NCCCCCCNC(=O)c2ccc(-c3c4nc(c(-c5c(F)cc(S(=O)(=O)[O-])cc5F)c5ccc([nH]5)c(-c5c(F)cc(S(=O)(=O)[O-])cc5F)c5nc(c(-c6c(F)cc(S(=O)(=O)[O-])cc6F)c6ccc3[nH]6)C=C5)C=C4)cc2)CC[C@H]2CCCC[C@@H]21
REMARK SMILES IDX 14 1 13 2 12 3 11 4 10 5 8 6 9 7 7 9 6 10 93 11 86 13 88 14
REMARK SMILES IDX 92 15 87 16 89 17 91 18 90 19 5 20 2 21 1 22 3 23 4 24 15 25
REMARK SMILES IDX 16 26 17 27 18 28 19 30 20 31 21 32 85 33 22 34 84 35 23 36
REMARK SMILES IDX 24 37 25 38 78 39 26 40 83 41 77 42 79 43 27 44 82 45 76 46
REMARK SMILES IDX 75 47 28 49 62 50 41 51 61 52 42 53 45 54 60 55 80 56 43 57
REMARK SMILES IDX 44 58 59 60 81 61 46 62 29 63 30 64 39 65 31 66 32 67 38 68
REMARK SMILES IDX 40 69 33 70 34 71 35 72 36 73 37 74 63 75 64 76 73 77 65 78
REMARK SMILES IDX 66 79 72 80 74 81 67 82 68 83 69 84 70 85 71 86 47 87 48 88
REMARK SMILES IDX 57 89 49 90 50 91 56 92 58 93 51 94 52 95 53 96 54 97 55 98
REMARK H PARENT 10 8 6 12 17 29 79 48 45 59
REMARK Flexibility Score: inf
ROOT
ATOM      1  C   UNL A   1      32.786  30.286  27.176  1.00  0.00     0.002 C 
ENDROOT
BRANCH   1   2
ATOM      2  C   UNL A   1      31.951  29.342  26.307  1.00  0.00     0.002 C 
BRANCH   2   3
ATOM      3  C   UNL A   1      31.403  28.091  27.013  1.00  0.00     0.021 C 
BRANCH   3   4
ATOM      4  C   UNL A   1      32.261  26.847  26.780  1.00  0.00     0.116 C 
BRANCH   4   5
ATOM      5  N   UNL A   1      31.489  25.606  26.880  1.00  0.00    -0.351 N 
ATOM      6  C   UNL A   1      31.425  24.301  26.568  1.00  0.00     0.278 C 
ATOM      7  O   UNL A   1      30.365  23.816  27.026  1.00  0.00    -0.268 OA
ATOM      8  H   UNL A   1      30.674  25.818  27.391  1.00  0.00     0.163 HD
BRANCH   6   9
ATOM      9  C   UNL A   1      32.399  23.284  25.866  1.00  0.00     0.274 C 
ATOM     10  N   UNL A   1      33.127  23.915  24.753  1.00  0.00    -0.322 N 
ATOM     11  C   UNL A   1      34.510  23.433  24.574  1.00  0.00     0.187 C 
ATOM     12  H   UNL A   1      33.300  24.863  25.088  1.00  0.00     0.349 HD
ATOM     13  C   UNL A   1      32.287  21.745  25.699  1.00  0.00     0.076 C 
ATOM     14  C   UNL A   1      34.679  21.967  25.040  1.00  0.00     0.048 C 
ATOM     15  C   UNL A   1      35.551  24.238  25.402  1.00  0.00     0.065 C 
ATOM     16  C   UNL A   1      33.406  21.182  24.750  1.00  0.00     0.016 C 
ATOM     17  C   UNL A   1      36.018  21.447  24.509  1.00  0.00     0.010 C 
ATOM     18  C   UNL A   1      36.991  23.702  25.232  1.00  0.00     0.006 C 
ATOM     19  C   UNL A   1      37.130  22.173  25.282  1.00  0.00     0.001 C 
BRANCH  10  20
ATOM     20  C   UNL A   1      32.361  24.376  23.594  1.00  0.00     0.269 C 
BRANCH  20  21
ATOM     21  C   UNL A   1      32.387  25.811  22.905  1.00  0.00     0.011 C 
ATOM     22  C   UNL A   1      32.774  25.731  21.410  1.00  0.00     0.017 C 
ATOM     23  C   UNL A   1      33.508  26.593  23.653  1.00  0.00     0.017 C 
ATOM     24  C   UNL A   1      31.122  26.684  22.988  1.00  0.00     0.017 C 
ENDBRANCH  20  21
ENDBRANCH  10  20
ENDBRANCH   6   9
ENDBRANCH   4   5
ENDBRANCH   3   4
ENDBRANCH   2   3
ENDBRANCH   1   2
BRANCH   1  25
ATOM     25  C   UNL A   1      34.290  30.282  26.889  1.00  0.00     0.021 C 
BRANCH  25  26
ATOM     26  C   UNL A   1      35.152  29.586  27.941  1.00  0.00     0.116 C 
BRANCH  26  27
ATOM     27  N   UNL A   1      35.262  30.361  29.171  1.00  0.00    -0.352 N 
ATOM     28  C   UNL A   1      36.317  30.478  30.035  1.00  0.00     0.251 C 
ATOM     29  H   UNL A   1      34.458  30.875  29.416  1.00  0.00     0.163 HD
ATOM     30  O   UNL A   1      36.154  30.999  31.142  1.00  0.00    -0.269 OA
BRANCH  28  31
ATOM     31  C   UNL A   1      37.646  29.979  29.640  1.00  0.00     0.039 A 
ATOM     32  C   UNL A   1      38.045  30.068  28.304  1.00  0.00     0.014 A 
ATOM     33  C   UNL A   1      38.496  29.417  30.597  1.00  0.00     0.014 A 
ATOM     34  C   UNL A   1      39.322  29.643  27.939  1.00  0.00     0.010 A 
ATOM     35  C   UNL A   1      39.794  29.069  30.246  1.00  0.00     0.010 A 
ATOM     36  C   UNL A   1      40.218  29.169  28.912  1.00  0.00    -0.014 A 
BRANCH  36  37
ATOM     37  C   UNL A   1      41.601  28.768  28.561  1.00  0.00     0.031 A 
ATOM     38  C   UNL A   1      42.704  29.790  28.564  1.00  0.00     0.074 A 
ATOM     39  C   UNL A   1      41.844  27.501  28.169  1.00  0.00     0.049 A 
ATOM     40  N   UNL A   1      43.963  29.648  28.240  1.00  0.00    -0.248 NA
ATOM     41  C   UNL A   1      42.336  31.159  28.955  1.00  0.00     0.031 C 
ATOM     42  C   UNL A   1      40.842  26.437  28.086  1.00  0.00     0.029 A 
ATOM     43  N   UNL A   1      43.006  26.897  27.766  1.00  0.00    -0.354 N 
ATOM     44  C   UNL A   1      44.532  30.910  28.370  1.00  0.00     0.074 A 
ATOM     45  C   UNL A   1      43.466  31.815  28.741  1.00  0.00     0.031 C 
ATOM     46  C   UNL A   1      41.441  25.300  27.698  1.00  0.00     0.029 A 
ATOM     47  C   UNL A   1      42.857  25.565  27.462  1.00  0.00     0.049 A 
ATOM     48  H   UNL A   1      43.866  27.372  27.700  1.00  0.00     0.167 HD
ATOM     49  C   UNL A   1      45.827  31.276  28.215  1.00  0.00     0.037 A 
ATOM     50  C   UNL A   1      43.761  24.660  27.041  1.00  0.00     0.037 A 
ATOM     51  C   UNL A   1      46.877  30.359  27.855  1.00  0.00     0.049 A 
ATOM     52  C   UNL A   1      45.189  25.091  26.852  1.00  0.00     0.074 A 
ATOM     53  C   UNL A   1      48.232  30.606  27.734  1.00  0.00     0.029 A 
ATOM     54  N   UNL A   1      46.685  29.018  27.542  1.00  0.00    -0.354 N 
ATOM     55  N   UNL A   1      45.727  26.271  27.051  1.00  0.00    -0.248 NA
ATOM     56  C   UNL A   1      46.133  24.069  26.380  1.00  0.00     0.031 C 
ATOM     57  C   UNL A   1      48.851  29.432  27.289  1.00  0.00     0.029 A 
ATOM     58  C   UNL A   1      47.892  28.436  27.193  1.00  0.00     0.049 A 
ATOM     59  H   UNL A   1      45.818  28.552  27.565  1.00  0.00     0.167 HD
ATOM     60  C   UNL A   1      47.079  26.126  26.760  1.00  0.00     0.074 A 
ATOM     61  C   UNL A   1      47.275  24.743  26.377  1.00  0.00     0.031 C 
ATOM     62  C   UNL A   1      48.069  27.054  26.810  1.00  0.00     0.037 A 
BRANCH  49  63
ATOM     63  C   UNL A   1      46.164  32.730  28.414  1.00  0.00     0.058 A 
ATOM     64  C   UNL A   1      46.168  33.647  27.348  1.00  0.00     0.135 A 
ATOM     65  C   UNL A   1      46.504  33.215  29.688  1.00  0.00     0.135 A 
ATOM     66  F   UNL A   1      45.861  33.241  26.105  1.00  0.00    -0.206 F 
ATOM     67  C   UNL A   1      46.554  34.971  27.526  1.00  0.00     0.059 A 
ATOM     68  C   UNL A   1      46.859  34.545  29.896  1.00  0.00     0.059 A 
ATOM     69  F   UNL A   1      46.512  32.390  30.746  1.00  0.00    -0.206 F 
ATOM     70  C   UNL A   1      46.907  35.409  28.803  1.00  0.00     0.060 A 
BRANCH  70  71
ATOM     71  S   UNL A   1      47.449  37.118  29.009  1.00  0.00     0.124 S 
ATOM     72  O   UNL A   1      48.325  37.286  27.852  1.00  0.00    -0.237 OA
ATOM     73  O   UNL A   1      46.190  37.854  28.962  1.00  0.00    -0.237 OA
ATOM     74  O   UNL A   1      48.120  37.108  30.306  1.00  0.00    -0.744 OA
ENDBRANCH  70  71
ENDBRANCH  49  63
BRANCH  50  75
ATOM     75  C   UNL A   1      43.346  23.248  26.829  1.00  0.00     0.058 A 
ATOM     76  C   UNL A   1      43.257  22.717  25.534  1.00  0.00     0.135 A 
ATOM     77  C   UNL A   1      43.083  22.388  27.907  1.00  0.00     0.135 A 
ATOM     78  F   UNL A   1      43.494  23.502  24.471  1.00  0.00    -0.206 F 
ATOM     79  C   UNL A   1      42.922  21.387  25.311  1.00  0.00     0.059 A 
ATOM     80  C   UNL A   1      42.768  21.046  27.711  1.00  0.00     0.059 A 
ATOM     81  F   UNL A   1      43.169  22.841  29.167  1.00  0.00    -0.206 F 
ATOM     82  C   UNL A   1      42.689  20.555  26.408  1.00  0.00     0.060 A 
BRANCH  82  83
ATOM     83  S   UNL A   1      42.332  18.811  26.107  1.00  0.00     0.124 S 
ATOM     84  O   UNL A   1      43.263  18.501  25.029  1.00  0.00    -0.237 OA
ATOM     85  O   UNL A   1      42.632  18.211  27.404  1.00  0.00    -0.237 OA
ATOM     86  O   UNL A   1      40.919  18.816  25.740  1.00  0.00    -0.744 OA
ENDBRANCH  82  83
ENDBRANCH  50  75
BRANCH  62  87
ATOM     87  C   UNL A   1      49.462  26.598  26.469  1.00  0.00     0.058 A 
ATOM     88  C   UNL A   1      50.296  25.990  27.419  1.00  0.00     0.135 A 
ATOM     89  C   UNL A   1      49.945  26.721  25.155  1.00  0.00     0.135 A 
ATOM     90  F   UNL A   1      49.886  25.856  28.691  1.00  0.00    -0.206 F 
ATOM     91  C   UNL A   1      51.569  25.540  27.086  1.00  0.00     0.059 A 
ATOM     92  C   UNL A   1      51.202  26.249  24.792  1.00  0.00     0.059 A 
ATOM     93  F   UNL A   1      49.185  27.286  24.204  1.00  0.00    -0.206 F 
ATOM     94  C   UNL A   1      52.012  25.670  25.767  1.00  0.00     0.060 A 
BRANCH  94  95
ATOM     95  S   UNL A   1      53.650  25.043  25.341  1.00  0.00     0.124 S 
ATOM     96  O   UNL A   1      53.420  23.601  25.337  1.00  0.00    -0.237 OA
ATOM     97  O   UNL A   1      53.886  25.651  24.036  1.00  0.00    -0.237 OA
ATOM     98  O   UNL A   1      54.496  25.540  26.421  1.00  0.00    -0.744 OA
ENDBRANCH  94  95
ENDBRANCH  62  87
ENDBRANCH  36  37
ENDBRANCH  28  31
ENDBRANCH  26  27
ENDBRANCH  25  26
ENDBRANCH   1  25
TORSDOF 18
ENDMDL
MODEL 3
REMARK VINA RESULT:     -11.3      4.898     10.520
REMARK SMILES CC(C)(C)C[N@H+]1[C@@H](C(=O)NCCCCCCNC(=O)c2ccc(-c3c4nc(c(-c5c(F)cc(S(=O)(=O)[O-])cc5F)c5ccc([nH]5)c(-c5c(F)cc(S(=O)(=O)[O-])cc5F)c5nc(c(-c6c(F)cc(S(=O)(=O)[O-])cc6F)c6ccc3[nH]6)C=C5)C=C4)cc2)CC[C@H]2CCCC[C@@H]21
REMARK SMILES IDX 14 1 13 2 12 3 11 4 10 5 8 6 9 7 7 9 6 10 93 11 86 13 88 14
REMARK SMILES IDX 92 15 87 16 89 17 91 18 90 19 5 20 2 21 1 22 3 23 4 24 15 25
REMARK SMILES IDX 16 26 17 27 18 28 19 30 20 31 21 32 85 33 22 34 84 35 23 36
REMARK SMILES IDX 24 37 25 38 78 39 26 40 83 41 77 42 79 43 27 44 82 45 76 46
REMARK SMILES IDX 75 47 28 49 62 50 41 51 61 52 42 53 45 54 60 55 80 56 43 57
REMARK SMILES IDX 44 58 59 60 81 61 46 62 29 63 30 64 39 65 31 66 32 67 38 68
REMARK SMILES IDX 40 69 33 70 34 71 35 72 36 73 37 74 63 75 64 76 73 77 65 78
REMARK SMILES IDX 66 79 72 80 74 81 67 82 68 83 69 84 70 85 71 86 47 87 48 88
REMARK SMILES IDX 57 89 49 90 50 91 56 92 58 93 51 94 52 95 53 96 54 97 55 98
REMARK H PARENT 10 8 6 12 17 29 79 48 45 59
REMARK Flexibility Score: inf
ROOT
ATOM      1  C   UNL A   1      36.977  22.075  25.442  1.00  0.00     0.002 C 
ENDROOT
BRANCH   1   2
ATOM      2  C   UNL A   1      35.488  21.757  25.604  1.00  0.00     0.002 C 
BRANCH   2   3
ATOM      3  C   UNL A   1      34.756  22.527  26.715  1.00  0.00     0.021 C 
BRANCH   3   4
ATOM      4  C   UNL A   1      33.564  21.760  27.291  1.00  0.00     0.116 C 
BRANCH   4   5
ATOM      5  N   UNL A   1      32.337  22.560  27.309  1.00  0.00    -0.351 N 
ATOM      6  C   UNL A   1      31.739  23.697  26.918  1.00  0.00     0.278 C 
ATOM      7  O   UNL A   1      30.561  23.713  27.343  1.00  0.00    -0.268 OA
ATOM      8  H   UNL A   1      31.672  22.050  27.826  1.00  0.00     0.163 HD
BRANCH   6   9
ATOM      9  C   UNL A   1      32.156  24.907  26.002  1.00  0.00     0.274 C 
ATOM     10  N   UNL A   1      31.640  24.747  24.631  1.00  0.00    -0.322 N 
ATOM     11  C   UNL A   1      31.246  26.008  23.975  1.00  0.00     0.187 C 
ATOM     12  H   UNL A   1      30.728  24.312  24.770  1.00  0.00     0.349 HD
ATOM     13  C   UNL A   1      33.410  25.817  26.057  1.00  0.00     0.076 C 
ATOM     14  C   UNL A   1      32.069  27.214  24.489  1.00  0.00     0.048 C 
ATOM     15  C   UNL A   1      29.762  26.396  24.236  1.00  0.00     0.065 C 
ATOM     16  C   UNL A   1      33.491  26.770  24.809  1.00  0.00     0.016 C 
ATOM     17  C   UNL A   1      31.847  28.388  23.533  1.00  0.00     0.010 C 
ATOM     18  C   UNL A   1      29.371  27.735  23.571  1.00  0.00     0.006 C 
ATOM     19  C   UNL A   1      30.399  28.867  23.724  1.00  0.00     0.001 C 
BRANCH  10  20
ATOM     20  C   UNL A   1      32.141  23.633  23.827  1.00  0.00     0.269 C 
BRANCH  20  21
ATOM     21  C   UNL A   1      33.128  23.686  22.578  1.00  0.00     0.011 C 
ATOM     22  C   UNL A   1      32.814  24.874  21.640  1.00  0.00     0.017 C 
ATOM     23  C   UNL A   1      32.853  22.367  21.795  1.00  0.00     0.017 C 
ATOM     24  C   UNL A   1      34.643  23.722  22.846  1.00  0.00     0.017 C 
ENDBRANCH  20  21
ENDBRANCH  10  20
ENDBRANCH   6   9
ENDBRANCH   4   5
ENDBRANCH   3   4
ENDBRANCH   2   3
ENDBRANCH   1   2
BRANCH   1  25
ATOM     25  C   UNL A   1      37.325  23.565  25.383  1.00  0.00     0.021 C 
BRANCH  25  26
ATOM     26  C   UNL A   1      38.218  24.071  26.516  1.00  0.00     0.116 C 
BRANCH  26  27
ATOM     27  N   UNL A   1      39.636  23.915  26.218  1.00  0.00    -0.352 N 
ATOM     28  C   UNL A   1      40.694  24.705  26.581  1.00  0.00     0.251 C 
ATOM     29  H   UNL A   1      39.867  23.126  25.676  1.00  0.00     0.163 HD
ATOM     30  O   UNL A   1      41.797  24.542  26.050  1.00  0.00    -0.269 OA
BRANCH  28  31
ATOM     31  C   UNL A   1      40.511  25.749  27.605  1.00  0.00     0.039 A 
ATOM     32  C   UNL A   1      39.540  25.579  28.594  1.00  0.00     0.014 A 
ATOM     33  C   UNL A   1      41.302  26.901  27.578  1.00  0.00     0.014 A 
ATOM     34  C   UNL A   1      39.401  26.544  29.593  1.00  0.00     0.010 A 
ATOM     35  C   UNL A   1      41.216  27.819  28.618  1.00  0.00     0.010 A 
ATOM     36  C   UNL A   1      40.259  27.656  29.630  1.00  0.00    -0.014 A 
BRANCH  36  37
ATOM     37  C   UNL A   1      40.173  28.663  30.714  1.00  0.00     0.031 A 
ATOM     38  C   UNL A   1      41.067  28.551  31.917  1.00  0.00     0.074 A 
ATOM     39  C   UNL A   1      39.239  29.633  30.644  1.00  0.00     0.049 A 
ATOM     40  N   UNL A   1      41.109  29.300  32.988  1.00  0.00    -0.248 NA
ATOM     41  C   UNL A   1      42.020  27.430  31.931  1.00  0.00     0.031 C 
ATOM     42  C   UNL A   1      38.289  29.812  29.545  1.00  0.00     0.029 A 
ATOM     43  N   UNL A   1      38.935  30.645  31.516  1.00  0.00    -0.354 N 
ATOM     44  C   UNL A   1      42.076  28.732  33.810  1.00  0.00     0.074 A 
ATOM     45  C   UNL A   1      42.551  27.541  33.139  1.00  0.00     0.031 C 
ATOM     46  C   UNL A   1      37.535  30.895  29.788  1.00  0.00     0.029 A 
ATOM     47  C   UNL A   1      37.917  31.460  31.079  1.00  0.00     0.049 A 
ATOM     48  H   UNL A   1      39.400  30.777  32.373  1.00  0.00     0.167 HD
ATOM     49  C   UNL A   1      42.542  29.175  35.002  1.00  0.00     0.037 A 
ATOM     50  C   UNL A   1      37.356  32.540  31.655  1.00  0.00     0.037 A 
ATOM     51  C   UNL A   1      42.064  30.369  35.651  1.00  0.00     0.049 A 
ATOM     52  C   UNL A   1      37.870  33.002  32.991  1.00  0.00     0.074 A 
ATOM     53  C   UNL A   1      42.508  30.946  36.827  1.00  0.00     0.029 A 
ATOM     54  N   UNL A   1      41.023  31.161  35.184  1.00  0.00    -0.354 N 
ATOM     55  N   UNL A   1      38.837  32.498  33.721  1.00  0.00    -0.248 NA
ATOM     56  C   UNL A   1      37.217  34.177  33.582  1.00  0.00     0.031 C 
ATOM     57  C   UNL A   1      41.696  32.052  37.103  1.00  0.00     0.029 A 
ATOM     58  C   UNL A   1      40.786  32.202  36.068  1.00  0.00     0.049 A 
ATOM     59  H   UNL A   1      40.526  31.006  34.348  1.00  0.00     0.167 HD
ATOM     60  C   UNL A   1      38.931  33.315  34.843  1.00  0.00     0.074 A 
ATOM     61  C   UNL A   1      37.925  34.346  34.690  1.00  0.00     0.031 C 
ATOM     62  C   UNL A   1      39.775  33.221  35.901  1.00  0.00     0.037 A 
BRANCH  49  63
ATOM     63  C   UNL A   1      43.601  28.348  35.682  1.00  0.00     0.058 A 
ATOM     64  C   UNL A   1      43.280  27.348  36.617  1.00  0.00     0.135 A 
ATOM     65  C   UNL A   1      44.961  28.568  35.408  1.00  0.00     0.135 A 
ATOM     66  F   UNL A   1      41.997  27.099  36.928  1.00  0.00    -0.206 F 
ATOM     67  C   UNL A   1      44.266  26.641  37.297  1.00  0.00     0.059 A 
ATOM     68  C   UNL A   1      45.964  27.847  36.051  1.00  0.00     0.059 A 
ATOM     69  F   UNL A   1      45.331  29.505  34.521  1.00  0.00    -0.206 F 
ATOM     70  C   UNL A   1      45.607  26.904  37.014  1.00  0.00     0.060 A 
BRANCH  70  71
ATOM     71  S   UNL A   1      46.875  26.012  37.937  1.00  0.00     0.124 S 
ATOM     72  O   UNL A   1      46.136  25.614  39.133  1.00  0.00    -0.237 OA
ATOM     73  O   UNL A   1      47.227  24.931  37.021  1.00  0.00    -0.237 OA
ATOM     74  O   UNL A   1      47.913  27.016  38.148  1.00  0.00    -0.744 OA
ENDBRANCH  70  71
ENDBRANCH  49  63
BRANCH  50  75
ATOM     75  C   UNL A   1      36.286  33.285  30.940  1.00  0.00     0.058 A 
ATOM     76  C   UNL A   1      34.964  33.260  31.407  1.00  0.00     0.135 A 
ATOM     77  C   UNL A   1      36.567  34.075  29.813  1.00  0.00     0.135 A 
ATOM     78  F   UNL A   1      34.646  32.515  32.476  1.00  0.00    -0.206 F 
ATOM     79  C   UNL A   1      33.957  33.990  30.786  1.00  0.00     0.059 A 
ATOM     80  C   UNL A   1      35.581  34.833  29.189  1.00  0.00     0.059 A 
ATOM     81  F   UNL A   1      37.819  34.146  29.336  1.00  0.00    -0.206 F 
ATOM     82  C   UNL A   1      34.277  34.782  29.682  1.00  0.00     0.060 A 
BRANCH  82  83
ATOM     83  S   UNL A   1      32.975  35.785  28.934  1.00  0.00     0.124 S 
ATOM     84  O   UNL A   1      33.748  36.840  28.290  1.00  0.00    -0.237 OA
ATOM     85  O   UNL A   1      32.331  34.828  28.041  1.00  0.00    -0.237 OA
ATOM     86  O   UNL A   1      32.171  36.200  30.080  1.00  0.00    -0.744 OA
ENDBRANCH  82  83
ENDBRANCH  50  75
BRANCH  62  87
ATOM     87  C   UNL A   1      39.670  34.278  36.966  1.00  0.00     0.058 A 
ATOM     88  C   UNL A   1      38.942  34.069  38.148  1.00  0.00     0.135 A 
ATOM     89  C   UNL A   1      40.355  35.496  36.824  1.00  0.00     0.135 A 
ATOM     90  F   UNL A   1      38.262  32.926  38.329  1.00  0.00    -0.206 F 
ATOM     91  C   UNL A   1      38.879  35.039  39.143  1.00  0.00     0.059 A 
ATOM     92  C   UNL A   1      40.332  36.468  37.821  1.00  0.00     0.059 A 
ATOM     93  F   UNL A   1      41.074  35.745  35.719  1.00  0.00    -0.206 F 
ATOM     94  C   UNL A   1      39.582  36.234  38.972  1.00  0.00     0.060 A 
BRANCH  94  95
ATOM     95  S   UNL A   1      39.525  37.466  40.290  1.00  0.00     0.124 S 
ATOM     96  O   UNL A   1      38.707  38.511  39.681  1.00  0.00    -0.237 OA
ATOM     97  O   UNL A   1      38.899  36.725  41.381  1.00  0.00    -0.237 OA
ATOM     98  O   UNL A   1      40.929  37.808  40.496  1.00  0.00    -0.744 OA
ENDBRANCH  94  95
ENDBRANCH  62  87
ENDBRANCH  36  37
ENDBRANCH  28  31
ENDBRANCH  26  27
ENDBRANCH  25  26
ENDBRANCH   1  25
TORSDOF 18
ENDMDL
