MODEL 1
REMARK VINA RESULT:     -10.7      0.000      0.000
REMARK SMILES CC[C@@H](Oc1ccccc1)C(=O)NCCCCCCNC(=O)c1ccc(-c2c3nc(c(-c4c(F)cc(S(=O)(=O)[O-])cc4F)c4ccc([nH]4)c(-c4c(F)cc(S(=O)(=O)[O-])cc4F)c4nc(c(-c5c(F)cc(S(=O)(=O)[O-])cc5F)c5ccc2[nH]5)C=C4)C=C3)cc1
REMARK SMILES IDX 17 1 16 2 15 3 14 4 13 5 11 6 12 7 3 9 2 10 1 11 4 12 5 13
REMARK SMILES IDX 6 14 10 15 7 16 9 17 8 18 18 19 19 20 20 21 21 22 22 24
REMARK SMILES IDX 23 25 24 26 88 27 25 28 87 29 26 30 27 31 28 32 81 33 29 34
REMARK SMILES IDX 86 35 80 36 82 37 30 38 85 39 79 40 78 41 31 43 65 44 44 45
REMARK SMILES IDX 64 46 45 47 48 48 63 49 83 50 46 51 47 52 62 54 84 55 49 56
REMARK SMILES IDX 32 57 33 58 42 59 34 60 35 61 41 62 43 63 36 64 37 65 38 66
REMARK SMILES IDX 39 67 40 68 66 69 67 70 76 71 68 72 69 73 75 74 77 75 70 76
REMARK SMILES IDX 71 77 72 78 73 79 74 80 50 81 51 82 60 83 52 84 53 85 59 86
REMARK SMILES IDX 61 87 54 88 55 89 56 90 57 91 58 92
REMARK H PARENT 13 8 20 23 82 42 48 53
REMARK Flexibility Score: inf
ROOT
ATOM      1  C   UNL A   1      37.094  23.257  24.455  1.00  0.00     0.002 C 
ENDROOT
BRANCH   1   2
ATOM      2  C   UNL A   1      35.585  23.424  24.242  1.00  0.00     0.002 C 
BRANCH   2   3
ATOM      3  C   UNL A   1      34.903  24.424  25.176  1.00  0.00     0.021 C 
BRANCH   3   4
ATOM      4  C   UNL A   1      33.657  25.083  24.592  1.00  0.00     0.116 C 
BRANCH   4   5
ATOM      5  N   UNL A   1      33.783  25.323  23.163  1.00  0.00    -0.353 N 
ATOM      6  C   UNL A   1      33.360  26.401  22.428  1.00  0.00     0.261 C 
ATOM      7  O   UNL A   1      33.610  26.418  21.219  1.00  0.00    -0.271 OA
ATOM      8  H   UNL A   1      34.237  24.614  22.652  1.00  0.00     0.163 HD
BRANCH   6   9
ATOM      9  C   UNL A   1      32.528  27.517  23.088  1.00  0.00     0.261 C 
BRANCH   9  10
ATOM     10  C   UNL A   1      33.504  28.609  23.571  1.00  0.00     0.052 C 
ATOM     11  C   UNL A   1      33.315  28.984  25.035  1.00  0.00     0.008 C 
ENDBRANCH   9  10
BRANCH   9  12
ATOM     12  O   UNL A   1      31.599  27.926  22.074  1.00  0.00    -0.481 OA
BRANCH  12  13
ATOM     13  C   UNL A   1      30.366  28.293  22.511  1.00  0.00     0.120 A 
ATOM     14  C   UNL A   1      29.585  27.363  23.190  1.00  0.00     0.046 A 
ATOM     15  C   UNL A   1      29.820  29.504  22.093  1.00  0.00     0.046 A 
ATOM     16  C   UNL A   1      28.260  27.673  23.500  1.00  0.00     0.004 A 
ATOM     17  C   UNL A   1      28.505  29.823  22.421  1.00  0.00     0.004 A 
ATOM     18  C   UNL A   1      27.724  28.906  23.125  1.00  0.00     0.000 A 
ENDBRANCH  12  13
ENDBRANCH   9  12
ENDBRANCH   6   9
ENDBRANCH   4   5
ENDBRANCH   3   4
ENDBRANCH   2   3
ENDBRANCH   1   2
BRANCH   1  19
ATOM     19  C   UNL A   1      37.552  23.173  25.915  1.00  0.00     0.021 C 
BRANCH  19  20
ATOM     20  C   UNL A   1      38.363  24.367  26.410  1.00  0.00     0.116 C 
BRANCH  20  21
ATOM     21  N   UNL A   1      39.744  24.317  25.960  1.00  0.00    -0.352 N 
ATOM     22  C   UNL A   1      40.821  25.073  26.348  1.00  0.00     0.251 C 
ATOM     23  H   UNL A   1      39.934  23.639  25.273  1.00  0.00     0.163 HD
ATOM     24  O   UNL A   1      41.869  25.001  25.712  1.00  0.00    -0.269 OA
BRANCH  22  25
ATOM     25  C   UNL A   1      40.723  25.983  27.512  1.00  0.00     0.039 A 
ATOM     26  C   UNL A   1      41.617  27.055  27.600  1.00  0.00     0.014 A 
ATOM     27  C   UNL A   1      39.787  25.770  28.528  1.00  0.00     0.014 A 
ATOM     28  C   UNL A   1      41.538  27.939  28.679  1.00  0.00     0.010 A 
ATOM     29  C   UNL A   1      39.667  26.690  29.570  1.00  0.00     0.010 A 
ATOM     30  C   UNL A   1      40.544  27.781  29.659  1.00  0.00    -0.014 A 
BRANCH  30  31
ATOM     31  C   UNL A   1      40.418  28.753  30.777  1.00  0.00     0.031 A 
ATOM     32  C   UNL A   1      41.280  28.623  32.004  1.00  0.00     0.074 A 
ATOM     33  C   UNL A   1      39.497  29.736  30.701  1.00  0.00     0.049 A 
ATOM     34  N   UNL A   1      41.288  29.355  33.089  1.00  0.00    -0.248 NA
ATOM     35  C   UNL A   1      42.244  27.511  32.025  1.00  0.00     0.031 C 
ATOM     36  C   UNL A   1      38.564  29.935  29.589  1.00  0.00     0.029 A 
ATOM     37  N   UNL A   1      39.189  30.746  31.576  1.00  0.00    -0.354 N 
ATOM     38  C   UNL A   1      42.257  28.798  33.917  1.00  0.00     0.074 A 
ATOM     39  C   UNL A   1      42.770  27.630  33.236  1.00  0.00     0.031 C 
ATOM     40  C   UNL A   1      37.801  31.011  29.842  1.00  0.00     0.029 A 
ATOM     41  C   UNL A   1      38.169  31.560  31.142  1.00  0.00     0.049 A 
ATOM     42  H   UNL A   1      39.655  30.877  32.434  1.00  0.00     0.167 HD
ATOM     43  C   UNL A   1      42.698  29.237  35.121  1.00  0.00     0.037 A 
ATOM     44  C   UNL A   1      37.590  32.627  31.729  1.00  0.00     0.037 A 
ATOM     45  C   UNL A   1      42.194  30.408  35.790  1.00  0.00     0.049 A 
ATOM     46  C   UNL A   1      38.103  33.098  33.064  1.00  0.00     0.074 A 
ATOM     47  C   UNL A   1      42.593  30.949  37.001  1.00  0.00     0.029 A 
ATOM     48  N   UNL A   1      41.183  31.225  35.304  1.00  0.00    -0.354 N 
ATOM     49  N   UNL A   1      39.053  32.586  33.808  1.00  0.00    -0.248 NA
ATOM     50  C   UNL A   1      37.473  34.298  33.632  1.00  0.00     0.031 C 
ATOM     51  C   UNL A   1      41.803  32.074  37.260  1.00  0.00     0.029 A 
ATOM     52  C   UNL A   1      40.942  32.261  36.192  1.00  0.00     0.049 A 
ATOM     53  H   UNL A   1      40.708  31.090  34.453  1.00  0.00     0.167 HD
ATOM     54  C   UNL A   1      39.152  33.415  34.921  1.00  0.00     0.074 A 
ATOM     55  C   UNL A   1      38.177  34.470  34.742  1.00  0.00     0.031 C 
ATOM     56  C   UNL A   1      39.972  33.309  35.995  1.00  0.00     0.037 A 
BRANCH  43  57
ATOM     57  C   UNL A   1      43.801  28.458  35.783  1.00  0.00     0.058 A 
ATOM     58  C   UNL A   1      45.153  28.749  35.532  1.00  0.00     0.135 A 
ATOM     59  C   UNL A   1      43.513  27.441  36.707  1.00  0.00     0.135 A 
ATOM     60  F   UNL A   1      45.486  29.701  34.646  1.00  0.00    -0.206 F 
ATOM     61  C   UNL A   1      46.177  28.045  36.155  1.00  0.00     0.059 A 
ATOM     62  C   UNL A   1      44.523  26.741  37.362  1.00  0.00     0.059 A 
ATOM     63  F   UNL A   1      42.239  27.120  36.984  1.00  0.00    -0.206 F 
ATOM     64  C   UNL A   1      45.853  27.042  37.069  1.00  0.00     0.060 A 
BRANCH  64  65
ATOM     65  S   UNL A   1      47.196  26.147  37.877  1.00  0.00     0.124 S 
ATOM     66  O   UNL A   1      46.889  26.372  39.286  1.00  0.00    -0.237 OA
ATOM     67  O   UNL A   1      46.999  24.784  37.395  1.00  0.00    -0.237 OA
ATOM     68  O   UNL A   1      48.396  26.815  37.383  1.00  0.00    -0.744 OA
ENDBRANCH  64  65
ENDBRANCH  43  57
BRANCH  44  69
ATOM     69  C   UNL A   1      36.469  33.334  31.053  1.00  0.00     0.058 A 
ATOM     70  C   UNL A   1      36.690  34.121  29.913  1.00  0.00     0.135 A 
ATOM     71  C   UNL A   1      35.156  33.240  31.539  1.00  0.00     0.135 A 
ATOM     72  F   UNL A   1      37.928  34.243  29.412  1.00  0.00    -0.206 F 
ATOM     73  C   UNL A   1      35.654  34.817  29.296  1.00  0.00     0.059 A 
ATOM     74  C   UNL A   1      34.100  33.904  30.924  1.00  0.00     0.059 A 
ATOM     75  F   UNL A   1      34.889  32.484  32.615  1.00  0.00    -0.206 F 
ATOM     76  C   UNL A   1      34.362  34.703  29.812  1.00  0.00     0.060 A 
BRANCH  76  77
ATOM     77  S   UNL A   1      33.019  35.589  28.993  1.00  0.00     0.124 S 
ATOM     78  O   UNL A   1      32.244  36.066  30.132  1.00  0.00    -0.237 OA
ATOM     79  O   UNL A   1      33.738  36.609  28.236  1.00  0.00    -0.237 OA
ATOM     80  O   UNL A   1      32.382  34.553  28.184  1.00  0.00    -0.744 OA
ENDBRANCH  76  77
ENDBRANCH  44  69
BRANCH  56  81
ATOM     81  C   UNL A   1      39.871  34.382  37.044  1.00  0.00     0.058 A 
ATOM     82  C   UNL A   1      40.571  35.594  36.929  1.00  0.00     0.135 A 
ATOM     83  C   UNL A   1      39.041  34.206  38.163  1.00  0.00     0.135 A 
ATOM     84  F   UNL A   1      41.381  35.810  35.881  1.00  0.00    -0.206 F 
ATOM     85  C   UNL A   1      40.475  36.581  37.904  1.00  0.00     0.059 A 
ATOM     86  C   UNL A   1      38.910  35.192  39.136  1.00  0.00     0.059 A 
ATOM     87  F   UNL A   1      38.342  33.071  38.315  1.00  0.00    -0.206 F 
ATOM     88  C   UNL A   1      39.644  36.370  39.006  1.00  0.00     0.060 A 
BRANCH  88  89
ATOM     89  S   UNL A   1      39.516  37.665  40.256  1.00  0.00     0.124 S 
ATOM     90  O   UNL A   1      38.903  36.943  41.366  1.00  0.00    -0.237 OA
ATOM     91  O   UNL A   1      40.910  38.056  40.448  1.00  0.00    -0.237 OA
ATOM     92  O   UNL A   1      38.672  38.672  39.618  1.00  0.00    -0.744 OA
ENDBRANCH  88  89
ENDBRANCH  56  81
ENDBRANCH  30  31
ENDBRANCH  22  25
ENDBRANCH  20  21
ENDBRANCH  19  20
ENDBRANCH   1  19
TORSDOF 19
ENDMDL
MODEL 2
REMARK VINA RESULT:     -10.7      1.071      2.414
REMARK SMILES CC[C@@H](Oc1ccccc1)C(=O)NCCCCCCNC(=O)c1ccc(-c2c3nc(c(-c4c(F)cc(S(=O)(=O)[O-])cc4F)c4ccc([nH]4)c(-c4c(F)cc(S(=O)(=O)[O-])cc4F)c4nc(c(-c5c(F)cc(S(=O)(=O)[O-])cc5F)c5ccc2[nH]5)C=C4)C=C3)cc1
REMARK SMILES IDX 17 1 16 2 15 3 14 4 13 5 11 6 12 7 3 9 2 10 1 11 4 12 5 13
REMARK SMILES IDX 6 14 10 15 7 16 9 17 8 18 18 19 19 20 20 21 21 22 22 24
REMARK SMILES IDX 23 25 24 26 88 27 25 28 87 29 26 30 27 31 28 32 81 33 29 34
REMARK SMILES IDX 86 35 80 36 82 37 30 38 85 39 79 40 78 41 31 43 65 44 44 45
REMARK SMILES IDX 64 46 45 47 48 48 63 49 83 50 46 51 47 52 62 54 84 55 49 56
REMARK SMILES IDX 32 57 33 58 42 59 34 60 35 61 41 62 43 63 36 64 37 65 38 66
REMARK SMILES IDX 39 67 40 68 66 69 67 70 76 71 68 72 69 73 75 74 77 75 70 76
REMARK SMILES IDX 71 77 72 78 73 79 74 80 50 81 51 82 60 83 52 84 53 85 59 86
REMARK SMILES IDX 61 87 54 88 55 89 56 90 57 91 58 92
REMARK H PARENT 13 8 20 23 82 42 48 53
REMARK Flexibility Score: inf
ROOT
ATOM      1  C   UNL A   1      35.653  23.148  25.919  1.00  0.00     0.002 C 
ENDROOT
BRANCH   1   2
ATOM      2  C   UNL A   1      35.299  24.475  25.239  1.00  0.00     0.002 C 
BRANCH   2   3
ATOM      3  C   UNL A   1      34.350  25.378  26.028  1.00  0.00     0.021 C 
BRANCH   3   4
ATOM      4  C   UNL A   1      33.794  26.554  25.232  1.00  0.00     0.116 C 
BRANCH   4   5
ATOM      5  N   UNL A   1      34.063  26.429  23.808  1.00  0.00    -0.353 N 
ATOM      6  C   UNL A   1      33.183  26.214  22.779  1.00  0.00     0.261 C 
ATOM      7  O   UNL A   1      33.627  26.181  21.628  1.00  0.00    -0.271 OA
ATOM      8  H   UNL A   1      35.009  26.512  23.547  1.00  0.00     0.163 HD
BRANCH   6   9
ATOM      9  C   UNL A   1      31.694  25.943  23.069  1.00  0.00     0.261 C 
BRANCH   9  10
ATOM     10  C   UNL A   1      30.868  27.015  22.330  1.00  0.00     0.052 C 
ATOM     11  C   UNL A   1      30.226  28.033  23.264  1.00  0.00     0.008 C 
ENDBRANCH   9  10
BRANCH   9  12
ATOM     12  O   UNL A   1      31.479  24.593  22.635  1.00  0.00    -0.481 OA
BRANCH  12  13
ATOM     13  C   UNL A   1      31.862  23.621  23.504  1.00  0.00     0.120 A 
ATOM     14  C   UNL A   1      32.625  22.556  23.035  1.00  0.00     0.046 A 
ATOM     15  C   UNL A   1      31.314  23.588  24.784  1.00  0.00     0.046 A 
ATOM     16  C   UNL A   1      32.886  21.474  23.876  1.00  0.00     0.004 A 
ATOM     17  C   UNL A   1      31.592  22.519  25.631  1.00  0.00     0.004 A 
ATOM     18  C   UNL A   1      32.379  21.461  25.177  1.00  0.00     0.000 A 
ENDBRANCH  12  13
ENDBRANCH   9  12
ENDBRANCH   6   9
ENDBRANCH   4   5
ENDBRANCH   3   4
ENDBRANCH   2   3
ENDBRANCH   1   2
BRANCH   1  19
ATOM     19  C   UNL A   1      37.149  22.865  26.084  1.00  0.00     0.021 C 
BRANCH  19  20
ATOM     20  C   UNL A   1      38.006  24.082  26.423  1.00  0.00     0.116 C 
BRANCH  20  21
ATOM     21  N   UNL A   1      39.408  23.872  26.102  1.00  0.00    -0.352 N 
ATOM     22  C   UNL A   1      40.514  24.583  26.494  1.00  0.00     0.251 C 
ATOM     23  H   UNL A   1      39.591  23.104  25.515  1.00  0.00     0.163 HD
ATOM     24  O   UNL A   1      41.597  24.356  25.963  1.00  0.00    -0.269 OA
BRANCH  22  25
ATOM     25  C   UNL A   1      40.406  25.631  27.535  1.00  0.00     0.039 A 
ATOM     26  C   UNL A   1      39.479  25.456  28.566  1.00  0.00     0.014 A 
ATOM     27  C   UNL A   1      41.182  26.793  27.484  1.00  0.00     0.014 A 
ATOM     28  C   UNL A   1      39.366  26.420  29.571  1.00  0.00     0.010 A 
ATOM     29  C   UNL A   1      41.115  27.723  28.522  1.00  0.00     0.010 A 
ATOM     30  C   UNL A   1      40.203  27.549  29.574  1.00  0.00    -0.014 A 
BRANCH  30  31
ATOM     31  C   UNL A   1      40.129  28.548  30.672  1.00  0.00     0.031 A 
ATOM     32  C   UNL A   1      41.001  28.410  31.890  1.00  0.00     0.074 A 
ATOM     33  C   UNL A   1      39.247  29.564  30.586  1.00  0.00     0.049 A 
ATOM     34  N   UNL A   1      41.052  29.164  32.959  1.00  0.00    -0.248 NA
ATOM     35  C   UNL A   1      41.922  27.262  31.924  1.00  0.00     0.031 C 
ATOM     36  C   UNL A   1      38.308  29.777  29.481  1.00  0.00     0.029 A 
ATOM     37  N   UNL A   1      38.990  30.605  31.442  1.00  0.00    -0.354 N 
ATOM     38  C   UNL A   1      42.009  28.587  33.787  1.00  0.00     0.074 A 
ATOM     39  C   UNL A   1      42.468  27.385  33.125  1.00  0.00     0.031 C 
ATOM     40  C   UNL A   1      37.591  30.887  29.720  1.00  0.00     0.029 A 
ATOM     41  C   UNL A   1      37.996  31.449  31.004  1.00  0.00     0.049 A 
ATOM     42  H   UNL A   1      39.471  30.735  32.291  1.00  0.00     0.167 HD
ATOM     43  C   UNL A   1      42.483  29.034  34.975  1.00  0.00     0.037 A 
ATOM     44  C   UNL A   1      37.468  32.549  31.575  1.00  0.00     0.037 A 
ATOM     45  C   UNL A   1      42.034  30.238  35.625  1.00  0.00     0.049 A 
ATOM     46  C   UNL A   1      38.015  33.028  32.893  1.00  0.00     0.074 A 
ATOM     47  C   UNL A   1      42.470  30.788  36.819  1.00  0.00     0.029 A 
ATOM     48  N   UNL A   1      41.049  31.083  35.134  1.00  0.00    -0.354 N 
ATOM     49  N   UNL A   1      38.955  32.495  33.636  1.00  0.00    -0.248 NA
ATOM     50  C   UNL A   1      37.441  34.263  33.442  1.00  0.00     0.031 C 
ATOM     51  C   UNL A   1      41.728  31.948  37.064  1.00  0.00     0.029 A 
ATOM     52  C   UNL A   1      40.861  32.146  36.003  1.00  0.00     0.049 A 
ATOM     53  H   UNL A   1      40.558  30.949  34.292  1.00  0.00     0.167 HD
ATOM     54  C   UNL A   1      39.101  33.342  34.729  1.00  0.00     0.074 A 
ATOM     55  C   UNL A   1      38.166  34.432  34.539  1.00  0.00     0.031 C 
ATOM     56  C   UNL A   1      39.930  33.227  35.795  1.00  0.00     0.037 A 
BRANCH  43  57
ATOM     57  C   UNL A   1      43.564  28.226  35.641  1.00  0.00     0.058 A 
ATOM     58  C   UNL A   1      43.255  27.241  36.594  1.00  0.00     0.135 A 
ATOM     59  C   UNL A   1      44.913  28.401  35.296  1.00  0.00     0.135 A 
ATOM     60  F   UNL A   1      41.983  27.041  36.973  1.00  0.00    -0.206 F 
ATOM     61  C   UNL A   1      44.247  26.477  37.199  1.00  0.00     0.059 A 
ATOM     62  C   UNL A   1      45.920  27.629  35.870  1.00  0.00     0.059 A 
ATOM     63  F   UNL A   1      45.265  29.328  34.391  1.00  0.00    -0.206 F 
ATOM     64  C   UNL A   1      45.578  26.678  36.830  1.00  0.00     0.060 A 
BRANCH  64  65
ATOM     65  S   UNL A   1      46.851  25.669  37.617  1.00  0.00     0.124 S 
ATOM     66  O   UNL A   1      47.857  25.596  36.561  1.00  0.00    -0.237 OA
ATOM     67  O   UNL A   1      47.212  26.470  38.782  1.00  0.00    -0.237 OA
ATOM     68  O   UNL A   1      46.160  24.417  37.911  1.00  0.00    -0.744 OA
ENDBRANCH  64  65
ENDBRANCH  43  57
BRANCH  44  69
ATOM     69  C   UNL A   1      36.367  33.285  30.897  1.00  0.00     0.058 A 
ATOM     70  C   UNL A   1      36.606  34.054  29.748  1.00  0.00     0.135 A 
ATOM     71  C   UNL A   1      35.054  33.239  31.391  1.00  0.00     0.135 A 
ATOM     72  F   UNL A   1      37.845  34.131  29.240  1.00  0.00    -0.206 F 
ATOM     73  C   UNL A   1      35.590  34.777  29.130  1.00  0.00     0.059 A 
ATOM     74  C   UNL A   1      34.016  33.930  30.774  1.00  0.00     0.059 A 
ATOM     75  F   UNL A   1      34.768  32.502  32.475  1.00  0.00    -0.206 F 
ATOM     76  C   UNL A   1      34.298  34.710  29.653  1.00  0.00     0.060 A 
BRANCH  76  77
ATOM     77  S   UNL A   1      32.979  35.630  28.832  1.00  0.00     0.124 S 
ATOM     78  O   UNL A   1      33.734  36.667  28.138  1.00  0.00    -0.237 OA
ATOM     79  O   UNL A   1      32.370  34.609  27.986  1.00  0.00    -0.237 OA
ATOM     80  O   UNL A   1      32.150  36.088  29.943  1.00  0.00    -0.744 OA
ENDBRANCH  76  77
ENDBRANCH  44  69
BRANCH  56  81
ATOM     81  C   UNL A   1      39.885  34.325  36.822  1.00  0.00     0.058 A 
ATOM     82  C   UNL A   1      40.714  35.454  36.731  1.00  0.00     0.135 A 
ATOM     83  C   UNL A   1      38.980  34.260  37.893  1.00  0.00     0.135 A 
ATOM     84  F   UNL A   1      41.600  35.563  35.729  1.00  0.00    -0.206 F 
ATOM     85  C   UNL A   1      40.669  36.465  37.686  1.00  0.00     0.059 A 
ATOM     86  C   UNL A   1      38.899  35.273  38.844  1.00  0.00     0.059 A 
ATOM     87  F   UNL A   1      38.156  33.207  38.019  1.00  0.00    -0.206 F 
ATOM     88  C   UNL A   1      39.760  36.365  38.740  1.00  0.00     0.060 A 
BRANCH  88  89
ATOM     89  S   UNL A   1      39.700  37.690  39.963  1.00  0.00     0.124 S 
ATOM     90  O   UNL A   1      39.675  36.937  41.212  1.00  0.00    -0.237 OA
ATOM     91  O   UNL A   1      40.934  38.424  39.692  1.00  0.00    -0.237 OA
ATOM     92  O   UNL A   1      38.470  38.403  39.632  1.00  0.00    -0.744 OA
ENDBRANCH  88  89
ENDBRANCH  56  81
ENDBRANCH  30  31
ENDBRANCH  22  25
ENDBRANCH  20  21
ENDBRANCH  19  20
ENDBRANCH   1  19
TORSDOF 19
ENDMDL
MODEL 3
REMARK VINA RESULT:     -10.5      2.590      3.929
REMARK SMILES CC[C@@H](Oc1ccccc1)C(=O)NCCCCCCNC(=O)c1ccc(-c2c3nc(c(-c4c(F)cc(S(=O)(=O)[O-])cc4F)c4ccc([nH]4)c(-c4c(F)cc(S(=O)(=O)[O-])cc4F)c4nc(c(-c5c(F)cc(S(=O)(=O)[O-])cc5F)c5ccc2[nH]5)C=C4)C=C3)cc1
REMARK SMILES IDX 17 1 16 2 15 3 14 4 13 5 11 6 12 7 3 9 2 10 1 11 4 12 5 13
REMARK SMILES IDX 6 14 10 15 7 16 9 17 8 18 18 19 19 20 20 21 21 22 22 24
REMARK SMILES IDX 23 25 24 26 88 27 25 28 87 29 26 30 27 31 28 32 81 33 29 34
REMARK SMILES IDX 86 35 80 36 82 37 30 38 85 39 79 40 78 41 31 43 65 44 44 45
REMARK SMILES IDX 64 46 45 47 48 48 63 49 83 50 46 51 47 52 62 54 84 55 49 56
REMARK SMILES IDX 32 57 33 58 42 59 34 60 35 61 41 62 43 63 36 64 37 65 38 66
REMARK SMILES IDX 39 67 40 68 66 69 67 70 76 71 68 72 69 73 75 74 77 75 70 76
REMARK SMILES IDX 71 77 72 78 73 79 74 80 50 81 51 82 60 83 52 84 53 85 59 86
REMARK SMILES IDX 61 87 54 88 55 89 56 90 57 91 58 92
REMARK H PARENT 13 8 20 23 82 42 48 53
REMARK Flexibility Score: inf
ROOT
ATOM      1  C   UNL A   1      38.754  21.601  25.681  1.00  0.00     0.002 C 
ENDROOT
BRANCH   1   2
ATOM      2  C   UNL A   1      37.332  21.218  25.257  1.00  0.00     0.002 C 
BRANCH   2   3
ATOM      3  C   UNL A   1      36.683  22.153  24.235  1.00  0.00     0.021 C 
BRANCH   3   4
ATOM      4  C   UNL A   1      35.368  22.774  24.696  1.00  0.00     0.116 C 
BRANCH   4   5
ATOM      5  N   UNL A   1      34.956  22.280  26.000  1.00  0.00    -0.353 N 
ATOM      6  C   UNL A   1      33.936  21.420  26.315  1.00  0.00     0.261 C 
ATOM      7  O   UNL A   1      33.786  21.098  27.497  1.00  0.00    -0.271 OA
ATOM      8  H   UNL A   1      35.484  22.608  26.764  1.00  0.00     0.163 HD
BRANCH   6   9
ATOM      9  C   UNL A   1      32.961  20.935  25.225  1.00  0.00     0.261 C 
BRANCH   9  10
ATOM     10  C   UNL A   1      32.338  22.180  24.562  1.00  0.00     0.052 C 
ATOM     11  C   UNL A   1      31.203  22.792  25.371  1.00  0.00     0.008 C 
ENDBRANCH   9  10
BRANCH   9  12
ATOM     12  O   UNL A   1      33.760  20.113  24.362  1.00  0.00    -0.481 OA
BRANCH  12  13
ATOM     13  C   UNL A   1      33.708  18.776  24.600  1.00  0.00     0.120 A 
ATOM     14  C   UNL A   1      32.593  18.245  25.241  1.00  0.00     0.046 A 
ATOM     15  C   UNL A   1      34.845  17.997  24.399  1.00  0.00     0.046 A 
ATOM     16  C   UNL A   1      32.598  16.907  25.635  1.00  0.00     0.004 A 
ATOM     17  C   UNL A   1      34.843  16.655  24.772  1.00  0.00     0.004 A 
ATOM     18  C   UNL A   1      33.718  16.110  25.392  1.00  0.00     0.000 A 
ENDBRANCH  12  13
ENDBRANCH   9  12
ENDBRANCH   6   9
ENDBRANCH   4   5
ENDBRANCH   3   4
ENDBRANCH   2   3
ENDBRANCH   1   2
BRANCH   1  19
ATOM     19  C   UNL A   1      38.877  22.884  26.507  1.00  0.00     0.021 C 
BRANCH  19  20
ATOM     20  C   UNL A   1      40.280  23.194  27.021  1.00  0.00     0.116 C 
BRANCH  20  21
ATOM     21  N   UNL A   1      41.083  23.897  26.034  1.00  0.00    -0.352 N 
ATOM     22  C   UNL A   1      41.508  25.201  26.016  1.00  0.00     0.251 C 
ATOM     23  H   UNL A   1      41.364  23.355  25.262  1.00  0.00     0.163 HD
ATOM     24  O   UNL A   1      42.023  25.654  24.998  1.00  0.00    -0.269 OA
BRANCH  22  25
ATOM     25  C   UNL A   1      41.333  26.067  27.205  1.00  0.00     0.039 A 
ATOM     26  C   UNL A   1      42.265  27.083  27.435  1.00  0.00     0.014 A 
ATOM     27  C   UNL A   1      40.284  25.865  28.107  1.00  0.00     0.014 A 
ATOM     28  C   UNL A   1      42.117  27.925  28.540  1.00  0.00     0.010 A 
ATOM     29  C   UNL A   1      40.100  26.747  29.172  1.00  0.00     0.010 A 
ATOM     30  C   UNL A   1      41.018  27.783  29.403  1.00  0.00    -0.014 A 
BRANCH  30  31
ATOM     31  C   UNL A   1      40.822  28.714  30.546  1.00  0.00     0.031 A 
ATOM     32  C   UNL A   1      41.658  28.582  31.790  1.00  0.00     0.074 A 
ATOM     33  C   UNL A   1      39.864  29.659  30.475  1.00  0.00     0.049 A 
ATOM     34  N   UNL A   1      41.609  29.280  32.896  1.00  0.00    -0.248 NA
ATOM     35  C   UNL A   1      42.668  27.511  31.804  1.00  0.00     0.031 C 
ATOM     36  C   UNL A   1      38.950  29.854  29.345  1.00  0.00     0.029 A 
ATOM     37  N   UNL A   1      39.491  30.629  31.370  1.00  0.00    -0.354 N 
ATOM     38  C   UNL A   1      42.579  28.739  33.732  1.00  0.00     0.074 A 
ATOM     39  C   UNL A   1      43.158  27.614  33.031  1.00  0.00     0.031 C 
ATOM     40  C   UNL A   1      38.137  30.889  29.610  1.00  0.00     0.029 A 
ATOM     41  C   UNL A   1      38.448  31.413  30.935  1.00  0.00     0.049 A 
ATOM     42  H   UNL A   1      39.929  30.752  32.244  1.00  0.00     0.167 HD
ATOM     43  C   UNL A   1      42.972  29.159  34.960  1.00  0.00     0.037 A 
ATOM     44  C   UNL A   1      37.811  32.435  31.538  1.00  0.00     0.037 A 
ATOM     45  C   UNL A   1      42.402  30.287  35.650  1.00  0.00     0.049 A 
ATOM     46  C   UNL A   1      38.269  32.886  32.899  1.00  0.00     0.074 A 
ATOM     47  C   UNL A   1      42.747  30.806  36.886  1.00  0.00     0.029 A 
ATOM     48  N   UNL A   1      41.369  31.075  35.162  1.00  0.00    -0.354 N 
ATOM     49  N   UNL A   1      39.222  32.392  33.652  1.00  0.00    -0.248 NA
ATOM     50  C   UNL A   1      37.576  34.041  33.486  1.00  0.00     0.031 C 
ATOM     51  C   UNL A   1      41.904  31.889  37.159  1.00  0.00     0.029 A 
ATOM     52  C   UNL A   1      41.063  32.072  36.074  1.00  0.00     0.049 A 
ATOM     53  H   UNL A   1      40.922  30.946  34.295  1.00  0.00     0.167 HD
ATOM     54  C   UNL A   1      39.258  33.189  34.792  1.00  0.00     0.074 A 
ATOM     55  C   UNL A   1      38.244  34.208  34.618  1.00  0.00     0.031 C 
ATOM     56  C   UNL A   1      40.055  33.085  35.883  1.00  0.00     0.037 A 
BRANCH  43  57
ATOM     57  C   UNL A   1      44.090  28.405  35.627  1.00  0.00     0.058 A 
ATOM     58  C   UNL A   1      45.435  28.722  35.373  1.00  0.00     0.135 A 
ATOM     59  C   UNL A   1      43.822  27.390  36.558  1.00  0.00     0.135 A 
ATOM     60  F   UNL A   1      45.750  29.674  34.481  1.00  0.00    -0.206 F 
ATOM     61  C   UNL A   1      46.474  28.042  36.001  1.00  0.00     0.059 A 
ATOM     62  C   UNL A   1      44.846  26.714  37.218  1.00  0.00     0.059 A 
ATOM     63  F   UNL A   1      42.555  27.046  36.838  1.00  0.00    -0.206 F 
ATOM     64  C   UNL A   1      46.169  27.039  36.922  1.00  0.00     0.060 A 
BRANCH  64  65
ATOM     65  S   UNL A   1      47.530  26.176  37.736  1.00  0.00     0.124 S 
ATOM     66  O   UNL A   1      46.810  25.204  38.553  1.00  0.00    -0.237 OA
ATOM     67  O   UNL A   1      48.274  25.629  36.607  1.00  0.00    -0.237 OA
ATOM     68  O   UNL A   1      48.210  27.235  38.477  1.00  0.00    -0.744 OA
ENDBRANCH  64  65
ENDBRANCH  43  57
BRANCH  44  69
ATOM     69  C   UNL A   1      36.678  33.116  30.854  1.00  0.00     0.058 A 
ATOM     70  C   UNL A   1      36.897  33.981  29.772  1.00  0.00     0.135 A 
ATOM     71  C   UNL A   1      35.354  32.918  31.275  1.00  0.00     0.135 A 
ATOM     72  F   UNL A   1      38.146  34.204  29.335  1.00  0.00    -0.206 F 
ATOM     73  C   UNL A   1      35.848  34.652  29.150  1.00  0.00     0.059 A 
ATOM     74  C   UNL A   1      34.285  33.555  30.653  1.00  0.00     0.059 A 
ATOM     75  F   UNL A   1      35.089  32.084  32.293  1.00  0.00    -0.206 F 
ATOM     76  C   UNL A   1      34.545  34.433  29.601  1.00  0.00     0.060 A 
BRANCH  76  77
ATOM     77  S   UNL A   1      33.185  35.287  28.774  1.00  0.00     0.124 S 
ATOM     78  O   UNL A   1      33.902  36.272  27.973  1.00  0.00    -0.237 OA
ATOM     79  O   UNL A   1      32.545  34.205  28.035  1.00  0.00    -0.237 OA
ATOM     80  O   UNL A   1      32.404  35.824  29.885  1.00  0.00    -0.744 OA
ENDBRANCH  76  77
ENDBRANCH  44  69
BRANCH  56  81
ATOM     81  C   UNL A   1      39.883  34.119  36.961  1.00  0.00     0.058 A 
ATOM     82  C   UNL A   1      40.448  35.400  36.851  1.00  0.00     0.135 A 
ATOM     83  C   UNL A   1      39.117  33.836  38.103  1.00  0.00     0.135 A 
ATOM     84  F   UNL A   1      41.192  35.720  35.781  1.00  0.00    -0.206 F 
ATOM     85  C   UNL A   1      40.287  36.352  37.852  1.00  0.00     0.059 A 
ATOM     86  C   UNL A   1      38.921  34.782  39.104  1.00  0.00     0.059 A 
ATOM     87  F   UNL A   1      38.544  32.631  38.251  1.00  0.00    -0.206 F 
ATOM     88  C   UNL A   1      39.523  36.033  38.977  1.00  0.00     0.060 A 
BRANCH  88  89
ATOM     89  S   UNL A   1      39.309  37.282  40.261  1.00  0.00     0.124 S 
ATOM     90  O   UNL A   1      40.693  37.625  40.571  1.00  0.00    -0.237 OA
ATOM     91  O   UNL A   1      38.540  38.314  39.571  1.00  0.00    -0.237 OA
ATOM     92  O   UNL A   1      38.587  36.569  41.311  1.00  0.00    -0.744 OA
ENDBRANCH  88  89
ENDBRANCH  56  81
ENDBRANCH  30  31
ENDBRANCH  22  25
ENDBRANCH  20  21
ENDBRANCH  19  20
ENDBRANCH   1  19
TORSDOF 19
ENDMDL
