MODEL 1
REMARK VINA RESULT:     -11.7      0.000      0.000
REMARK SMILES CC(C)COc1cccc(C(=O)Nc2ccc(O)c(C(=O)NCCCCCCNC(=O)c3ccc(-c4c5nc(c(-c6c(F)cc(S(=O)(=O)[O-])cc6F)c6ccc([nH]6)c(-c6c(F)cc(S(=O)(=O)[O-])cc6F)c6nc(c(-c7c(F)cc(S(=O)(=O)[O-])cc7F)c7ccc4[nH]7)C=C6)C=C5)cc3)c2)c1
REMARK SMILES IDX 24 1 23 2 22 3 20 4 21 5 19 7 14 8 15 9 98 10 16 11 17 12
REMARK SMILES IDX 13 13 11 14 12 15 10 17 6 18 7 19 99 20 8 21 9 22 5 23 4 24
REMARK SMILES IDX 2 25 1 26 3 27 18 28 25 30 26 31 27 32 28 33 29 34 30 35
REMARK SMILES IDX 31 37 32 38 33 39 97 40 34 41 96 42 35 43 36 44 37 45 90 46
REMARK SMILES IDX 38 47 95 48 89 49 91 50 39 51 94 52 88 53 87 54 40 56 74 57
REMARK SMILES IDX 53 58 73 59 54 60 57 61 72 62 92 63 55 64 56 65 71 67 93 68
REMARK SMILES IDX 58 69 41 70 42 71 51 72 43 73 44 74 50 75 52 76 45 77 46 78
REMARK SMILES IDX 47 79 48 80 49 81 75 82 76 83 85 84 77 85 78 86 84 87 86 88
REMARK SMILES IDX 79 89 80 90 81 91 82 92 83 93 59 94 60 95 69 96 61 97 62 98
REMARK SMILES IDX 68 99 70 100 63 101 64 102 65 103 66 104 67 105
REMARK H PARENT 22 6 13 16 18 29 29 36 91 55 57 66
REMARK Flexibility Score: inf
ROOT
ATOM      1  C   UNL A   1      37.282  23.282  25.682  1.00  0.00     0.021 C 
ENDROOT
BRANCH   1   2
ATOM      2  C   UNL A   1      36.583  21.925  25.680  1.00  0.00     0.116 C 
BRANCH   2   3
ATOM      3  N   UNL A   1      35.476  21.915  26.613  1.00  0.00    -0.352 N 
ATOM      4  C   UNL A   1      34.117  21.888  26.451  1.00  0.00     0.255 C 
ATOM      5  O   UNL A   1      33.431  21.821  27.478  1.00  0.00    -0.269 OA
ATOM      6  H   UNL A   1      35.759  21.931  27.556  1.00  0.00     0.163 HD
BRANCH   4   7
ATOM      7  C   UNL A   1      33.412  21.845  25.135  1.00  0.00     0.083 A 
ATOM      8  C   UNL A   1      33.007  22.655  22.876  1.00  0.00     0.042 A 
ATOM      9  C   UNL A   1      32.250  21.519  22.585  1.00  0.00     0.030 A 
ATOM     10  C   UNL A   1      33.470  22.867  24.181  1.00  0.00     0.043 A 
ATOM     11  C   UNL A   1      32.090  20.532  23.554  1.00  0.00     0.049 A 
ATOM     12  C   UNL A   1      32.695  20.678  24.803  1.00  0.00     0.128 A 
BRANCH   8  13
ATOM     13  N   UNL A   1      33.349  23.511  21.816  1.00  0.00    -0.322 N 
ATOM     14  C   UNL A   1      32.895  24.779  21.473  1.00  0.00     0.255 C 
ATOM     15  O   UNL A   1      33.113  25.175  20.327  1.00  0.00    -0.269 OA
ATOM     16  H   UNL A   1      34.033  23.148  21.208  1.00  0.00     0.170 HD
BRANCH  14  17
ATOM     17  C   UNL A   1      32.301  25.748  22.455  1.00  0.00     0.043 A 
ATOM     18  C   UNL A   1      32.495  27.668  23.963  1.00  0.00     0.120 A 
ATOM     19  C   UNL A   1      31.141  27.597  24.256  1.00  0.00     0.046 A 
ATOM     20  C   UNL A   1      33.045  26.758  23.061  1.00  0.00     0.060 A 
ATOM     21  C   UNL A   1      30.349  26.640  23.613  1.00  0.00     0.005 A 
ATOM     22  C   UNL A   1      30.926  25.718  22.722  1.00  0.00     0.014 A 
BRANCH  18  23
ATOM     23  O   UNL A   1      33.311  28.471  24.710  1.00  0.00    -0.493 OA
BRANCH  23  24
ATOM     24  C   UNL A   1      32.666  29.518  25.462  1.00  0.00     0.232 C 
BRANCH  24  25
ATOM     25  C   UNL A   1      32.899  29.456  26.988  1.00  0.00     0.020 C 
ATOM     26  C   UNL A   1      31.964  28.432  27.645  1.00  0.00     0.011 C 
ATOM     27  C   UNL A   1      34.338  29.092  27.354  1.00  0.00     0.011 C 
ENDBRANCH  24  25
ENDBRANCH  23  24
ENDBRANCH  18  23
ENDBRANCH  14  17
ENDBRANCH   8  13
BRANCH  12  28
ATOM     28  O   UNL A   1      32.569  19.602  25.646  1.00  0.00    -0.507 OA
ATOM     29  H   UNL A   1      32.335  18.763  25.301  1.00  0.00     0.293 HD
ENDBRANCH  12  28
ENDBRANCH   4   7
ENDBRANCH   2   3
ENDBRANCH   1   2
BRANCH   1  30
ATOM     30  C   UNL A   1      38.509  23.303  26.597  1.00  0.00     0.002 C 
BRANCH  30  31
ATOM     31  C   UNL A   1      39.585  22.269  26.242  1.00  0.00     0.002 C 
BRANCH  31  32
ATOM     32  C   UNL A   1      40.720  22.138  27.260  1.00  0.00     0.021 C 
BRANCH  32  33
ATOM     33  C   UNL A   1      41.446  23.445  27.559  1.00  0.00     0.116 C 
BRANCH  33  34
ATOM     34  N   UNL A   1      41.664  24.229  26.352  1.00  0.00    -0.352 N 
ATOM     35  C   UNL A   1      41.450  25.572  26.149  1.00  0.00     0.251 C 
ATOM     36  H   UNL A   1      42.013  23.732  25.578  1.00  0.00     0.163 HD
ATOM     37  O   UNL A   1      41.488  26.047  25.025  1.00  0.00    -0.269 OA
BRANCH  35  38
ATOM     38  C   UNL A   1      41.156  26.424  27.319  1.00  0.00     0.039 A 
ATOM     39  C   UNL A   1      40.071  26.111  28.140  1.00  0.00     0.014 A 
ATOM     40  C   UNL A   1      41.983  27.511  27.612  1.00  0.00     0.014 A 
ATOM     41  C   UNL A   1      39.847  26.859  29.297  1.00  0.00     0.010 A 
ATOM     42  C   UNL A   1      41.797  28.212  28.797  1.00  0.00     0.010 A 
ATOM     43  C   UNL A   1      40.727  27.895  29.649  1.00  0.00    -0.014 A 
BRANCH  43  44
ATOM     44  C   UNL A   1      40.550  28.699  30.882  1.00  0.00     0.031 A 
ATOM     45  C   UNL A   1      39.529  29.803  30.892  1.00  0.00     0.074 A 
ATOM     46  C   UNL A   1      41.360  28.505  31.940  1.00  0.00     0.049 A 
ATOM     47  N   UNL A   1      39.348  30.754  31.769  1.00  0.00    -0.248 NA
ATOM     48  C   UNL A   1      38.613  29.862  29.740  1.00  0.00     0.031 C 
ATOM     49  C   UNL A   1      42.393  27.472  32.042  1.00  0.00     0.029 A 
ATOM     50  N   UNL A   1      41.459  29.189  33.126  1.00  0.00    -0.354 N 
ATOM     51  C   UNL A   1      38.313  31.535  31.268  1.00  0.00     0.074 A 
ATOM     52  C   UNL A   1      37.940  30.977  29.987  1.00  0.00     0.031 C 
ATOM     53  C   UNL A   1      43.016  27.588  33.226  1.00  0.00     0.029 A 
ATOM     54  C   UNL A   1      42.464  28.731  33.945  1.00  0.00     0.049 A 
ATOM     55  H   UNL A   1      40.867  29.938  33.367  1.00  0.00     0.167 HD
ATOM     56  C   UNL A   1      37.716  32.610  31.835  1.00  0.00     0.037 A 
ATOM     57  C   UNL A   1      42.904  29.198  35.131  1.00  0.00     0.037 A 
ATOM     58  C   UNL A   1      38.079  33.142  33.121  1.00  0.00     0.049 A 
ATOM     59  C   UNL A   1      42.243  30.414  35.728  1.00  0.00     0.074 A 
ATOM     60  C   UNL A   1      37.529  34.218  33.794  1.00  0.00     0.029 A 
ATOM     61  N   UNL A   1      39.077  32.626  33.935  1.00  0.00    -0.354 N 
ATOM     62  N   UNL A   1      41.258  31.137  35.247  1.00  0.00    -0.248 NA
ATOM     63  C   UNL A   1      42.752  30.882  37.025  1.00  0.00     0.031 C 
ATOM     64  C   UNL A   1      38.215  34.370  35.004  1.00  0.00     0.029 A 
ATOM     65  C   UNL A   1      39.159  33.361  35.104  1.00  0.00     0.049 A 
ATOM     66  H   UNL A   1      39.644  31.851  33.713  1.00  0.00     0.167 HD
ATOM     67  C   UNL A   1      40.999  32.111  36.205  1.00  0.00     0.074 A 
ATOM     68  C   UNL A   1      41.934  31.892  37.288  1.00  0.00     0.031 C 
ATOM     69  C   UNL A   1      40.067  33.094  36.191  1.00  0.00     0.037 A 
BRANCH  56  70
ATOM     70  C   UNL A   1      36.601  33.271  31.074  1.00  0.00     0.058 A 
ATOM     71  C   UNL A   1      35.262  33.137  31.472  1.00  0.00     0.135 A 
ATOM     72  C   UNL A   1      36.874  34.076  29.956  1.00  0.00     0.135 A 
ATOM     73  F   UNL A   1      34.944  32.364  32.523  1.00  0.00    -0.206 F 
ATOM     74  C   UNL A   1      34.230  33.756  30.777  1.00  0.00     0.059 A 
ATOM     75  C   UNL A   1      35.859  34.728  29.261  1.00  0.00     0.059 A 
ATOM     76  F   UNL A   1      38.137  34.236  29.529  1.00  0.00    -0.206 F 
ATOM     77  C   UNL A   1      34.539  34.550  29.672  1.00  0.00     0.060 A 
BRANCH  77  78
ATOM     78  S   UNL A   1      33.187  35.355  28.787  1.00  0.00     0.124 S 
ATOM     79  O   UNL A   1      33.911  36.330  27.977  1.00  0.00    -0.237 OA
ATOM     80  O   UNL A   1      32.586  34.245  28.056  1.00  0.00    -0.237 OA
ATOM     81  O   UNL A   1      32.367  35.915  29.857  1.00  0.00    -0.744 OA
ENDBRANCH  77  78
ENDBRANCH  56  70
BRANCH  57  82
ATOM     82  C   UNL A   1      44.017  28.515  35.844  1.00  0.00     0.058 A 
ATOM     83  C   UNL A   1      43.754  27.516  36.793  1.00  0.00     0.135 A 
ATOM     84  C   UNL A   1      45.358  28.855  35.610  1.00  0.00     0.135 A 
ATOM     85  F   UNL A   1      42.487  27.158  37.055  1.00  0.00    -0.206 F 
ATOM     86  C   UNL A   1      44.776  26.899  37.506  1.00  0.00     0.059 A 
ATOM     87  C   UNL A   1      46.400  28.234  36.293  1.00  0.00     0.059 A 
ATOM     88  F   UNL A   1      45.667  29.791  34.699  1.00  0.00    -0.206 F 
ATOM     89  C   UNL A   1      46.097  27.269  37.252  1.00  0.00     0.060 A 
BRANCH  89  90
ATOM     90  S   UNL A   1      47.418  26.450  38.172  1.00  0.00     0.124 S 
ATOM     91  O   UNL A   1      46.673  25.822  39.258  1.00  0.00    -0.237 OA
ATOM     92  O   UNL A   1      47.974  25.543  37.172  1.00  0.00    -0.237 OA
ATOM     93  O   UNL A   1      48.291  27.554  38.560  1.00  0.00    -0.744 OA
ENDBRANCH  89  90
ENDBRANCH  57  82
BRANCH  69  94
ATOM     94  C   UNL A   1      39.943  33.962  37.410  1.00  0.00     0.058 A 
ATOM     95  C   UNL A   1      40.616  35.188  37.520  1.00  0.00     0.135 A 
ATOM     96  C   UNL A   1      39.053  33.605  38.437  1.00  0.00     0.135 A 
ATOM     97  F   UNL A   1      41.484  35.570  36.569  1.00  0.00    -0.206 F 
ATOM     98  C   UNL A   1      40.410  36.031  38.606  1.00  0.00     0.059 A 
ATOM     99  C   UNL A   1      38.813  34.444  39.519  1.00  0.00     0.059 A 
ATOM    100  F   UNL A   1      38.379  32.445  38.373  1.00  0.00    -0.206 F 
ATOM    101  C   UNL A   1      39.498  35.655  39.596  1.00  0.00     0.060 A 
BRANCH 101 102
ATOM    102  S   UNL A   1      39.179  36.796  40.958  1.00  0.00     0.124 S 
ATOM    103  O   UNL A   1      40.533  37.148  41.372  1.00  0.00    -0.237 OA
ATOM    104  O   UNL A   1      38.420  37.858  40.304  1.00  0.00    -0.237 OA
ATOM    105  O   UNL A   1      38.423  35.987  41.909  1.00  0.00    -0.744 OA
ENDBRANCH 101 102
ENDBRANCH  69  94
ENDBRANCH  43  44
ENDBRANCH  35  38
ENDBRANCH  33  34
ENDBRANCH  32  33
ENDBRANCH  31  32
ENDBRANCH  30  31
ENDBRANCH   1  30
TORSDOF 22
ENDMDL
MODEL 2
REMARK VINA RESULT:     -11.7      1.438      8.195
REMARK SMILES CC(C)COc1cccc(C(=O)Nc2ccc(O)c(C(=O)NCCCCCCNC(=O)c3ccc(-c4c5nc(c(-c6c(F)cc(S(=O)(=O)[O-])cc6F)c6ccc([nH]6)c(-c6c(F)cc(S(=O)(=O)[O-])cc6F)c6nc(c(-c7c(F)cc(S(=O)(=O)[O-])cc7F)c7ccc4[nH]7)C=C6)C=C5)cc3)c2)c1
REMARK SMILES IDX 24 1 23 2 22 3 20 4 21 5 19 7 14 8 15 9 98 10 16 11 17 12
REMARK SMILES IDX 13 13 11 14 12 15 10 17 6 18 7 19 99 20 8 21 9 22 5 23 4 24
REMARK SMILES IDX 2 25 1 26 3 27 18 28 25 30 26 31 27 32 28 33 29 34 30 35
REMARK SMILES IDX 31 37 32 38 33 39 97 40 34 41 96 42 35 43 36 44 37 45 90 46
REMARK SMILES IDX 38 47 95 48 89 49 91 50 39 51 94 52 88 53 87 54 40 56 74 57
REMARK SMILES IDX 53 58 73 59 54 60 57 61 72 62 92 63 55 64 56 65 71 67 93 68
REMARK SMILES IDX 58 69 41 70 42 71 51 72 43 73 44 74 50 75 52 76 45 77 46 78
REMARK SMILES IDX 47 79 48 80 49 81 75 82 76 83 85 84 77 85 78 86 84 87 86 88
REMARK SMILES IDX 79 89 80 90 81 91 82 92 83 93 59 94 60 95 69 96 61 97 62 98
REMARK SMILES IDX 68 99 70 100 63 101 64 102 65 103 66 104 67 105
REMARK H PARENT 22 6 13 16 18 29 29 36 91 55 57 66
REMARK Flexibility Score: inf
ROOT
ATOM      1  C   UNL A   1      35.994  20.539  25.355  1.00  0.00     0.021 C 
ENDROOT
BRANCH   1   2
ATOM      2  C   UNL A   1      35.114  19.516  24.640  1.00  0.00     0.116 C 
BRANCH   2   3
ATOM      3  N   UNL A   1      33.718  19.727  24.958  1.00  0.00    -0.352 N 
ATOM      4  C   UNL A   1      32.958  20.852  25.130  1.00  0.00     0.255 C 
ATOM      5  O   UNL A   1      31.750  20.688  25.338  1.00  0.00    -0.269 OA
ATOM      6  H   UNL A   1      33.211  18.891  25.073  1.00  0.00     0.163 HD
BRANCH   4   7
ATOM      7  C   UNL A   1      33.460  22.254  25.001  1.00  0.00     0.083 A 
ATOM      8  C   UNL A   1      33.982  24.248  23.706  1.00  0.00     0.042 A 
ATOM      9  C   UNL A   1      34.143  24.989  24.878  1.00  0.00     0.030 A 
ATOM     10  C   UNL A   1      33.772  22.865  23.780  1.00  0.00     0.043 A 
ATOM     11  C   UNL A   1      33.939  24.376  26.112  1.00  0.00     0.049 A 
ATOM     12  C   UNL A   1      33.567  23.033  26.170  1.00  0.00     0.128 A 
BRANCH   8  13
ATOM     13  N   UNL A   1      33.959  24.940  22.484  1.00  0.00    -0.322 N 
ATOM     14  C   UNL A   1      32.929  25.586  21.811  1.00  0.00     0.255 C 
ATOM     15  O   UNL A   1      33.092  25.832  20.615  1.00  0.00    -0.269 OA
ATOM     16  H   UNL A   1      34.827  24.973  22.022  1.00  0.00     0.170 HD
BRANCH  14  17
ATOM     17  C   UNL A   1      31.707  26.140  22.487  1.00  0.00     0.043 A 
ATOM     18  C   UNL A   1      30.194  27.995  23.006  1.00  0.00     0.120 A 
ATOM     19  C   UNL A   1      29.367  27.143  23.722  1.00  0.00     0.046 A 
ATOM     20  C   UNL A   1      31.334  27.479  22.392  1.00  0.00     0.060 A 
ATOM     21  C   UNL A   1      29.672  25.779  23.780  1.00  0.00     0.005 A 
ATOM     22  C   UNL A   1      30.837  25.282  23.172  1.00  0.00     0.014 A 
BRANCH  18  23
ATOM     23  O   UNL A   1      30.012  29.348  23.088  1.00  0.00    -0.493 OA
BRANCH  23  24
ATOM     24  C   UNL A   1      29.667  30.023  21.863  1.00  0.00     0.232 C 
BRANCH  24  25
ATOM     25  C   UNL A   1      28.223  30.571  21.811  1.00  0.00     0.020 C 
ATOM     26  C   UNL A   1      27.672  30.799  23.226  1.00  0.00     0.011 C 
ATOM     27  C   UNL A   1      28.115  31.886  21.039  1.00  0.00     0.011 C 
ENDBRANCH  24  25
ENDBRANCH  23  24
ENDBRANCH  18  23
ENDBRANCH  14  17
ENDBRANCH   8  13
BRANCH  12  28
ATOM     28  O   UNL A   1      33.283  22.556  27.426  1.00  0.00    -0.507 OA
ATOM     29  H   UNL A   1      33.811  21.878  27.799  1.00  0.00     0.293 HD
ENDBRANCH  12  28
ENDBRANCH   4   7
ENDBRANCH   2   3
ENDBRANCH   1   2
BRANCH   1  30
ATOM     30  C   UNL A   1      37.401  20.616  24.757  1.00  0.00     0.002 C 
BRANCH  30  31
ATOM     31  C   UNL A   1      38.297  21.695  25.378  1.00  0.00     0.002 C 
BRANCH  31  32
ATOM     32  C   UNL A   1      37.573  22.978  25.795  1.00  0.00     0.021 C 
BRANCH  32  33
ATOM     33  C   UNL A   1      38.487  24.053  26.370  1.00  0.00     0.116 C 
BRANCH  33  34
ATOM     34  N   UNL A   1      39.890  23.766  26.108  1.00  0.00    -0.352 N 
ATOM     35  C   UNL A   1      41.000  24.479  26.493  1.00  0.00     0.251 C 
ATOM     36  H   UNL A   1      40.067  22.951  25.585  1.00  0.00     0.163 HD
ATOM     37  O   UNL A   1      42.099  24.224  26.027  1.00  0.00    -0.269 OA
BRANCH  35  38
ATOM     38  C   UNL A   1      40.831  25.572  27.472  1.00  0.00     0.039 A 
ATOM     39  C   UNL A   1      39.849  25.462  28.459  1.00  0.00     0.014 A 
ATOM     40  C   UNL A   1      41.673  26.685  27.423  1.00  0.00     0.014 A 
ATOM     41  C   UNL A   1      39.749  26.450  29.441  1.00  0.00     0.010 A 
ATOM     42  C   UNL A   1      41.615  27.632  28.437  1.00  0.00     0.010 A 
ATOM     43  C   UNL A   1      40.652  27.526  29.453  1.00  0.00    -0.014 A 
BRANCH  43  44
ATOM     44  C   UNL A   1      40.607  28.584  30.491  1.00  0.00     0.031 A 
ATOM     45  C   UNL A   1      41.519  28.478  31.681  1.00  0.00     0.074 A 
ATOM     46  C   UNL A   1      39.691  29.569  30.415  1.00  0.00     0.049 A 
ATOM     47  N   UNL A   1      41.508  29.159  32.796  1.00  0.00    -0.248 NA
ATOM     48  C   UNL A   1      42.562  27.439  31.620  1.00  0.00     0.031 C 
ATOM     49  C   UNL A   1      38.747  29.768  29.314  1.00  0.00     0.029 A 
ATOM     50  N   UNL A   1      39.388  30.576  31.297  1.00  0.00    -0.354 N 
ATOM     51  C   UNL A   1      42.526  28.622  33.575  1.00  0.00     0.074 A 
ATOM     52  C   UNL A   1      43.101  27.526  32.827  1.00  0.00     0.031 C 
ATOM     53  C   UNL A   1      37.974  30.834  29.584  1.00  0.00     0.029 A 
ATOM     54  C   UNL A   1      38.333  31.362  30.896  1.00  0.00     0.049 A 
ATOM     55  H   UNL A   1      39.879  30.722  32.137  1.00  0.00     0.167 HD
ATOM     56  C   UNL A   1      42.953  29.020  34.797  1.00  0.00     0.037 A 
ATOM     57  C   UNL A   1      37.711  32.377  31.530  1.00  0.00     0.037 A 
ATOM     58  C   UNL A   1      42.390  30.128  35.520  1.00  0.00     0.049 A 
ATOM     59  C   UNL A   1      38.186  32.782  32.901  1.00  0.00     0.074 A 
ATOM     60  C   UNL A   1      42.758  30.624  36.758  1.00  0.00     0.029 A 
ATOM     61  N   UNL A   1      41.347  30.920  35.063  1.00  0.00    -0.354 N 
ATOM     62  N   UNL A   1      39.157  32.271  33.622  1.00  0.00    -0.248 NA
ATOM     63  C   UNL A   1      37.483  33.899  33.549  1.00  0.00     0.031 C 
ATOM     64  C   UNL A   1      41.918  31.700  37.062  1.00  0.00     0.029 A 
ATOM     65  C   UNL A   1      41.059  31.902  35.993  1.00  0.00     0.049 A 
ATOM     66  H   UNL A   1      40.881  30.801  34.203  1.00  0.00     0.167 HD
ATOM     67  C   UNL A   1      39.211  33.035  34.783  1.00  0.00     0.074 A 
ATOM     68  C   UNL A   1      38.172  34.037  34.673  1.00  0.00     0.031 C 
ATOM     69  C   UNL A   1      40.050  32.920  35.841  1.00  0.00     0.037 A 
BRANCH  56  70
ATOM     70  C   UNL A   1      44.093  28.262  35.418  1.00  0.00     0.058 A 
ATOM     71  C   UNL A   1      43.866  27.192  36.298  1.00  0.00     0.135 A 
ATOM     72  C   UNL A   1      45.424  28.582  35.105  1.00  0.00     0.135 A 
ATOM     73  F   UNL A   1      42.614  26.855  36.645  1.00  0.00    -0.206 F 
ATOM     74  C   UNL A   1      44.917  26.482  36.866  1.00  0.00     0.059 A 
ATOM     75  C   UNL A   1      46.491  27.867  35.640  1.00  0.00     0.059 A 
ATOM     76  F   UNL A   1      45.697  29.598  34.272  1.00  0.00    -0.206 F 
ATOM     77  C   UNL A   1      46.227  26.827  36.531  1.00  0.00     0.060 A 
BRANCH  77  78
ATOM     78  S   UNL A   1      47.580  25.887  37.269  1.00  0.00     0.124 S 
ATOM     79  O   UNL A   1      48.709  26.308  36.445  1.00  0.00    -0.237 OA
ATOM     80  O   UNL A   1      47.584  26.372  38.644  1.00  0.00    -0.237 OA
ATOM     81  O   UNL A   1      47.163  24.499  37.098  1.00  0.00    -0.744 OA
ENDBRANCH  77  78
ENDBRANCH  56  70
BRANCH  57  82
ATOM     82  C   UNL A   1      36.582  33.093  30.878  1.00  0.00     0.058 A 
ATOM     83  C   UNL A   1      36.817  34.008  29.841  1.00  0.00     0.135 A 
ATOM     84  C   UNL A   1      35.253  32.896  31.285  1.00  0.00     0.135 A 
ATOM     85  F   UNL A   1      38.070  34.235  29.419  1.00  0.00    -0.206 F 
ATOM     86  C   UNL A   1      35.781  34.725  29.250  1.00  0.00     0.059 A 
ATOM     87  C   UNL A   1      34.197  33.582  30.692  1.00  0.00     0.059 A 
ATOM     88  F   UNL A   1      34.971  32.017  32.259  1.00  0.00    -0.206 F 
ATOM     89  C   UNL A   1      34.474  34.507  29.687  1.00  0.00     0.060 A 
BRANCH  89  90
ATOM     90  S   UNL A   1      33.134  35.431  28.903  1.00  0.00     0.124 S 
ATOM     91  O   UNL A   1      32.409  35.936  30.063  1.00  0.00    -0.237 OA
ATOM     92  O   UNL A   1      33.862  36.426  28.121  1.00  0.00    -0.237 OA
ATOM     93  O   UNL A   1      32.441  34.414  28.118  1.00  0.00    -0.744 OA
ENDBRANCH  89  90
ENDBRANCH  57  82
BRANCH  69  94
ATOM     94  C   UNL A   1      39.947  33.946  36.933  1.00  0.00     0.058 A 
ATOM     95  C   UNL A   1      40.470  35.239  36.789  1.00  0.00     0.135 A 
ATOM     96  C   UNL A   1      39.220  33.656  38.100  1.00  0.00     0.135 A 
ATOM     97  F   UNL A   1      41.179  35.563  35.696  1.00  0.00    -0.206 F 
ATOM     98  C   UNL A   1      40.275  36.211  37.765  1.00  0.00     0.059 A 
ATOM     99  C   UNL A   1      38.992  34.618  39.076  1.00  0.00     0.059 A 
ATOM    100  F   UNL A   1      38.693  32.434  38.281  1.00  0.00    -0.206 F 
ATOM    101  C   UNL A   1      39.526  35.894  38.901  1.00  0.00     0.060 A 
BRANCH 101 102
ATOM    102  S   UNL A   1      39.211  37.188  40.119  1.00  0.00     0.124 S 
ATOM    103  O   UNL A   1      38.527  38.192  39.312  1.00  0.00    -0.237 OA
ATOM    104  O   UNL A   1      38.387  36.495  41.105  1.00  0.00    -0.237 OA
ATOM    105  O   UNL A   1      40.548  37.556  40.577  1.00  0.00    -0.744 OA
ENDBRANCH 101 102
ENDBRANCH  69  94
ENDBRANCH  43  44
ENDBRANCH  35  38
ENDBRANCH  33  34
ENDBRANCH  32  33
ENDBRANCH  31  32
ENDBRANCH  30  31
ENDBRANCH   1  30
TORSDOF 22
ENDMDL
MODEL 3
REMARK VINA RESULT:     -11.5      6.457     12.056
REMARK SMILES CC(C)COc1cccc(C(=O)Nc2ccc(O)c(C(=O)NCCCCCCNC(=O)c3ccc(-c4c5nc(c(-c6c(F)cc(S(=O)(=O)[O-])cc6F)c6ccc([nH]6)c(-c6c(F)cc(S(=O)(=O)[O-])cc6F)c6nc(c(-c7c(F)cc(S(=O)(=O)[O-])cc7F)c7ccc4[nH]7)C=C6)C=C5)cc3)c2)c1
REMARK SMILES IDX 24 1 23 2 22 3 20 4 21 5 19 7 14 8 15 9 98 10 16 11 17 12
REMARK SMILES IDX 13 13 11 14 12 15 10 17 6 18 7 19 99 20 8 21 9 22 5 23 4 24
REMARK SMILES IDX 2 25 1 26 3 27 18 28 25 30 26 31 27 32 28 33 29 34 30 35
REMARK SMILES IDX 31 37 32 38 33 39 97 40 34 41 96 42 35 43 36 44 37 45 90 46
REMARK SMILES IDX 38 47 95 48 89 49 91 50 39 51 94 52 88 53 87 54 40 56 74 57
REMARK SMILES IDX 53 58 73 59 54 60 57 61 72 62 92 63 55 64 56 65 71 67 93 68
REMARK SMILES IDX 58 69 41 70 42 71 51 72 43 73 44 74 50 75 52 76 45 77 46 78
REMARK SMILES IDX 47 79 48 80 49 81 75 82 76 83 85 84 77 85 78 86 84 87 86 88
REMARK SMILES IDX 79 89 80 90 81 91 82 92 83 93 59 94 60 95 69 96 61 97 62 98
REMARK SMILES IDX 68 99 70 100 63 101 64 102 65 103 66 104 67 105
REMARK H PARENT 22 6 13 16 18 29 29 36 91 55 57 66
REMARK Flexibility Score: inf
ROOT
ATOM      1  C   UNL A   1      34.677  29.421  27.528  1.00  0.00     0.021 C 
ENDROOT
BRANCH   1   2
ATOM      2  C   UNL A   1      33.814  28.441  26.738  1.00  0.00     0.116 C 
BRANCH   2   3
ATOM      3  N   UNL A   1      32.809  29.145  25.970  1.00  0.00    -0.352 N 
ATOM      4  C   UNL A   1      31.788  28.726  25.161  1.00  0.00     0.255 C 
ATOM      5  O   UNL A   1      31.049  29.600  24.691  1.00  0.00    -0.269 OA
ATOM      6  H   UNL A   1      32.872  30.125  26.046  1.00  0.00     0.163 HD
BRANCH   4   7
ATOM      7  C   UNL A   1      31.449  27.299  24.877  1.00  0.00     0.083 A 
ATOM      8  C   UNL A   1      31.514  25.300  23.490  1.00  0.00     0.042 A 
ATOM      9  C   UNL A   1      31.025  24.529  24.545  1.00  0.00     0.030 A 
ATOM     10  C   UNL A   1      31.598  26.692  23.625  1.00  0.00     0.043 A 
ATOM     11  C   UNL A   1      30.771  25.130  25.776  1.00  0.00     0.049 A 
ATOM     12  C   UNL A   1      31.014  26.493  25.949  1.00  0.00     0.128 A 
BRANCH   8  13
ATOM     13  N   UNL A   1      31.984  24.633  22.346  1.00  0.00    -0.322 N 
ATOM     14  C   UNL A   1      33.111  23.849  22.135  1.00  0.00     0.255 C 
ATOM     15  O   UNL A   1      33.463  23.652  20.971  1.00  0.00    -0.269 OA
ATOM     16  H   UNL A   1      31.412  24.741  21.552  1.00  0.00     0.170 HD
BRANCH  14  17
ATOM     17  C   UNL A   1      33.827  23.104  23.226  1.00  0.00     0.043 A 
ATOM     18  C   UNL A   1      34.094  21.144  24.671  1.00  0.00     0.120 A 
ATOM     19  C   UNL A   1      35.230  21.697  25.241  1.00  0.00     0.046 A 
ATOM     20  C   UNL A   1      33.425  21.846  23.669  1.00  0.00     0.060 A 
ATOM     21  C   UNL A   1      35.704  22.927  24.772  1.00  0.00     0.005 A 
ATOM     22  C   UNL A   1      35.004  23.629  23.775  1.00  0.00     0.014 A 
BRANCH  18  23
ATOM     23  O   UNL A   1      33.518  20.040  25.235  1.00  0.00    -0.493 OA
BRANCH  23  24
ATOM     24  C   UNL A   1      32.463  19.411  24.480  1.00  0.00     0.232 C 
BRANCH  24  25
ATOM     25  C   UNL A   1      32.606  17.881  24.321  1.00  0.00     0.020 C 
ATOM     26  C   UNL A   1      33.874  17.527  23.531  1.00  0.00     0.011 C 
ATOM     27  C   UNL A   1      32.659  17.147  25.661  1.00  0.00     0.011 C 
ENDBRANCH  24  25
ENDBRANCH  23  24
ENDBRANCH  18  23
ENDBRANCH  14  17
ENDBRANCH   8  13
BRANCH  12  28
ATOM     28  O   UNL A   1      30.837  26.963  27.226  1.00  0.00    -0.507 OA
ATOM     29  H   UNL A   1      30.022  27.354  27.471  1.00  0.00     0.293 HD
ENDBRANCH  12  28
ENDBRANCH   4   7
ENDBRANCH   2   3
ENDBRANCH   1   2
BRANCH   1  30
ATOM     30  C   UNL A   1      34.345  30.880  27.207  1.00  0.00     0.002 C 
BRANCH  30  31
ATOM     31  C   UNL A   1      34.458  31.835  28.402  1.00  0.00     0.002 C 
BRANCH  31  32
ATOM     32  C   UNL A   1      35.623  32.826  28.332  1.00  0.00     0.021 C 
BRANCH  32  33
ATOM     33  C   UNL A   1      36.736  32.555  29.337  1.00  0.00     0.116 C 
BRANCH  33  34
ATOM     34  N   UNL A   1      36.299  31.660  30.398  1.00  0.00    -0.352 N 
ATOM     35  C   UNL A   1      36.824  30.445  30.768  1.00  0.00     0.251 C 
ATOM     36  H   UNL A   1      35.524  31.966  30.922  1.00  0.00     0.163 HD
ATOM     37  O   UNL A   1      36.226  29.717  31.545  1.00  0.00    -0.269 OA
BRANCH  35  38
ATOM     38  C   UNL A   1      38.120  30.032  30.193  1.00  0.00     0.039 A 
ATOM     39  C   UNL A   1      38.234  29.864  28.811  1.00  0.00     0.014 A 
ATOM     40  C   UNL A   1      39.224  29.846  31.029  1.00  0.00     0.014 A 
ATOM     41  C   UNL A   1      39.480  29.564  28.256  1.00  0.00     0.010 A 
ATOM     42  C   UNL A   1      40.473  29.613  30.469  1.00  0.00     0.010 A 
ATOM     43  C   UNL A   1      40.614  29.468  29.080  1.00  0.00    -0.014 A 
BRANCH  43  44
ATOM     44  C   UNL A   1      41.963  29.181  28.536  1.00  0.00     0.031 A 
ATOM     45  C   UNL A   1      42.298  27.775  28.121  1.00  0.00     0.074 A 
ATOM     46  C   UNL A   1      42.902  30.146  28.509  1.00  0.00     0.049 A 
ATOM     47  N   UNL A   1      43.459  27.256  27.820  1.00  0.00    -0.248 NA
ATOM     48  C   UNL A   1      41.179  26.818  28.074  1.00  0.00     0.031 C 
ATOM     49  C   UNL A   1      42.696  31.543  28.895  1.00  0.00     0.029 A 
ATOM     50  N   UNL A   1      44.229  30.091  28.162  1.00  0.00    -0.354 N 
ATOM     51  C   UNL A   1      43.214  25.911  27.567  1.00  0.00     0.074 A 
ATOM     52  C   UNL A   1      41.805  25.684  27.798  1.00  0.00     0.031 C 
ATOM     53  C   UNL A   1      43.853  32.213  28.760  1.00  0.00     0.029 A 
ATOM     54  C   UNL A   1      44.892  31.285  28.326  1.00  0.00     0.049 A 
ATOM     55  H   UNL A   1      44.665  29.274  27.829  1.00  0.00     0.167 HD
ATOM     56  C   UNL A   1      44.085  24.957  27.160  1.00  0.00     0.037 A 
ATOM     57  C   UNL A   1      46.197  31.587  28.168  1.00  0.00     0.037 A 
ATOM     58  C   UNL A   1      45.480  25.201  26.909  1.00  0.00     0.049 A 
ATOM     59  C   UNL A   1      47.152  30.501  27.743  1.00  0.00     0.074 A 
ATOM     60  C   UNL A   1      46.446  24.309  26.480  1.00  0.00     0.029 A 
ATOM     61  N   UNL A   1      46.104  26.432  27.051  1.00  0.00    -0.354 N 
ATOM     62  N   UNL A   1      46.904  29.235  27.497  1.00  0.00    -0.248 NA
ATOM     63  C   UNL A   1      48.562  30.879  27.576  1.00  0.00     0.031 C 
ATOM     64  C   UNL A   1      47.662  24.995  26.390  1.00  0.00     0.029 A 
ATOM     65  C   UNL A   1      47.442  26.323  26.718  1.00  0.00     0.049 A 
ATOM     66  H   UNL A   1      45.660  27.260  27.346  1.00  0.00     0.167 HD
ATOM     67  C   UNL A   1      48.116  28.681  27.099  1.00  0.00     0.074 A 
ATOM     68  C   UNL A   1      49.097  29.745  27.145  1.00  0.00     0.031 C 
ATOM     69  C   UNL A   1      48.390  27.409  26.725  1.00  0.00     0.037 A 
BRANCH  56  70
ATOM     70  C   UNL A   1      43.549  23.569  26.948  1.00  0.00     0.058 A 
ATOM     71  C   UNL A   1      43.246  22.728  28.030  1.00  0.00     0.135 A 
ATOM     72  C   UNL A   1      43.302  23.085  25.653  1.00  0.00     0.135 A 
ATOM     73  F   UNL A   1      43.480  23.135  29.289  1.00  0.00    -0.206 F 
ATOM     74  C   UNL A   1      42.741  21.448  27.838  1.00  0.00     0.059 A 
ATOM     75  C   UNL A   1      42.771  21.816  25.438  1.00  0.00     0.059 A 
ATOM     76  F   UNL A   1      43.577  23.846  24.582  1.00  0.00    -0.206 F 
ATOM     77  C   UNL A   1      42.506  21.000  26.537  1.00  0.00     0.060 A 
BRANCH  77  78
ATOM     78  S   UNL A   1      41.839  19.339  26.306  1.00  0.00     0.124 S 
ATOM     79  O   UNL A   1      42.303  18.669  27.517  1.00  0.00    -0.237 OA
ATOM     80  O   UNL A   1      40.403  19.586  26.230  1.00  0.00    -0.237 OA
ATOM     81  O   UNL A   1      42.462  18.892  25.065  1.00  0.00    -0.744 OA
ENDBRANCH  77  78
ENDBRANCH  56  70
BRANCH  57  82
ATOM     82  C   UNL A   1      46.682  32.974  28.397  1.00  0.00     0.058 A 
ATOM     83  C   UNL A   1      46.687  33.913  27.355  1.00  0.00     0.135 A 
ATOM     84  C   UNL A   1      47.167  33.386  29.648  1.00  0.00     0.135 A 
ATOM     85  F   UNL A   1      46.237  33.566  26.139  1.00  0.00    -0.206 F 
ATOM     86  C   UNL A   1      47.181  35.201  27.534  1.00  0.00     0.059 A 
ATOM     87  C   UNL A   1      47.644  34.677  29.859  1.00  0.00     0.059 A 
ATOM     88  F   UNL A   1      47.167  32.533  30.685  1.00  0.00    -0.206 F 
ATOM     89  C   UNL A   1      47.662  35.571  28.790  1.00  0.00     0.060 A 
BRANCH  89  90
ATOM     90  S   UNL A   1      48.288  37.251  29.017  1.00  0.00     0.124 S 
ATOM     91  O   UNL A   1      48.866  37.527  27.707  1.00  0.00    -0.237 OA
ATOM     92  O   UNL A   1      47.073  37.990  29.347  1.00  0.00    -0.237 OA
ATOM     93  O   UNL A   1      49.242  37.108  30.112  1.00  0.00    -0.744 OA
ENDBRANCH  89  90
ENDBRANCH  57  82
BRANCH  69  94
ATOM     94  C   UNL A   1      49.782  27.099  26.252  1.00  0.00     0.058 A 
ATOM     95  C   UNL A   1      50.797  26.708  27.137  1.00  0.00     0.135 A 
ATOM     96  C   UNL A   1      50.070  27.096  24.877  1.00  0.00     0.135 A 
ATOM     97  F   UNL A   1      50.575  26.704  28.461  1.00  0.00    -0.206 F 
ATOM     98  C   UNL A   1      52.051  26.322  26.674  1.00  0.00     0.059 A 
ATOM     99  C   UNL A   1      51.307  26.691  24.391  1.00  0.00     0.059 A 
ATOM    100  F   UNL A   1      49.128  27.455  23.989  1.00  0.00    -0.206 F 
ATOM    101  C   UNL A   1      52.293  26.307  25.298  1.00  0.00     0.060 A 
BRANCH 101 102
ATOM    102  S   UNL A   1      53.897  25.726  24.709  1.00  0.00     0.124 S 
ATOM    103  O   UNL A   1      54.023  26.440  23.443  1.00  0.00    -0.237 OA
ATOM    104  O   UNL A   1      54.797  26.159  25.774  1.00  0.00    -0.237 OA
ATOM    105  O   UNL A   1      53.715  24.281  24.598  1.00  0.00    -0.744 OA
ENDBRANCH 101 102
ENDBRANCH  69  94
ENDBRANCH  43  44
ENDBRANCH  35  38
ENDBRANCH  33  34
ENDBRANCH  32  33
ENDBRANCH  31  32
ENDBRANCH  30  31
ENDBRANCH   1  30
TORSDOF 22
ENDMDL
