MODEL 1
REMARK VINA RESULT:     -11.8      0.000      0.000
REMARK SMILES O=C(NCCCCCCNC(=O)[C@@]1([C@@H]2CCO[C@@]3(CCOC3)C2)CCOC1)c1ccc(-c2c3nc(c(-c4c(F)cc(S(=O)(=O)[O-])cc4F)c4ccc([nH]4)c(-c4c(F)cc(S(=O)(=O)[O-])cc4F)c4nc(c(-c5c(F)cc(S(=O)(=O)[O-])cc5F)c5ccc2[nH]5)C=C4)C=C3)cc1
REMARK SMILES IDX 5 1 4 2 3 3 1 4 2 5 28 7 29 8 93 9 30 10 92 11 31 12 32 13
REMARK SMILES IDX 33 14 86 15 34 16 91 17 85 18 87 19 35 20 90 21 84 22 83 23
REMARK SMILES IDX 36 25 70 26 49 27 69 28 50 29 53 30 68 31 88 32 51 33 52 34
REMARK SMILES IDX 67 36 89 37 54 38 37 39 38 40 47 41 39 42 40 43 46 44 48 45
REMARK SMILES IDX 41 46 42 47 43 48 44 49 45 50 71 51 72 52 81 53 73 54 74 55
REMARK SMILES IDX 80 56 82 57 75 58 76 59 77 60 78 61 79 62 55 63 56 64 65 65
REMARK SMILES IDX 57 66 58 67 64 68 66 69 59 70 60 71 61 72 62 73 63 74 6 75
REMARK SMILES IDX 7 76 8 77 9 78 10 79 11 80 12 82 13 83 24 84 27 85 25 86
REMARK SMILES IDX 26 87 14 88 15 89 23 90 16 91 18 92 17 93 19 94 22 95 20 96
REMARK SMILES IDX 21 97
REMARK H PARENT 3 6 87 24 53 35 10 81
REMARK Flexibility Score: inf
ROOT
ATOM      1  C   UNL A   1      35.829  33.509  28.979  1.00  0.00     0.021 C 
ENDROOT
BRANCH   1   2
ATOM      2  C   UNL A   1      36.652  33.091  30.191  1.00  0.00     0.116 C 
BRANCH   2   3
ATOM      3  N   UNL A   1      36.156  31.892  30.844  1.00  0.00    -0.352 N 
ATOM      4  O   UNL A   1      36.109  29.717  31.443  1.00  0.00    -0.269 OA
ATOM      5  C   UNL A   1      36.735  30.647  30.938  1.00  0.00     0.251 C 
ATOM      6  H   UNL A   1      35.279  31.983  31.282  1.00  0.00     0.163 HD
BRANCH   5   7
ATOM      7  C   UNL A   1      38.095  30.418  30.396  1.00  0.00     0.039 A 
ATOM      8  C   UNL A   1      38.308  30.286  29.023  1.00  0.00     0.014 A 
ATOM      9  C   UNL A   1      39.173  30.316  31.280  1.00  0.00     0.014 A 
ATOM     10  C   UNL A   1      39.552  29.879  28.553  1.00  0.00     0.010 A 
ATOM     11  C   UNL A   1      40.448  30.000  30.795  1.00  0.00     0.010 A 
ATOM     12  C   UNL A   1      40.640  29.732  29.430  1.00  0.00    -0.014 A 
BRANCH  12  13
ATOM     13  C   UNL A   1      41.964  29.324  28.887  1.00  0.00     0.031 A 
ATOM     14  C   UNL A   1      43.125  30.285  28.855  1.00  0.00     0.074 A 
ATOM     15  C   UNL A   1      42.129  28.056  28.462  1.00  0.00     0.049 A 
ATOM     16  N   UNL A   1      44.359  30.072  28.469  1.00  0.00    -0.248 NA
ATOM     17  C   UNL A   1      42.871  31.662  29.306  1.00  0.00     0.031 C 
ATOM     18  C   UNL A   1      41.077  27.037  28.426  1.00  0.00     0.029 A 
ATOM     19  N   UNL A   1      43.242  27.397  28.004  1.00  0.00    -0.354 N 
ATOM     20  C   UNL A   1      45.020  31.288  28.604  1.00  0.00     0.074 A 
ATOM     21  C   UNL A   1      44.044  32.243  29.087  1.00  0.00     0.031 C 
ATOM     22  C   UNL A   1      41.604  25.870  28.028  1.00  0.00     0.029 A 
ATOM     23  C   UNL A   1      43.016  26.069  27.722  1.00  0.00     0.049 A 
ATOM     24  H   UNL A   1      44.116  27.831  27.888  1.00  0.00     0.167 HD
ATOM     25  C   UNL A   1      46.320  31.581  28.355  1.00  0.00     0.037 A 
ATOM     26  C   UNL A   1      43.849  25.116  27.263  1.00  0.00     0.037 A 
ATOM     27  C   UNL A   1      47.293  30.619  27.897  1.00  0.00     0.049 A 
ATOM     28  C   UNL A   1      45.285  25.467  26.999  1.00  0.00     0.074 A 
ATOM     29  C   UNL A   1      48.644  30.808  27.658  1.00  0.00     0.029 A 
ATOM     30  N   UNL A   1      47.021  29.291  27.603  1.00  0.00    -0.354 N 
ATOM     31  N   UNL A   1      45.899  26.613  27.170  1.00  0.00    -0.248 NA
ATOM     32  C   UNL A   1      46.143  24.393  26.480  1.00  0.00     0.031 C 
ATOM     33  C   UNL A   1      49.178  29.607  27.180  1.00  0.00     0.029 A 
ATOM     34  C   UNL A   1      48.173  28.655  27.168  1.00  0.00     0.049 A 
ATOM     35  H   UNL A   1      46.138  28.863  27.689  1.00  0.00     0.167 HD
ATOM     36  C   UNL A   1      47.221  26.394  26.803  1.00  0.00     0.074 A 
ATOM     37  C   UNL A   1      47.321  25.001  26.414  1.00  0.00     0.031 C 
ATOM     38  C   UNL A   1      48.259  27.266  26.790  1.00  0.00     0.037 A 
BRANCH  25  39
ATOM     39  C   UNL A   1      46.771  33.003  28.553  1.00  0.00     0.058 A 
ATOM     40  C   UNL A   1      47.277  33.458  29.782  1.00  0.00     0.135 A 
ATOM     41  C   UNL A   1      46.736  33.916  27.485  1.00  0.00     0.135 A 
ATOM     42  F   UNL A   1      47.322  32.635  30.841  1.00  0.00    -0.206 F 
ATOM     43  C   UNL A   1      47.704  34.773  29.952  1.00  0.00     0.059 A 
ATOM     44  C   UNL A   1      47.183  35.227  27.626  1.00  0.00     0.059 A 
ATOM     45  F   UNL A   1      46.266  33.535  26.287  1.00  0.00    -0.206 F 
ATOM     46  C   UNL A   1      47.650  35.650  28.868  1.00  0.00     0.060 A 
BRANCH  46  47
ATOM     47  S   UNL A   1      48.204  37.353  29.107  1.00  0.00     0.124 S 
ATOM     48  O   UNL A   1      47.196  38.093  28.355  1.00  0.00    -0.237 OA
ATOM     49  O   UNL A   1      48.145  37.500  30.558  1.00  0.00    -0.237 OA
ATOM     50  O   UNL A   1      49.545  37.358  28.533  1.00  0.00    -0.744 OA
ENDBRANCH  46  47
ENDBRANCH  25  39
BRANCH  26  51
ATOM     51  C   UNL A   1      43.342  23.738  27.038  1.00  0.00     0.058 A 
ATOM     52  C   UNL A   1      43.098  23.259  25.743  1.00  0.00     0.135 A 
ATOM     53  C   UNL A   1      43.115  22.864  28.113  1.00  0.00     0.135 A 
ATOM     54  F   UNL A   1      43.297  24.059  24.685  1.00  0.00    -0.206 F 
ATOM     55  C   UNL A   1      42.634  21.967  25.520  1.00  0.00     0.059 A 
ATOM     56  C   UNL A   1      42.679  21.558  27.915  1.00  0.00     0.059 A 
ATOM     57  F   UNL A   1      43.351  23.268  29.371  1.00  0.00    -0.206 F 
ATOM     58  C   UNL A   1      42.430  21.123  26.613  1.00  0.00     0.060 A 
BRANCH  58  59
ATOM     59  S   UNL A   1      41.878  19.431  26.311  1.00  0.00     0.124 S 
ATOM     60  O   UNL A   1      42.582  19.111  25.074  1.00  0.00    -0.237 OA
ATOM     61  O   UNL A   1      42.343  18.739  27.509  1.00  0.00    -0.237 OA
ATOM     62  O   UNL A   1      40.430  19.566  26.197  1.00  0.00    -0.744 OA
ENDBRANCH  58  59
ENDBRANCH  26  51
BRANCH  38  63
ATOM     63  C   UNL A   1      49.601  26.727  26.382  1.00  0.00     0.058 A 
ATOM     64  C   UNL A   1      50.462  26.108  27.302  1.00  0.00     0.135 A 
ATOM     65  C   UNL A   1      50.024  26.813  25.045  1.00  0.00     0.135 A 
ATOM     66  F   UNL A   1      50.110  26.005  28.594  1.00  0.00    -0.206 F 
ATOM     67  C   UNL A   1      51.709  25.623  26.919  1.00  0.00     0.059 A 
ATOM     68  C   UNL A   1      51.254  26.312  24.634  1.00  0.00     0.059 A 
ATOM     69  F   UNL A   1      49.234  27.386  24.123  1.00  0.00    -0.206 F 
ATOM     70  C   UNL A   1      52.096  25.733  25.582  1.00  0.00     0.060 A 
BRANCH  70  71
ATOM     71  S   UNL A   1      53.712  25.093  25.092  1.00  0.00     0.124 S 
ATOM     72  O   UNL A   1      53.471  23.654  25.095  1.00  0.00    -0.237 OA
ATOM     73  O   UNL A   1      53.905  25.701  23.778  1.00  0.00    -0.237 OA
ATOM     74  O   UNL A   1      54.603  25.585  26.138  1.00  0.00    -0.744 OA
ENDBRANCH  70  71
ENDBRANCH  38  63
ENDBRANCH  12  13
ENDBRANCH   5   7
ENDBRANCH   2   3
ENDBRANCH   1   2
BRANCH   1  75
ATOM     75  C   UNL A   1      34.397  32.975  28.925  1.00  0.00     0.002 C 
BRANCH  75  76
ATOM     76  C   UNL A   1      34.072  32.002  27.787  1.00  0.00     0.002 C 
BRANCH  76  77
ATOM     77  C   UNL A   1      34.803  30.656  27.797  1.00  0.00     0.021 C 
BRANCH  77  78
ATOM     78  C   UNL A   1      34.183  29.541  26.961  1.00  0.00     0.116 C 
BRANCH  78  79
ATOM     79  N   UNL A   1      32.955  29.022  27.532  1.00  0.00    -0.356 N 
ATOM     80  C   UNL A   1      32.174  27.947  27.253  1.00  0.00     0.228 C 
ATOM     81  H   UNL A   1      32.615  29.564  28.281  1.00  0.00     0.163 HD
ATOM     82  O   UNL A   1      31.211  27.780  28.015  1.00  0.00    -0.274 OA
BRANCH  80  83
ATOM     83  C   UNL A   1      32.351  27.009  26.043  1.00  0.00     0.078 C 
ATOM     84  C   UNL A   1      33.726  26.373  25.836  1.00  0.00     0.048 C 
ATOM     85  C   UNL A   1      31.581  25.723  26.443  1.00  0.00     0.177 C 
ATOM     86  C   UNL A   1      33.490  24.918  25.455  1.00  0.00     0.161 C 
ATOM     87  O   UNL A   1      32.100  24.660  25.638  1.00  0.00    -0.380 OA
BRANCH  83  88
ATOM     88  C   UNL A   1      31.647  27.619  24.760  1.00  0.00     0.012 C 
ATOM     89  C   UNL A   1      32.403  27.511  23.412  1.00  0.00     0.033 C 
ATOM     90  C   UNL A   1      31.033  29.035  24.882  1.00  0.00     0.043 C 
ATOM     91  C   UNL A   1      32.432  28.816  22.622  1.00  0.00     0.161 C 
ATOM     92  C   UNL A   1      30.276  29.369  23.575  1.00  0.00     0.094 C 
ATOM     93  O   UNL A   1      31.150  29.396  22.434  1.00  0.00    -0.372 OA
ATOM     94  C   UNL A   1      29.143  28.403  23.238  1.00  0.00     0.066 C 
ATOM     95  C   UNL A   1      29.497  30.691  23.626  1.00  0.00     0.195 C 
ATOM     96  C   UNL A   1      28.311  29.214  22.271  1.00  0.00     0.163 C 
ATOM     97  O   UNL A   1      28.358  30.566  22.742  1.00  0.00    -0.378 OA
ENDBRANCH  83  88
ENDBRANCH  80  83
ENDBRANCH  78  79
ENDBRANCH  77  78
ENDBRANCH  76  77
ENDBRANCH  75  76
ENDBRANCH   1  75
TORSDOF 17
ENDMDL
MODEL 2
REMARK VINA RESULT:     -11.6      3.270     10.103
REMARK SMILES O=C(NCCCCCCNC(=O)[C@@]1([C@@H]2CCO[C@@]3(CCOC3)C2)CCOC1)c1ccc(-c2c3nc(c(-c4c(F)cc(S(=O)(=O)[O-])cc4F)c4ccc([nH]4)c(-c4c(F)cc(S(=O)(=O)[O-])cc4F)c4nc(c(-c5c(F)cc(S(=O)(=O)[O-])cc5F)c5ccc2[nH]5)C=C4)C=C3)cc1
REMARK SMILES IDX 5 1 4 2 3 3 1 4 2 5 28 7 29 8 93 9 30 10 92 11 31 12 32 13
REMARK SMILES IDX 33 14 86 15 34 16 91 17 85 18 87 19 35 20 90 21 84 22 83 23
REMARK SMILES IDX 36 25 70 26 49 27 69 28 50 29 53 30 68 31 88 32 51 33 52 34
REMARK SMILES IDX 67 36 89 37 54 38 37 39 38 40 47 41 39 42 40 43 46 44 48 45
REMARK SMILES IDX 41 46 42 47 43 48 44 49 45 50 71 51 72 52 81 53 73 54 74 55
REMARK SMILES IDX 80 56 82 57 75 58 76 59 77 60 78 61 79 62 55 63 56 64 65 65
REMARK SMILES IDX 57 66 58 67 64 68 66 69 59 70 60 71 61 72 62 73 63 74 6 75
REMARK SMILES IDX 7 76 8 77 9 78 10 79 11 80 12 82 13 83 24 84 27 85 25 86
REMARK SMILES IDX 26 87 14 88 15 89 23 90 16 91 18 92 17 93 19 94 22 95 20 96
REMARK SMILES IDX 21 97
REMARK H PARENT 3 6 87 24 53 35 10 81
REMARK Flexibility Score: inf
ROOT
ATOM      1  C   UNL A   1      35.131  32.769  29.537  1.00  0.00     0.021 C 
ENDROOT
BRANCH   1   2
ATOM      2  C   UNL A   1      34.918  32.344  28.089  1.00  0.00     0.116 C 
BRANCH   2   3
ATOM      3  N   UNL A   1      34.291  31.041  27.954  1.00  0.00    -0.352 N 
ATOM      4  O   UNL A   1      34.182  28.799  27.729  1.00  0.00    -0.269 OA
ATOM      5  C   UNL A   1      34.867  29.791  27.970  1.00  0.00     0.251 C 
ATOM      6  H   UNL A   1      33.315  31.054  27.832  1.00  0.00     0.163 HD
BRANCH   5   7
ATOM      7  C   UNL A   1      36.316  29.644  28.239  1.00  0.00     0.039 A 
ATOM      8  C   UNL A   1      37.263  29.959  27.262  1.00  0.00     0.014 A 
ATOM      9  C   UNL A   1      36.735  29.167  29.485  1.00  0.00     0.014 A 
ATOM     10  C   UNL A   1      38.600  29.631  27.466  1.00  0.00     0.010 A 
ATOM     11  C   UNL A   1      38.093  28.928  29.722  1.00  0.00     0.010 A 
ATOM     12  C   UNL A   1      39.035  29.113  28.697  1.00  0.00    -0.014 A 
BRANCH  12  13
ATOM     13  C   UNL A   1      40.478  28.801  28.888  1.00  0.00     0.031 A 
ATOM     14  C   UNL A   1      41.049  27.468  28.479  1.00  0.00     0.074 A 
ATOM     15  C   UNL A   1      41.287  29.752  29.394  1.00  0.00     0.049 A 
ATOM     16  N   UNL A   1      42.292  27.056  28.524  1.00  0.00    -0.248 NA
ATOM     17  C   UNL A   1      40.108  26.462  27.960  1.00  0.00     0.031 C 
ATOM     18  C   UNL A   1      40.849  31.076  29.845  1.00  0.00     0.029 A 
ATOM     19  N   UNL A   1      42.644  29.768  29.594  1.00  0.00    -0.354 N 
ATOM     20  C   UNL A   1      42.281  25.743  28.067  1.00  0.00     0.074 A 
ATOM     21  C   UNL A   1      40.901  25.416  27.770  1.00  0.00     0.031 C 
ATOM     22  C   UNL A   1      41.920  31.795  30.211  1.00  0.00     0.029 A 
ATOM     23  C   UNL A   1      43.113  30.966  30.081  1.00  0.00     0.049 A 
ATOM     24  H   UNL A   1      43.225  28.997  29.407  1.00  0.00     0.167 HD
ATOM     25  C   UNL A   1      43.322  24.891  27.902  1.00  0.00     0.037 A 
ATOM     26  C   UNL A   1      44.363  31.356  30.395  1.00  0.00     0.037 A 
ATOM     27  C   UNL A   1      44.697  25.231  28.177  1.00  0.00     0.049 A 
ATOM     28  C   UNL A   1      45.499  30.393  30.200  1.00  0.00     0.074 A 
ATOM     29  C   UNL A   1      45.828  24.451  28.000  1.00  0.00     0.029 A 
ATOM     30  N   UNL A   1      45.128  26.446  28.689  1.00  0.00    -0.354 N 
ATOM     31  N   UNL A   1      45.471  29.169  29.730  1.00  0.00    -0.248 NA
ATOM     32  C   UNL A   1      46.838  30.866  30.577  1.00  0.00     0.031 C 
ATOM     33  C   UNL A   1      46.937  25.179  28.446  1.00  0.00     0.029 A 
ATOM     34  C   UNL A   1      46.505  26.431  28.852  1.00  0.00     0.049 A 
ATOM     35  H   UNL A   1      44.543  27.208  28.905  1.00  0.00     0.167 HD
ATOM     36  C   UNL A   1      46.790  28.732  29.732  1.00  0.00     0.074 A 
ATOM     37  C   UNL A   1      47.592  29.829  30.237  1.00  0.00     0.031 C 
ATOM     38  C   UNL A   1      47.291  27.532  29.350  1.00  0.00     0.037 A 
BRANCH  25  39
ATOM     39  C   UNL A   1      43.021  23.497  27.420  1.00  0.00     0.058 A 
ATOM     40  C   UNL A   1      43.135  23.137  26.067  1.00  0.00     0.135 A 
ATOM     41  C   UNL A   1      42.654  22.493  28.333  1.00  0.00     0.135 A 
ATOM     42  F   UNL A   1      43.471  24.058  25.149  1.00  0.00    -0.206 F 
ATOM     43  C   UNL A   1      42.868  21.842  25.633  1.00  0.00     0.059 A 
ATOM     44  C   UNL A   1      42.406  21.185  27.923  1.00  0.00     0.059 A 
ATOM     45  F   UNL A   1      42.532  22.778  29.638  1.00  0.00    -0.206 F 
ATOM     46  C   UNL A   1      42.501  20.873  26.568  1.00  0.00     0.060 A 
BRANCH  46  47
ATOM     47  S   UNL A   1      42.153  19.199  25.987  1.00  0.00     0.124 S 
ATOM     48  O   UNL A   1      42.964  19.139  24.775  1.00  0.00    -0.237 OA
ATOM     49  O   UNL A   1      42.618  18.379  27.101  1.00  0.00    -0.237 OA
ATOM     50  O   UNL A   1      40.709  19.206  25.777  1.00  0.00    -0.744 OA
ENDBRANCH  46  47
ENDBRANCH  25  39
BRANCH  26  51
ATOM     51  C   UNL A   1      44.600  32.728  30.912  1.00  0.00     0.058 A 
ATOM     52  C   UNL A   1      44.803  33.805  30.038  1.00  0.00     0.135 A 
ATOM     53  C   UNL A   1      44.600  32.995  32.291  1.00  0.00     0.135 A 
ATOM     54  F   UNL A   1      44.815  33.599  28.712  1.00  0.00    -0.206 F 
ATOM     55  C   UNL A   1      45.015  35.096  30.510  1.00  0.00     0.059 A 
ATOM     56  C   UNL A   1      44.780  34.282  32.787  1.00  0.00     0.059 A 
ATOM     57  F   UNL A   1      44.390  32.001  33.168  1.00  0.00    -0.206 F 
ATOM     58  C   UNL A   1      44.998  35.325  31.887  1.00  0.00     0.060 A 
BRANCH  58  59
ATOM     59  S   UNL A   1      45.219  37.012  32.489  1.00  0.00     0.124 S 
ATOM     60  O   UNL A   1      45.757  36.777  33.824  1.00  0.00    -0.237 OA
ATOM     61  O   UNL A   1      46.151  37.567  31.512  1.00  0.00    -0.237 OA
ATOM     62  O   UNL A   1      43.869  37.565  32.440  1.00  0.00    -0.744 OA
ENDBRANCH  58  59
ENDBRANCH  26  51
BRANCH  38  63
ATOM     63  C   UNL A   1      48.783  27.359  29.423  1.00  0.00     0.058 A 
ATOM     64  C   UNL A   1      49.625  27.733  28.364  1.00  0.00     0.135 A 
ATOM     65  C   UNL A   1      49.380  26.829  30.578  1.00  0.00     0.135 A 
ATOM     66  F   UNL A   1      49.105  28.239  27.233  1.00  0.00    -0.206 F 
ATOM     67  C   UNL A   1      51.003  27.557  28.434  1.00  0.00     0.059 A 
ATOM     68  C   UNL A   1      50.757  26.669  30.681  1.00  0.00     0.059 A 
ATOM     69  F   UNL A   1      48.621  26.464  31.624  1.00  0.00    -0.206 F 
ATOM     70  C   UNL A   1      51.559  27.021  29.597  1.00  0.00     0.060 A 
BRANCH  70  71
ATOM     71  S   UNL A   1      53.350  26.805  29.683  1.00  0.00     0.124 S 
ATOM     72  O   UNL A   1      53.637  26.212  28.381  1.00  0.00    -0.237 OA
ATOM     73  O   UNL A   1      53.822  28.172  29.875  1.00  0.00    -0.237 OA
ATOM     74  O   UNL A   1      53.529  25.920  30.831  1.00  0.00    -0.744 OA
ENDBRANCH  70  71
ENDBRANCH  38  63
ENDBRANCH  12  13
ENDBRANCH   5   7
ENDBRANCH   2   3
ENDBRANCH   1   2
BRANCH   1  75
ATOM     75  C   UNL A   1      36.569  32.695  30.053  1.00  0.00     0.002 C 
BRANCH  75  76
ATOM     76  C   UNL A   1      37.443  33.932  29.819  1.00  0.00     0.002 C 
BRANCH  76  77
ATOM     77  C   UNL A   1      38.893  33.856  30.306  1.00  0.00     0.021 C 
BRANCH  77  78
ATOM     78  C   UNL A   1      39.243  34.695  31.531  1.00  0.00     0.116 C 
BRANCH  78  79
ATOM     79  N   UNL A   1      40.242  34.069  32.377  1.00  0.00    -0.356 N 
ATOM     80  C   UNL A   1      40.235  32.975  33.180  1.00  0.00     0.228 C 
ATOM     81  H   UNL A   1      41.109  34.538  32.368  1.00  0.00     0.163 HD
ATOM     82  O   UNL A   1      41.321  32.701  33.712  1.00  0.00    -0.274 OA
BRANCH  80  83
ATOM     83  C   UNL A   1      38.991  32.135  33.531  1.00  0.00     0.078 C 
ATOM     84  C   UNL A   1      38.714  30.894  32.681  1.00  0.00     0.048 C 
ATOM     85  C   UNL A   1      39.380  31.409  34.845  1.00  0.00     0.177 C 
ATOM     86  C   UNL A   1      38.298  29.785  33.637  1.00  0.00     0.161 C 
ATOM     87  O   UNL A   1      38.523  30.268  34.958  1.00  0.00    -0.380 OA
BRANCH  83  88
ATOM     88  C   UNL A   1      37.755  33.077  33.841  1.00  0.00     0.012 C 
ATOM     89  C   UNL A   1      37.696  33.739  35.240  1.00  0.00     0.033 C 
ATOM     90  C   UNL A   1      36.344  32.560  33.468  1.00  0.00     0.043 C 
ATOM     91  C   UNL A   1      36.331  33.626  35.913  1.00  0.00     0.161 C 
ATOM     92  C   UNL A   1      35.314  33.686  33.716  1.00  0.00     0.094 C 
ATOM     93  O   UNL A   1      35.258  34.075  35.099  1.00  0.00    -0.372 OA
ATOM     94  C   UNL A   1      35.565  34.960  32.912  1.00  0.00     0.066 C 
ATOM     95  C   UNL A   1      33.893  33.346  33.245  1.00  0.00     0.195 C 
ATOM     96  C   UNL A   1      34.213  35.634  32.955  1.00  0.00     0.163 C 
ATOM     97  O   UNL A   1      33.241  34.585  32.878  1.00  0.00    -0.378 OA
ENDBRANCH  83  88
ENDBRANCH  80  83
ENDBRANCH  78  79
ENDBRANCH  77  78
ENDBRANCH  76  77
ENDBRANCH  75  76
ENDBRANCH   1  75
TORSDOF 17
ENDMDL
MODEL 3
REMARK VINA RESULT:     -11.6      3.261      9.552
REMARK SMILES O=C(NCCCCCCNC(=O)[C@@]1([C@@H]2CCO[C@@]3(CCOC3)C2)CCOC1)c1ccc(-c2c3nc(c(-c4c(F)cc(S(=O)(=O)[O-])cc4F)c4ccc([nH]4)c(-c4c(F)cc(S(=O)(=O)[O-])cc4F)c4nc(c(-c5c(F)cc(S(=O)(=O)[O-])cc5F)c5ccc2[nH]5)C=C4)C=C3)cc1
REMARK SMILES IDX 5 1 4 2 3 3 1 4 2 5 28 7 29 8 93 9 30 10 92 11 31 12 32 13
REMARK SMILES IDX 33 14 86 15 34 16 91 17 85 18 87 19 35 20 90 21 84 22 83 23
REMARK SMILES IDX 36 25 70 26 49 27 69 28 50 29 53 30 68 31 88 32 51 33 52 34
REMARK SMILES IDX 67 36 89 37 54 38 37 39 38 40 47 41 39 42 40 43 46 44 48 45
REMARK SMILES IDX 41 46 42 47 43 48 44 49 45 50 71 51 72 52 81 53 73 54 74 55
REMARK SMILES IDX 80 56 82 57 75 58 76 59 77 60 78 61 79 62 55 63 56 64 65 65
REMARK SMILES IDX 57 66 58 67 64 68 66 69 59 70 60 71 61 72 62 73 63 74 6 75
REMARK SMILES IDX 7 76 8 77 9 78 10 79 11 80 12 82 13 83 24 84 27 85 25 86
REMARK SMILES IDX 26 87 14 88 15 89 23 90 16 91 18 92 17 93 19 94 22 95 20 96
REMARK SMILES IDX 21 97
REMARK H PARENT 3 6 87 24 53 35 10 81
REMARK Flexibility Score: inf
ROOT
ATOM      1  C   UNL A   1      32.580  27.438  26.957  1.00  0.00     0.021 C 
ENDROOT
BRANCH   1   2
ATOM      2  C   UNL A   1      33.775  28.360  26.750  1.00  0.00     0.116 C 
BRANCH   2   3
ATOM      3  N   UNL A   1      33.588  29.686  27.313  1.00  0.00    -0.352 N 
ATOM      4  O   UNL A   1      34.092  31.519  28.530  1.00  0.00    -0.269 OA
ATOM      5  C   UNL A   1      34.468  30.457  28.040  1.00  0.00     0.251 C 
ATOM      6  H   UNL A   1      32.706  30.091  27.154  1.00  0.00     0.163 HD
BRANCH   5   7
ATOM      7  C   UNL A   1      35.856  29.988  28.262  1.00  0.00     0.039 A 
ATOM      8  C   UNL A   1      36.249  29.468  29.497  1.00  0.00     0.014 A 
ATOM      9  C   UNL A   1      36.785  30.087  27.223  1.00  0.00     0.014 A 
ATOM     10  C   UNL A   1      37.595  29.218  29.744  1.00  0.00     0.010 A 
ATOM     11  C   UNL A   1      38.124  29.743  27.445  1.00  0.00     0.010 A 
ATOM     12  C   UNL A   1      38.551  29.350  28.723  1.00  0.00    -0.014 A 
BRANCH  12  13
ATOM     13  C   UNL A   1      39.978  29.045  29.017  1.00  0.00     0.031 A 
ATOM     14  C   UNL A   1      40.590  27.723  28.631  1.00  0.00     0.074 A 
ATOM     15  C   UNL A   1      40.739  29.994  29.598  1.00  0.00     0.049 A 
ATOM     16  N   UNL A   1      41.830  27.320  28.763  1.00  0.00    -0.248 NA
ATOM     17  C   UNL A   1      39.699  26.719  28.028  1.00  0.00     0.031 C 
ATOM     18  C   UNL A   1      40.257  31.307  30.035  1.00  0.00     0.029 A 
ATOM     19  N   UNL A   1      42.077  30.016  29.899  1.00  0.00    -0.354 N 
ATOM     20  C   UNL A   1      41.864  26.014  28.285  1.00  0.00     0.074 A 
ATOM     21  C   UNL A   1      40.513  25.682  27.882  1.00  0.00     0.031 C 
ATOM     22  C   UNL A   1      41.292  32.028  30.492  1.00  0.00     0.029 A 
ATOM     23  C   UNL A   1      42.499  31.210  30.438  1.00  0.00     0.049 A 
ATOM     24  H   UNL A   1      42.677  29.253  29.744  1.00  0.00     0.167 HD
ATOM     25  C   UNL A   1      42.922  25.173  28.187  1.00  0.00     0.037 A 
ATOM     26  C   UNL A   1      43.718  31.604  30.851  1.00  0.00     0.037 A 
ATOM     27  C   UNL A   1      44.269  25.518  28.568  1.00  0.00     0.049 A 
ATOM     28  C   UNL A   1      44.873  30.653  30.727  1.00  0.00     0.074 A 
ATOM     29  C   UNL A   1      45.417  24.750  28.465  1.00  0.00     0.029 A 
ATOM     30  N   UNL A   1      44.651  26.728  29.130  1.00  0.00    -0.354 N 
ATOM     31  N   UNL A   1      44.891  29.436  30.237  1.00  0.00    -0.248 NA
ATOM     32  C   UNL A   1      46.176  31.129  31.211  1.00  0.00     0.031 C 
ATOM     33  C   UNL A   1      46.483  25.479  29.004  1.00  0.00     0.029 A 
ATOM     34  C   UNL A   1      46.011  26.720  29.396  1.00  0.00     0.049 A 
ATOM     35  H   UNL A   1      44.044  27.482  29.314  1.00  0.00     0.167 HD
ATOM     36  C   UNL A   1      46.210  29.009  30.331  1.00  0.00     0.074 A 
ATOM     37  C   UNL A   1      46.963  30.103  30.912  1.00  0.00     0.031 C 
ATOM     38  C   UNL A   1      46.749  27.819  29.969  1.00  0.00     0.037 A 
BRANCH  25  39
ATOM     39  C   UNL A   1      42.670  23.785  27.661  1.00  0.00     0.058 A 
ATOM     40  C   UNL A   1      42.613  23.510  26.285  1.00  0.00     0.135 A 
ATOM     41  C   UNL A   1      42.525  22.704  28.548  1.00  0.00     0.135 A 
ATOM     42  F   UNL A   1      42.731  24.505  25.391  1.00  0.00    -0.206 F 
ATOM     43  C   UNL A   1      42.392  22.220  25.809  1.00  0.00     0.059 A 
ATOM     44  C   UNL A   1      42.330  21.403  28.093  1.00  0.00     0.059 A 
ATOM     45  F   UNL A   1      42.574  22.907  29.873  1.00  0.00    -0.206 F 
ATOM     46  C   UNL A   1      42.249  21.174  26.721  1.00  0.00     0.060 A 
BRANCH  46  47
ATOM     47  S   UNL A   1      41.959  19.508  26.086  1.00  0.00     0.124 S 
ATOM     48  O   UNL A   1      42.400  18.688  27.210  1.00  0.00    -0.237 OA
ATOM     49  O   UNL A   1      40.522  19.515  25.834  1.00  0.00    -0.237 OA
ATOM     50  O   UNL A   1      42.802  19.446  24.896  1.00  0.00    -0.744 OA
ENDBRANCH  46  47
ENDBRANCH  25  39
BRANCH  26  51
ATOM     51  C   UNL A   1      43.904  32.969  31.407  1.00  0.00     0.058 A 
ATOM     52  C   UNL A   1      43.767  33.215  32.780  1.00  0.00     0.135 A 
ATOM     53  C   UNL A   1      44.247  34.050  30.578  1.00  0.00     0.135 A 
ATOM     54  F   UNL A   1      43.437  32.215  33.611  1.00  0.00    -0.206 F 
ATOM     55  C   UNL A   1      43.949  34.487  33.314  1.00  0.00     0.059 A 
ATOM     56  C   UNL A   1      44.463  35.324  31.091  1.00  0.00     0.059 A 
ATOM     57  F   UNL A   1      44.408  33.862  29.259  1.00  0.00    -0.206 F 
ATOM     58  C   UNL A   1      44.300  35.534  32.461  1.00  0.00     0.060 A 
BRANCH  58  59
ATOM     59  S   UNL A   1      44.588  37.170  33.168  1.00  0.00     0.124 S 
ATOM     60  O   UNL A   1      44.086  38.039  32.110  1.00  0.00    -0.237 OA
ATOM     61  O   UNL A   1      43.789  37.121  34.388  1.00  0.00    -0.237 OA
ATOM     62  O   UNL A   1      46.032  37.196  33.375  1.00  0.00    -0.744 OA
ENDBRANCH  58  59
ENDBRANCH  26  51
BRANCH  38  63
ATOM     63  C   UNL A   1      48.232  27.655  30.151  1.00  0.00     0.058 A 
ATOM     64  C   UNL A   1      49.147  28.035  29.156  1.00  0.00     0.135 A 
ATOM     65  C   UNL A   1      48.746  27.131  31.347  1.00  0.00     0.135 A 
ATOM     66  F   UNL A   1      48.708  28.536  27.989  1.00  0.00    -0.206 F 
ATOM     67  C   UNL A   1      50.518  27.868  29.326  1.00  0.00     0.059 A 
ATOM     68  C   UNL A   1      50.114  26.979  31.551  1.00  0.00     0.059 A 
ATOM     69  F   UNL A   1      47.915  26.762  32.336  1.00  0.00    -0.206 F 
ATOM     70  C   UNL A   1      50.990  27.336  30.528  1.00  0.00     0.060 A 
BRANCH  70  71
ATOM     71  S   UNL A   1      52.771  27.131  30.745  1.00  0.00     0.124 S 
ATOM     72  O   UNL A   1      53.106  26.263  29.621  1.00  0.00    -0.237 OA
ATOM     73  O   UNL A   1      53.258  28.504  30.652  1.00  0.00    -0.237 OA
ATOM     74  O   UNL A   1      52.884  26.522  32.066  1.00  0.00    -0.744 OA
ENDBRANCH  70  71
ENDBRANCH  38  63
ENDBRANCH  12  13
ENDBRANCH   5   7
ENDBRANCH   2   3
ENDBRANCH   1   2
BRANCH   1  75
ATOM     75  C   UNL A   1      31.446  27.573  25.941  1.00  0.00     0.002 C 
BRANCH  75  76
ATOM     76  C   UNL A   1      31.610  26.805  24.625  1.00  0.00     0.002 C 
BRANCH  76  77
ATOM     77  C   UNL A   1      30.493  25.828  24.250  1.00  0.00     0.021 C 
BRANCH  77  78
ATOM     78  C   UNL A   1      30.827  24.343  24.348  1.00  0.00     0.116 C 
BRANCH  78  79
ATOM     79  N   UNL A   1      31.066  23.906  25.711  1.00  0.00    -0.356 N 
ATOM     80  C   UNL A   1      32.169  23.484  26.379  1.00  0.00     0.228 C 
ATOM     81  H   UNL A   1      30.255  23.917  26.270  1.00  0.00     0.163 HD
ATOM     82  O   UNL A   1      32.003  23.251  27.584  1.00  0.00    -0.274 OA
BRANCH  80  83
ATOM     83  C   UNL A   1      33.544  23.204  25.739  1.00  0.00     0.078 C 
ATOM     84  C   UNL A   1      34.260  24.372  25.060  1.00  0.00     0.048 C 
ATOM     85  C   UNL A   1      34.501  23.044  26.950  1.00  0.00     0.177 C 
ATOM     86  C   UNL A   1      35.726  24.288  25.459  1.00  0.00     0.161 C 
ATOM     87  O   UNL A   1      35.826  23.284  26.466  1.00  0.00    -0.380 OA
BRANCH  83  88
ATOM     88  C   UNL A   1      33.519  21.828  24.952  1.00  0.00     0.012 C 
ATOM     89  C   UNL A   1      33.128  21.870  23.454  1.00  0.00     0.033 C 
ATOM     90  C   UNL A   1      32.810  20.627  25.625  1.00  0.00     0.043 C 
ATOM     91  C   UNL A   1      32.101  20.813  23.060  1.00  0.00     0.161 C 
ATOM     92  C   UNL A   1      33.033  19.364  24.761  1.00  0.00     0.094 C 
ATOM     93  O   UNL A   1      32.463  19.497  23.449  1.00  0.00    -0.372 OA
ATOM     94  C   UNL A   1      34.499  18.984  24.566  1.00  0.00     0.066 C 
ATOM     95  C   UNL A   1      32.502  18.072  25.397  1.00  0.00     0.195 C 
ATOM     96  C   UNL A   1      34.399  17.531  24.160  1.00  0.00     0.163 C 
ATOM     97  O   UNL A   1      33.321  16.977  24.923  1.00  0.00    -0.378 OA
ENDBRANCH  83  88
ENDBRANCH  80  83
ENDBRANCH  78  79
ENDBRANCH  77  78
ENDBRANCH  76  77
ENDBRANCH  75  76
ENDBRANCH   1  75
TORSDOF 17
ENDMDL
