MODEL 1
REMARK VINA RESULT:     -11.0      0.000      0.000
REMARK SMILES O=C(NCCCCCCNC(=O)[C@H]1C[C@@H](O)CN1C(=O)C[C@@H]1CSCC[NH2+]1)c1ccc(-c2c3nc(c(-c4c(F)cc(S(=O)(=O)[O-])cc4F)c4ccc([nH]4)c(-c4c(F)cc(S(=O)(=O)[O-])cc4F)c4nc(c(-c5c(F)cc(S(=O)(=O)[O-])cc5F)c5ccc2[nH]5)C=C4)C=C3)cc1
REMARK SMILES IDX 6 1 5 2 4 3 3 4 1 5 2 6 28 8 29 9 93 10 30 11 92 12 31 13
REMARK SMILES IDX 32 14 33 15 86 16 34 17 91 18 85 19 87 20 35 21 90 22 84 23
REMARK SMILES IDX 83 24 36 26 70 27 49 28 69 29 50 30 53 31 68 32 88 33 51 34
REMARK SMILES IDX 52 35 67 37 89 38 54 39 37 40 38 41 47 42 39 43 40 44 46 45
REMARK SMILES IDX 48 46 41 47 42 48 43 49 44 50 45 51 71 52 72 53 81 54 73 55
REMARK SMILES IDX 74 56 80 57 82 58 75 59 76 60 77 61 78 62 79 63 55 64 56 65
REMARK SMILES IDX 65 66 57 67 58 68 64 69 66 70 59 71 60 72 61 73 62 74 63 75
REMARK SMILES IDX 7 76 8 77 9 78 10 79 11 80 12 82 13 83 14 84 18 85 15 86
REMARK SMILES IDX 17 87 19 88 20 89 21 90 22 91 23 92 27 93 24 94 26 95 25 98
REMARK SMILES IDX 16 99
REMARK H PARENT 3 7 87 25 53 36 10 81 27 96 27 97 16 100
REMARK Flexibility Score: inf
ROOT
ATOM      1  C   UNL A   1      34.504  32.034  28.389  1.00  0.00     0.002 C 
ENDROOT
BRANCH   1   2
ATOM      2  C   UNL A   1      35.761  32.897  28.252  1.00  0.00     0.021 C 
BRANCH   2   3
ATOM      3  C   UNL A   1      36.678  32.839  29.468  1.00  0.00     0.116 C 
BRANCH   3   4
ATOM      4  N   UNL A   1      36.194  31.870  30.438  1.00  0.00    -0.352 N 
ATOM      5  O   UNL A   1      35.985  29.808  31.321  1.00  0.00    -0.269 OA
ATOM      6  C   UNL A   1      36.681  30.621  30.712  1.00  0.00     0.251 C 
ATOM      7  H   UNL A   1      35.413  32.150  30.967  1.00  0.00     0.163 HD
BRANCH   6   8
ATOM      8  C   UNL A   1      38.045  30.261  30.280  1.00  0.00     0.039 A 
ATOM      9  C   UNL A   1      39.075  30.151  31.222  1.00  0.00     0.014 A 
ATOM     10  C   UNL A   1      38.287  29.992  28.933  1.00  0.00     0.014 A 
ATOM     11  C   UNL A   1      40.368  29.863  30.804  1.00  0.00     0.010 A 
ATOM     12  C   UNL A   1      39.572  29.636  28.523  1.00  0.00     0.010 A 
ATOM     13  C   UNL A   1      40.623  29.579  29.455  1.00  0.00    -0.014 A 
BRANCH  13  14
ATOM     14  C   UNL A   1      41.974  29.144  29.029  1.00  0.00     0.031 A 
ATOM     15  C   UNL A   1      43.097  30.132  28.921  1.00  0.00     0.074 A 
ATOM     16  C   UNL A   1      42.162  27.855  28.693  1.00  0.00     0.049 A 
ATOM     17  N   UNL A   1      44.311  29.952  28.470  1.00  0.00    -0.248 NA
ATOM     18  C   UNL A   1      42.816  31.505  29.368  1.00  0.00     0.031 C 
ATOM     19  C   UNL A   1      41.133  26.813  28.753  1.00  0.00     0.029 A 
ATOM     20  N   UNL A   1      43.269  27.203  28.216  1.00  0.00    -0.354 N 
ATOM     21  C   UNL A   1      44.934  31.191  28.551  1.00  0.00     0.074 A 
ATOM     22  C   UNL A   1      43.955  32.119  29.079  1.00  0.00     0.031 C 
ATOM     23  C   UNL A   1      41.656  25.655  28.327  1.00  0.00     0.029 A 
ATOM     24  C   UNL A   1      43.034  25.884  27.907  1.00  0.00     0.049 A 
ATOM     25  H   UNL A   1      44.146  27.635  28.108  1.00  0.00     0.167 HD
ATOM     26  C   UNL A   1      46.205  31.518  28.215  1.00  0.00     0.037 A 
ATOM     27  C   UNL A   1      43.822  24.970  27.311  1.00  0.00     0.037 A 
ATOM     28  C   UNL A   1      47.163  30.577  27.691  1.00  0.00     0.049 A 
ATOM     29  C   UNL A   1      45.218  25.357  26.921  1.00  0.00     0.074 A 
ATOM     30  C   UNL A   1      48.488  30.795  27.358  1.00  0.00     0.029 A 
ATOM     31  N   UNL A   1      46.893  29.246  27.406  1.00  0.00    -0.354 N 
ATOM     32  N   UNL A   1      45.810  26.521  27.045  1.00  0.00    -0.248 NA
ATOM     33  C   UNL A   1      46.054  24.315  26.313  1.00  0.00     0.031 C 
ATOM     34  C   UNL A   1      49.004  29.608  26.826  1.00  0.00     0.029 A 
ATOM     35  C   UNL A   1      48.017  28.635  26.878  1.00  0.00     0.049 A 
ATOM     36  H   UNL A   1      46.027  28.800  27.558  1.00  0.00     0.167 HD
ATOM     37  C   UNL A   1      47.097  26.348  26.553  1.00  0.00     0.074 A 
ATOM     38  C   UNL A   1      47.197  24.965  26.129  1.00  0.00     0.031 C 
ATOM     39  C   UNL A   1      48.103  27.252  26.467  1.00  0.00     0.037 A 
BRANCH  26  40
ATOM     40  C   UNL A   1      46.613  32.958  28.365  1.00  0.00     0.058 A 
ATOM     41  C   UNL A   1      46.434  33.895  27.334  1.00  0.00     0.135 A 
ATOM     42  C   UNL A   1      47.198  33.408  29.560  1.00  0.00     0.135 A 
ATOM     43  F   UNL A   1      45.889  33.519  26.166  1.00  0.00    -0.206 F 
ATOM     44  C   UNL A   1      46.868  35.211  27.463  1.00  0.00     0.059 A 
ATOM     45  C   UNL A   1      47.614  34.728  29.722  1.00  0.00     0.059 A 
ATOM     46  F   UNL A   1      47.387  32.560  30.583  1.00  0.00    -0.206 F 
ATOM     47  C   UNL A   1      47.468  35.615  28.657  1.00  0.00     0.060 A 
BRANCH  47  48
ATOM     48  S   UNL A   1      48.075  37.310  28.789  1.00  0.00     0.124 S 
ATOM     49  O   UNL A   1      48.272  37.656  27.385  1.00  0.00    -0.237 OA
ATOM     50  O   UNL A   1      46.970  37.988  29.459  1.00  0.00    -0.237 OA
ATOM     51  O   UNL A   1      49.294  37.174  29.581  1.00  0.00    -0.744 OA
ENDBRANCH  47  48
ENDBRANCH  26  40
BRANCH  27  52
ATOM     52  C   UNL A   1      43.276  23.614  27.050  1.00  0.00     0.058 A 
ATOM     53  C   UNL A   1      42.892  23.226  25.759  1.00  0.00     0.135 A 
ATOM     54  C   UNL A   1      43.226  22.649  28.069  1.00  0.00     0.135 A 
ATOM     55  F   UNL A   1      42.919  24.114  24.754  1.00  0.00    -0.206 F 
ATOM     56  C   UNL A   1      42.490  21.922  25.484  1.00  0.00     0.059 A 
ATOM     57  C   UNL A   1      42.853  21.335  27.813  1.00  0.00     0.059 A 
ATOM     58  F   UNL A   1      43.605  22.970  29.316  1.00  0.00    -0.206 F 
ATOM     59  C   UNL A   1      42.488  20.980  26.516  1.00  0.00     0.060 A 
BRANCH  59  60
ATOM     60  S   UNL A   1      42.070  19.268  26.122  1.00  0.00     0.124 S 
ATOM     61  O   UNL A   1      42.457  18.581  27.349  1.00  0.00    -0.237 OA
ATOM     62  O   UNL A   1      40.635  19.354  25.864  1.00  0.00    -0.237 OA
ATOM     63  O   UNL A   1      42.893  18.981  24.950  1.00  0.00    -0.744 OA
ENDBRANCH  59  60
ENDBRANCH  27  52
BRANCH  39  64
ATOM     64  C   UNL A   1      49.424  26.778  25.931  1.00  0.00     0.058 A 
ATOM     65  C   UNL A   1      49.770  26.932  24.581  1.00  0.00     0.135 A 
ATOM     66  C   UNL A   1      50.393  26.259  26.804  1.00  0.00     0.135 A 
ATOM     67  F   UNL A   1      48.875  27.411  23.703  1.00  0.00    -0.206 F 
ATOM     68  C   UNL A   1      51.036  26.594  24.115  1.00  0.00     0.059 A 
ATOM     69  C   UNL A   1      51.673  25.936  26.366  1.00  0.00     0.059 A 
ATOM     70  F   UNL A   1      50.111  26.097  28.108  1.00  0.00    -0.206 F 
ATOM     71  C   UNL A   1      51.985  26.108  25.018  1.00  0.00     0.060 A 
BRANCH  71  72
ATOM     72  S   UNL A   1      53.651  25.757  24.419  1.00  0.00     0.124 S 
ATOM     73  O   UNL A   1      53.840  24.379  24.861  1.00  0.00    -0.237 OA
ATOM     74  O   UNL A   1      53.512  25.947  22.979  1.00  0.00    -0.237 OA
ATOM     75  O   UNL A   1      54.475  26.753  25.099  1.00  0.00    -0.744 OA
ENDBRANCH  71  72
ENDBRANCH  39  64
ENDBRANCH  13  14
ENDBRANCH   6   8
ENDBRANCH   3   4
ENDBRANCH   2   3
ENDBRANCH   1   2
BRANCH   1  76
ATOM     76  C   UNL A   1      34.313  31.014  27.261  1.00  0.00     0.002 C 
BRANCH  76  77
ATOM     77  C   UNL A   1      34.117  29.567  27.736  1.00  0.00     0.021 C 
BRANCH  77  78
ATOM     78  C   UNL A   1      34.213  28.542  26.605  1.00  0.00     0.116 C 
BRANCH  78  79
ATOM     79  N   UNL A   1      34.059  29.202  25.331  1.00  0.00    -0.354 N 
ATOM     80  C   UNL A   1      33.503  28.719  24.192  1.00  0.00     0.242 C 
ATOM     81  H   UNL A   1      34.402  30.123  25.283  1.00  0.00     0.163 HD
ATOM     82  O   UNL A   1      33.730  29.356  23.155  1.00  0.00    -0.273 OA
BRANCH  80  83
ATOM     83  C   UNL A   1      32.625  27.437  24.183  1.00  0.00     0.177 C 
ATOM     84  C   UNL A   1      31.220  27.797  24.707  1.00  0.00     0.069 C 
ATOM     85  N   UNL A   1      32.348  26.906  22.840  1.00  0.00    -0.328 N 
ATOM     86  C   UNL A   1      30.485  28.276  23.454  1.00  0.00     0.136 C 
ATOM     87  C   UNL A   1      31.049  27.367  22.370  1.00  0.00     0.152 C 
BRANCH  85  88
ATOM     88  C   UNL A   1      32.946  25.759  22.342  1.00  0.00     0.229 C 
ATOM     89  O   UNL A   1      33.394  25.699  21.197  1.00  0.00    -0.275 OA
BRANCH  88  90
ATOM     90  C   UNL A   1      32.981  24.534  23.249  1.00  0.00     0.166 C 
BRANCH  90  91
ATOM     91  C   UNL A   1      31.666  23.727  23.262  1.00  0.00     0.201 C 
ATOM     92  C   UNL A   1      31.022  23.708  24.670  1.00  0.00     0.135 C 
ATOM     93  N   UNL A   1      31.772  22.366  22.696  1.00  0.00    -0.342 N 
ATOM     94  S   UNL A   1      31.942  22.702  25.888  1.00  0.00    -0.150 SA
ATOM     95  C   UNL A   1      32.561  21.436  23.507  1.00  0.00     0.271 C 
ATOM     96  H   UNL A   1      32.207  22.435  21.776  1.00  0.00     0.346 HD
ATOM     97  H   UNL A   1      30.824  21.989  22.660  1.00  0.00     0.346 HD
ATOM     98  C   UNL A   1      32.020  21.170  24.910  1.00  0.00     0.131 C 
ENDBRANCH  90  91
ENDBRANCH  88  90
ENDBRANCH  85  88
BRANCH  86  99
ATOM     99  O   UNL A   1      30.698  29.643  23.134  1.00  0.00    -0.391 OA
ATOM    100  H   UNL A   1      30.073  30.193  23.633  1.00  0.00     0.211 HD
ENDBRANCH  86  99
ENDBRANCH  80  83
ENDBRANCH  78  79
ENDBRANCH  77  78
ENDBRANCH  76  77
ENDBRANCH   1  76
TORSDOF 20
ENDMDL
MODEL 2
REMARK VINA RESULT:     -10.9      6.609     11.776
REMARK SMILES O=C(NCCCCCCNC(=O)[C@H]1C[C@@H](O)CN1C(=O)C[C@@H]1CSCC[NH2+]1)c1ccc(-c2c3nc(c(-c4c(F)cc(S(=O)(=O)[O-])cc4F)c4ccc([nH]4)c(-c4c(F)cc(S(=O)(=O)[O-])cc4F)c4nc(c(-c5c(F)cc(S(=O)(=O)[O-])cc5F)c5ccc2[nH]5)C=C4)C=C3)cc1
REMARK SMILES IDX 6 1 5 2 4 3 3 4 1 5 2 6 28 8 29 9 93 10 30 11 92 12 31 13
REMARK SMILES IDX 32 14 33 15 86 16 34 17 91 18 85 19 87 20 35 21 90 22 84 23
REMARK SMILES IDX 83 24 36 26 70 27 49 28 69 29 50 30 53 31 68 32 88 33 51 34
REMARK SMILES IDX 52 35 67 37 89 38 54 39 37 40 38 41 47 42 39 43 40 44 46 45
REMARK SMILES IDX 48 46 41 47 42 48 43 49 44 50 45 51 71 52 72 53 81 54 73 55
REMARK SMILES IDX 74 56 80 57 82 58 75 59 76 60 77 61 78 62 79 63 55 64 56 65
REMARK SMILES IDX 65 66 57 67 58 68 64 69 66 70 59 71 60 72 61 73 62 74 63 75
REMARK SMILES IDX 7 76 8 77 9 78 10 79 11 80 12 82 13 83 14 84 18 85 15 86
REMARK SMILES IDX 17 87 19 88 20 89 21 90 22 91 23 92 27 93 24 94 26 95 25 98
REMARK SMILES IDX 16 99
REMARK H PARENT 3 7 87 25 53 36 10 81 27 96 27 97 16 100
REMARK Flexibility Score: inf
ROOT
ATOM      1  C   UNL A   1      38.075  23.543  26.298  1.00  0.00     0.002 C 
ENDROOT
BRANCH   1   2
ATOM      2  C   UNL A   1      39.290  22.652  26.573  1.00  0.00     0.021 C 
BRANCH   2   3
ATOM      3  C   UNL A   1      40.491  23.410  27.125  1.00  0.00     0.116 C 
BRANCH   3   4
ATOM      4  N   UNL A   1      41.111  24.225  26.092  1.00  0.00    -0.352 N 
ATOM      5  O   UNL A   1      41.500  26.144  24.977  1.00  0.00    -0.269 OA
ATOM      6  C   UNL A   1      41.244  25.587  26.044  1.00  0.00     0.251 C 
ATOM      7  H   UNL A   1      41.484  23.732  25.326  1.00  0.00     0.163 HD
BRANCH   6   8
ATOM      8  C   UNL A   1      41.086  26.377  27.280  1.00  0.00     0.039 A 
ATOM      9  C   UNL A   1      41.980  27.415  27.570  1.00  0.00     0.014 A 
ATOM     10  C   UNL A   1      40.015  26.106  28.133  1.00  0.00     0.014 A 
ATOM     11  C   UNL A   1      41.858  28.122  28.760  1.00  0.00     0.010 A 
ATOM     12  C   UNL A   1      39.854  26.862  29.294  1.00  0.00     0.010 A 
ATOM     13  C   UNL A   1      40.779  27.868  29.620  1.00  0.00    -0.014 A 
BRANCH  13  14
ATOM     14  C   UNL A   1      40.575  28.708  30.823  1.00  0.00     0.031 A 
ATOM     15  C   UNL A   1      39.526  29.779  30.840  1.00  0.00     0.074 A 
ATOM     16  C   UNL A   1      41.383  28.526  31.883  1.00  0.00     0.049 A 
ATOM     17  N   UNL A   1      39.276  30.673  31.762  1.00  0.00    -0.248 NA
ATOM     18  C   UNL A   1      38.649  29.865  29.662  1.00  0.00     0.031 C 
ATOM     19  C   UNL A   1      42.444  27.517  31.967  1.00  0.00     0.029 A 
ATOM     20  N   UNL A   1      41.459  29.188  33.081  1.00  0.00    -0.354 N 
ATOM     21  C   UNL A   1      38.233  31.446  31.267  1.00  0.00     0.074 A 
ATOM     22  C   UNL A   1      37.909  30.926  29.955  1.00  0.00     0.031 C 
ATOM     23  C   UNL A   1      43.064  27.630  33.149  1.00  0.00     0.029 A 
ATOM     24  C   UNL A   1      42.489  28.754  33.880  1.00  0.00     0.049 A 
ATOM     25  H   UNL A   1      40.835  29.903  33.343  1.00  0.00     0.167 HD
ATOM     26  C   UNL A   1      37.607  32.493  31.859  1.00  0.00     0.037 A 
ATOM     27  C   UNL A   1      42.951  29.232  35.050  1.00  0.00     0.037 A 
ATOM     28  C   UNL A   1      37.946  32.994  33.167  1.00  0.00     0.049 A 
ATOM     29  C   UNL A   1      42.263  30.408  35.678  1.00  0.00     0.074 A 
ATOM     30  C   UNL A   1      37.348  34.020  33.876  1.00  0.00     0.029 A 
ATOM     31  N   UNL A   1      38.986  32.517  33.954  1.00  0.00    -0.354 N 
ATOM     32  N   UNL A   1      41.248  31.102  35.222  1.00  0.00    -0.248 NA
ATOM     33  C   UNL A   1      42.775  30.867  36.974  1.00  0.00     0.031 C 
ATOM     34  C   UNL A   1      38.057  34.196  35.069  1.00  0.00     0.029 A 
ATOM     35  C   UNL A   1      39.064  33.245  35.130  1.00  0.00     0.049 A 
ATOM     36  H   UNL A   1      39.582  31.771  33.711  1.00  0.00     0.167 HD
ATOM     37  C   UNL A   1      40.983  32.067  36.184  1.00  0.00     0.074 A 
ATOM     38  C   UNL A   1      41.946  31.867  37.250  1.00  0.00     0.031 C 
ATOM     39  C   UNL A   1      40.025  33.026  36.186  1.00  0.00     0.037 A 
BRANCH  26  40
ATOM     40  C   UNL A   1      36.525  33.185  31.076  1.00  0.00     0.058 A 
ATOM     41  C   UNL A   1      36.814  34.011  29.977  1.00  0.00     0.135 A 
ATOM     42  C   UNL A   1      35.177  33.024  31.434  1.00  0.00     0.135 A 
ATOM     43  F   UNL A   1      38.085  34.209  29.595  1.00  0.00    -0.206 F 
ATOM     44  C   UNL A   1      35.809  34.693  29.296  1.00  0.00     0.059 A 
ATOM     45  C   UNL A   1      34.153  33.675  30.750  1.00  0.00     0.059 A 
ATOM     46  F   UNL A   1      34.841  32.241  32.472  1.00  0.00    -0.206 F 
ATOM     47  C   UNL A   1      34.483  34.528  29.698  1.00  0.00     0.060 A 
BRANCH  47  48
ATOM     48  S   UNL A   1      33.197  35.461  28.841  1.00  0.00     0.124 S 
ATOM     49  O   UNL A   1      32.443  36.011  29.963  1.00  0.00    -0.237 OA
ATOM     50  O   UNL A   1      33.971  36.424  28.065  1.00  0.00    -0.237 OA
ATOM     51  O   UNL A   1      32.504  34.442  28.057  1.00  0.00    -0.744 OA
ENDBRANCH  47  48
ENDBRANCH  26  40
BRANCH  27  52
ATOM     52  C   UNL A   1      44.135  28.586  35.671  1.00  0.00     0.058 A 
ATOM     53  C   UNL A   1      43.990  27.508  36.556  1.00  0.00     0.135 A 
ATOM     54  C   UNL A   1      45.437  28.967  35.309  1.00  0.00     0.135 A 
ATOM     55  F   UNL A   1      42.766  27.109  36.933  1.00  0.00    -0.206 F 
ATOM     56  C   UNL A   1      45.094  26.822  37.050  1.00  0.00     0.059 A 
ATOM     57  C   UNL A   1      46.555  28.281  35.769  1.00  0.00     0.059 A 
ATOM     58  F   UNL A   1      45.625  29.980  34.448  1.00  0.00    -0.206 F 
ATOM     59  C   UNL A   1      46.373  27.207  36.639  1.00  0.00     0.060 A 
BRANCH  59  60
ATOM     60  S   UNL A   1      47.790  26.239  37.201  1.00  0.00     0.124 S 
ATOM     61  O   UNL A   1      48.482  27.199  38.054  1.00  0.00    -0.237 OA
ATOM     62  O   UNL A   1      47.147  25.124  37.888  1.00  0.00    -0.237 OA
ATOM     63  O   UNL A   1      48.473  25.890  35.959  1.00  0.00    -0.744 OA
ENDBRANCH  59  60
ENDBRANCH  27  52
BRANCH  39  64
ATOM     64  C   UNL A   1      39.931  33.918  37.391  1.00  0.00     0.058 A 
ATOM     65  C   UNL A   1      40.571  35.164  37.439  1.00  0.00     0.135 A 
ATOM     66  C   UNL A   1      39.104  33.561  38.468  1.00  0.00     0.135 A 
ATOM     67  F   UNL A   1      41.383  35.546  36.441  1.00  0.00    -0.206 F 
ATOM     68  C   UNL A   1      40.389  36.032  38.510  1.00  0.00     0.059 A 
ATOM     69  C   UNL A   1      38.887  34.421  39.539  1.00  0.00     0.059 A 
ATOM     70  F   UNL A   1      38.466  32.379  38.468  1.00  0.00    -0.206 F 
ATOM     71  C   UNL A   1      39.535  35.656  39.550  1.00  0.00     0.060 A 
BRANCH  71  72
ATOM     72  S   UNL A   1      39.236  36.827  40.892  1.00  0.00     0.124 S 
ATOM     73  O   UNL A   1      38.451  36.019  41.820  1.00  0.00    -0.237 OA
ATOM     74  O   UNL A   1      40.589  37.156  41.327  1.00  0.00    -0.237 OA
ATOM     75  O   UNL A   1      38.513  37.915  40.239  1.00  0.00    -0.744 OA
ENDBRANCH  71  72
ENDBRANCH  39  64
ENDBRANCH  13  14
ENDBRANCH   6   8
ENDBRANCH   3   4
ENDBRANCH   2   3
ENDBRANCH   1   2
BRANCH   1  76
ATOM     76  C   UNL A   1      37.070  22.951  25.304  1.00  0.00     0.002 C 
BRANCH  76  77
ATOM     77  C   UNL A   1      36.947  21.421  25.355  1.00  0.00     0.021 C 
BRANCH  77  78
ATOM     78  C   UNL A   1      35.502  20.929  25.268  1.00  0.00     0.116 C 
BRANCH  78  79
ATOM     79  N   UNL A   1      34.818  21.195  26.511  1.00  0.00    -0.354 N 
ATOM     80  C   UNL A   1      33.953  22.199  26.801  1.00  0.00     0.242 C 
ATOM     81  H   UNL A   1      35.003  20.565  27.244  1.00  0.00     0.163 HD
ATOM     82  O   UNL A   1      33.709  22.388  27.999  1.00  0.00    -0.273 OA
BRANCH  80  83
ATOM     83  C   UNL A   1      33.297  23.067  25.691  1.00  0.00     0.177 C 
ATOM     84  C   UNL A   1      31.899  22.497  25.379  1.00  0.00     0.069 C 
ATOM     85  N   UNL A   1      33.004  24.449  26.101  1.00  0.00    -0.328 N 
ATOM     86  C   UNL A   1      30.998  23.181  26.408  1.00  0.00     0.136 C 
ATOM     87  C   UNL A   1      31.614  24.571  26.518  1.00  0.00     0.152 C 
BRANCH  85  88
ATOM     88  C   UNL A   1      33.740  25.540  25.664  1.00  0.00     0.229 C 
ATOM     89  O   UNL A   1      34.837  25.414  25.121  1.00  0.00    -0.275 OA
BRANCH  88  90
ATOM     90  C   UNL A   1      33.168  26.927  25.934  1.00  0.00     0.166 C 
BRANCH  90  91
ATOM     91  C   UNL A   1      33.699  28.019  24.981  1.00  0.00     0.201 C 
ATOM     92  C   UNL A   1      32.986  29.374  25.212  1.00  0.00     0.135 C 
ATOM     93  N   UNL A   1      33.698  27.643  23.552  1.00  0.00    -0.342 N 
ATOM     94  S   UNL A   1      31.242  29.393  24.664  1.00  0.00    -0.150 SA
ATOM     95  C   UNL A   1      32.363  27.523  22.961  1.00  0.00     0.271 C 
ATOM     96  H   UNL A   1      34.171  26.744  23.457  1.00  0.00     0.346 HD
ATOM     97  H   UNL A   1      34.172  28.396  23.051  1.00  0.00     0.346 HD
ATOM     98  C   UNL A   1      31.527  28.801  22.968  1.00  0.00     0.131 C 
ENDBRANCH  90  91
ENDBRANCH  88  90
ENDBRANCH  85  88
BRANCH  86  99
ATOM     99  O   UNL A   1      30.959  22.540  27.675  1.00  0.00    -0.391 OA
ATOM    100  H   UNL A   1      31.684  22.874  28.228  1.00  0.00     0.211 HD
ENDBRANCH  86  99
ENDBRANCH  80  83
ENDBRANCH  78  79
ENDBRANCH  77  78
ENDBRANCH  76  77
ENDBRANCH   1  76
TORSDOF 20
ENDMDL
MODEL 3
REMARK VINA RESULT:     -10.6      6.633     11.860
REMARK SMILES O=C(NCCCCCCNC(=O)[C@H]1C[C@@H](O)CN1C(=O)C[C@@H]1CSCC[NH2+]1)c1ccc(-c2c3nc(c(-c4c(F)cc(S(=O)(=O)[O-])cc4F)c4ccc([nH]4)c(-c4c(F)cc(S(=O)(=O)[O-])cc4F)c4nc(c(-c5c(F)cc(S(=O)(=O)[O-])cc5F)c5ccc2[nH]5)C=C4)C=C3)cc1
REMARK SMILES IDX 6 1 5 2 4 3 3 4 1 5 2 6 28 8 29 9 93 10 30 11 92 12 31 13
REMARK SMILES IDX 32 14 33 15 86 16 34 17 91 18 85 19 87 20 35 21 90 22 84 23
REMARK SMILES IDX 83 24 36 26 70 27 49 28 69 29 50 30 53 31 68 32 88 33 51 34
REMARK SMILES IDX 52 35 67 37 89 38 54 39 37 40 38 41 47 42 39 43 40 44 46 45
REMARK SMILES IDX 48 46 41 47 42 48 43 49 44 50 45 51 71 52 72 53 81 54 73 55
REMARK SMILES IDX 74 56 80 57 82 58 75 59 76 60 77 61 78 62 79 63 55 64 56 65
REMARK SMILES IDX 65 66 57 67 58 68 64 69 66 70 59 71 60 72 61 73 62 74 63 75
REMARK SMILES IDX 7 76 8 77 9 78 10 79 11 80 12 82 13 83 14 84 18 85 15 86
REMARK SMILES IDX 17 87 19 88 20 89 21 90 22 91 23 92 27 93 24 94 26 95 25 98
REMARK SMILES IDX 16 99
REMARK H PARENT 3 7 87 25 53 36 10 81 27 96 27 97 16 100
REMARK Flexibility Score: inf
ROOT
ATOM      1  C   UNL A   1      38.475  21.926  25.651  1.00  0.00     0.002 C 
ENDROOT
BRANCH   1   2
ATOM      2  C   UNL A   1      38.603  23.329  26.250  1.00  0.00     0.021 C 
BRANCH   2   3
ATOM      3  C   UNL A   1      39.928  23.572  26.962  1.00  0.00     0.116 C 
BRANCH   3   4
ATOM      4  N   UNL A   1      40.886  24.210  26.074  1.00  0.00    -0.352 N 
ATOM      5  O   UNL A   1      41.856  25.973  25.059  1.00  0.00    -0.269 OA
ATOM      6  C   UNL A   1      41.292  25.518  26.054  1.00  0.00     0.251 C 
ATOM      7  H   UNL A   1      41.297  23.625  25.397  1.00  0.00     0.163 HD
BRANCH   6   8
ATOM      8  C   UNL A   1      41.054  26.371  27.234  1.00  0.00     0.039 A 
ATOM      9  C   UNL A   1      40.079  26.016  28.173  1.00  0.00     0.014 A 
ATOM     10  C   UNL A   1      41.837  27.510  27.422  1.00  0.00     0.014 A 
ATOM     11  C   UNL A   1      39.823  26.849  29.255  1.00  0.00     0.010 A 
ATOM     12  C   UNL A   1      41.626  28.310  28.545  1.00  0.00     0.010 A 
ATOM     13  C   UNL A   1      40.611  27.991  29.463  1.00  0.00    -0.014 A 
BRANCH  13  14
ATOM     14  C   UNL A   1      40.425  28.808  30.685  1.00  0.00     0.031 A 
ATOM     15  C   UNL A   1      39.382  29.885  30.735  1.00  0.00     0.074 A 
ATOM     16  C   UNL A   1      41.244  28.600  31.732  1.00  0.00     0.049 A 
ATOM     17  N   UNL A   1      39.148  30.761  31.677  1.00  0.00    -0.248 NA
ATOM     18  C   UNL A   1      38.493  29.999  29.568  1.00  0.00     0.031 C 
ATOM     19  C   UNL A   1      42.299  27.584  31.784  1.00  0.00     0.029 A 
ATOM     20  N   UNL A   1      41.336  29.238  32.942  1.00  0.00    -0.354 N 
ATOM     21  C   UNL A   1      38.105  31.550  31.209  1.00  0.00     0.074 A 
ATOM     22  C   UNL A   1      37.763  31.059  29.891  1.00  0.00     0.031 C 
ATOM     23  C   UNL A   1      42.932  27.670  32.961  1.00  0.00     0.029 A 
ATOM     24  C   UNL A   1      42.372  28.782  33.721  1.00  0.00     0.049 A 
ATOM     25  H   UNL A   1      40.720  29.951  33.225  1.00  0.00     0.167 HD
ATOM     26  C   UNL A   1      37.491  32.589  31.828  1.00  0.00     0.037 A 
ATOM     27  C   UNL A   1      42.850  29.234  34.895  1.00  0.00     0.037 A 
ATOM     28  C   UNL A   1      37.848  33.062  33.142  1.00  0.00     0.049 A 
ATOM     29  C   UNL A   1      42.177  30.402  35.553  1.00  0.00     0.074 A 
ATOM     30  C   UNL A   1      37.264  34.077  33.878  1.00  0.00     0.029 A 
ATOM     31  N   UNL A   1      38.893  32.563  33.908  1.00  0.00    -0.354 N 
ATOM     32  N   UNL A   1      41.161  31.110  35.122  1.00  0.00    -0.248 NA
ATOM     33  C   UNL A   1      42.706  30.832  36.853  1.00  0.00     0.031 C 
ATOM     34  C   UNL A   1      37.987  34.225  35.067  1.00  0.00     0.029 A 
ATOM     35  C   UNL A   1      38.989  33.267  35.097  1.00  0.00     0.049 A 
ATOM     36  H   UNL A   1      39.482  31.819  33.644  1.00  0.00     0.167 HD
ATOM     37  C   UNL A   1      40.912  32.058  36.107  1.00  0.00     0.074 A 
ATOM     38  C   UNL A   1      41.885  31.830  37.158  1.00  0.00     0.031 C 
ATOM     39  C   UNL A   1      39.960  33.022  36.138  1.00  0.00     0.037 A 
BRANCH  26  40
ATOM     40  C   UNL A   1      36.405  33.303  31.072  1.00  0.00     0.058 A 
ATOM     41  C   UNL A   1      36.686  34.139  29.978  1.00  0.00     0.135 A 
ATOM     42  C   UNL A   1      35.061  33.153  31.450  1.00  0.00     0.135 A 
ATOM     43  F   UNL A   1      37.953  34.327  29.578  1.00  0.00    -0.206 F 
ATOM     44  C   UNL A   1      35.678  34.840  29.322  1.00  0.00     0.059 A 
ATOM     45  C   UNL A   1      34.034  33.824  30.790  1.00  0.00     0.059 A 
ATOM     46  F   UNL A   1      34.733  32.362  32.484  1.00  0.00    -0.206 F 
ATOM     47  C   UNL A   1      34.357  34.686  29.744  1.00  0.00     0.060 A 
BRANCH  47  48
ATOM     48  S   UNL A   1      33.068  35.643  28.918  1.00  0.00     0.124 S 
ATOM     49  O   UNL A   1      32.333  36.181  30.059  1.00  0.00    -0.237 OA
ATOM     50  O   UNL A   1      33.840  36.613  28.149  1.00  0.00    -0.237 OA
ATOM     51  O   UNL A   1      32.357  34.644  28.127  1.00  0.00    -0.744 OA
ENDBRANCH  47  48
ENDBRANCH  26  40
BRANCH  27  52
ATOM     52  C   UNL A   1      44.037  28.568  35.490  1.00  0.00     0.058 A 
ATOM     53  C   UNL A   1      45.336  29.005  35.194  1.00  0.00     0.135 A 
ATOM     54  C   UNL A   1      43.887  27.551  36.446  1.00  0.00     0.135 A 
ATOM     55  F   UNL A   1      45.528  29.972  34.286  1.00  0.00    -0.206 F 
ATOM     56  C   UNL A   1      46.445  28.465  35.836  1.00  0.00     0.059 A 
ATOM     57  C   UNL A   1      44.979  27.013  37.119  1.00  0.00     0.059 A 
ATOM     58  F   UNL A   1      42.661  27.115  36.777  1.00  0.00    -0.206 F 
ATOM     59  C   UNL A   1      46.255  27.479  36.808  1.00  0.00     0.060 A 
BRANCH  59  60
ATOM     60  S   UNL A   1      47.694  26.865  37.710  1.00  0.00     0.124 S 
ATOM     61  O   UNL A   1      47.083  25.900  38.617  1.00  0.00    -0.237 OA
ATOM     62  O   UNL A   1      48.512  26.304  36.639  1.00  0.00    -0.237 OA
ATOM     63  O   UNL A   1      48.236  28.067  38.338  1.00  0.00    -0.744 OA
ENDBRANCH  59  60
ENDBRANCH  27  52
BRANCH  39  64
ATOM     64  C   UNL A   1      39.885  33.890  37.362  1.00  0.00     0.058 A 
ATOM     65  C   UNL A   1      40.518  35.139  37.420  1.00  0.00     0.135 A 
ATOM     66  C   UNL A   1      39.081  33.507  38.448  1.00  0.00     0.135 A 
ATOM     67  F   UNL A   1      41.308  35.545  36.414  1.00  0.00    -0.206 F 
ATOM     68  C   UNL A   1      40.352  35.985  38.512  1.00  0.00     0.059 A 
ATOM     69  C   UNL A   1      38.882  34.346  39.539  1.00  0.00     0.059 A 
ATOM     70  F   UNL A   1      38.451  32.322  38.438  1.00  0.00    -0.206 F 
ATOM     71  C   UNL A   1      39.522  35.584  39.561  1.00  0.00     0.060 A 
BRANCH  71  72
ATOM     72  S   UNL A   1      39.242  36.727  40.930  1.00  0.00     0.124 S 
ATOM     73  O   UNL A   1      40.606  36.991  41.379  1.00  0.00    -0.237 OA
ATOM     74  O   UNL A   1      38.565  37.841  40.275  1.00  0.00    -0.237 OA
ATOM     75  O   UNL A   1      38.415  35.956  41.855  1.00  0.00    -0.744 OA
ENDBRANCH  71  72
ENDBRANCH  39  64
ENDBRANCH  13  14
ENDBRANCH   6   8
ENDBRANCH   3   4
ENDBRANCH   2   3
ENDBRANCH   1   2
BRANCH   1  76
ATOM     76  C   UNL A   1      37.321  21.767  24.656  1.00  0.00     0.002 C 
BRANCH  76  77
ATOM     77  C   UNL A   1      36.321  20.656  25.010  1.00  0.00     0.021 C 
BRANCH  77  78
ATOM     78  C   UNL A   1      35.317  21.069  26.088  1.00  0.00     0.116 C 
BRANCH  78  79
ATOM     79  N   UNL A   1      33.987  20.664  25.701  1.00  0.00    -0.354 N 
ATOM     80  C   UNL A   1      32.957  21.438  25.279  1.00  0.00     0.242 C 
ATOM     81  H   UNL A   1      33.805  19.698  25.749  1.00  0.00     0.163 HD
ATOM     82  O   UNL A   1      31.838  20.909  25.270  1.00  0.00    -0.273 OA
BRANCH  80  83
ATOM     83  C   UNL A   1      33.165  22.910  24.827  1.00  0.00     0.177 C 
ATOM     84  C   UNL A   1      33.637  22.914  23.359  1.00  0.00     0.069 C 
ATOM     85  N   UNL A   1      31.928  23.705  24.777  1.00  0.00    -0.328 N 
ATOM     86  C   UNL A   1      32.329  22.884  22.565  1.00  0.00     0.136 C 
ATOM     87  C   UNL A   1      31.401  23.739  23.419  1.00  0.00     0.152 C 
BRANCH  85  88
ATOM     88  C   UNL A   1      31.617  24.680  25.711  1.00  0.00     0.229 C 
ATOM     89  O   UNL A   1      30.914  24.445  26.694  1.00  0.00    -0.275 OA
BRANCH  88  90
ATOM     90  C   UNL A   1      32.131  26.092  25.451  1.00  0.00     0.166 C 
BRANCH  90  91
ATOM     91  C   UNL A   1      31.121  27.202  25.812  1.00  0.00     0.201 C 
ATOM     92  C   UNL A   1      31.266  28.430  24.879  1.00  0.00     0.135 C 
ATOM     93  N   UNL A   1      31.124  27.599  27.235  1.00  0.00    -0.342 N 
ATOM     94  S   UNL A   1      32.798  29.389  25.155  1.00  0.00    -0.150 SA
ATOM     95  C   UNL A   1      32.332  28.311  27.660  1.00  0.00     0.271 C 
ATOM     96  H   UNL A   1      31.035  26.757  27.803  1.00  0.00     0.346 HD
ATOM     97  H   UNL A   1      30.345  28.247  27.360  1.00  0.00     0.346 HD
ATOM     98  C   UNL A   1      32.597  29.635  26.945  1.00  0.00     0.131 C 
ENDBRANCH  90  91
ENDBRANCH  88  90
ENDBRANCH  85  88
BRANCH  86  99
ATOM     99  O   UNL A   1      31.789  21.585  22.371  1.00  0.00    -0.391 OA
ATOM    100  H   UNL A   1      32.444  20.920  22.636  1.00  0.00     0.211 HD
ENDBRANCH  86  99
ENDBRANCH  80  83
ENDBRANCH  78  79
ENDBRANCH  77  78
ENDBRANCH  76  77
ENDBRANCH   1  76
TORSDOF 20
ENDMDL
