MODEL 1
REMARK VINA RESULT:     -11.0      0.000      0.000
REMARK SMILES COc1cccc(N(CC(=O)NCCCCCCNC(=O)c2ccc(-c3c4nc(c(-c5c(F)cc(S(=O)(=O)[O-])cc5F)c5ccc([nH]5)c(-c5c(F)cc(S(=O)(=O)[O-])cc5F)c5nc(c(-c6c(F)cc(S(=O)(=O)[O-])cc6F)c6ccc3[nH]6)C=C5)C=C4)cc2)S(=O)(=O)c2ccc(C)cc2)c1
REMARK SMILES IDX 15 1 14 2 13 3 12 4 10 5 11 6 9 8 8 9 7 10 3 11 4 12 98 13
REMARK SMILES IDX 5 14 6 15 2 16 1 17 88 18 89 19 90 20 91 21 92 22 97 23
REMARK SMILES IDX 93 24 96 25 94 26 95 27 16 28 17 29 18 30 19 31 20 32 21 34
REMARK SMILES IDX 22 35 23 36 87 37 24 38 86 39 25 40 26 41 27 42 80 43 28 44
REMARK SMILES IDX 85 45 79 46 81 47 29 48 84 49 78 50 77 51 30 53 64 54 43 55
REMARK SMILES IDX 63 56 44 57 47 58 62 59 82 60 45 61 46 62 61 64 83 65 48 66
REMARK SMILES IDX 31 67 32 68 41 69 33 70 34 71 40 72 42 73 35 74 36 75 37 76
REMARK SMILES IDX 38 77 39 78 65 79 66 80 75 81 67 82 68 83 74 84 76 85 69 86
REMARK SMILES IDX 70 87 71 88 72 89 73 90 49 91 50 92 59 93 51 94 52 95 58 96
REMARK SMILES IDX 60 97 53 98 54 99 55 100 56 101 57 102
REMARK H PARENT 12 7 19 33 81 52 47 63
REMARK Flexibility Score: inf
ROOT
ATOM      1  C   UNL A   1      30.664  28.536  24.660  1.00  0.00     0.002 C 
ENDROOT
BRANCH   1   2
ATOM      2  C   UNL A   1      30.294  27.631  23.479  1.00  0.00     0.021 C 
BRANCH   2   3
ATOM      3  C   UNL A   1      29.338  26.498  23.840  1.00  0.00     0.116 C 
BRANCH   3   4
ATOM      4  N   UNL A   1      29.718  25.809  25.058  1.00  0.00    -0.355 N 
ATOM      5  C   UNL A   1      30.520  24.721  25.232  1.00  0.00     0.240 C 
ATOM      6  O   UNL A   1      30.854  24.446  26.389  1.00  0.00    -0.273 OA
ATOM      7  H   UNL A   1      29.338  26.184  25.884  1.00  0.00     0.163 HD
BRANCH   5   8
ATOM      8  C   UNL A   1      31.065  23.915  24.056  1.00  0.00     0.235 C 
BRANCH   8   9
ATOM      9  N   UNL A   1      32.410  23.329  24.287  1.00  0.00    -0.257 N 
BRANCH   9  10
ATOM     10  C   UNL A   1      32.550  21.900  24.646  1.00  0.00     0.056 A 
ATOM     11  C   UNL A   1      32.576  19.529  23.996  1.00  0.00     0.120 A 
ATOM     12  C   UNL A   1      33.115  19.181  25.230  1.00  0.00     0.046 A 
ATOM     13  C   UNL A   1      32.316  20.877  23.706  1.00  0.00     0.073 A 
ATOM     14  C   UNL A   1      33.389  20.164  26.167  1.00  0.00     0.006 A 
ATOM     15  C   UNL A   1      33.107  21.503  25.876  1.00  0.00     0.027 A 
BRANCH  11  16
ATOM     16  O   UNL A   1      32.346  18.468  23.165  1.00  0.00    -0.497 OA
ATOM     17  C   UNL A   1      33.329  17.442  23.131  1.00  0.00     0.278 C 
ENDBRANCH  11  16
ENDBRANCH   9  10
BRANCH   9  18
ATOM     18  S   UNL A   1      33.726  24.053  23.439  1.00  0.00     0.264 S 
ATOM     19  O   UNL A   1      33.750  23.502  22.098  1.00  0.00    -0.201 OA
ATOM     20  O   UNL A   1      33.631  25.488  23.628  1.00  0.00    -0.201 OA
BRANCH  18  21
ATOM     21  C   UNL A   1      35.243  23.546  24.218  1.00  0.00     0.088 A 
ATOM     22  C   UNL A   1      36.047  22.567  23.631  1.00  0.00     0.022 A 
ATOM     23  C   UNL A   1      35.659  24.197  25.385  1.00  0.00     0.022 A 
ATOM     24  C   UNL A   1      37.230  22.179  24.270  1.00  0.00     0.005 A 
ATOM     25  C   UNL A   1      36.847  23.818  26.007  1.00  0.00     0.005 A 
ATOM     26  C   UNL A   1      37.636  22.797  25.462  1.00  0.00    -0.051 A 
ATOM     27  C   UNL A   1      38.875  22.333  26.168  1.00  0.00     0.044 C 
ENDBRANCH  18  21
ENDBRANCH   9  18
ENDBRANCH   8   9
ENDBRANCH   5   8
ENDBRANCH   3   4
ENDBRANCH   2   3
ENDBRANCH   1   2
BRANCH   1  28
ATOM     28  C   UNL A   1      32.157  28.579  25.009  1.00  0.00     0.002 C 
BRANCH  28  29
ATOM     29  C   UNL A   1      32.554  27.813  26.274  1.00  0.00     0.021 C 
BRANCH  29  30
ATOM     30  C   UNL A   1      33.807  28.334  26.971  1.00  0.00     0.116 C 
BRANCH  30  31
ATOM     31  N   UNL A   1      33.671  29.729  27.364  1.00  0.00    -0.352 N 
ATOM     32  C   UNL A   1      34.538  30.525  28.070  1.00  0.00     0.251 C 
ATOM     33  H   UNL A   1      32.834  30.165  27.083  1.00  0.00     0.163 HD
ATOM     34  O   UNL A   1      34.164  31.617  28.487  1.00  0.00    -0.269 OA
BRANCH  32  35
ATOM     35  C   UNL A   1      35.916  30.058  28.342  1.00  0.00     0.039 A 
ATOM     36  C   UNL A   1      36.872  30.144  27.326  1.00  0.00     0.014 A 
ATOM     37  C   UNL A   1      36.260  29.524  29.588  1.00  0.00     0.014 A 
ATOM     38  C   UNL A   1      38.189  29.750  27.581  1.00  0.00     0.010 A 
ATOM     39  C   UNL A   1      37.587  29.198  29.860  1.00  0.00     0.010 A 
ATOM     40  C   UNL A   1      38.564  29.304  28.859  1.00  0.00    -0.014 A 
BRANCH  40  41
ATOM     41  C   UNL A   1      39.974  28.953  29.169  1.00  0.00     0.031 A 
ATOM     42  C   UNL A   1      40.889  29.971  29.793  1.00  0.00     0.074 A 
ATOM     43  C   UNL A   1      40.445  27.736  28.830  1.00  0.00     0.049 A 
ATOM     44  N   UNL A   1      42.163  29.872  30.074  1.00  0.00    -0.248 NA
ATOM     45  C   UNL A   1      40.303  31.280  30.122  1.00  0.00     0.031 C 
ATOM     46  C   UNL A   1      39.668  26.679  28.177  1.00  0.00     0.029 A 
ATOM     47  N   UNL A   1      41.694  27.185  28.975  1.00  0.00    -0.354 N 
ATOM     48  C   UNL A   1      42.533  31.106  30.597  1.00  0.00     0.074 A 
ATOM     49  C   UNL A   1      41.361  31.953  30.549  1.00  0.00     0.031 C 
ATOM     50  C   UNL A   1      40.451  25.604  27.996  1.00  0.00     0.029 A 
ATOM     51  C   UNL A   1      41.794  25.905  28.483  1.00  0.00     0.049 A 
ATOM     52  H   UNL A   1      42.447  27.662  29.392  1.00  0.00     0.167 HD
ATOM     53  C   UNL A   1      43.734  31.490  31.094  1.00  0.00     0.037 A 
ATOM     54  C   UNL A   1      42.850  25.070  28.422  1.00  0.00     0.037 A 
ATOM     55  C   UNL A   1      44.890  30.634  31.161  1.00  0.00     0.049 A 
ATOM     56  C   UNL A   1      44.173  25.520  28.977  1.00  0.00     0.074 A 
ATOM     57  C   UNL A   1      46.135  30.910  31.699  1.00  0.00     0.029 A 
ATOM     58  N   UNL A   1      44.946  29.337  30.671  1.00  0.00    -0.354 N 
ATOM     59  N   UNL A   1      44.487  26.669  29.529  1.00  0.00    -0.248 NA
ATOM     60  C   UNL A   1      45.285  24.561  28.910  1.00  0.00     0.031 C 
ATOM     61  C   UNL A   1      46.956  29.797  31.495  1.00  0.00     0.029 A 
ATOM     62  C   UNL A   1      46.209  28.807  30.877  1.00  0.00     0.049 A 
ATOM     63  H   UNL A   1      44.198  28.863  30.241  1.00  0.00     0.167 HD
ATOM     64  C   UNL A   1      45.824  26.560  29.898  1.00  0.00     0.074 A 
ATOM     65  C   UNL A   1      46.254  25.229  29.519  1.00  0.00     0.031 C 
ATOM     66  C   UNL A   1      46.621  27.478  30.498  1.00  0.00     0.037 A 
BRANCH  53  67
ATOM     67  C   UNL A   1      43.858  32.898  31.611  1.00  0.00     0.058 A 
ATOM     68  C   UNL A   1      43.609  33.215  32.957  1.00  0.00     0.135 A 
ATOM     69  C   UNL A   1      44.269  33.939  30.762  1.00  0.00     0.135 A 
ATOM     70  F   UNL A   1      43.199  32.263  33.810  1.00  0.00    -0.206 F 
ATOM     71  C   UNL A   1      43.733  34.515  33.434  1.00  0.00     0.059 A 
ATOM     72  C   UNL A   1      44.429  35.242  31.224  1.00  0.00     0.059 A 
ATOM     73  F   UNL A   1      44.522  33.693  29.466  1.00  0.00    -0.206 F 
ATOM     74  C   UNL A   1      44.144  35.522  32.560  1.00  0.00     0.060 A 
BRANCH  74  75
ATOM     75  S   UNL A   1      44.307  37.203  33.198  1.00  0.00     0.124 S 
ATOM     76  O   UNL A   1      45.742  37.428  33.063  1.00  0.00    -0.237 OA
ATOM     77  O   UNL A   1      43.458  37.966  32.288  1.00  0.00    -0.237 OA
ATOM     78  O   UNL A   1      43.815  37.097  34.568  1.00  0.00    -0.744 OA
ENDBRANCH  74  75
ENDBRANCH  53  67
BRANCH  54  79
ATOM     79  C   UNL A   1      42.693  23.715  27.826  1.00  0.00     0.058 A 
ATOM     80  C   UNL A   1      42.808  23.518  26.442  1.00  0.00     0.135 A 
ATOM     81  C   UNL A   1      42.437  22.592  28.627  1.00  0.00     0.135 A 
ATOM     82  F   UNL A   1      43.046  24.563  25.634  1.00  0.00    -0.206 F 
ATOM     83  C   UNL A   1      42.658  22.259  25.870  1.00  0.00     0.059 A 
ATOM     84  C   UNL A   1      42.309  21.318  28.081  1.00  0.00     0.059 A 
ATOM     85  F   UNL A   1      42.336  22.723  29.959  1.00  0.00    -0.206 F 
ATOM     86  C   UNL A   1      42.411  21.164  26.699  1.00  0.00     0.060 A 
BRANCH  86  87
ATOM     87  S   UNL A   1      42.265  19.526  25.952  1.00  0.00     0.124 S 
ATOM     88  O   UNL A   1      40.829  19.440  25.710  1.00  0.00    -0.237 OA
ATOM     89  O   UNL A   1      43.106  19.654  24.766  1.00  0.00    -0.237 OA
ATOM     90  O   UNL A   1      42.786  18.639  26.987  1.00  0.00    -0.744 OA
ENDBRANCH  86  87
ENDBRANCH  54  79
BRANCH  66  91
ATOM     91  C   UNL A   1      48.032  27.067  30.817  1.00  0.00     0.058 A 
ATOM     92  C   UNL A   1      48.355  26.396  32.006  1.00  0.00     0.135 A 
ATOM     93  C   UNL A   1      49.066  27.303  29.896  1.00  0.00     0.135 A 
ATOM     94  F   UNL A   1      47.407  26.152  32.925  1.00  0.00    -0.206 F 
ATOM     95  C   UNL A   1      49.658  25.993  32.282  1.00  0.00     0.059 A 
ATOM     96  C   UNL A   1      50.371  26.883  30.137  1.00  0.00     0.059 A 
ATOM     97  F   UNL A   1      48.809  27.932  28.737  1.00  0.00    -0.206 F 
ATOM     98  C   UNL A   1      50.659  26.239  31.340  1.00  0.00     0.060 A 
BRANCH  98  99
ATOM     99  S   UNL A   1      52.339  25.680  31.694  1.00  0.00     0.124 S 
ATOM    100  O   UNL A   1      53.009  25.941  30.424  1.00  0.00    -0.237 OA
ATOM    101  O   UNL A   1      52.726  26.543  32.805  1.00  0.00    -0.237 OA
ATOM    102  O   UNL A   1      52.164  24.271  32.034  1.00  0.00    -0.744 OA
ENDBRANCH  98  99
ENDBRANCH  66  91
ENDBRANCH  40  41
ENDBRANCH  32  35
ENDBRANCH  30  31
ENDBRANCH  29  30
ENDBRANCH  28  29
ENDBRANCH   1  28
TORSDOF 21
ENDMDL
MODEL 2
REMARK VINA RESULT:     -11.0      2.650      3.417
REMARK SMILES COc1cccc(N(CC(=O)NCCCCCCNC(=O)c2ccc(-c3c4nc(c(-c5c(F)cc(S(=O)(=O)[O-])cc5F)c5ccc([nH]5)c(-c5c(F)cc(S(=O)(=O)[O-])cc5F)c5nc(c(-c6c(F)cc(S(=O)(=O)[O-])cc6F)c6ccc3[nH]6)C=C5)C=C4)cc2)S(=O)(=O)c2ccc(C)cc2)c1
REMARK SMILES IDX 15 1 14 2 13 3 12 4 10 5 11 6 9 8 8 9 7 10 3 11 4 12 98 13
REMARK SMILES IDX 5 14 6 15 2 16 1 17 88 18 89 19 90 20 91 21 92 22 97 23
REMARK SMILES IDX 93 24 96 25 94 26 95 27 16 28 17 29 18 30 19 31 20 32 21 34
REMARK SMILES IDX 22 35 23 36 87 37 24 38 86 39 25 40 26 41 27 42 80 43 28 44
REMARK SMILES IDX 85 45 79 46 81 47 29 48 84 49 78 50 77 51 30 53 64 54 43 55
REMARK SMILES IDX 63 56 44 57 47 58 62 59 82 60 45 61 46 62 61 64 83 65 48 66
REMARK SMILES IDX 31 67 32 68 41 69 33 70 34 71 40 72 42 73 35 74 36 75 37 76
REMARK SMILES IDX 38 77 39 78 65 79 66 80 75 81 67 82 68 83 74 84 76 85 69 86
REMARK SMILES IDX 70 87 71 88 72 89 73 90 49 91 50 92 59 93 51 94 52 95 58 96
REMARK SMILES IDX 60 97 53 98 54 99 55 100 56 101 57 102
REMARK H PARENT 12 7 19 33 81 52 47 63
REMARK Flexibility Score: inf
ROOT
ATOM      1  C   UNL A   1      31.989  29.237  27.267  1.00  0.00     0.002 C 
ENDROOT
BRANCH   1   2
ATOM      2  C   UNL A   1      32.434  27.796  26.993  1.00  0.00     0.021 C 
BRANCH   2   3
ATOM      3  C   UNL A   1      31.590  27.072  25.948  1.00  0.00     0.116 C 
BRANCH   3   4
ATOM      4  N   UNL A   1      30.915  25.906  26.482  1.00  0.00    -0.355 N 
ATOM      5  C   UNL A   1      30.843  24.636  25.990  1.00  0.00     0.240 C 
ATOM      6  O   UNL A   1      30.376  23.768  26.735  1.00  0.00    -0.273 OA
ATOM      7  H   UNL A   1      30.435  26.053  27.328  1.00  0.00     0.163 HD
BRANCH   5   8
ATOM      8  C   UNL A   1      31.389  24.264  24.614  1.00  0.00     0.235 C 
BRANCH   8   9
ATOM      9  N   UNL A   1      32.663  23.503  24.647  1.00  0.00    -0.257 N 
BRANCH   9  10
ATOM     10  C   UNL A   1      32.651  22.034  24.832  1.00  0.00     0.056 A 
ATOM     11  C   UNL A   1      32.445  19.767  23.902  1.00  0.00     0.120 A 
ATOM     12  C   UNL A   1      32.924  19.221  25.088  1.00  0.00     0.046 A 
ATOM     13  C   UNL A   1      32.329  21.160  23.775  1.00  0.00     0.073 A 
ATOM     14  C   UNL A   1      33.281  20.053  26.139  1.00  0.00     0.006 A 
ATOM     15  C   UNL A   1      33.143  21.438  26.009  1.00  0.00     0.027 A 
BRANCH  11  16
ATOM     16  O   UNL A   1      32.123  18.842  22.949  1.00  0.00    -0.497 OA
ATOM     17  C   UNL A   1      32.975  17.711  22.824  1.00  0.00     0.278 C 
ENDBRANCH  11  16
ENDBRANCH   9  10
BRANCH   9  18
ATOM     18  S   UNL A   1      33.985  24.165  23.758  1.00  0.00     0.264 S 
ATOM     19  O   UNL A   1      33.930  23.631  22.411  1.00  0.00    -0.201 OA
ATOM     20  O   UNL A   1      33.974  25.602  23.966  1.00  0.00    -0.201 OA
BRANCH  18  21
ATOM     21  C   UNL A   1      35.500  23.568  24.476  1.00  0.00     0.088 A 
ATOM     22  C   UNL A   1      36.023  24.167  25.622  1.00  0.00     0.022 A 
ATOM     23  C   UNL A   1      36.116  22.440  23.921  1.00  0.00     0.022 A 
ATOM     24  C   UNL A   1      37.221  23.686  26.160  1.00  0.00     0.005 A 
ATOM     25  C   UNL A   1      37.301  21.954  24.474  1.00  0.00     0.005 A 
ATOM     26  C   UNL A   1      37.869  22.581  25.589  1.00  0.00    -0.051 A 
ATOM     27  C   UNL A   1      39.183  22.109  26.140  1.00  0.00     0.044 C 
ENDBRANCH  18  21
ENDBRANCH   9  18
ENDBRANCH   8   9
ENDBRANCH   5   8
ENDBRANCH   3   4
ENDBRANCH   2   3
ENDBRANCH   1   2
BRANCH   1  28
ATOM     28  C   UNL A   1      33.109  30.284  27.238  1.00  0.00     0.002 C 
BRANCH  28  29
ATOM     29  C   UNL A   1      34.532  29.722  27.310  1.00  0.00     0.021 C 
BRANCH  29  30
ATOM     30  C   UNL A   1      35.565  30.672  27.908  1.00  0.00     0.116 C 
BRANCH  30  31
ATOM     31  N   UNL A   1      35.480  30.725  29.360  1.00  0.00    -0.352 N 
ATOM     32  C   UNL A   1      36.350  30.238  30.304  1.00  0.00     0.251 C 
ATOM     33  H   UNL A   1      34.681  31.176  29.718  1.00  0.00     0.163 HD
ATOM     34  O   UNL A   1      36.011  30.193  31.482  1.00  0.00    -0.269 OA
BRANCH  32  35
ATOM     35  C   UNL A   1      37.687  29.752  29.896  1.00  0.00     0.039 A 
ATOM     36  C   UNL A   1      38.039  29.796  28.544  1.00  0.00     0.014 A 
ATOM     37  C   UNL A   1      38.584  29.243  30.839  1.00  0.00     0.014 A 
ATOM     38  C   UNL A   1      39.314  29.384  28.147  1.00  0.00     0.010 A 
ATOM     39  C   UNL A   1      39.877  28.899  30.452  1.00  0.00     0.010 A 
ATOM     40  C   UNL A   1      40.255  28.963  29.102  1.00  0.00    -0.014 A 
BRANCH  40  41
ATOM     41  C   UNL A   1      41.639  28.592  28.708  1.00  0.00     0.031 A 
ATOM     42  C   UNL A   1      42.717  29.641  28.650  1.00  0.00     0.074 A 
ATOM     43  C   UNL A   1      41.909  27.323  28.343  1.00  0.00     0.049 A 
ATOM     44  N   UNL A   1      43.962  29.524  28.266  1.00  0.00    -0.248 NA
ATOM     45  C   UNL A   1      42.339  31.005  29.052  1.00  0.00     0.031 C 
ATOM     46  C   UNL A   1      40.938  26.227  28.313  1.00  0.00     0.029 A 
ATOM     47  N   UNL A   1      43.076  26.741  27.915  1.00  0.00    -0.354 N 
ATOM     48  C   UNL A   1      44.511  30.797  28.365  1.00  0.00     0.074 A 
ATOM     49  C   UNL A   1      43.451  31.681  28.798  1.00  0.00     0.031 C 
ATOM     50  C   UNL A   1      41.553  25.104  27.907  1.00  0.00     0.029 A 
ATOM     51  C   UNL A   1      42.950  25.406  27.613  1.00  0.00     0.049 A 
ATOM     52  H   UNL A   1      43.924  27.234  27.832  1.00  0.00     0.167 HD
ATOM     53  C   UNL A   1      45.788  31.189  28.139  1.00  0.00     0.037 A 
ATOM     54  C   UNL A   1      43.855  24.525  27.142  1.00  0.00     0.037 A 
ATOM     55  C   UNL A   1      46.845  30.299  27.731  1.00  0.00     0.049 A 
ATOM     56  C   UNL A   1      45.266  24.985  26.896  1.00  0.00     0.074 A 
ATOM     57  C   UNL A   1      48.183  30.587  27.532  1.00  0.00     0.029 A 
ATOM     58  N   UNL A   1      46.682  28.949  27.456  1.00  0.00    -0.354 N 
ATOM     59  N   UNL A   1      45.784  26.179  27.060  1.00  0.00    -0.248 NA
ATOM     60  C   UNL A   1      46.219  23.978  26.410  1.00  0.00     0.031 C 
ATOM     61  C   UNL A   1      48.821  29.422  27.094  1.00  0.00     0.029 A 
ATOM     62  C   UNL A   1      47.892  28.395  27.069  1.00  0.00     0.049 A 
ATOM     63  H   UNL A   1      45.832  28.457  27.524  1.00  0.00     0.167 HD
ATOM     64  C   UNL A   1      47.128  26.061  26.721  1.00  0.00     0.074 A 
ATOM     65  C   UNL A   1      47.345  24.675  26.357  1.00  0.00     0.031 C 
ATOM     66  C   UNL A   1      48.094  27.012  26.715  1.00  0.00     0.037 A 
BRANCH  53  67
ATOM     67  C   UNL A   1      46.117  32.645  28.333  1.00  0.00     0.058 A 
ATOM     68  C   UNL A   1      46.585  33.138  29.563  1.00  0.00     0.135 A 
ATOM     69  C   UNL A   1      46.002  33.553  27.268  1.00  0.00     0.135 A 
ATOM     70  F   UNL A   1      46.701  32.318  30.620  1.00  0.00    -0.206 F 
ATOM     71  C   UNL A   1      46.896  34.482  29.737  1.00  0.00     0.059 A 
ATOM     72  C   UNL A   1      46.337  34.896  27.412  1.00  0.00     0.059 A 
ATOM     73  F   UNL A   1      45.562  33.137  26.070  1.00  0.00    -0.206 F 
ATOM     74  C   UNL A   1      46.770  35.354  28.656  1.00  0.00     0.060 A 
BRANCH  74  75
ATOM     75  S   UNL A   1      47.186  37.094  28.898  1.00  0.00     0.124 S 
ATOM     76  O   UNL A   1      46.766  37.304  30.280  1.00  0.00    -0.237 OA
ATOM     77  O   UNL A   1      48.627  37.105  28.666  1.00  0.00    -0.237 OA
ATOM     78  O   UNL A   1      46.386  37.780  27.888  1.00  0.00    -0.744 OA
ENDBRANCH  74  75
ENDBRANCH  53  67
BRANCH  54  79
ATOM     79  C   UNL A   1      43.456  23.114  26.890  1.00  0.00     0.058 A 
ATOM     80  C   UNL A   1      43.331  22.622  25.582  1.00  0.00     0.135 A 
ATOM     81  C   UNL A   1      43.205  22.226  27.948  1.00  0.00     0.135 A 
ATOM     82  F   UNL A   1      43.554  23.434  24.537  1.00  0.00    -0.206 F 
ATOM     83  C   UNL A   1      42.954  21.307  25.331  1.00  0.00     0.059 A 
ATOM     84  C   UNL A   1      42.853  20.900  27.723  1.00  0.00     0.059 A 
ATOM     85  F   UNL A   1      43.330  22.642  29.219  1.00  0.00    -0.206 F 
ATOM     86  C   UNL A   1      42.719  20.452  26.409  1.00  0.00     0.060 A 
BRANCH  86  87
ATOM     87  S   UNL A   1      42.276  18.734  26.072  1.00  0.00     0.124 S 
ATOM     88  O   UNL A   1      40.876  18.862  25.683  1.00  0.00    -0.237 OA
ATOM     89  O   UNL A   1      43.206  18.381  25.004  1.00  0.00    -0.237 OA
ATOM     90  O   UNL A   1      42.520  18.069  27.349  1.00  0.00    -0.744 OA
ENDBRANCH  86  87
ENDBRANCH  54  79
BRANCH  66  91
ATOM     91  C   UNL A   1      49.484  26.585  26.335  1.00  0.00     0.058 A 
ATOM     92  C   UNL A   1      49.990  26.782  25.041  1.00  0.00     0.135 A 
ATOM     93  C   UNL A   1      50.339  26.017  27.293  1.00  0.00     0.135 A 
ATOM     94  F   UNL A   1      49.213  27.314  24.085  1.00  0.00    -0.206 F 
ATOM     95  C   UNL A   1      51.288  26.411  24.705  1.00  0.00     0.059 A 
ATOM     96  C   UNL A   1      51.650  25.665  26.987  1.00  0.00     0.059 A 
ATOM     97  F   UNL A   1      49.909  25.815  28.549  1.00  0.00    -0.206 F 
ATOM     98  C   UNL A   1      52.112  25.856  25.685  1.00  0.00     0.060 A 
BRANCH  98  99
ATOM     99  S   UNL A   1      53.805  25.410  25.245  1.00  0.00     0.124 S 
ATOM    100  O   UNL A   1      54.496  25.585  26.518  1.00  0.00    -0.237 OA
ATOM    101  O   UNL A   1      53.656  24.032  24.788  1.00  0.00    -0.237 OA
ATOM    102  O   UNL A   1      54.151  26.374  24.204  1.00  0.00    -0.744 OA
ENDBRANCH  98  99
ENDBRANCH  66  91
ENDBRANCH  40  41
ENDBRANCH  32  35
ENDBRANCH  30  31
ENDBRANCH  29  30
ENDBRANCH  28  29
ENDBRANCH   1  28
TORSDOF 21
ENDMDL
MODEL 3
REMARK VINA RESULT:     -10.4      2.795      4.471
REMARK SMILES COc1cccc(N(CC(=O)NCCCCCCNC(=O)c2ccc(-c3c4nc(c(-c5c(F)cc(S(=O)(=O)[O-])cc5F)c5ccc([nH]5)c(-c5c(F)cc(S(=O)(=O)[O-])cc5F)c5nc(c(-c6c(F)cc(S(=O)(=O)[O-])cc6F)c6ccc3[nH]6)C=C5)C=C4)cc2)S(=O)(=O)c2ccc(C)cc2)c1
REMARK SMILES IDX 15 1 14 2 13 3 12 4 10 5 11 6 9 8 8 9 7 10 3 11 4 12 98 13
REMARK SMILES IDX 5 14 6 15 2 16 1 17 88 18 89 19 90 20 91 21 92 22 97 23
REMARK SMILES IDX 93 24 96 25 94 26 95 27 16 28 17 29 18 30 19 31 20 32 21 34
REMARK SMILES IDX 22 35 23 36 87 37 24 38 86 39 25 40 26 41 27 42 80 43 28 44
REMARK SMILES IDX 85 45 79 46 81 47 29 48 84 49 78 50 77 51 30 53 64 54 43 55
REMARK SMILES IDX 63 56 44 57 47 58 62 59 82 60 45 61 46 62 61 64 83 65 48 66
REMARK SMILES IDX 31 67 32 68 41 69 33 70 34 71 40 72 42 73 35 74 36 75 37 76
REMARK SMILES IDX 38 77 39 78 65 79 66 80 75 81 67 82 68 83 74 84 76 85 69 86
REMARK SMILES IDX 70 87 71 88 72 89 73 90 49 91 50 92 59 93 51 94 52 95 58 96
REMARK SMILES IDX 60 97 53 98 54 99 55 100 56 101 57 102
REMARK H PARENT 12 7 19 33 81 52 47 63
REMARK Flexibility Score: inf
ROOT
ATOM      1  C   UNL A   1      32.544  27.622  27.203  1.00  0.00     0.002 C 
ENDROOT
BRANCH   1   2
ATOM      2  C   UNL A   1      31.137  27.649  26.596  1.00  0.00     0.021 C 
BRANCH   2   3
ATOM      3  C   UNL A   1      30.617  26.279  26.169  1.00  0.00     0.116 C 
BRANCH   3   4
ATOM      4  N   UNL A   1      31.279  25.188  26.858  1.00  0.00    -0.355 N 
ATOM      5  C   UNL A   1      31.968  24.126  26.352  1.00  0.00     0.240 C 
ATOM      6  O   UNL A   1      32.614  23.440  27.151  1.00  0.00    -0.273 OA
ATOM      7  H   UNL A   1      31.221  25.218  27.840  1.00  0.00     0.163 HD
BRANCH   5   8
ATOM      8  C   UNL A   1      32.024  23.829  24.856  1.00  0.00     0.235 C 
BRANCH   8   9
ATOM      9  N   UNL A   1      33.269  24.284  24.188  1.00  0.00    -0.257 N 
BRANCH   9  10
ATOM     10  C   UNL A   1      34.547  23.577  24.431  1.00  0.00     0.056 A 
ATOM     11  C   UNL A   1      36.818  23.534  25.373  1.00  0.00     0.120 A 
ATOM     12  C   UNL A   1      36.887  22.158  25.183  1.00  0.00     0.046 A 
ATOM     13  C   UNL A   1      35.651  24.228  25.016  1.00  0.00     0.073 A 
ATOM     14  C   UNL A   1      35.808  21.480  24.639  1.00  0.00     0.006 A 
ATOM     15  C   UNL A   1      34.657  22.183  24.268  1.00  0.00     0.027 A 
BRANCH  11  16
ATOM     16  O   UNL A   1      37.949  24.084  25.910  1.00  0.00    -0.497 OA
ATOM     17  C   UNL A   1      38.895  23.194  26.487  1.00  0.00     0.278 C 
ENDBRANCH  11  16
ENDBRANCH   9  10
BRANCH   9  18
ATOM     18  S   UNL A   1      33.089  25.067  22.662  1.00  0.00     0.264 S 
ATOM     19  O   UNL A   1      34.405  25.475  22.211  1.00  0.00    -0.201 OA
ATOM     20  O   UNL A   1      32.274  24.206  21.824  1.00  0.00    -0.201 OA
BRANCH  18  21
ATOM     21  C   UNL A   1      32.153  26.561  22.904  1.00  0.00     0.088 A 
ATOM     22  C   UNL A   1      32.798  27.752  23.240  1.00  0.00     0.022 A 
ATOM     23  C   UNL A   1      30.772  26.543  22.674  1.00  0.00     0.022 A 
ATOM     24  C   UNL A   1      32.038  28.910  23.436  1.00  0.00     0.005 A 
ATOM     25  C   UNL A   1      30.023  27.705  22.853  1.00  0.00     0.005 A 
ATOM     26  C   UNL A   1      30.648  28.894  23.248  1.00  0.00    -0.051 A 
ATOM     27  C   UNL A   1      29.837  30.128  23.516  1.00  0.00     0.044 C 
ENDBRANCH  18  21
ENDBRANCH   9  18
ENDBRANCH   8   9
ENDBRANCH   5   8
ENDBRANCH   3   4
ENDBRANCH   2   3
ENDBRANCH   1   2
BRANCH   1  28
ATOM     28  C   UNL A   1      33.247  28.982  27.287  1.00  0.00     0.002 C 
BRANCH  28  29
ATOM     29  C   UNL A   1      34.775  28.935  27.211  1.00  0.00     0.021 C 
BRANCH  29  30
ATOM     30  C   UNL A   1      35.479  30.207  27.673  1.00  0.00     0.116 C 
BRANCH  30  31
ATOM     31  N   UNL A   1      35.356  30.406  29.109  1.00  0.00    -0.352 N 
ATOM     32  C   UNL A   1      36.279  30.188  30.102  1.00  0.00     0.251 C 
ATOM     33  H   UNL A   1      34.484  30.746  29.413  1.00  0.00     0.163 HD
ATOM     34  O   UNL A   1      35.929  30.215  31.278  1.00  0.00    -0.269 OA
BRANCH  32  35
ATOM     35  C   UNL A   1      37.688  29.902  29.752  1.00  0.00     0.039 A 
ATOM     36  C   UNL A   1      38.564  29.484  30.758  1.00  0.00     0.014 A 
ATOM     37  C   UNL A   1      38.148  30.060  28.441  1.00  0.00     0.014 A 
ATOM     38  C   UNL A   1      39.886  29.166  30.437  1.00  0.00     0.010 A 
ATOM     39  C   UNL A   1      39.447  29.676  28.111  1.00  0.00     0.010 A 
ATOM     40  C   UNL A   1      40.330  29.228  29.105  1.00  0.00    -0.014 A 
BRANCH  40  41
ATOM     41  C   UNL A   1      41.709  28.823  28.734  1.00  0.00     0.031 A 
ATOM     42  C   UNL A   1      42.812  29.846  28.684  1.00  0.00     0.074 A 
ATOM     43  C   UNL A   1      41.955  27.545  28.381  1.00  0.00     0.049 A 
ATOM     44  N   UNL A   1      44.060  29.698  28.318  1.00  0.00    -0.248 NA
ATOM     45  C   UNL A   1      42.461  31.222  29.071  1.00  0.00     0.031 C 
ATOM     46  C   UNL A   1      40.959  26.472  28.344  1.00  0.00     0.029 A 
ATOM     47  N   UNL A   1      43.115  26.934  27.974  1.00  0.00    -0.354 N 
ATOM     48  C   UNL A   1      44.637  30.959  28.417  1.00  0.00     0.074 A 
ATOM     49  C   UNL A   1      43.591  31.870  28.829  1.00  0.00     0.031 C 
ATOM     50  C   UNL A   1      41.554  25.333  27.956  1.00  0.00     0.029 A 
ATOM     51  C   UNL A   1      42.962  25.599  27.679  1.00  0.00     0.049 A 
ATOM     52  H   UNL A   1      43.975  27.407  27.900  1.00  0.00     0.167 HD
ATOM     53  C   UNL A   1      45.925  31.320  28.206  1.00  0.00     0.037 A 
ATOM     54  C   UNL A   1      43.853  24.694  27.228  1.00  0.00     0.037 A 
ATOM     55  C   UNL A   1      46.967  30.403  27.820  1.00  0.00     0.049 A 
ATOM     56  C   UNL A   1      45.277  25.120  26.999  1.00  0.00     0.074 A 
ATOM     57  C   UNL A   1      48.315  30.658  27.638  1.00  0.00     0.029 A 
ATOM     58  N   UNL A   1      46.777  29.054  27.551  1.00  0.00    -0.354 N 
ATOM     59  N   UNL A   1      45.820  26.304  27.162  1.00  0.00    -0.248 NA
ATOM     60  C   UNL A   1      46.214  24.088  26.533  1.00  0.00     0.031 C 
ATOM     61  C   UNL A   1      48.931  29.476  27.217  1.00  0.00     0.029 A 
ATOM     62  C   UNL A   1      47.979  28.470  27.186  1.00  0.00     0.049 A 
ATOM     63  H   UNL A   1      45.915  28.583  27.611  1.00  0.00     0.167 HD
ATOM     64  C   UNL A   1      47.166  26.152  26.843  1.00  0.00     0.074 A 
ATOM     65  C   UNL A   1      47.356  24.759  26.492  1.00  0.00     0.031 C 
ATOM     66  C   UNL A   1      48.154  27.080  26.844  1.00  0.00     0.037 A 
BRANCH  53  67
ATOM     67  C   UNL A   1      46.286  32.768  28.396  1.00  0.00     0.058 A 
ATOM     68  C   UNL A   1      46.194  33.695  27.344  1.00  0.00     0.135 A 
ATOM     69  C   UNL A   1      46.692  33.246  29.652  1.00  0.00     0.135 A 
ATOM     70  F   UNL A   1      45.825  33.291  26.117  1.00  0.00    -0.206 F 
ATOM     71  C   UNL A   1      46.519  35.035  27.524  1.00  0.00     0.059 A 
ATOM     72  C   UNL A   1      46.994  34.589  29.862  1.00  0.00     0.059 A 
ATOM     73  F   UNL A   1      46.796  32.406  30.694  1.00  0.00    -0.206 F 
ATOM     74  C   UNL A   1      46.918  35.473  28.787  1.00  0.00     0.060 A 
BRANCH  74  75
ATOM     75  S   UNL A   1      47.330  37.217  29.004  1.00  0.00     0.124 S 
ATOM     76  O   UNL A   1      47.259  37.706  27.631  1.00  0.00    -0.237 OA
ATOM     77  O   UNL A   1      46.271  37.679  29.895  1.00  0.00    -0.237 OA
ATOM     78  O   UNL A   1      48.666  37.182  29.589  1.00  0.00    -0.744 OA
ENDBRANCH  74  75
ENDBRANCH  53  67
BRANCH  54  79
ATOM     79  C   UNL A   1      43.425  23.291  26.980  1.00  0.00     0.058 A 
ATOM     80  C   UNL A   1      43.229  22.398  28.043  1.00  0.00     0.135 A 
ATOM     81  C   UNL A   1      43.192  22.819  25.679  1.00  0.00     0.135 A 
ATOM     82  F   UNL A   1      43.446  22.801  29.305  1.00  0.00    -0.206 F 
ATOM     83  C   UNL A   1      42.835  21.082  27.827  1.00  0.00     0.059 A 
ATOM     84  C   UNL A   1      42.772  21.515  25.438  1.00  0.00     0.059 A 
ATOM     85  F   UNL A   1      43.347  23.639  24.627  1.00  0.00    -0.206 F 
ATOM     86  C   UNL A   1      42.607  20.650  26.519  1.00  0.00     0.060 A 
BRANCH  86  87
ATOM     87  S   UNL A   1      42.049  18.952  26.251  1.00  0.00     0.124 S 
ATOM     88  O   UNL A   1      42.148  18.396  27.596  1.00  0.00    -0.237 OA
ATOM     89  O   UNL A   1      40.697  19.151  25.740  1.00  0.00    -0.237 OA
ATOM     90  O   UNL A   1      43.008  18.435  25.280  1.00  0.00    -0.744 OA
ENDBRANCH  86  87
ENDBRANCH  54  79
BRANCH  66  91
ATOM     91  C   UNL A   1      49.539  26.618  26.487  1.00  0.00     0.058 A 
ATOM     92  C   UNL A   1      50.020  26.672  25.170  1.00  0.00     0.135 A 
ATOM     93  C   UNL A   1      50.415  26.163  27.486  1.00  0.00     0.135 A 
ATOM     94  F   UNL A   1      49.221  27.092  24.175  1.00  0.00    -0.206 F 
ATOM     95  C   UNL A   1      51.313  26.271  24.851  1.00  0.00     0.059 A 
ATOM     96  C   UNL A   1      51.722  25.784  27.195  1.00  0.00     0.059 A 
ATOM     97  F   UNL A   1      50.010  26.101  28.765  1.00  0.00    -0.206 F 
ATOM     98  C   UNL A   1      52.158  25.830  25.871  1.00  0.00     0.060 A 
BRANCH  98  99
ATOM     99  S   UNL A   1      53.845  25.344  25.450  1.00  0.00     0.124 S 
ATOM    100  O   UNL A   1      54.305  26.505  24.694  1.00  0.00    -0.237 OA
ATOM    101  O   UNL A   1      54.454  25.161  26.764  1.00  0.00    -0.237 OA
ATOM    102  O   UNL A   1      53.664  24.121  24.675  1.00  0.00    -0.744 OA
ENDBRANCH  98  99
ENDBRANCH  66  91
ENDBRANCH  40  41
ENDBRANCH  32  35
ENDBRANCH  30  31
ENDBRANCH  29  30
ENDBRANCH  28  29
ENDBRANCH   1  28
TORSDOF 21
ENDMDL
