MODEL 1
REMARK VINA RESULT:     -12.6      0.000      0.000
REMARK SMILES CC1(C)S[C@H](c2ccc(-c3cccc([N+](=O)[O-])c3)o2)[NH2+][C@@H]1C(=O)NCCCCCCNC(=O)c1ccc(-c2c3nc(c(-c4c(F)cc(S(=O)(=O)[O-])cc4F)c4ccc([nH]4)c(-c4c(F)cc(S(=O)(=O)[O-])cc4F)c4nc(c(-c5c(F)cc(S(=O)(=O)[O-])cc5F)c5ccc2[nH]5)C=C4)C=C3)cc1
REMARK SMILES IDX 27 1 26 2 25 3 24 4 22 5 23 6 21 8 1 9 2 10 3 11 4 12 5 13
REMARK SMILES IDX 20 14 6 17 7 18 19 19 8 20 9 21 10 22 11 23 18 24 12 25
REMARK SMILES IDX 14 26 13 27 15 28 16 29 17 30 28 31 29 32 30 33 31 34 32 35
REMARK SMILES IDX 33 37 34 38 35 39 99 40 36 41 98 42 37 43 38 44 39 45 92 46
REMARK SMILES IDX 40 47 97 48 91 49 93 50 41 51 96 52 90 53 89 54 42 56 76 57
REMARK SMILES IDX 55 58 75 59 56 60 59 61 74 62 94 63 57 64 58 65 73 67 95 68
REMARK SMILES IDX 60 69 43 70 44 71 53 72 45 73 46 74 52 75 54 76 47 77 48 78
REMARK SMILES IDX 49 79 50 80 51 81 77 82 78 83 87 84 79 85 80 86 86 87 88 88
REMARK SMILES IDX 81 89 82 90 83 91 84 92 85 93 61 94 62 95 71 96 63 97 64 98
REMARK SMILES IDX 70 99 72 100 65 101 66 102 67 103 68 104 69 105
REMARK H PARENT 24 7 20 15 20 16 31 36 93 55 59 66
REMARK Flexibility Score: inf
ROOT
ATOM      1  C   UNL A   1      34.719  29.758  27.437  1.00  0.00     0.002 C 
ENDROOT
BRANCH   1   2
ATOM      2  C   UNL A   1      33.801  28.549  27.264  1.00  0.00     0.021 C 
BRANCH   2   3
ATOM      3  C   UNL A   1      32.311  28.876  27.219  1.00  0.00     0.116 C 
BRANCH   3   4
ATOM      4  N   UNL A   1      31.463  27.698  27.299  1.00  0.00    -0.351 N 
ATOM      5  C   UNL A   1      31.038  26.900  26.265  1.00  0.00     0.279 C 
ATOM      6  O   UNL A   1      30.431  25.871  26.557  1.00  0.00    -0.268 OA
ATOM      7  H   UNL A   1      31.159  27.442  28.200  1.00  0.00     0.163 HD
BRANCH   5   8
ATOM      8  C   UNL A   1      31.246  27.411  24.818  1.00  0.00     0.289 C 
ATOM      9  C   UNL A   1      30.243  27.868  22.538  1.00  0.00     0.030 C 
ATOM     10  C   UNL A   1      30.358  26.838  23.685  1.00  0.00     0.078 C 
ATOM     11  C   UNL A   1      28.945  26.388  24.057  1.00  0.00     0.030 C 
ATOM     12  S   UNL A   1      31.301  25.404  23.068  1.00  0.00    -0.078 SA
ATOM     13  C   UNL A   1      32.854  25.921  23.831  1.00  0.00     0.311 C 
ATOM     14  N   UNL A   1      32.676  27.255  24.411  1.00  0.00    -0.317 N 
ATOM     15  H   UNL A   1      32.916  27.965  23.720  1.00  0.00     0.348 HD
ATOM     16  H   UNL A   1      33.284  27.366  25.223  1.00  0.00     0.348 HD
BRANCH  13  17
ATOM     17  C   UNL A   1      33.439  24.862  24.720  1.00  0.00     0.172 A 
ATOM     18  C   UNL A   1      33.749  24.914  26.068  1.00  0.00     0.054 A 
ATOM     19  O   UNL A   1      33.715  23.601  24.242  1.00  0.00    -0.454 OA
ATOM     20  C   UNL A   1      34.209  23.634  26.438  1.00  0.00     0.051 A 
ATOM     21  C   UNL A   1      34.170  22.857  25.301  1.00  0.00     0.134 A 
BRANCH  21  22
ATOM     22  C   UNL A   1      34.425  21.438  25.079  1.00  0.00     0.024 A 
ATOM     23  C   UNL A   1      35.719  20.898  25.105  1.00  0.00     0.012 A 
ATOM     24  C   UNL A   1      33.343  20.586  24.800  1.00  0.00     0.097 A 
ATOM     25  C   UNL A   1      35.933  19.534  24.853  1.00  0.00     0.008 A 
ATOM     26  C   UNL A   1      33.563  19.229  24.523  1.00  0.00     0.270 A 
ATOM     27  C   UNL A   1      34.855  18.693  24.559  1.00  0.00     0.085 A 
BRANCH  26  28
ATOM     28  N   UNL A   1      32.432  18.376  24.141  1.00  0.00     0.062 N 
ATOM     29  O   UNL A   1      32.043  18.433  22.967  1.00  0.00    -0.258 OA
ATOM     30  O   UNL A   1      31.948  17.643  25.014  1.00  0.00    -0.258 OA
ENDBRANCH  26  28
ENDBRANCH  21  22
ENDBRANCH  13  17
ENDBRANCH   5   8
ENDBRANCH   3   4
ENDBRANCH   2   3
ENDBRANCH   1   2
BRANCH   1  31
ATOM     31  C   UNL A   1      33.989  31.083  27.613  1.00  0.00     0.002 C 
BRANCH  31  32
ATOM     32  C   UNL A   1      34.736  32.193  28.338  1.00  0.00     0.021 C 
BRANCH  32  33
ATOM     33  C   UNL A   1      36.016  31.732  29.005  1.00  0.00     0.116 C 
BRANCH  33  34
ATOM     34  N   UNL A   1      35.812  31.214  30.350  1.00  0.00    -0.352 N 
ATOM     35  C   UNL A   1      36.603  30.351  31.071  1.00  0.00     0.251 C 
ATOM     36  H   UNL A   1      34.995  31.522  30.805  1.00  0.00     0.163 HD
ATOM     37  O   UNL A   1      36.231  29.941  32.162  1.00  0.00    -0.269 OA
BRANCH  35  38
ATOM     38  C   UNL A   1      37.900  29.923  30.503  1.00  0.00     0.039 A 
ATOM     39  C   UNL A   1      38.089  29.965  29.122  1.00  0.00     0.014 A 
ATOM     40  C   UNL A   1      38.933  29.500  31.342  1.00  0.00     0.014 A 
ATOM     41  C   UNL A   1      39.333  29.620  28.590  1.00  0.00     0.010 A 
ATOM     42  C   UNL A   1      40.200  29.279  30.824  1.00  0.00     0.010 A 
ATOM     43  C   UNL A   1      40.406  29.297  29.440  1.00  0.00    -0.014 A 
BRANCH  43  44
ATOM     44  C   UNL A   1      41.733  28.914  28.901  1.00  0.00     0.031 A 
ATOM     45  C   UNL A   1      42.822  29.952  28.795  1.00  0.00     0.074 A 
ATOM     46  C   UNL A   1      41.943  27.656  28.466  1.00  0.00     0.049 A 
ATOM     47  N   UNL A   1      44.038  29.832  28.327  1.00  0.00    -0.248 NA
ATOM     48  C   UNL A   1      42.490  31.318  29.238  1.00  0.00     0.031 C 
ATOM     49  C   UNL A   1      40.942  26.586  28.451  1.00  0.00     0.029 A 
ATOM     50  N   UNL A   1      43.068  27.065  27.953  1.00  0.00    -0.354 N 
ATOM     51  C   UNL A   1      44.601  31.099  28.404  1.00  0.00     0.074 A 
ATOM     52  C   UNL A   1      43.574  31.992  28.887  1.00  0.00     0.031 C 
ATOM     53  C   UNL A   1      41.511  25.459  27.994  1.00  0.00     0.029 A 
ATOM     54  C   UNL A   1      42.903  25.733  27.652  1.00  0.00     0.049 A 
ATOM     55  H   UNL A   1      43.915  27.547  27.814  1.00  0.00     0.167 HD
ATOM     56  C   UNL A   1      45.872  31.481  28.138  1.00  0.00     0.037 A 
ATOM     57  C   UNL A   1      43.779  24.836  27.162  1.00  0.00     0.037 A 
ATOM     58  C   UNL A   1      46.898  30.575  27.695  1.00  0.00     0.049 A 
ATOM     59  C   UNL A   1      45.193  25.276  26.896  1.00  0.00     0.074 A 
ATOM     60  C   UNL A   1      48.235  30.837  27.458  1.00  0.00     0.029 A 
ATOM     61  N   UNL A   1      46.700  29.227  27.427  1.00  0.00    -0.354 N 
ATOM     62  N   UNL A   1      45.732  26.464  27.048  1.00  0.00    -0.248 NA
ATOM     63  C   UNL A   1      46.125  24.252  26.406  1.00  0.00     0.031 C 
ATOM     64  C   UNL A   1      48.835  29.660  27.000  1.00  0.00     0.029 A 
ATOM     65  C   UNL A   1      47.886  28.650  27.006  1.00  0.00     0.049 A 
ATOM     66  H   UNL A   1      45.843  28.753  27.523  1.00  0.00     0.167 HD
ATOM     67  C   UNL A   1      47.070  26.323  26.695  1.00  0.00     0.074 A 
ATOM     68  C   UNL A   1      47.262  24.931  26.346  1.00  0.00     0.031 C 
ATOM     69  C   UNL A   1      48.052  27.260  26.659  1.00  0.00     0.037 A 
BRANCH  56  70
ATOM     70  C   UNL A   1      46.221  32.934  28.330  1.00  0.00     0.058 A 
ATOM     71  C   UNL A   1      46.703  33.423  29.556  1.00  0.00     0.135 A 
ATOM     72  C   UNL A   1      46.095  33.846  27.271  1.00  0.00     0.135 A 
ATOM     73  F   UNL A   1      46.827  32.602  30.611  1.00  0.00    -0.206 F 
ATOM     74  C   UNL A   1      47.012  34.767  29.735  1.00  0.00     0.059 A 
ATOM     75  C   UNL A   1      46.431  35.189  27.416  1.00  0.00     0.059 A 
ATOM     76  F   UNL A   1      45.636  33.436  26.077  1.00  0.00    -0.206 F 
ATOM     77  C   UNL A   1      46.873  35.644  28.657  1.00  0.00     0.060 A 
BRANCH  77  78
ATOM     78  S   UNL A   1      47.290  37.382  28.904  1.00  0.00     0.124 S 
ATOM     79  O   UNL A   1      48.609  37.280  29.522  1.00  0.00    -0.237 OA
ATOM     80  O   UNL A   1      47.267  37.905  27.542  1.00  0.00    -0.237 OA
ATOM     81  O   UNL A   1      46.225  37.866  29.778  1.00  0.00    -0.744 OA
ENDBRANCH  77  78
ENDBRANCH  56  70
BRANCH  57  82
ATOM     82  C   UNL A   1      43.355  23.429  26.928  1.00  0.00     0.058 A 
ATOM     83  C   UNL A   1      43.178  22.538  27.997  1.00  0.00     0.135 A 
ATOM     84  C   UNL A   1      43.108  22.948  25.632  1.00  0.00     0.135 A 
ATOM     85  F   UNL A   1      43.404  22.948  29.254  1.00  0.00    -0.206 F 
ATOM     86  C   UNL A   1      42.795  21.216  27.792  1.00  0.00     0.059 A 
ATOM     87  C   UNL A   1      42.697  21.638  25.403  1.00  0.00     0.059 A 
ATOM     88  F   UNL A   1      43.244  23.763  24.574  1.00  0.00    -0.206 F 
ATOM     89  C   UNL A   1      42.554  20.777  26.490  1.00  0.00     0.060 A 
BRANCH  89  90
ATOM     90  S   UNL A   1      42.020  19.070  26.237  1.00  0.00     0.124 S 
ATOM     91  O   UNL A   1      42.958  18.616  25.217  1.00  0.00    -0.237 OA
ATOM     92  O   UNL A   1      42.194  18.494  27.567  1.00  0.00    -0.237 OA
ATOM     93  O   UNL A   1      40.634  19.213  25.801  1.00  0.00    -0.744 OA
ENDBRANCH  89  90
ENDBRANCH  57  82
BRANCH  69  94
ATOM     94  C   UNL A   1      49.425  26.797  26.254  1.00  0.00     0.058 A 
ATOM     95  C   UNL A   1      49.914  26.989  24.952  1.00  0.00     0.135 A 
ATOM     96  C   UNL A   1      50.268  26.172  27.186  1.00  0.00     0.135 A 
ATOM     97  F   UNL A   1      49.148  27.580  24.021  1.00  0.00    -0.206 F 
ATOM     98  C   UNL A   1      51.174  26.535  24.576  1.00  0.00     0.059 A 
ATOM     99  C   UNL A   1      51.545  25.742  26.842  1.00  0.00     0.059 A 
ATOM    100  F   UNL A   1      49.857  25.980  28.449  1.00  0.00    -0.206 F 
ATOM    101  C   UNL A   1      51.981  25.909  25.528  1.00  0.00     0.060 A 
BRANCH 101 102
ATOM    102  S   UNL A   1      53.612  25.323  25.027  1.00  0.00     0.124 S 
ATOM    103  O   UNL A   1      53.759  25.951  23.718  1.00  0.00    -0.237 OA
ATOM    104  O   UNL A   1      54.471  25.850  26.084  1.00  0.00    -0.237 OA
ATOM    105  O   UNL A   1      53.463  23.872  25.014  1.00  0.00    -0.744 OA
ENDBRANCH 101 102
ENDBRANCH  69  94
ENDBRANCH  43  44
ENDBRANCH  35  38
ENDBRANCH  33  34
ENDBRANCH  32  33
ENDBRANCH  31  32
ENDBRANCH   1  31
TORSDOF 19
ENDMDL
MODEL 2
REMARK VINA RESULT:     -12.5      0.659      1.737
REMARK SMILES CC1(C)S[C@H](c2ccc(-c3cccc([N+](=O)[O-])c3)o2)[NH2+][C@@H]1C(=O)NCCCCCCNC(=O)c1ccc(-c2c3nc(c(-c4c(F)cc(S(=O)(=O)[O-])cc4F)c4ccc([nH]4)c(-c4c(F)cc(S(=O)(=O)[O-])cc4F)c4nc(c(-c5c(F)cc(S(=O)(=O)[O-])cc5F)c5ccc2[nH]5)C=C4)C=C3)cc1
REMARK SMILES IDX 27 1 26 2 25 3 24 4 22 5 23 6 21 8 1 9 2 10 3 11 4 12 5 13
REMARK SMILES IDX 20 14 6 17 7 18 19 19 8 20 9 21 10 22 11 23 18 24 12 25
REMARK SMILES IDX 14 26 13 27 15 28 16 29 17 30 28 31 29 32 30 33 31 34 32 35
REMARK SMILES IDX 33 37 34 38 35 39 99 40 36 41 98 42 37 43 38 44 39 45 92 46
REMARK SMILES IDX 40 47 97 48 91 49 93 50 41 51 96 52 90 53 89 54 42 56 76 57
REMARK SMILES IDX 55 58 75 59 56 60 59 61 74 62 94 63 57 64 58 65 73 67 95 68
REMARK SMILES IDX 60 69 43 70 44 71 53 72 45 73 46 74 52 75 54 76 47 77 48 78
REMARK SMILES IDX 49 79 50 80 51 81 77 82 78 83 87 84 79 85 80 86 86 87 88 88
REMARK SMILES IDX 81 89 82 90 83 91 84 92 85 93 61 94 62 95 71 96 63 97 64 98
REMARK SMILES IDX 70 99 72 100 65 101 66 102 67 103 68 104 69 105
REMARK H PARENT 24 7 20 15 20 16 31 36 93 55 59 66
REMARK Flexibility Score: inf
ROOT
ATOM      1  C   UNL A   1      34.860  30.787  27.687  1.00  0.00     0.002 C 
ENDROOT
BRANCH   1   2
ATOM      2  C   UNL A   1      33.623  30.268  26.956  1.00  0.00     0.021 C 
BRANCH   2   3
ATOM      3  C   UNL A   1      33.842  28.987  26.155  1.00  0.00     0.116 C 
BRANCH   3   4
ATOM      4  N   UNL A   1      33.054  27.866  26.641  1.00  0.00    -0.351 N 
ATOM      5  C   UNL A   1      32.383  26.928  25.896  1.00  0.00     0.279 C 
ATOM      6  O   UNL A   1      31.882  25.980  26.498  1.00  0.00    -0.268 OA
ATOM      7  H   UNL A   1      32.995  27.768  27.619  1.00  0.00     0.163 HD
BRANCH   5   8
ATOM      8  C   UNL A   1      32.206  27.192  24.381  1.00  0.00     0.289 C 
ATOM      9  C   UNL A   1      30.636  27.361  22.401  1.00  0.00     0.030 C 
ATOM     10  C   UNL A   1      31.029  26.516  23.633  1.00  0.00     0.078 C 
ATOM     11  C   UNL A   1      29.758  26.230  24.434  1.00  0.00     0.030 C 
ATOM     12  S   UNL A   1      31.731  24.939  23.040  1.00  0.00    -0.078 SA
ATOM     13  C   UNL A   1      33.446  25.457  23.271  1.00  0.00     0.311 C 
ATOM     14  N   UNL A   1      33.468  26.874  23.645  1.00  0.00    -0.317 N 
ATOM     15  H   UNL A   1      33.530  27.450  22.805  1.00  0.00     0.348 HD
ATOM     16  H   UNL A   1      34.276  27.066  24.238  1.00  0.00     0.348 HD
BRANCH  13  17
ATOM     17  C   UNL A   1      34.220  24.509  24.140  1.00  0.00     0.172 A 
ATOM     18  C   UNL A   1      34.898  24.750  25.322  1.00  0.00     0.054 A 
ATOM     19  O   UNL A   1      34.310  23.171  23.834  1.00  0.00    -0.454 OA
ATOM     20  C   UNL A   1      35.400  23.513  25.773  1.00  0.00     0.051 A 
ATOM     21  C   UNL A   1      35.018  22.570  24.844  1.00  0.00     0.134 A 
BRANCH  21  22
ATOM     22  C   UNL A   1      35.153  21.118  24.814  1.00  0.00     0.024 A 
ATOM     23  C   UNL A   1      36.397  20.481  24.928  1.00  0.00     0.012 A 
ATOM     24  C   UNL A   1      34.003  20.330  24.634  1.00  0.00     0.097 A 
ATOM     25  C   UNL A   1      36.495  19.082  24.861  1.00  0.00     0.008 A 
ATOM     26  C   UNL A   1      34.108  18.934  24.542  1.00  0.00     0.270 A 
ATOM     27  C   UNL A   1      35.351  18.302  24.666  1.00  0.00     0.085 A 
BRANCH  26  28
ATOM     28  N   UNL A   1      32.911  18.136  24.260  1.00  0.00     0.062 N 
ATOM     29  O   UNL A   1      31.970  18.211  25.061  1.00  0.00    -0.258 OA
ATOM     30  O   UNL A   1      32.911  17.449  23.228  1.00  0.00    -0.258 OA
ENDBRANCH  26  28
ENDBRANCH  21  22
ENDBRANCH  13  17
ENDBRANCH   5   8
ENDBRANCH   3   4
ENDBRANCH   2   3
ENDBRANCH   1   2
BRANCH   1  31
ATOM     31  C   UNL A   1      34.695  32.172  28.299  1.00  0.00     0.002 C 
BRANCH  31  32
ATOM     32  C   UNL A   1      35.916  33.080  28.296  1.00  0.00     0.021 C 
BRANCH  32  33
ATOM     33  C   UNL A   1      36.700  33.051  29.592  1.00  0.00     0.116 C 
BRANCH  33  34
ATOM     34  N   UNL A   1      36.191  32.084  30.553  1.00  0.00    -0.352 N 
ATOM     35  C   UNL A   1      36.742  30.887  30.948  1.00  0.00     0.251 C 
ATOM     36  H   UNL A   1      35.333  32.317  30.978  1.00  0.00     0.163 HD
ATOM     37  O   UNL A   1      36.128  30.147  31.703  1.00  0.00    -0.269 OA
BRANCH  35  38
ATOM     38  C   UNL A   1      38.078  30.511  30.438  1.00  0.00     0.039 A 
ATOM     39  C   UNL A   1      39.125  30.318  31.339  1.00  0.00     0.014 A 
ATOM     40  C   UNL A   1      38.286  30.328  29.069  1.00  0.00     0.014 A 
ATOM     41  C   UNL A   1      40.371  29.903  30.864  1.00  0.00     0.010 A 
ATOM     42  C   UNL A   1      39.483  29.797  28.615  1.00  0.00     0.010 A 
ATOM     43  C   UNL A   1      40.552  29.616  29.500  1.00  0.00    -0.014 A 
BRANCH  43  44
ATOM     44  C   UNL A   1      41.868  29.186  28.967  1.00  0.00     0.031 A 
ATOM     45  C   UNL A   1      42.995  30.184  28.870  1.00  0.00     0.074 A 
ATOM     46  C   UNL A   1      42.034  27.922  28.530  1.00  0.00     0.049 A 
ATOM     47  N   UNL A   1      44.207  30.020  28.407  1.00  0.00    -0.248 NA
ATOM     48  C   UNL A   1      42.710  31.560  29.314  1.00  0.00     0.031 C 
ATOM     49  C   UNL A   1      40.995  26.889  28.507  1.00  0.00     0.029 A 
ATOM     50  N   UNL A   1      43.140  27.291  28.022  1.00  0.00    -0.354 N 
ATOM     51  C   UNL A   1      44.816  31.266  28.491  1.00  0.00     0.074 A 
ATOM     52  C   UNL A   1      43.819  32.195  28.970  1.00  0.00     0.031 C 
ATOM     53  C   UNL A   1      41.525  25.743  28.051  1.00  0.00     0.029 A 
ATOM     54  C   UNL A   1      42.928  25.967  27.717  1.00  0.00     0.049 A 
ATOM     55  H   UNL A   1      44.005  27.743  27.889  1.00  0.00     0.167 HD
ATOM     56  C   UNL A   1      46.101  31.603  28.232  1.00  0.00     0.037 A 
ATOM     57  C   UNL A   1      43.774  25.040  27.230  1.00  0.00     0.037 A 
ATOM     58  C   UNL A   1      47.096  30.661  27.793  1.00  0.00     0.049 A 
ATOM     59  C   UNL A   1      45.205  25.429  26.972  1.00  0.00     0.074 A 
ATOM     60  C   UNL A   1      48.443  30.875  27.564  1.00  0.00     0.029 A 
ATOM     61  N   UNL A   1      46.851  29.322  27.521  1.00  0.00    -0.354 N 
ATOM     62  N   UNL A   1      45.785  26.596  27.130  1.00  0.00    -0.248 NA
ATOM     63  C   UNL A   1      46.101  24.372  26.486  1.00  0.00     0.031 C 
ATOM     64  C   UNL A   1      49.002  29.677  27.106  1.00  0.00     0.029 A 
ATOM     65  C   UNL A   1      48.017  28.702  27.105  1.00  0.00     0.049 A 
ATOM     66  H   UNL A   1      45.977  28.878  27.611  1.00  0.00     0.167 HD
ATOM     67  C   UNL A   1      47.119  26.408  26.784  1.00  0.00     0.074 A 
ATOM     68  C   UNL A   1      47.262  25.010  26.434  1.00  0.00     0.031 C 
ATOM     69  C   UNL A   1      48.135  27.308  26.756  1.00  0.00     0.037 A 
BRANCH  56  70
ATOM     70  C   UNL A   1      46.502  33.041  28.430  1.00  0.00     0.058 A 
ATOM     71  C   UNL A   1      46.428  33.980  27.387  1.00  0.00     0.135 A 
ATOM     72  C   UNL A   1      46.945  33.494  29.682  1.00  0.00     0.135 A 
ATOM     73  F   UNL A   1      46.030  33.601  26.162  1.00  0.00    -0.206 F 
ATOM     74  C   UNL A   1      46.812  35.304  27.569  1.00  0.00     0.059 A 
ATOM     75  C   UNL A   1      47.302  34.823  29.897  1.00  0.00     0.059 A 
ATOM     76  F   UNL A   1      47.040  32.641  30.715  1.00  0.00    -0.206 F 
ATOM     77  C   UNL A   1      47.247  35.717  28.830  1.00  0.00     0.060 A 
BRANCH  77  78
ATOM     78  S   UNL A   1      47.729  37.442  29.050  1.00  0.00     0.124 S 
ATOM     79  O   UNL A   1      48.781  37.323  30.056  1.00  0.00    -0.237 OA
ATOM     80  O   UNL A   1      48.172  37.816  27.712  1.00  0.00    -0.237 OA
ATOM     81  O   UNL A   1      46.499  38.084  29.504  1.00  0.00    -0.744 OA
ENDBRANCH  77  78
ENDBRANCH  56  70
BRANCH  57  82
ATOM     82  C   UNL A   1      43.300  23.649  26.990  1.00  0.00     0.058 A 
ATOM     83  C   UNL A   1      43.048  23.184  25.691  1.00  0.00     0.135 A 
ATOM     84  C   UNL A   1      43.099  22.755  28.053  1.00  0.00     0.135 A 
ATOM     85  F   UNL A   1      43.222  24.000  24.641  1.00  0.00    -0.206 F 
ATOM     86  C   UNL A   1      42.592  21.891  25.454  1.00  0.00     0.059 A 
ATOM     87  C   UNL A   1      42.670  21.448  27.840  1.00  0.00     0.059 A 
ATOM     88  F   UNL A   1      43.343  23.143  29.315  1.00  0.00    -0.206 F 
ATOM     89  C   UNL A   1      42.408  21.030  26.536  1.00  0.00     0.060 A 
BRANCH  89  90
ATOM     90  S   UNL A   1      41.852  19.341  26.214  1.00  0.00     0.124 S 
ATOM     91  O   UNL A   1      42.667  18.978  25.061  1.00  0.00    -0.237 OA
ATOM     92  O   UNL A   1      42.181  18.667  27.466  1.00  0.00    -0.237 OA
ATOM     93  O   UNL A   1      40.424  19.502  25.954  1.00  0.00    -0.744 OA
ENDBRANCH  89  90
ENDBRANCH  57  82
BRANCH  69  94
ATOM     94  C   UNL A   1      49.492  26.796  26.357  1.00  0.00     0.058 A 
ATOM     95  C   UNL A   1      50.306  26.087  27.255  1.00  0.00     0.135 A 
ATOM     96  C   UNL A   1      49.974  27.000  25.054  1.00  0.00     0.135 A 
ATOM     97  F   UNL A   1      49.893  25.865  28.513  1.00  0.00    -0.206 F 
ATOM     98  C   UNL A   1      51.570  25.638  26.888  1.00  0.00     0.059 A 
ATOM     99  C   UNL A   1      51.220  26.530  24.656  1.00  0.00     0.059 A 
ATOM    100  F   UNL A   1      49.229  27.657  24.151  1.00  0.00    -0.206 F 
ATOM    101  C   UNL A   1      52.020  25.868  25.587  1.00  0.00     0.060 A 
BRANCH 101 102
ATOM    102  S   UNL A   1      53.663  25.284  25.124  1.00  0.00     0.124 S 
ATOM    103  O   UNL A   1      54.517  26.110  25.972  1.00  0.00    -0.237 OA
ATOM    104  O   UNL A   1      53.602  23.868  25.476  1.00  0.00    -0.237 OA
ATOM    105  O   UNL A   1      53.736  25.566  23.695  1.00  0.00    -0.744 OA
ENDBRANCH 101 102
ENDBRANCH  69  94
ENDBRANCH  43  44
ENDBRANCH  35  38
ENDBRANCH  33  34
ENDBRANCH  32  33
ENDBRANCH  31  32
ENDBRANCH   1  31
TORSDOF 19
ENDMDL
MODEL 3
REMARK VINA RESULT:     -12.1      3.031      5.406
REMARK SMILES CC1(C)S[C@H](c2ccc(-c3cccc([N+](=O)[O-])c3)o2)[NH2+][C@@H]1C(=O)NCCCCCCNC(=O)c1ccc(-c2c3nc(c(-c4c(F)cc(S(=O)(=O)[O-])cc4F)c4ccc([nH]4)c(-c4c(F)cc(S(=O)(=O)[O-])cc4F)c4nc(c(-c5c(F)cc(S(=O)(=O)[O-])cc5F)c5ccc2[nH]5)C=C4)C=C3)cc1
REMARK SMILES IDX 27 1 26 2 25 3 24 4 22 5 23 6 21 8 1 9 2 10 3 11 4 12 5 13
REMARK SMILES IDX 20 14 6 17 7 18 19 19 8 20 9 21 10 22 11 23 18 24 12 25
REMARK SMILES IDX 14 26 13 27 15 28 16 29 17 30 28 31 29 32 30 33 31 34 32 35
REMARK SMILES IDX 33 37 34 38 35 39 99 40 36 41 98 42 37 43 38 44 39 45 92 46
REMARK SMILES IDX 40 47 97 48 91 49 93 50 41 51 96 52 90 53 89 54 42 56 76 57
REMARK SMILES IDX 55 58 75 59 56 60 59 61 74 62 94 63 57 64 58 65 73 67 95 68
REMARK SMILES IDX 60 69 43 70 44 71 53 72 45 73 46 74 52 75 54 76 47 77 48 78
REMARK SMILES IDX 49 79 50 80 51 81 77 82 78 83 87 84 79 85 80 86 86 87 88 88
REMARK SMILES IDX 81 89 82 90 83 91 84 92 85 93 61 94 62 95 71 96 63 97 64 98
REMARK SMILES IDX 70 99 72 100 65 101 66 102 67 103 68 104 69 105
REMARK H PARENT 24 7 20 15 20 16 31 36 93 55 59 66
REMARK Flexibility Score: inf
ROOT
ATOM      1  C   UNL A   1      34.097  24.759  26.115  1.00  0.00     0.002 C 
ENDROOT
BRANCH   1   2
ATOM      2  C   UNL A   1      33.135  23.871  26.903  1.00  0.00     0.021 C 
BRANCH   2   3
ATOM      3  C   UNL A   1      33.716  22.530  27.345  1.00  0.00     0.116 C 
BRANCH   3   4
ATOM      4  N   UNL A   1      34.788  22.058  26.485  1.00  0.00    -0.351 N 
ATOM      5  C   UNL A   1      34.784  20.951  25.672  1.00  0.00     0.279 C 
ATOM      6  O   UNL A   1      35.746  20.797  24.921  1.00  0.00    -0.268 OA
ATOM      7  H   UNL A   1      35.612  22.596  26.484  1.00  0.00     0.163 HD
BRANCH   5   8
ATOM      8  C   UNL A   1      33.638  19.924  25.846  1.00  0.00     0.289 C 
ATOM      9  C   UNL A   1      32.817  17.550  25.525  1.00  0.00     0.030 C 
ATOM     10  C   UNL A   1      33.532  18.742  24.850  1.00  0.00     0.078 C 
ATOM     11  C   UNL A   1      34.831  18.224  24.232  1.00  0.00     0.030 C 
ATOM     12  S   UNL A   1      32.450  19.377  23.525  1.00  0.00    -0.078 SA
ATOM     13  C   UNL A   1      31.818  20.753  24.511  1.00  0.00     0.311 C 
ATOM     14  N   UNL A   1      32.315  20.620  25.883  1.00  0.00    -0.317 N 
ATOM     15  H   UNL A   1      31.655  20.074  26.437  1.00  0.00     0.348 HD
ATOM     16  H   UNL A   1      32.418  21.543  26.308  1.00  0.00     0.348 HD
BRANCH  13  17
ATOM     17  C   UNL A   1      32.015  22.080  23.838  1.00  0.00     0.172 A 
ATOM     18  C   UNL A   1      32.920  22.447  22.858  1.00  0.00     0.054 A 
ATOM     19  O   UNL A   1      31.210  23.157  24.134  1.00  0.00    -0.454 OA
ATOM     20  C   UNL A   1      32.647  23.787  22.521  1.00  0.00     0.051 A 
ATOM     21  C   UNL A   1      31.595  24.188  23.314  1.00  0.00     0.134 A 
BRANCH  21  22
ATOM     22  C   UNL A   1      30.813  25.418  23.350  1.00  0.00     0.024 A 
ATOM     23  C   UNL A   1      29.479  25.443  23.782  1.00  0.00     0.012 A 
ATOM     24  C   UNL A   1      31.403  26.615  22.909  1.00  0.00     0.097 A 
ATOM     25  C   UNL A   1      28.743  26.638  23.772  1.00  0.00     0.008 A 
ATOM     26  C   UNL A   1      30.656  27.802  22.875  1.00  0.00     0.270 A 
ATOM     27  C   UNL A   1      29.328  27.823  23.317  1.00  0.00     0.085 A 
BRANCH  26  28
ATOM     28  N   UNL A   1      31.259  29.020  22.323  1.00  0.00     0.062 N 
ATOM     29  O   UNL A   1      32.492  29.125  22.380  1.00  0.00    -0.258 OA
ATOM     30  O   UNL A   1      30.498  29.858  21.820  1.00  0.00    -0.258 OA
ENDBRANCH  26  28
ENDBRANCH  21  22
ENDBRANCH  13  17
ENDBRANCH   5   8
ENDBRANCH   3   4
ENDBRANCH   2   3
ENDBRANCH   1   2
BRANCH   1  31
ATOM     31  C   UNL A   1      33.458  26.008  25.522  1.00  0.00     0.002 C 
BRANCH  31  32
ATOM     32  C   UNL A   1      33.191  27.165  26.472  1.00  0.00     0.021 C 
BRANCH  32  33
ATOM     33  C   UNL A   1      34.253  28.245  26.433  1.00  0.00     0.116 C 
BRANCH  33  34
ATOM     34  N   UNL A   1      33.822  29.500  27.034  1.00  0.00    -0.352 N 
ATOM     35  C   UNL A   1      34.518  30.336  27.875  1.00  0.00     0.251 C 
ATOM     36  H   UNL A   1      32.908  29.787  26.809  1.00  0.00     0.163 HD
ATOM     37  O   UNL A   1      33.967  31.311  28.367  1.00  0.00    -0.269 OA
BRANCH  35  38
ATOM     38  C   UNL A   1      35.933  30.032  28.179  1.00  0.00     0.039 A 
ATOM     39  C   UNL A   1      36.266  29.503  29.426  1.00  0.00     0.014 A 
ATOM     40  C   UNL A   1      36.925  30.252  27.221  1.00  0.00     0.014 A 
ATOM     41  C   UNL A   1      37.593  29.158  29.692  1.00  0.00     0.010 A 
ATOM     42  C   UNL A   1      38.214  29.794  27.440  1.00  0.00     0.010 A 
ATOM     43  C   UNL A   1      38.573  29.279  28.691  1.00  0.00    -0.014 A 
BRANCH  43  44
ATOM     44  C   UNL A   1      39.992  28.933  28.951  1.00  0.00     0.031 A 
ATOM     45  C   UNL A   1      40.906  29.956  29.577  1.00  0.00     0.074 A 
ATOM     46  C   UNL A   1      40.466  27.726  28.585  1.00  0.00     0.049 A 
ATOM     47  N   UNL A   1      42.181  29.865  29.858  1.00  0.00    -0.248 NA
ATOM     48  C   UNL A   1      40.322  31.272  29.892  1.00  0.00     0.031 C 
ATOM     49  C   UNL A   1      39.693  26.682  27.906  1.00  0.00     0.029 A 
ATOM     50  N   UNL A   1      41.711  27.173  28.733  1.00  0.00    -0.354 N 
ATOM     51  C   UNL A   1      42.547  31.106  30.363  1.00  0.00     0.074 A 
ATOM     52  C   UNL A   1      41.385  31.961  30.276  1.00  0.00     0.031 C 
ATOM     53  C   UNL A   1      40.470  25.600  27.736  1.00  0.00     0.029 A 
ATOM     54  C   UNL A   1      41.802  25.884  28.260  1.00  0.00     0.049 A 
ATOM     55  H   UNL A   1      42.469  27.652  29.140  1.00  0.00     0.167 HD
ATOM     56  C   UNL A   1      43.732  31.492  30.892  1.00  0.00     0.037 A 
ATOM     57  C   UNL A   1      42.843  25.030  28.257  1.00  0.00     0.037 A 
ATOM     58  C   UNL A   1      44.870  30.621  31.011  1.00  0.00     0.049 A 
ATOM     59  C   UNL A   1      44.144  25.471  28.872  1.00  0.00     0.074 A 
ATOM     60  C   UNL A   1      46.099  30.882  31.589  1.00  0.00     0.029 A 
ATOM     61  N   UNL A   1      44.917  29.313  30.545  1.00  0.00    -0.354 N 
ATOM     62  N   UNL A   1      44.452  26.626  29.416  1.00  0.00    -0.248 NA
ATOM     63  C   UNL A   1      45.235  24.489  28.887  1.00  0.00     0.031 C 
ATOM     64  C   UNL A   1      46.905  29.751  31.430  1.00  0.00     0.029 A 
ATOM     65  C   UNL A   1      46.161  28.764  30.804  1.00  0.00     0.049 A 
ATOM     66  H   UNL A   1      44.175  28.847  30.098  1.00  0.00     0.167 HD
ATOM     67  C   UNL A   1      45.764  26.500  29.860  1.00  0.00     0.074 A 
ATOM     68  C   UNL A   1      46.180  25.149  29.541  1.00  0.00     0.031 C 
ATOM     69  C   UNL A   1      46.555  27.417  30.473  1.00  0.00     0.037 A 
BRANCH  56  70
ATOM     70  C   UNL A   1      43.848  32.908  31.391  1.00  0.00     0.058 A 
ATOM     71  C   UNL A   1      44.307  33.949  30.565  1.00  0.00     0.135 A 
ATOM     72  C   UNL A   1      43.476  33.237  32.704  1.00  0.00     0.135 A 
ATOM     73  F   UNL A   1      44.694  33.692  29.305  1.00  0.00    -0.206 F 
ATOM     74  C   UNL A   1      44.426  35.253  31.032  1.00  0.00     0.059 A 
ATOM     75  C   UNL A   1      43.555  34.542  33.183  1.00  0.00     0.059 A 
ATOM     76  F   UNL A   1      43.035  32.284  33.540  1.00  0.00    -0.206 F 
ATOM     77  C   UNL A   1      44.045  35.541  32.344  1.00  0.00     0.060 A 
BRANCH  77  78
ATOM     78  S   UNL A   1      44.196  37.241  32.930  1.00  0.00     0.124 S 
ATOM     79  O   UNL A   1      43.093  37.319  33.884  1.00  0.00    -0.237 OA
ATOM     80  O   UNL A   1      45.536  37.255  33.507  1.00  0.00    -0.237 OA
ATOM     81  O   UNL A   1      44.030  38.035  31.715  1.00  0.00    -0.744 OA
ENDBRANCH  77  78
ENDBRANCH  56  70
BRANCH  57  82
ATOM     82  C   UNL A   1      42.686  23.664  27.687  1.00  0.00     0.058 A 
ATOM     83  C   UNL A   1      42.428  22.560  28.512  1.00  0.00     0.135 A 
ATOM     84  C   UNL A   1      42.780  23.436  26.305  1.00  0.00     0.135 A 
ATOM     85  F   UNL A   1      42.333  22.725  29.840  1.00  0.00    -0.206 F 
ATOM     86  C   UNL A   1      42.293  21.276  27.995  1.00  0.00     0.059 A 
ATOM     87  C   UNL A   1      42.619  22.166  25.760  1.00  0.00     0.059 A 
ATOM     88  F   UNL A   1      43.006  24.461  25.467  1.00  0.00    -0.206 F 
ATOM     89  C   UNL A   1      42.388  21.090  26.615  1.00  0.00     0.060 A 
BRANCH  89  90
ATOM     90  S   UNL A   1      42.172  19.425  25.949  1.00  0.00     0.124 S 
ATOM     91  O   UNL A   1      42.640  18.601  27.057  1.00  0.00    -0.237 OA
ATOM     92  O   UNL A   1      40.737  19.384  25.685  1.00  0.00    -0.237 OA
ATOM     93  O   UNL A   1      43.019  19.426  24.760  1.00  0.00    -0.744 OA
ENDBRANCH  89  90
ENDBRANCH  57  82
BRANCH  69  94
ATOM     94  C   UNL A   1      47.940  26.975  30.860  1.00  0.00     0.058 A 
ATOM     95  C   UNL A   1      48.202  26.368  32.099  1.00  0.00     0.135 A 
ATOM     96  C   UNL A   1      49.014  27.143  29.972  1.00  0.00     0.135 A 
ATOM     97  F   UNL A   1      47.210  26.185  32.986  1.00  0.00    -0.206 F 
ATOM     98  C   UNL A   1      49.488  25.985  32.462  1.00  0.00     0.059 A 
ATOM     99  C   UNL A   1      50.303  26.736  30.299  1.00  0.00     0.059 A 
ATOM    100  F   UNL A   1      48.817  27.702  28.767  1.00  0.00    -0.206 F 
ATOM    101  C   UNL A   1      50.534  26.177  31.556  1.00  0.00     0.060 A 
BRANCH 101 102
ATOM    102  S   UNL A   1      52.199  25.679  32.040  1.00  0.00     0.124 S 
ATOM    103  O   UNL A   1      52.433  26.530  33.202  1.00  0.00    -0.237 OA
ATOM    104  O   UNL A   1      52.030  24.255  32.320  1.00  0.00    -0.237 OA
ATOM    105  O   UNL A   1      53.003  25.989  30.862  1.00  0.00    -0.744 OA
ENDBRANCH 101 102
ENDBRANCH  69  94
ENDBRANCH  43  44
ENDBRANCH  35  38
ENDBRANCH  33  34
ENDBRANCH  32  33
ENDBRANCH  31  32
ENDBRANCH   1  31
TORSDOF 19
ENDMDL
