MODEL 1
REMARK VINA RESULT:     -12.3      0.000      0.000
REMARK SMILES CC1(C)[C@H](C(=O)NCCCCCCNC(=O)c2ccc(-c3c4nc(c(-c5c(F)cc(S(=O)(=O)[O-])cc5F)c5ccc([nH]5)c(-c5c(F)cc(S(=O)(=O)[O-])cc5F)c5nc(c(-c6c(F)cc(S(=O)(=O)[O-])cc6F)c6ccc3[nH]6)C=C5)C=C4)cc2)[C@@H]1c1nc2ccc(F)cc2s1
REMARK SMILES IDX 11 1 10 2 9 3 8 4 7 5 5 6 6 7 4 9 1 10 2 11 3 12 83 13 84 14
REMARK SMILES IDX 85 15 93 16 86 17 92 18 87 19 91 20 88 21 89 22 90 23 12 24
REMARK SMILES IDX 13 25 14 26 15 27 16 29 17 30 18 31 82 32 19 33 81 34 20 35
REMARK SMILES IDX 21 36 22 37 75 38 23 39 80 40 74 41 76 42 24 43 79 44 73 45
REMARK SMILES IDX 72 46 25 48 59 49 38 50 58 51 39 52 42 53 57 54 77 55 40 56
REMARK SMILES IDX 41 57 56 59 78 60 43 61 26 62 27 63 36 64 28 65 29 66 35 67
REMARK SMILES IDX 37 68 30 69 31 70 32 71 33 72 34 73 60 74 61 75 70 76 62 77
REMARK SMILES IDX 63 78 69 79 71 80 64 81 65 82 66 83 67 84 68 85 44 86 45 87
REMARK SMILES IDX 54 88 46 89 47 90 53 91 55 92 48 93 49 94 50 95 51 96 52 97
REMARK H PARENT 7 8 14 28 76 47 42 58
REMARK Flexibility Score: inf
ROOT
ATOM      1  C   UNL A   1      35.752  23.800  25.830  1.00  0.00     0.002 C 
ENDROOT
BRANCH   1   2
ATOM      2  C   UNL A   1      34.788  22.649  26.142  1.00  0.00     0.002 C 
BRANCH   2   3
ATOM      3  C   UNL A   1      33.834  22.889  27.313  1.00  0.00     0.021 C 
BRANCH   3   4
ATOM      4  C   UNL A   1      32.358  22.939  26.932  1.00  0.00     0.116 C 
BRANCH   4   5
ATOM      5  N   UNL A   1      31.800  24.260  27.033  1.00  0.00    -0.356 N 
ATOM      6  C   UNL A   1      31.888  25.380  26.257  1.00  0.00     0.224 C 
ATOM      7  O   UNL A   1      31.251  26.352  26.675  1.00  0.00    -0.275 OA
ATOM      8  H   UNL A   1      31.234  24.383  27.829  1.00  0.00     0.163 HD
BRANCH   6   9
ATOM      9  C   UNL A   1      32.647  25.587  24.993  1.00  0.00     0.095 C 
ATOM     10  C   UNL A   1      33.567  24.383  22.916  1.00  0.00     0.013 C 
ATOM     11  C   UNL A   1      32.369  25.025  23.590  1.00  0.00    -0.013 C 
ATOM     12  C   UNL A   1      31.101  24.266  23.295  1.00  0.00     0.013 C 
ATOM     13  C   UNL A   1      32.446  26.525  23.846  1.00  0.00     0.068 C 
BRANCH  13  14
ATOM     14  C   UNL A   1      31.395  27.620  23.843  1.00  0.00     0.098 A 
ATOM     15  N   UNL A   1      30.179  27.312  23.451  1.00  0.00    -0.241 NA
ATOM     16  S   UNL A   1      31.580  29.199  24.476  1.00  0.00    -0.118 S 
ATOM     17  C   UNL A   1      29.398  28.451  23.409  1.00  0.00     0.082 A 
ATOM     18  C   UNL A   1      30.025  29.618  23.857  1.00  0.00     0.057 A 
ATOM     19  C   UNL A   1      28.073  28.526  22.931  1.00  0.00     0.033 A 
ATOM     20  C   UNL A   1      29.399  30.872  23.775  1.00  0.00     0.060 A 
ATOM     21  C   UNL A   1      27.440  29.769  22.846  1.00  0.00     0.041 A 
ATOM     22  C   UNL A   1      28.111  30.917  23.245  1.00  0.00     0.124 A 
ATOM     23  F   UNL A   1      27.503  32.102  23.112  1.00  0.00    -0.207 F 
ENDBRANCH  13  14
ENDBRANCH   6   9
ENDBRANCH   4   5
ENDBRANCH   3   4
ENDBRANCH   2   3
ENDBRANCH   1   2
BRANCH   1  24
ATOM     24  C   UNL A   1      37.235  23.427  25.741  1.00  0.00     0.021 C 
BRANCH  24  25
ATOM     25  C   UNL A   1      38.182  24.305  26.556  1.00  0.00     0.116 C 
BRANCH  25  26
ATOM     26  N   UNL A   1      39.554  24.220  26.089  1.00  0.00    -0.352 N 
ATOM     27  C   UNL A   1      40.649  24.970  26.438  1.00  0.00     0.251 C 
ATOM     28  H   UNL A   1      39.725  23.518  25.419  1.00  0.00     0.163 HD
ATOM     29  O   UNL A   1      41.690  24.857  25.797  1.00  0.00    -0.269 OA
BRANCH  27  30
ATOM     30  C   UNL A   1      40.577  25.922  27.569  1.00  0.00     0.039 A 
ATOM     31  C   UNL A   1      41.447  27.014  27.582  1.00  0.00     0.014 A 
ATOM     32  C   UNL A   1      39.690  25.722  28.631  1.00  0.00     0.014 A 
ATOM     33  C   UNL A   1      41.396  27.932  28.634  1.00  0.00     0.010 A 
ATOM     34  C   UNL A   1      39.596  26.671  29.648  1.00  0.00     0.010 A 
ATOM     35  C   UNL A   1      40.453  27.782  29.664  1.00  0.00    -0.014 A 
BRANCH  35  36
ATOM     36  C   UNL A   1      40.361  28.771  30.768  1.00  0.00     0.031 A 
ATOM     37  C   UNL A   1      41.244  28.640  31.979  1.00  0.00     0.074 A 
ATOM     38  C   UNL A   1      39.446  29.758  30.703  1.00  0.00     0.049 A 
ATOM     39  N   UNL A   1      41.271  29.369  33.065  1.00  0.00    -0.248 NA
ATOM     40  C   UNL A   1      42.207  27.527  31.981  1.00  0.00     0.031 C 
ATOM     41  C   UNL A   1      38.499  29.962  29.603  1.00  0.00     0.029 A 
ATOM     42  N   UNL A   1      39.152  30.769  31.584  1.00  0.00    -0.354 N 
ATOM     43  C   UNL A   1      42.237  28.797  33.885  1.00  0.00     0.074 A 
ATOM     44  C   UNL A   1      42.742  27.632  33.190  1.00  0.00     0.031 C 
ATOM     45  C   UNL A   1      37.743  31.041  29.867  1.00  0.00     0.029 A 
ATOM     46  C   UNL A   1      38.129  31.586  31.165  1.00  0.00     0.049 A 
ATOM     47  H   UNL A   1      39.629  30.896  32.435  1.00  0.00     0.167 HD
ATOM     48  C   UNL A   1      42.679  29.216  35.095  1.00  0.00     0.037 A 
ATOM     49  C   UNL A   1      37.562  32.653  31.762  1.00  0.00     0.037 A 
ATOM     50  C   UNL A   1      42.195  30.393  35.767  1.00  0.00     0.049 A 
ATOM     51  C   UNL A   1      38.086  33.113  33.095  1.00  0.00     0.074 A 
ATOM     52  C   UNL A   1      42.619  30.935  36.970  1.00  0.00     0.029 A 
ATOM     53  N   UNL A   1      41.184  31.216  35.294  1.00  0.00    -0.354 N 
ATOM     54  N   UNL A   1      39.041  32.592  33.828  1.00  0.00    -0.248 NA
ATOM     55  C   UNL A   1      37.465  34.310  33.677  1.00  0.00     0.031 C 
ATOM     56  C   UNL A   1      41.840  32.064  37.239  1.00  0.00     0.029 A 
ATOM     57  C   UNL A   1      40.960  32.253  36.186  1.00  0.00     0.049 A 
ATOM     58  H   UNL A   1      40.696  31.083  34.451  1.00  0.00     0.167 HD
ATOM     59  C   UNL A   1      39.153  33.414  34.945  1.00  0.00     0.074 A 
ATOM     60  C   UNL A   1      38.177  34.472  34.784  1.00  0.00     0.031 C 
ATOM     61  C   UNL A   1      39.989  33.303  36.006  1.00  0.00     0.037 A 
BRANCH  48  62
ATOM     62  C   UNL A   1      43.746  28.397  35.770  1.00  0.00     0.058 A 
ATOM     63  C   UNL A   1      43.424  27.351  36.651  1.00  0.00     0.135 A 
ATOM     64  C   UNL A   1      45.104  28.635  35.507  1.00  0.00     0.135 A 
ATOM     65  F   UNL A   1      42.141  27.090  36.949  1.00  0.00    -0.206 F 
ATOM     66  C   UNL A   1      44.411  26.589  37.267  1.00  0.00     0.059 A 
ATOM     67  C   UNL A   1      46.108  27.868  36.092  1.00  0.00     0.059 A 
ATOM     68  F   UNL A   1      45.468  29.623  34.674  1.00  0.00    -0.206 F 
ATOM     69  C   UNL A   1      45.751  26.856  36.982  1.00  0.00     0.060 A 
BRANCH  69  70
ATOM     70  S   UNL A   1      47.020  25.854  37.786  1.00  0.00     0.124 S 
ATOM     71  O   UNL A   1      48.218  26.653  37.540  1.00  0.00    -0.237 OA
ATOM     72  O   UNL A   1      46.558  25.814  39.169  1.00  0.00    -0.237 OA
ATOM     73  O   UNL A   1      46.955  24.584  37.069  1.00  0.00    -0.744 OA
ENDBRANCH  69  70
ENDBRANCH  48  62
BRANCH  49  74
ATOM     74  C   UNL A   1      36.452  33.377  31.089  1.00  0.00     0.058 A 
ATOM     75  C   UNL A   1      36.685  34.153  29.944  1.00  0.00     0.135 A 
ATOM     76  C   UNL A   1      35.135  33.299  31.570  1.00  0.00     0.135 A 
ATOM     77  F   UNL A   1      37.928  34.262  29.450  1.00  0.00    -0.206 F 
ATOM     78  C   UNL A   1      35.657  34.843  29.309  1.00  0.00     0.059 A 
ATOM     79  C   UNL A   1      34.086  33.961  30.938  1.00  0.00     0.059 A 
ATOM     80  F   UNL A   1      34.857  32.556  32.652  1.00  0.00    -0.206 F 
ATOM     81  C   UNL A   1      34.360  34.740  29.815  1.00  0.00     0.060 A 
BRANCH  81  82
ATOM     82  S   UNL A   1      33.024  35.605  28.960  1.00  0.00     0.124 S 
ATOM     83  O   UNL A   1      32.440  34.529  28.167  1.00  0.00    -0.237 OA
ATOM     84  O   UNL A   1      32.213  36.094  30.071  1.00  0.00    -0.237 OA
ATOM     85  O   UNL A   1      33.725  36.638  28.204  1.00  0.00    -0.744 OA
ENDBRANCH  81  82
ENDBRANCH  49  74
BRANCH  61  86
ATOM     86  C   UNL A   1      39.912  34.373  37.059  1.00  0.00     0.058 A 
ATOM     87  C   UNL A   1      40.645  35.565  36.955  1.00  0.00     0.135 A 
ATOM     88  C   UNL A   1      39.062  34.219  38.167  1.00  0.00     0.135 A 
ATOM     89  F   UNL A   1      41.475  35.758  35.919  1.00  0.00    -0.206 F 
ATOM     90  C   UNL A   1      40.559  36.556  37.927  1.00  0.00     0.059 A 
ATOM     91  C   UNL A   1      38.942  35.208  39.137  1.00  0.00     0.059 A 
ATOM     92  F   UNL A   1      38.331  33.102  38.308  1.00  0.00    -0.206 F 
ATOM     93  C   UNL A   1      39.705  36.368  39.016  1.00  0.00     0.060 A 
BRANCH  93  94
ATOM     94  S   UNL A   1      39.584  37.671  40.260  1.00  0.00     0.124 S 
ATOM     95  O   UNL A   1      38.266  38.228  39.972  1.00  0.00    -0.237 OA
ATOM     96  O   UNL A   1      39.698  36.925  41.509  1.00  0.00    -0.237 OA
ATOM     97  O   UNL A   1      40.714  38.541  39.951  1.00  0.00    -0.744 OA
ENDBRANCH  93  94
ENDBRANCH  61  86
ENDBRANCH  35  36
ENDBRANCH  27  30
ENDBRANCH  25  26
ENDBRANCH  24  25
ENDBRANCH   1  24
TORSDOF 17
ENDMDL
MODEL 2
REMARK VINA RESULT:     -12.2      5.395     10.919
REMARK SMILES CC1(C)[C@H](C(=O)NCCCCCCNC(=O)c2ccc(-c3c4nc(c(-c5c(F)cc(S(=O)(=O)[O-])cc5F)c5ccc([nH]5)c(-c5c(F)cc(S(=O)(=O)[O-])cc5F)c5nc(c(-c6c(F)cc(S(=O)(=O)[O-])cc6F)c6ccc3[nH]6)C=C5)C=C4)cc2)[C@@H]1c1nc2ccc(F)cc2s1
REMARK SMILES IDX 11 1 10 2 9 3 8 4 7 5 5 6 6 7 4 9 1 10 2 11 3 12 83 13 84 14
REMARK SMILES IDX 85 15 93 16 86 17 92 18 87 19 91 20 88 21 89 22 90 23 12 24
REMARK SMILES IDX 13 25 14 26 15 27 16 29 17 30 18 31 82 32 19 33 81 34 20 35
REMARK SMILES IDX 21 36 22 37 75 38 23 39 80 40 74 41 76 42 24 43 79 44 73 45
REMARK SMILES IDX 72 46 25 48 59 49 38 50 58 51 39 52 42 53 57 54 77 55 40 56
REMARK SMILES IDX 41 57 56 59 78 60 43 61 26 62 27 63 36 64 28 65 29 66 35 67
REMARK SMILES IDX 37 68 30 69 31 70 32 71 33 72 34 73 60 74 61 75 70 76 62 77
REMARK SMILES IDX 63 78 69 79 71 80 64 81 65 82 66 83 67 84 68 85 44 86 45 87
REMARK SMILES IDX 54 88 46 89 47 90 53 91 55 92 48 93 49 94 50 95 51 96 52 97
REMARK H PARENT 7 8 14 28 76 47 42 58
REMARK Flexibility Score: inf
ROOT
ATOM      1  C   UNL A   1      31.904  27.105  25.215  1.00  0.00     0.002 C 
ENDROOT
BRANCH   1   2
ATOM      2  C   UNL A   1      30.536  26.410  25.229  1.00  0.00     0.002 C 
BRANCH   2   3
ATOM      3  C   UNL A   1      30.203  25.588  23.983  1.00  0.00     0.021 C 
BRANCH   3   4
ATOM      4  C   UNL A   1      31.381  25.348  23.045  1.00  0.00     0.116 C 
BRANCH   4   5
ATOM      5  N   UNL A   1      31.539  23.965  22.688  1.00  0.00    -0.356 N 
ATOM      6  C   UNL A   1      32.510  23.036  22.931  1.00  0.00     0.224 C 
ATOM      7  O   UNL A   1      32.291  21.920  22.451  1.00  0.00    -0.275 OA
ATOM      8  H   UNL A   1      30.789  23.613  22.156  1.00  0.00     0.163 HD
BRANCH   6   9
ATOM      9  C   UNL A   1      33.786  23.190  23.682  1.00  0.00     0.095 C 
ATOM     10  C   UNL A   1      35.020  24.679  25.376  1.00  0.00     0.013 C 
ATOM     11  C   UNL A   1      34.007  23.570  25.154  1.00  0.00    -0.013 C 
ATOM     12  C   UNL A   1      32.848  23.686  26.108  1.00  0.00     0.013 C 
ATOM     13  C   UNL A   1      34.536  22.261  24.582  1.00  0.00     0.068 C 
BRANCH  13  14
ATOM     14  C   UNL A   1      34.138  20.813  24.799  1.00  0.00     0.098 A 
ATOM     15  N   UNL A   1      35.047  19.883  24.606  1.00  0.00    -0.241 NA
ATOM     16  S   UNL A   1      32.656  20.261  25.454  1.00  0.00    -0.118 S 
ATOM     17  C   UNL A   1      34.473  18.633  24.742  1.00  0.00     0.082 A 
ATOM     18  C   UNL A   1      33.128  18.634  25.123  1.00  0.00     0.057 A 
ATOM     19  C   UNL A   1      35.115  17.401  24.497  1.00  0.00     0.033 A 
ATOM     20  C   UNL A   1      32.379  17.450  25.198  1.00  0.00     0.060 A 
ATOM     21  C   UNL A   1      34.379  16.215  24.569  1.00  0.00     0.041 A 
ATOM     22  C   UNL A   1      33.030  16.255  24.894  1.00  0.00     0.124 A 
ATOM     23  F   UNL A   1      32.334  15.111  24.913  1.00  0.00    -0.207 F 
ENDBRANCH  13  14
ENDBRANCH   6   9
ENDBRANCH   4   5
ENDBRANCH   3   4
ENDBRANCH   2   3
ENDBRANCH   1   2
BRANCH   1  24
ATOM     24  C   UNL A   1      32.550  27.340  26.584  1.00  0.00     0.021 C 
BRANCH  24  25
ATOM     25  C   UNL A   1      33.817  28.193  26.573  1.00  0.00     0.116 C 
BRANCH  25  26
ATOM     26  N   UNL A   1      33.579  29.543  27.051  1.00  0.00    -0.352 N 
ATOM     27  C   UNL A   1      34.371  30.355  27.822  1.00  0.00     0.251 C 
ATOM     28  H   UNL A   1      32.717  29.936  26.780  1.00  0.00     0.163 HD
ATOM     29  O   UNL A   1      33.913  31.402  28.268  1.00  0.00    -0.269 OA
BRANCH  27  30
ATOM     30  C   UNL A   1      35.766  29.967  28.131  1.00  0.00     0.039 A 
ATOM     31  C   UNL A   1      36.731  30.080  27.128  1.00  0.00     0.014 A 
ATOM     32  C   UNL A   1      36.118  29.457  29.384  1.00  0.00     0.014 A 
ATOM     33  C   UNL A   1      38.057  29.728  27.394  1.00  0.00     0.010 A 
ATOM     34  C   UNL A   1      37.451  29.166  29.668  1.00  0.00     0.010 A 
ATOM     35  C   UNL A   1      38.433  29.290  28.674  1.00  0.00    -0.014 A 
BRANCH  35  36
ATOM     36  C   UNL A   1      39.846  28.950  28.982  1.00  0.00     0.031 A 
ATOM     37  C   UNL A   1      40.757  29.979  29.594  1.00  0.00     0.074 A 
ATOM     38  C   UNL A   1      40.322  27.731  28.662  1.00  0.00     0.049 A 
ATOM     39  N   UNL A   1      42.030  29.889  29.882  1.00  0.00    -0.248 NA
ATOM     40  C   UNL A   1      40.165  31.292  29.900  1.00  0.00     0.031 C 
ATOM     41  C   UNL A   1      39.550  26.663  28.021  1.00  0.00     0.029 A 
ATOM     42  N   UNL A   1      41.571  27.186  28.823  1.00  0.00    -0.354 N 
ATOM     43  C   UNL A   1      42.396  31.132  30.385  1.00  0.00     0.074 A 
ATOM     44  C   UNL A   1      41.221  31.975  30.321  1.00  0.00     0.031 C 
ATOM     45  C   UNL A   1      40.338  25.587  27.859  1.00  0.00     0.029 A 
ATOM     46  C   UNL A   1      41.675  25.896  28.355  1.00  0.00     0.049 A 
ATOM     47  H   UNL A   1      42.322  27.671  29.233  1.00  0.00     0.167 HD
ATOM     48  C   UNL A   1      43.594  31.529  30.877  1.00  0.00     0.037 A 
ATOM     49  C   UNL A   1      42.730  25.059  28.327  1.00  0.00     0.037 A 
ATOM     50  C   UNL A   1      44.751  30.677  30.968  1.00  0.00     0.049 A 
ATOM     51  C   UNL A   1      44.045  25.515  28.900  1.00  0.00     0.074 A 
ATOM     52  C   UNL A   1      45.995  30.967  31.503  1.00  0.00     0.029 A 
ATOM     53  N   UNL A   1      44.807  29.366  30.518  1.00  0.00    -0.354 N 
ATOM     54  N   UNL A   1      44.356  26.676  29.424  1.00  0.00    -0.248 NA
ATOM     55  C   UNL A   1      45.148  24.545  28.887  1.00  0.00     0.031 C 
ATOM     56  C   UNL A   1      46.812  29.843  31.345  1.00  0.00     0.029 A 
ATOM     57  C   UNL A   1      46.066  28.838  30.751  1.00  0.00     0.049 A 
ATOM     58  H   UNL A   1      44.062  28.882  30.095  1.00  0.00     0.167 HD
ATOM     59  C   UNL A   1      45.682  26.567  29.829  1.00  0.00     0.074 A 
ATOM     60  C   UNL A   1      46.110  25.223  29.499  1.00  0.00     0.031 C 
ATOM     61  C   UNL A   1      46.473  27.494  30.422  1.00  0.00     0.037 A 
BRANCH  48  62
ATOM     62  C   UNL A   1      43.715  32.949  31.361  1.00  0.00     0.058 A 
ATOM     63  C   UNL A   1      43.450  33.296  32.696  1.00  0.00     0.135 A 
ATOM     64  C   UNL A   1      44.135  33.968  30.491  1.00  0.00     0.135 A 
ATOM     65  F   UNL A   1      43.029  32.364  33.566  1.00  0.00    -0.206 F 
ATOM     66  C   UNL A   1      43.570  34.607  33.144  1.00  0.00     0.059 A 
ATOM     67  C   UNL A   1      44.289  35.282  30.925  1.00  0.00     0.059 A 
ATOM     68  F   UNL A   1      44.402  33.691  29.204  1.00  0.00    -0.206 F 
ATOM     69  C   UNL A   1      43.990  35.594  32.250  1.00  0.00     0.060 A 
BRANCH  69  70
ATOM     70  S   UNL A   1      44.147  37.290  32.849  1.00  0.00     0.124 S 
ATOM     71  O   UNL A   1      43.008  37.384  33.757  1.00  0.00    -0.237 OA
ATOM     72  O   UNL A   1      45.462  37.278  33.480  1.00  0.00    -0.237 OA
ATOM     73  O   UNL A   1      44.047  38.090  31.632  1.00  0.00    -0.744 OA
ENDBRANCH  69  70
ENDBRANCH  48  62
BRANCH  49  74
ATOM     74  C   UNL A   1      42.580  23.694  27.758  1.00  0.00     0.058 A 
ATOM     75  C   UNL A   1      42.635  23.478  26.373  1.00  0.00     0.135 A 
ATOM     76  C   UNL A   1      42.391  22.577  28.588  1.00  0.00     0.135 A 
ATOM     77  F   UNL A   1      42.808  24.516  25.541  1.00  0.00    -0.206 F 
ATOM     78  C   UNL A   1      42.488  22.208  25.826  1.00  0.00     0.059 A 
ATOM     79  C   UNL A   1      42.265  21.293  28.065  1.00  0.00     0.059 A 
ATOM     80  F   UNL A   1      42.350  22.727  29.920  1.00  0.00    -0.206 F 
ATOM     81  C   UNL A   1      42.303  21.121  26.683  1.00  0.00     0.060 A 
BRANCH  81  82
ATOM     82  S   UNL A   1      42.155  19.469  25.967  1.00  0.00     0.124 S 
ATOM     83  O   UNL A   1      42.994  19.587  24.780  1.00  0.00    -0.237 OA
ATOM     84  O   UNL A   1      42.677  18.622  27.036  1.00  0.00    -0.237 OA
ATOM     85  O   UNL A   1      40.722  19.339  25.719  1.00  0.00    -0.744 OA
ENDBRANCH  81  82
ENDBRANCH  49  74
BRANCH  61  86
ATOM     86  C   UNL A   1      47.870  27.077  30.786  1.00  0.00     0.058 A 
ATOM     87  C   UNL A   1      48.174  26.531  32.042  1.00  0.00     0.135 A 
ATOM     88  C   UNL A   1      48.911  27.190  29.850  1.00  0.00     0.135 A 
ATOM     89  F   UNL A   1      47.216  26.407  32.974  1.00  0.00    -0.206 F 
ATOM     90  C   UNL A   1      49.468  26.135  32.368  1.00  0.00     0.059 A 
ATOM     91  C   UNL A   1      50.206  26.777  30.145  1.00  0.00     0.059 A 
ATOM     92  F   UNL A   1      48.671  27.696  28.630  1.00  0.00    -0.206 F 
ATOM     93  C   UNL A   1      50.478  26.264  31.413  1.00  0.00     0.060 A 
BRANCH  93  94
ATOM     94  S   UNL A   1      52.148  25.726  31.838  1.00  0.00     0.124 S 
ATOM     95  O   UNL A   1      52.877  26.039  30.613  1.00  0.00    -0.237 OA
ATOM     96  O   UNL A   1      52.462  26.559  32.994  1.00  0.00    -0.237 OA
ATOM     97  O   UNL A   1      51.983  24.304  32.124  1.00  0.00    -0.744 OA
ENDBRANCH  93  94
ENDBRANCH  61  86
ENDBRANCH  35  36
ENDBRANCH  27  30
ENDBRANCH  25  26
ENDBRANCH  24  25
ENDBRANCH   1  24
TORSDOF 17
ENDMDL
MODEL 3
REMARK VINA RESULT:     -12.1      5.432     10.854
REMARK SMILES CC1(C)[C@H](C(=O)NCCCCCCNC(=O)c2ccc(-c3c4nc(c(-c5c(F)cc(S(=O)(=O)[O-])cc5F)c5ccc([nH]5)c(-c5c(F)cc(S(=O)(=O)[O-])cc5F)c5nc(c(-c6c(F)cc(S(=O)(=O)[O-])cc6F)c6ccc3[nH]6)C=C5)C=C4)cc2)[C@@H]1c1nc2ccc(F)cc2s1
REMARK SMILES IDX 11 1 10 2 9 3 8 4 7 5 5 6 6 7 4 9 1 10 2 11 3 12 83 13 84 14
REMARK SMILES IDX 85 15 93 16 86 17 92 18 87 19 91 20 88 21 89 22 90 23 12 24
REMARK SMILES IDX 13 25 14 26 15 27 16 29 17 30 18 31 82 32 19 33 81 34 20 35
REMARK SMILES IDX 21 36 22 37 75 38 23 39 80 40 74 41 76 42 24 43 79 44 73 45
REMARK SMILES IDX 72 46 25 48 59 49 38 50 58 51 39 52 42 53 57 54 77 55 40 56
REMARK SMILES IDX 41 57 56 59 78 60 43 61 26 62 27 63 36 64 28 65 29 66 35 67
REMARK SMILES IDX 37 68 30 69 31 70 32 71 33 72 34 73 60 74 61 75 70 76 62 77
REMARK SMILES IDX 63 78 69 79 71 80 64 81 65 82 66 83 67 84 68 85 44 86 45 87
REMARK SMILES IDX 54 88 46 89 47 90 53 91 55 92 48 93 49 94 50 95 51 96 52 97
REMARK H PARENT 7 8 14 28 76 47 42 58
REMARK Flexibility Score: inf
ROOT
ATOM      1  C   UNL A   1      31.853  28.562  25.333  1.00  0.00     0.002 C 
ENDROOT
BRANCH   1   2
ATOM      2  C   UNL A   1      31.486  27.933  23.983  1.00  0.00     0.002 C 
BRANCH   2   3
ATOM      3  C   UNL A   1      32.645  27.762  23.000  1.00  0.00     0.021 C 
BRANCH   3   4
ATOM      4  C   UNL A   1      32.544  26.531  22.106  1.00  0.00     0.116 C 
BRANCH   4   5
ATOM      5  N   UNL A   1      33.559  25.552  22.387  1.00  0.00    -0.356 N 
ATOM      6  C   UNL A   1      33.732  24.638  23.386  1.00  0.00     0.224 C 
ATOM      7  O   UNL A   1      34.752  23.950  23.288  1.00  0.00    -0.275 OA
ATOM      8  H   UNL A   1      34.280  25.537  21.717  1.00  0.00     0.163 HD
BRANCH   6   9
ATOM      9  C   UNL A   1      32.870  24.369  24.570  1.00  0.00     0.095 C 
ATOM     10  C   UNL A   1      30.568  24.861  25.603  1.00  0.00     0.013 C 
ATOM     11  C   UNL A   1      31.374  24.027  24.623  1.00  0.00    -0.013 C 
ATOM     12  C   UNL A   1      30.594  23.754  23.363  1.00  0.00     0.013 C 
ATOM     13  C   UNL A   1      32.424  23.096  25.215  1.00  0.00     0.068 C 
BRANCH  13  14
ATOM     14  C   UNL A   1      32.934  21.730  24.797  1.00  0.00     0.098 A 
ATOM     15  N   UNL A   1      32.258  21.067  23.885  1.00  0.00    -0.241 NA
ATOM     16  S   UNL A   1      34.422  21.021  25.262  1.00  0.00    -0.118 S 
ATOM     17  C   UNL A   1      32.807  19.810  23.718  1.00  0.00     0.082 A 
ATOM     18  C   UNL A   1      33.963  19.562  24.463  1.00  0.00     0.057 A 
ATOM     19  C   UNL A   1      32.282  18.782  22.906  1.00  0.00     0.033 A 
ATOM     20  C   UNL A   1      34.574  18.298  24.482  1.00  0.00     0.060 A 
ATOM     21  C   UNL A   1      32.882  17.521  22.917  1.00  0.00     0.041 A 
ATOM     22  C   UNL A   1      33.996  17.290  23.712  1.00  0.00     0.124 A 
ATOM     23  F   UNL A   1      34.528  16.062  23.743  1.00  0.00    -0.207 F 
ENDBRANCH  13  14
ENDBRANCH   6   9
ENDBRANCH   4   5
ENDBRANCH   3   4
ENDBRANCH   2   3
ENDBRANCH   1   2
BRANCH   1  24
ATOM     24  C   UNL A   1      32.567  27.643  26.329  1.00  0.00     0.021 C 
BRANCH  24  25
ATOM     25  C   UNL A   1      33.813  28.232  26.988  1.00  0.00     0.116 C 
BRANCH  25  26
ATOM     26  N   UNL A   1      33.624  29.614  27.389  1.00  0.00    -0.352 N 
ATOM     27  C   UNL A   1      34.471  30.457  28.063  1.00  0.00     0.251 C 
ATOM     28  H   UNL A   1      32.756  30.007  27.140  1.00  0.00     0.163 HD
ATOM     29  O   UNL A   1      34.057  31.540  28.464  1.00  0.00    -0.269 OA
BRANCH  27  30
ATOM     30  C   UNL A   1      35.874  30.061  28.323  1.00  0.00     0.039 A 
ATOM     31  C   UNL A   1      36.790  30.110  27.270  1.00  0.00     0.014 A 
ATOM     32  C   UNL A   1      36.279  29.604  29.581  1.00  0.00     0.014 A 
ATOM     33  C   UNL A   1      38.122  29.748  27.489  1.00  0.00     0.010 A 
ATOM     34  C   UNL A   1      37.620  29.304  29.814  1.00  0.00     0.010 A 
ATOM     35  C   UNL A   1      38.554  29.365  28.768  1.00  0.00    -0.014 A 
BRANCH  35  36
ATOM     36  C   UNL A   1      39.975  29.015  29.024  1.00  0.00     0.031 A 
ATOM     37  C   UNL A   1      40.918  30.043  29.589  1.00  0.00     0.074 A 
ATOM     38  C   UNL A   1      40.428  27.789  28.698  1.00  0.00     0.049 A 
ATOM     39  N   UNL A   1      42.200  29.944  29.827  1.00  0.00    -0.248 NA
ATOM     40  C   UNL A   1      40.350  31.363  29.904  1.00  0.00     0.031 C 
ATOM     41  C   UNL A   1      39.623  26.721  28.098  1.00  0.00     0.029 A 
ATOM     42  N   UNL A   1      41.678  27.235  28.815  1.00  0.00    -0.354 N 
ATOM     43  C   UNL A   1      42.596  31.189  30.303  1.00  0.00     0.074 A 
ATOM     44  C   UNL A   1      41.427  32.041  30.277  1.00  0.00     0.031 C 
ATOM     45  C   UNL A   1      40.395  25.637  27.917  1.00  0.00     0.029 A 
ATOM     46  C   UNL A   1      41.753  25.940  28.356  1.00  0.00     0.049 A 
ATOM     47  H   UNL A   1      42.448  27.718  29.190  1.00  0.00     0.167 HD
ATOM     48  C   UNL A   1      43.816  31.580  30.743  1.00  0.00     0.037 A 
ATOM     49  C   UNL A   1      42.799  25.093  28.295  1.00  0.00     0.037 A 
ATOM     50  C   UNL A   1      44.969  30.719  30.796  1.00  0.00     0.049 A 
ATOM     51  C   UNL A   1      44.139  25.543  28.811  1.00  0.00     0.074 A 
ATOM     52  C   UNL A   1      46.235  31.004  31.280  1.00  0.00     0.029 A 
ATOM     53  N   UNL A   1      44.996  29.404  30.358  1.00  0.00    -0.354 N 
ATOM     54  N   UNL A   1      44.480  26.707  29.311  1.00  0.00    -0.248 NA
ATOM     55  C   UNL A   1      45.232  24.564  28.765  1.00  0.00     0.031 C 
ATOM     56  C   UNL A   1      47.036  29.871  31.100  1.00  0.00     0.029 A 
ATOM     57  C   UNL A   1      46.259  28.867  30.547  1.00  0.00     0.049 A 
ATOM     58  H   UNL A   1      44.231  28.922  29.970  1.00  0.00     0.167 HD
ATOM     59  C   UNL A   1      45.820  26.590  29.664  1.00  0.00     0.074 A 
ATOM     60  C   UNL A   1      46.223  25.240  29.331  1.00  0.00     0.031 C 
ATOM     61  C   UNL A   1      46.642  27.517  30.216  1.00  0.00     0.037 A 
BRANCH  48  62
ATOM     62  C   UNL A   1      43.968  33.004  31.207  1.00  0.00     0.058 A 
ATOM     63  C   UNL A   1      44.382  34.023  30.334  1.00  0.00     0.135 A 
ATOM     64  C   UNL A   1      43.660  33.361  32.530  1.00  0.00     0.135 A 
ATOM     65  F   UNL A   1      44.704  33.734  29.063  1.00  0.00    -0.206 F 
ATOM     66  C   UNL A   1      44.513  35.339  30.763  1.00  0.00     0.059 A 
ATOM     67  C   UNL A   1      43.758  34.677  32.974  1.00  0.00     0.059 A 
ATOM     68  F   UNL A   1      43.259  32.426  33.407  1.00  0.00    -0.206 F 
ATOM     69  C   UNL A   1      44.199  35.657  32.085  1.00  0.00     0.060 A 
BRANCH  69  70
ATOM     70  S   UNL A   1      44.368  37.372  32.625  1.00  0.00     0.124 S 
ATOM     71  O   UNL A   1      43.828  38.091  31.475  1.00  0.00    -0.237 OA
ATOM     72  O   UNL A   1      43.550  37.402  33.833  1.00  0.00    -0.237 OA
ATOM     73  O   UNL A   1      45.804  37.520  32.840  1.00  0.00    -0.744 OA
ENDBRANCH  69  70
ENDBRANCH  48  62
BRANCH  49  74
ATOM     74  C   UNL A   1      42.615  23.724  27.747  1.00  0.00     0.058 A 
ATOM     75  C   UNL A   1      42.611  23.495  26.363  1.00  0.00     0.135 A 
ATOM     76  C   UNL A   1      42.452  22.616  28.594  1.00  0.00     0.135 A 
ATOM     77  F   UNL A   1      42.759  24.523  25.513  1.00  0.00    -0.206 F 
ATOM     78  C   UNL A   1      42.432  22.220  25.835  1.00  0.00     0.059 A 
ATOM     79  C   UNL A   1      42.295  21.329  28.090  1.00  0.00     0.059 A 
ATOM     80  F   UNL A   1      42.467  22.780  29.925  1.00  0.00    -0.206 F 
ATOM     81  C   UNL A   1      42.275  21.143  26.709  1.00  0.00     0.060 A 
BRANCH  81  82
ATOM     82  S   UNL A   1      42.085  19.485  26.017  1.00  0.00     0.124 S 
ATOM     83  O   UNL A   1      42.581  18.654  27.107  1.00  0.00    -0.237 OA
ATOM     84  O   UNL A   1      40.648  19.419  25.765  1.00  0.00    -0.237 OA
ATOM     85  O   UNL A   1      42.921  19.525  24.820  1.00  0.00    -0.744 OA
ENDBRANCH  81  82
ENDBRANCH  49  74
BRANCH  61  86
ATOM     86  C   UNL A   1      48.049  27.091  30.529  1.00  0.00     0.058 A 
ATOM     87  C   UNL A   1      49.096  27.275  29.614  1.00  0.00     0.135 A 
ATOM     88  C   UNL A   1      48.359  26.528  31.777  1.00  0.00     0.135 A 
ATOM     89  F   UNL A   1      48.851  27.804  28.405  1.00  0.00    -0.206 F 
ATOM     90  C   UNL A   1      50.399  26.890  29.914  1.00  0.00     0.059 A 
ATOM     91  C   UNL A   1      49.659  26.159  32.109  1.00  0.00     0.059 A 
ATOM     92  F   UNL A   1      47.395  26.341  32.693  1.00  0.00    -0.206 F 
ATOM     93  C   UNL A   1      50.670  26.331  31.165  1.00  0.00     0.060 A 
BRANCH  93  94
ATOM     94  S   UNL A   1      52.368  25.858  31.554  1.00  0.00     0.124 S 
ATOM     95  O   UNL A   1      52.714  26.830  32.586  1.00  0.00    -0.237 OA
ATOM     96  O   UNL A   1      52.214  24.479  32.008  1.00  0.00    -0.237 OA
ATOM     97  O   UNL A   1      53.064  26.017  30.281  1.00  0.00    -0.744 OA
ENDBRANCH  93  94
ENDBRANCH  61  86
ENDBRANCH  35  36
ENDBRANCH  27  30
ENDBRANCH  25  26
ENDBRANCH  24  25
ENDBRANCH   1  24
TORSDOF 17
ENDMDL
