MODEL 1
REMARK VINA RESULT:     -11.5      0.000      0.000
REMARK SMILES O=C(NCCCCCCNC(=O)[C@@H]1CS[C@H](c2ncc(-c3ccccc3)s2)[NH2+]1)c1ccc(-c2c3nc(c(-c4c(F)cc(S(=O)(=O)[O-])cc4F)c4ccc([nH]4)c(-c4c(F)cc(S(=O)(=O)[O-])cc4F)c4nc(c(-c5c(F)cc(S(=O)(=O)[O-])cc5F)c5ccc2[nH]5)C=C4)C=C3)cc1
REMARK SMILES IDX 6 1 5 2 4 3 3 4 1 5 2 6 29 8 30 9 94 10 31 11 93 12 32 13
REMARK SMILES IDX 33 14 34 15 87 16 35 17 92 18 86 19 88 20 36 21 91 22 85 23
REMARK SMILES IDX 84 24 37 26 71 27 50 28 70 29 51 30 54 31 69 32 89 33 52 34
REMARK SMILES IDX 53 35 68 37 90 38 55 39 38 40 39 41 48 42 40 43 41 44 47 45
REMARK SMILES IDX 49 46 42 47 43 48 44 49 45 50 46 51 72 52 73 53 82 54 74 55
REMARK SMILES IDX 75 56 81 57 83 58 76 59 77 60 78 61 79 62 80 63 56 64 57 65
REMARK SMILES IDX 66 66 58 67 59 68 65 69 67 70 60 71 61 72 62 73 63 74 64 75
REMARK SMILES IDX 7 76 8 77 9 78 10 79 11 80 12 82 13 83 14 84 28 85 15 86
REMARK SMILES IDX 16 87 17 90 18 91 27 92 19 93 20 94 21 95 22 96 26 97 23 98
REMARK SMILES IDX 25 99 24 100
REMARK H PARENT 3 7 88 25 54 36 10 81 28 88 28 89
REMARK Flexibility Score: inf
ROOT
ATOM      1  C   UNL A   1      39.333  21.136  25.985  1.00  0.00     0.002 C 
ENDROOT
BRANCH   1   2
ATOM      2  C   UNL A   1      40.428  21.766  26.847  1.00  0.00     0.021 C 
BRANCH   2   3
ATOM      3  C   UNL A   1      40.313  23.268  27.081  1.00  0.00     0.116 C 
BRANCH   3   4
ATOM      4  N   UNL A   1      40.902  24.069  26.021  1.00  0.00    -0.352 N 
ATOM      5  O   UNL A   1      41.683  25.930  25.015  1.00  0.00    -0.269 OA
ATOM      6  C   UNL A   1      41.282  25.391  26.042  1.00  0.00     0.251 C 
ATOM      7  H   UNL A   1      41.050  23.600  25.169  1.00  0.00     0.163 HD
BRANCH   6   8
ATOM      8  C   UNL A   1      41.170  26.172  27.296  1.00  0.00     0.039 A 
ATOM      9  C   UNL A   1      40.150  25.917  28.216  1.00  0.00     0.014 A 
ATOM     10  C   UNL A   1      42.095  27.191  27.544  1.00  0.00     0.014 A 
ATOM     11  C   UNL A   1      39.965  26.774  29.298  1.00  0.00     0.010 A 
ATOM     12  C   UNL A   1      41.952  28.003  28.674  1.00  0.00     0.010 A 
ATOM     13  C   UNL A   1      40.859  27.829  29.537  1.00  0.00    -0.014 A 
BRANCH  13  14
ATOM     14  C   UNL A   1      40.640  28.725  30.703  1.00  0.00     0.031 A 
ATOM     15  C   UNL A   1      41.524  28.645  31.920  1.00  0.00     0.074 A 
ATOM     16  C   UNL A   1      39.657  29.643  30.646  1.00  0.00     0.049 A 
ATOM     17  N   UNL A   1      41.502  29.380  33.004  1.00  0.00    -0.248 NA
ATOM     18  C   UNL A   1      42.561  27.602  31.928  1.00  0.00     0.031 C 
ATOM     19  C   UNL A   1      38.725  29.810  29.528  1.00  0.00     0.029 A 
ATOM     20  N   UNL A   1      39.289  30.623  31.532  1.00  0.00    -0.354 N 
ATOM     21  C   UNL A   1      42.498  28.873  33.832  1.00  0.00     0.074 A 
ATOM     22  C   UNL A   1      43.095  27.756  33.132  1.00  0.00     0.031 C 
ATOM     23  C   UNL A   1      37.928  30.861  29.772  1.00  0.00     0.029 A 
ATOM     24  C   UNL A   1      38.258  31.413  31.082  1.00  0.00     0.049 A 
ATOM     25  H   UNL A   1      39.722  30.749  32.408  1.00  0.00     0.167 HD
ATOM     26  C   UNL A   1      42.883  29.304  35.058  1.00  0.00     0.037 A 
ATOM     27  C   UNL A   1      37.644  32.465  31.656  1.00  0.00     0.037 A 
ATOM     28  C   UNL A   1      42.305  30.435  35.740  1.00  0.00     0.049 A 
ATOM     29  C   UNL A   1      38.100  32.931  33.008  1.00  0.00     0.074 A 
ATOM     30  C   UNL A   1      42.657  30.975  36.966  1.00  0.00     0.029 A 
ATOM     31  N   UNL A   1      41.255  31.201  35.255  1.00  0.00    -0.354 N 
ATOM     32  N   UNL A   1      39.066  32.460  33.759  1.00  0.00    -0.248 NA
ATOM     33  C   UNL A   1      37.384  34.075  33.589  1.00  0.00     0.031 C 
ATOM     34  C   UNL A   1      41.798  32.047  37.236  1.00  0.00     0.029 A 
ATOM     35  C   UNL A   1      40.937  32.199  36.162  1.00  0.00     0.049 A 
ATOM     36  H   UNL A   1      40.802  31.056  34.393  1.00  0.00     0.167 HD
ATOM     37  C   UNL A   1      39.089  33.262  34.894  1.00  0.00     0.074 A 
ATOM     38  C   UNL A   1      38.047  34.256  34.724  1.00  0.00     0.031 C 
ATOM     39  C   UNL A   1      39.902  33.185  35.976  1.00  0.00     0.037 A 
BRANCH  26  40
ATOM     40  C   UNL A   1      43.972  28.535  35.756  1.00  0.00     0.058 A 
ATOM     41  C   UNL A   1      45.329  28.844  35.576  1.00  0.00     0.135 A 
ATOM     42  C   UNL A   1      43.650  27.488  36.637  1.00  0.00     0.135 A 
ATOM     43  F   UNL A   1      45.693  29.825  34.736  1.00  0.00    -0.206 F 
ATOM     44  C   UNL A   1      46.330  28.121  36.220  1.00  0.00     0.059 A 
ATOM     45  C   UNL A   1      44.634  26.768  37.308  1.00  0.00     0.059 A 
ATOM     46  F   UNL A   1      42.367  27.154  36.848  1.00  0.00    -0.206 F 
ATOM     47  C   UNL A   1      45.973  27.080  37.078  1.00  0.00     0.060 A 
BRANCH  47  48
ATOM     48  S   UNL A   1      47.281  26.140  37.894  1.00  0.00     0.124 S 
ATOM     49  O   UNL A   1      48.474  26.722  37.289  1.00  0.00    -0.237 OA
ATOM     50  O   UNL A   1      47.067  26.458  39.303  1.00  0.00    -0.237 OA
ATOM     51  O   UNL A   1      46.992  24.760  37.516  1.00  0.00    -0.744 OA
ENDBRANCH  47  48
ENDBRANCH  26  40
BRANCH  27  52
ATOM     52  C   UNL A   1      36.551  33.162  30.931  1.00  0.00     0.058 A 
ATOM     53  C   UNL A   1      35.214  32.998  31.318  1.00  0.00     0.135 A 
ATOM     54  C   UNL A   1      36.826  34.035  29.867  1.00  0.00     0.135 A 
ATOM     55  F   UNL A   1      34.905  32.170  32.328  1.00  0.00    -0.206 F 
ATOM     56  C   UNL A   1      34.183  33.669  30.672  1.00  0.00     0.059 A 
ATOM     57  C   UNL A   1      35.814  34.737  29.221  1.00  0.00     0.059 A 
ATOM     58  F   UNL A   1      38.092  34.239  29.474  1.00  0.00    -0.206 F 
ATOM     59  C   UNL A   1      34.493  34.541  29.626  1.00  0.00     0.060 A 
BRANCH  59  60
ATOM     60  S   UNL A   1      33.156  35.464  28.838  1.00  0.00     0.124 S 
ATOM     61  O   UNL A   1      32.483  34.414  28.083  1.00  0.00    -0.237 OA
ATOM     62  O   UNL A   1      32.427  35.993  29.986  1.00  0.00    -0.237 OA
ATOM     63  O   UNL A   1      33.864  36.462  28.042  1.00  0.00    -0.744 OA
ENDBRANCH  59  60
ENDBRANCH  27  52
BRANCH  39  64
ATOM     64  C   UNL A   1      39.719  34.225  37.044  1.00  0.00     0.058 A 
ATOM     65  C   UNL A   1      38.975  33.969  38.205  1.00  0.00     0.135 A 
ATOM     66  C   UNL A   1      40.316  35.489  36.909  1.00  0.00     0.135 A 
ATOM     67  F   UNL A   1      38.378  32.779  38.376  1.00  0.00    -0.206 F 
ATOM     68  C   UNL A   1      38.806  34.940  39.187  1.00  0.00     0.059 A 
ATOM     69  C   UNL A   1      40.178  36.468  37.889  1.00  0.00     0.059 A 
ATOM     70  F   UNL A   1      41.044  35.782  35.821  1.00  0.00    -0.206 F 
ATOM     71  C   UNL A   1      39.407  36.188  39.017  1.00  0.00     0.060 A 
BRANCH  71  72
ATOM     72  S   UNL A   1      39.195  37.440  40.302  1.00  0.00     0.124 S 
ATOM     73  O   UNL A   1      38.620  36.650  41.386  1.00  0.00    -0.237 OA
ATOM     74  O   UNL A   1      40.560  37.909  40.515  1.00  0.00    -0.237 OA
ATOM     75  O   UNL A   1      38.296  38.410  39.684  1.00  0.00    -0.744 OA
ENDBRANCH  71  72
ENDBRANCH  39  64
ENDBRANCH  13  14
ENDBRANCH   6   8
ENDBRANCH   3   4
ENDBRANCH   2   3
ENDBRANCH   1   2
BRANCH   1  76
ATOM     76  C   UNL A   1      38.137  22.031  25.655  1.00  0.00     0.002 C 
BRANCH  76  77
ATOM     77  C   UNL A   1      37.039  21.408  24.788  1.00  0.00     0.021 C 
BRANCH  77  78
ATOM     78  C   UNL A   1      35.628  21.952  24.999  1.00  0.00     0.116 C 
BRANCH  78  79
ATOM     79  N   UNL A   1      35.515  23.352  24.638  1.00  0.00    -0.351 N 
ATOM     80  C   UNL A   1      34.397  24.065  24.301  1.00  0.00     0.279 C 
ATOM     81  H   UNL A   1      36.358  23.859  24.636  1.00  0.00     0.163 HD
ATOM     82  O   UNL A   1      34.540  25.273  24.096  1.00  0.00    -0.268 OA
BRANCH  80  83
ATOM     83  C   UNL A   1      33.046  23.343  24.099  1.00  0.00     0.284 C 
ATOM     84  C   UNL A   1      32.341  23.808  22.816  1.00  0.00     0.151 C 
ATOM     85  N   UNL A   1      32.153  23.477  25.295  1.00  0.00    -0.319 N 
ATOM     86  S   UNL A   1      30.629  24.117  23.292  1.00  0.00    -0.085 SA
ATOM     87  C   UNL A   1      31.093  24.460  25.012  1.00  0.00     0.303 C 
ATOM     88  H   UNL A   1      32.703  23.791  26.095  1.00  0.00     0.348 HD
ATOM     89  H   UNL A   1      31.731  22.572  25.505  1.00  0.00     0.348 HD
BRANCH  87  90
ATOM     90  C   UNL A   1      31.442  25.921  25.248  1.00  0.00     0.162 A 
ATOM     91  N   UNL A   1      30.995  26.925  24.509  1.00  0.00    -0.242 NA
ATOM     92  S   UNL A   1      32.401  26.416  26.598  1.00  0.00    -0.112 S 
ATOM     93  C   UNL A   1      31.545  28.117  24.944  1.00  0.00     0.132 A 
ATOM     94  C   UNL A   1      32.406  28.020  26.015  1.00  0.00     0.055 A 
BRANCH  94  95
ATOM     95  C   UNL A   1      33.244  29.028  26.645  1.00  0.00    -0.007 A 
ATOM     96  C   UNL A   1      32.727  30.309  26.890  1.00  0.00     0.009 A 
ATOM     97  C   UNL A   1      34.558  28.736  27.022  1.00  0.00     0.009 A 
ATOM     98  C   UNL A   1      33.514  31.285  27.500  1.00  0.00     0.001 A 
ATOM     99  C   UNL A   1      35.347  29.716  27.629  1.00  0.00     0.001 A 
ATOM    100  C   UNL A   1      34.824  30.988  27.870  1.00  0.00     0.000 A 
ENDBRANCH  94  95
ENDBRANCH  87  90
ENDBRANCH  80  83
ENDBRANCH  78  79
ENDBRANCH  77  78
ENDBRANCH  76  77
ENDBRANCH   1  76
TORSDOF 18
ENDMDL
MODEL 2
REMARK VINA RESULT:     -11.4      6.387     12.236
REMARK SMILES O=C(NCCCCCCNC(=O)[C@@H]1CS[C@H](c2ncc(-c3ccccc3)s2)[NH2+]1)c1ccc(-c2c3nc(c(-c4c(F)cc(S(=O)(=O)[O-])cc4F)c4ccc([nH]4)c(-c4c(F)cc(S(=O)(=O)[O-])cc4F)c4nc(c(-c5c(F)cc(S(=O)(=O)[O-])cc5F)c5ccc2[nH]5)C=C4)C=C3)cc1
REMARK SMILES IDX 6 1 5 2 4 3 3 4 1 5 2 6 29 8 30 9 94 10 31 11 93 12 32 13
REMARK SMILES IDX 33 14 34 15 87 16 35 17 92 18 86 19 88 20 36 21 91 22 85 23
REMARK SMILES IDX 84 24 37 26 71 27 50 28 70 29 51 30 54 31 69 32 89 33 52 34
REMARK SMILES IDX 53 35 68 37 90 38 55 39 38 40 39 41 48 42 40 43 41 44 47 45
REMARK SMILES IDX 49 46 42 47 43 48 44 49 45 50 46 51 72 52 73 53 82 54 74 55
REMARK SMILES IDX 75 56 81 57 83 58 76 59 77 60 78 61 79 62 80 63 56 64 57 65
REMARK SMILES IDX 66 66 58 67 59 68 65 69 67 70 60 71 61 72 62 73 63 74 64 75
REMARK SMILES IDX 7 76 8 77 9 78 10 79 11 80 12 82 13 83 14 84 28 85 15 86
REMARK SMILES IDX 16 87 17 90 18 91 27 92 19 93 20 94 21 95 22 96 26 97 23 98
REMARK SMILES IDX 25 99 24 100
REMARK H PARENT 3 7 88 25 54 36 10 81 28 88 28 89
REMARK Flexibility Score: inf
ROOT
ATOM      1  C   UNL A   1      36.514  33.148  28.351  1.00  0.00     0.002 C 
ENDROOT
BRANCH   1   2
ATOM      2  C   UNL A   1      36.951  34.003  29.542  1.00  0.00     0.021 C 
BRANCH   2   3
ATOM      3  C   UNL A   1      37.529  33.245  30.732  1.00  0.00     0.116 C 
BRANCH   3   4
ATOM      4  N   UNL A   1      36.667  32.181  31.218  1.00  0.00    -0.352 N 
ATOM      5  O   UNL A   1      35.974  30.061  31.556  1.00  0.00    -0.269 OA
ATOM      6  C   UNL A   1      36.860  30.820  31.173  1.00  0.00     0.251 C 
ATOM      7  H   UNL A   1      35.828  32.476  31.640  1.00  0.00     0.163 HD
BRANCH   6   8
ATOM      8  C   UNL A   1      38.122  30.269  30.625  1.00  0.00     0.039 A 
ATOM      9  C   UNL A   1      39.142  29.827  31.471  1.00  0.00     0.014 A 
ATOM     10  C   UNL A   1      38.291  30.213  29.238  1.00  0.00     0.014 A 
ATOM     11  C   UNL A   1      40.379  29.476  30.937  1.00  0.00     0.010 A 
ATOM     12  C   UNL A   1      39.510  29.786  28.701  1.00  0.00     0.010 A 
ATOM     13  C   UNL A   1      40.580  29.456  29.547  1.00  0.00    -0.014 A 
BRANCH  13  14
ATOM     14  C   UNL A   1      41.909  29.072  29.004  1.00  0.00     0.031 A 
ATOM     15  C   UNL A   1      43.061  30.042  29.012  1.00  0.00     0.074 A 
ATOM     16  C   UNL A   1      42.086  27.821  28.534  1.00  0.00     0.049 A 
ATOM     17  N   UNL A   1      44.297  29.856  28.621  1.00  0.00    -0.248 NA
ATOM     18  C   UNL A   1      42.791  31.398  29.513  1.00  0.00     0.031 C 
ATOM     19  C   UNL A   1      41.044  26.795  28.461  1.00  0.00     0.029 A 
ATOM     20  N   UNL A   1      43.205  27.193  28.052  1.00  0.00    -0.354 N 
ATOM     21  C   UNL A   1      44.944  31.074  28.802  1.00  0.00     0.074 A 
ATOM     22  C   UNL A   1      43.959  31.998  29.322  1.00  0.00     0.031 C 
ATOM     23  C   UNL A   1      41.583  25.651  28.013  1.00  0.00     0.029 A 
ATOM     24  C   UNL A   1      42.996  25.874  27.721  1.00  0.00     0.049 A 
ATOM     25  H   UNL A   1      44.076  27.642  27.952  1.00  0.00     0.167 HD
ATOM     26  C   UNL A   1      46.240  31.390  28.563  1.00  0.00     0.037 A 
ATOM     27  C   UNL A   1      43.843  24.947  27.237  1.00  0.00     0.037 A 
ATOM     28  C   UNL A   1      47.226  30.459  28.072  1.00  0.00     0.049 A 
ATOM     29  C   UNL A   1      45.277  25.319  26.996  1.00  0.00     0.074 A 
ATOM     30  C   UNL A   1      48.574  30.674  27.839  1.00  0.00     0.029 A 
ATOM     31  N   UNL A   1      46.970  29.137  27.737  1.00  0.00    -0.354 N 
ATOM     32  N   UNL A   1      45.877  26.466  27.205  1.00  0.00    -0.248 NA
ATOM     33  C   UNL A   1      46.151  24.269  26.455  1.00  0.00     0.031 C 
ATOM     34  C   UNL A   1      49.127  29.491  27.334  1.00  0.00     0.029 A 
ATOM     35  C   UNL A   1      48.131  28.528  27.288  1.00  0.00     0.049 A 
ATOM     36  H   UNL A   1      46.093  28.696  27.809  1.00  0.00     0.167 HD
ATOM     37  C   UNL A   1      47.204  26.271  26.842  1.00  0.00     0.074 A 
ATOM     38  C   UNL A   1      47.321  24.892  26.409  1.00  0.00     0.031 C 
ATOM     39  C   UNL A   1      48.233  27.153  26.867  1.00  0.00     0.037 A 
BRANCH  26  40
ATOM     40  C   UNL A   1      46.667  32.811  28.810  1.00  0.00     0.058 A 
ATOM     41  C   UNL A   1      46.603  33.790  27.807  1.00  0.00     0.135 A 
ATOM     42  C   UNL A   1      47.125  33.204  30.080  1.00  0.00     0.135 A 
ATOM     43  F   UNL A   1      46.186  33.466  26.573  1.00  0.00    -0.206 F 
ATOM     44  C   UNL A   1      47.008  35.101  28.043  1.00  0.00     0.059 A 
ATOM     45  C   UNL A   1      47.513  34.515  30.344  1.00  0.00     0.059 A 
ATOM     46  F   UNL A   1      47.203  32.309  31.076  1.00  0.00    -0.206 F 
ATOM     47  C   UNL A   1      47.468  35.452  29.313  1.00  0.00     0.060 A 
BRANCH  47  48
ATOM     48  S   UNL A   1      48.006  37.151  29.602  1.00  0.00     0.124 S 
ATOM     49  O   UNL A   1      48.578  37.498  28.305  1.00  0.00    -0.237 OA
ATOM     50  O   UNL A   1      46.756  37.825  29.943  1.00  0.00    -0.237 OA
ATOM     51  O   UNL A   1      48.962  37.022  30.698  1.00  0.00    -0.744 OA
ENDBRANCH  47  48
ENDBRANCH  26  40
BRANCH  27  52
ATOM     52  C   UNL A   1      43.353  23.569  26.979  1.00  0.00     0.058 A 
ATOM     53  C   UNL A   1      43.214  23.090  25.670  1.00  0.00     0.135 A 
ATOM     54  C   UNL A   1      43.055  22.694  28.036  1.00  0.00     0.135 A 
ATOM     55  F   UNL A   1      43.484  23.892  24.629  1.00  0.00    -0.206 F 
ATOM     56  C   UNL A   1      42.789  21.791  25.413  1.00  0.00     0.059 A 
ATOM     57  C   UNL A   1      42.652  21.383  27.804  1.00  0.00     0.059 A 
ATOM     58  F   UNL A   1      43.192  23.102  29.306  1.00  0.00    -0.206 F 
ATOM     59  C   UNL A   1      42.514  20.943  26.488  1.00  0.00     0.060 A 
BRANCH  59  60
ATOM     60  S   UNL A   1      42.031  19.237  26.148  1.00  0.00     0.124 S 
ATOM     61  O   UNL A   1      42.830  18.938  24.966  1.00  0.00    -0.237 OA
ATOM     62  O   UNL A   1      42.426  18.553  27.375  1.00  0.00    -0.237 OA
ATOM     63  O   UNL A   1      40.591  19.335  25.931  1.00  0.00    -0.744 OA
ENDBRANCH  59  60
ENDBRANCH  27  52
BRANCH  39  64
ATOM     64  C   UNL A   1      49.582  26.642  26.449  1.00  0.00     0.058 A 
ATOM     65  C   UNL A   1      50.049  26.779  25.134  1.00  0.00     0.135 A 
ATOM     66  C   UNL A   1      50.427  26.025  27.387  1.00  0.00     0.135 A 
ATOM     67  F   UNL A   1      49.275  27.355  24.199  1.00  0.00    -0.206 F 
ATOM     68  C   UNL A   1      51.298  26.298  24.753  1.00  0.00     0.059 A 
ATOM     69  C   UNL A   1      51.688  25.556  27.033  1.00  0.00     0.059 A 
ATOM     70  F   UNL A   1      50.031  25.877  28.660  1.00  0.00    -0.206 F 
ATOM     71  C   UNL A   1      52.108  25.683  25.709  1.00  0.00     0.060 A 
BRANCH  71  72
ATOM     72  S   UNL A   1      53.733  25.074  25.211  1.00  0.00     0.124 S 
ATOM     73  O   UNL A   1      53.522  23.630  25.230  1.00  0.00    -0.237 OA
ATOM     74  O   UNL A   1      53.905  25.672  23.892  1.00  0.00    -0.237 OA
ATOM     75  O   UNL A   1      54.621  25.593  26.248  1.00  0.00    -0.744 OA
ENDBRANCH  71  72
ENDBRANCH  39  64
ENDBRANCH  13  14
ENDBRANCH   6   8
ENDBRANCH   3   4
ENDBRANCH   2   3
ENDBRANCH   1   2
BRANCH   1  76
ATOM     76  C   UNL A   1      35.007  32.951  28.181  1.00  0.00     0.002 C 
BRANCH  76  77
ATOM     77  C   UNL A   1      34.515  31.503  28.090  1.00  0.00     0.021 C 
BRANCH  77  78
ATOM     78  C   UNL A   1      33.222  31.282  27.309  1.00  0.00     0.116 C 
BRANCH  78  79
ATOM     79  N   UNL A   1      32.747  29.914  27.401  1.00  0.00    -0.351 N 
ATOM     80  C   UNL A   1      32.266  29.103  26.410  1.00  0.00     0.279 C 
ATOM     81  H   UNL A   1      32.777  29.514  28.299  1.00  0.00     0.163 HD
ATOM     82  O   UNL A   1      31.982  27.943  26.719  1.00  0.00    -0.268 OA
BRANCH  80  83
ATOM     83  C   UNL A   1      32.008  29.673  24.997  1.00  0.00     0.284 C 
ATOM     84  C   UNL A   1      30.701  29.132  24.397  1.00  0.00     0.151 C 
ATOM     85  N   UNL A   1      33.169  29.442  24.078  1.00  0.00    -0.319 N 
ATOM     86  S   UNL A   1      31.111  28.637  22.713  1.00  0.00    -0.085 SA
ATOM     87  C   UNL A   1      32.850  28.348  23.143  1.00  0.00     0.303 C 
ATOM     88  H   UNL A   1      33.991  29.191  24.626  1.00  0.00     0.348 HD
ATOM     89  H   UNL A   1      33.358  30.295  23.551  1.00  0.00     0.348 HD
BRANCH  87  90
ATOM     90  C   UNL A   1      33.106  26.934  23.642  1.00  0.00     0.162 A 
ATOM     91  N   UNL A   1      34.071  26.604  24.485  1.00  0.00    -0.242 NA
ATOM     92  S   UNL A   1      32.069  25.621  23.212  1.00  0.00    -0.112 S 
ATOM     93  C   UNL A   1      34.076  25.236  24.690  1.00  0.00     0.132 A 
ATOM     94  C   UNL A   1      33.113  24.528  24.006  1.00  0.00     0.055 A 
BRANCH  94  95
ATOM     95  C   UNL A   1      32.903  23.094  23.886  1.00  0.00    -0.007 A 
ATOM     96  C   UNL A   1      33.294  22.245  24.932  1.00  0.00     0.009 A 
ATOM     97  C   UNL A   1      32.307  22.547  22.746  1.00  0.00     0.009 A 
ATOM     98  C   UNL A   1      33.093  20.868  24.838  1.00  0.00     0.001 A 
ATOM     99  C   UNL A   1      32.110  21.167  22.651  1.00  0.00     0.001 A 
ATOM    100  C   UNL A   1      32.502  20.330  23.697  1.00  0.00     0.000 A 
ENDBRANCH  94  95
ENDBRANCH  87  90
ENDBRANCH  80  83
ENDBRANCH  78  79
ENDBRANCH  77  78
ENDBRANCH  76  77
ENDBRANCH   1  76
TORSDOF 18
ENDMDL
MODEL 3
REMARK VINA RESULT:     -11.1      6.592     12.973
REMARK SMILES O=C(NCCCCCCNC(=O)[C@@H]1CS[C@H](c2ncc(-c3ccccc3)s2)[NH2+]1)c1ccc(-c2c3nc(c(-c4c(F)cc(S(=O)(=O)[O-])cc4F)c4ccc([nH]4)c(-c4c(F)cc(S(=O)(=O)[O-])cc4F)c4nc(c(-c5c(F)cc(S(=O)(=O)[O-])cc5F)c5ccc2[nH]5)C=C4)C=C3)cc1
REMARK SMILES IDX 6 1 5 2 4 3 3 4 1 5 2 6 29 8 30 9 94 10 31 11 93 12 32 13
REMARK SMILES IDX 33 14 34 15 87 16 35 17 92 18 86 19 88 20 36 21 91 22 85 23
REMARK SMILES IDX 84 24 37 26 71 27 50 28 70 29 51 30 54 31 69 32 89 33 52 34
REMARK SMILES IDX 53 35 68 37 90 38 55 39 38 40 39 41 48 42 40 43 41 44 47 45
REMARK SMILES IDX 49 46 42 47 43 48 44 49 45 50 46 51 72 52 73 53 82 54 74 55
REMARK SMILES IDX 75 56 81 57 83 58 76 59 77 60 78 61 79 62 80 63 56 64 57 65
REMARK SMILES IDX 66 66 58 67 59 68 65 69 67 70 60 71 61 72 62 73 63 74 64 75
REMARK SMILES IDX 7 76 8 77 9 78 10 79 11 80 12 82 13 83 14 84 28 85 15 86
REMARK SMILES IDX 16 87 17 90 18 91 27 92 19 93 20 94 21 95 22 96 26 97 23 98
REMARK SMILES IDX 25 99 24 100
REMARK H PARENT 3 7 88 25 54 36 10 81 28 88 28 89
REMARK Flexibility Score: inf
ROOT
ATOM      1  C   UNL A   1      33.310  30.126  26.398  1.00  0.00     0.002 C 
ENDROOT
BRANCH   1   2
ATOM      2  C   UNL A   1      34.115  29.148  27.255  1.00  0.00     0.021 C 
BRANCH   2   3
ATOM      3  C   UNL A   1      35.405  29.693  27.857  1.00  0.00     0.116 C 
BRANCH   3   4
ATOM      4  N   UNL A   1      35.328  29.925  29.289  1.00  0.00    -0.352 N 
ATOM      5  O   UNL A   1      36.071  30.058  31.415  1.00  0.00    -0.269 OA
ATOM      6  C   UNL A   1      36.338  29.932  30.223  1.00  0.00     0.251 C 
ATOM      7  H   UNL A   1      34.425  30.102  29.641  1.00  0.00     0.163 HD
BRANCH   6   8
ATOM      8  C   UNL A   1      37.744  29.747  29.793  1.00  0.00     0.039 A 
ATOM      9  C   UNL A   1      38.132  29.998  28.474  1.00  0.00     0.014 A 
ATOM     10  C   UNL A   1      38.684  29.299  30.725  1.00  0.00     0.014 A 
ATOM     11  C   UNL A   1      39.415  29.654  28.055  1.00  0.00     0.010 A 
ATOM     12  C   UNL A   1      39.994  29.027  30.317  1.00  0.00     0.010 A 
ATOM     13  C   UNL A   1      40.359  29.160  28.969  1.00  0.00    -0.014 A 
BRANCH  13  14
ATOM     14  C   UNL A   1      41.723  28.807  28.495  1.00  0.00     0.031 A 
ATOM     15  C   UNL A   1      42.834  29.824  28.500  1.00  0.00     0.074 A 
ATOM     16  C   UNL A   1      41.968  27.545  28.091  1.00  0.00     0.049 A 
ATOM     17  N   UNL A   1      44.091  29.672  28.165  1.00  0.00    -0.248 NA
ATOM     18  C   UNL A   1      42.492  31.189  28.928  1.00  0.00     0.031 C 
ATOM     19  C   UNL A   1      40.971  26.474  28.027  1.00  0.00     0.029 A 
ATOM     20  N   UNL A   1      43.129  26.943  27.681  1.00  0.00    -0.354 N 
ATOM     21  C   UNL A   1      44.682  30.922  28.313  1.00  0.00     0.074 A 
ATOM     22  C   UNL A   1      43.641  31.827  28.752  1.00  0.00     0.031 C 
ATOM     23  C   UNL A   1      41.573  25.335  27.653  1.00  0.00     0.029 A 
ATOM     24  C   UNL A   1      42.986  25.603  27.404  1.00  0.00     0.049 A 
ATOM     25  H   UNL A   1      43.985  27.423  27.592  1.00  0.00     0.167 HD
ATOM     26  C   UNL A   1      45.973  31.281  28.108  1.00  0.00     0.037 A 
ATOM     27  C   UNL A   1      43.888  24.691  26.996  1.00  0.00     0.037 A 
ATOM     28  C   UNL A   1      47.013  30.371  27.698  1.00  0.00     0.049 A 
ATOM     29  C   UNL A   1      45.314  25.111  26.791  1.00  0.00     0.074 A 
ATOM     30  C   UNL A   1      48.360  30.631  27.506  1.00  0.00     0.029 A 
ATOM     31  N   UNL A   1      46.824  29.026  27.416  1.00  0.00    -0.354 N 
ATOM     32  N   UNL A   1      45.859  26.290  26.969  1.00  0.00    -0.248 NA
ATOM     33  C   UNL A   1      46.249  24.075  26.333  1.00  0.00     0.031 C 
ATOM     34  C   UNL A   1      48.978  29.450  27.078  1.00  0.00     0.029 A 
ATOM     35  C   UNL A   1      48.024  28.446  27.040  1.00  0.00     0.049 A 
ATOM     36  H   UNL A   1      45.963  28.552  27.476  1.00  0.00     0.167 HD
ATOM     37  C   UNL A   1      47.206  26.134  26.665  1.00  0.00     0.074 A 
ATOM     38  C   UNL A   1      47.394  24.743  26.302  1.00  0.00     0.031 C 
ATOM     39  C   UNL A   1      48.198  27.059  26.688  1.00  0.00     0.037 A 
BRANCH  26  40
ATOM     40  C   UNL A   1      46.333  32.729  28.305  1.00  0.00     0.058 A 
ATOM     41  C   UNL A   1      46.702  33.236  29.560  1.00  0.00     0.135 A 
ATOM     42  C   UNL A   1      46.332  33.615  27.215  1.00  0.00     0.135 A 
ATOM     43  F   UNL A   1      46.707  32.436  30.638  1.00  0.00    -0.206 F 
ATOM     44  C   UNL A   1      47.025  34.579  29.735  1.00  0.00     0.059 A 
ATOM     45  C   UNL A   1      46.675  34.957  27.362  1.00  0.00     0.059 A 
ATOM     46  F   UNL A   1      45.991  33.181  25.992  1.00  0.00    -0.206 F 
ATOM     47  C   UNL A   1      47.002  35.433  28.630  1.00  0.00     0.060 A 
BRANCH  47  48
ATOM     48  S   UNL A   1      47.408  37.176  28.873  1.00  0.00     0.124 S 
ATOM     49  O   UNL A   1      47.724  37.203  30.297  1.00  0.00    -0.237 OA
ATOM     50  O   UNL A   1      48.540  37.365  27.970  1.00  0.00    -0.237 OA
ATOM     51  O   UNL A   1      46.181  37.866  28.486  1.00  0.00    -0.744 OA
ENDBRANCH  47  48
ENDBRANCH  26  40
BRANCH  27  52
ATOM     52  C   UNL A   1      43.463  23.284  26.784  1.00  0.00     0.058 A 
ATOM     53  C   UNL A   1      43.375  22.746  25.493  1.00  0.00     0.135 A 
ATOM     54  C   UNL A   1      43.178  22.440  27.869  1.00  0.00     0.135 A 
ATOM     55  F   UNL A   1      43.635  23.517  24.426  1.00  0.00    -0.206 F 
ATOM     56  C   UNL A   1      43.012  21.421  25.281  1.00  0.00     0.059 A 
ATOM     57  C   UNL A   1      42.836  21.105  27.683  1.00  0.00     0.059 A 
ATOM     58  F   UNL A   1      43.267  22.905  29.125  1.00  0.00    -0.206 F 
ATOM     59  C   UNL A   1      42.748  20.606  26.384  1.00  0.00     0.060 A 
BRANCH  59  60
ATOM     60  S   UNL A   1      42.347  18.868  26.104  1.00  0.00     0.124 S 
ATOM     61  O   UNL A   1      40.941  18.950  25.729  1.00  0.00    -0.237 OA
ATOM     62  O   UNL A   1      43.273  18.505  25.035  1.00  0.00    -0.237 OA
ATOM     63  O   UNL A   1      42.623  18.250  27.397  1.00  0.00    -0.744 OA
ENDBRANCH  59  60
ENDBRANCH  27  52
BRANCH  39  64
ATOM     64  C   UNL A   1      49.581  26.586  26.345  1.00  0.00     0.058 A 
ATOM     65  C   UNL A   1      50.139  26.794  25.075  1.00  0.00     0.135 A 
ATOM     66  C   UNL A   1      50.365  25.933  27.310  1.00  0.00     0.135 A 
ATOM     67  F   UNL A   1      49.426  27.405  24.116  1.00  0.00    -0.206 F 
ATOM     68  C   UNL A   1      51.420  26.347  24.763  1.00  0.00     0.059 A 
ATOM     69  C   UNL A   1      51.656  25.498  27.027  1.00  0.00     0.059 A 
ATOM     70  F   UNL A   1      49.881  25.717  28.542  1.00  0.00    -0.206 F 
ATOM     71  C   UNL A   1      52.168  25.696  25.745  1.00  0.00     0.060 A 
BRANCH  71  72
ATOM     72  S   UNL A   1      53.835  25.132  25.338  1.00  0.00     0.124 S 
ATOM     73  O   UNL A   1      53.702  23.688  25.499  1.00  0.00    -0.237 OA
ATOM     74  O   UNL A   1      54.003  25.604  23.967  1.00  0.00    -0.237 OA
ATOM     75  O   UNL A   1      54.670  25.801  26.331  1.00  0.00    -0.744 OA
ENDBRANCH  71  72
ENDBRANCH  39  64
ENDBRANCH  13  14
ENDBRANCH   6   8
ENDBRANCH   3   4
ENDBRANCH   2   3
ENDBRANCH   1   2
BRANCH   1  76
ATOM     76  C   UNL A   1      32.212  30.909  27.120  1.00  0.00     0.002 C 
BRANCH  76  77
ATOM     77  C   UNL A   1      32.409  32.426  27.216  1.00  0.00     0.021 C 
BRANCH  77  78
ATOM     78  C   UNL A   1      33.712  32.893  27.861  1.00  0.00     0.116 C 
BRANCH  78  79
ATOM     79  N   UNL A   1      33.833  34.339  27.877  1.00  0.00    -0.351 N 
ATOM     80  C   UNL A   1      33.867  35.187  28.950  1.00  0.00     0.279 C 
ATOM     81  H   UNL A   1      33.900  34.769  26.995  1.00  0.00     0.163 HD
ATOM     82  O   UNL A   1      34.045  36.385  28.717  1.00  0.00    -0.268 OA
BRANCH  80  83
ATOM     83  C   UNL A   1      33.595  34.649  30.374  1.00  0.00     0.284 C 
ATOM     84  C   UNL A   1      34.072  35.633  31.452  1.00  0.00     0.151 C 
ATOM     85  N   UNL A   1      34.180  33.285  30.580  1.00  0.00    -0.319 N 
ATOM     86  S   UNL A   1      34.980  34.635  32.649  1.00  0.00    -0.085 SA
ATOM     87  C   UNL A   1      35.400  33.388  31.400  1.00  0.00     0.303 C 
ATOM     88  H   UNL A   1      34.413  32.875  29.675  1.00  0.00     0.348 HD
ATOM     89  H   UNL A   1      33.499  32.694  31.057  1.00  0.00     0.348 HD
BRANCH  87  90
ATOM     90  C   UNL A   1      36.690  33.707  30.659  1.00  0.00     0.162 A 
ATOM     91  N   UNL A   1      36.860  33.550  29.356  1.00  0.00    -0.242 NA
ATOM     92  S   UNL A   1      38.045  34.413  31.465  1.00  0.00    -0.112 S 
ATOM     93  C   UNL A   1      38.159  33.868  29.005  1.00  0.00     0.132 A 
ATOM     94  C   UNL A   1      38.974  34.272  30.040  1.00  0.00     0.055 A 
BRANCH  94  95
ATOM     95  C   UNL A   1      40.399  34.560  30.060  1.00  0.00    -0.007 A 
ATOM     96  C   UNL A   1      41.166  34.195  31.176  1.00  0.00     0.009 A 
ATOM     97  C   UNL A   1      41.022  35.187  28.977  1.00  0.00     0.009 A 
ATOM     98  C   UNL A   1      42.536  34.456  31.210  1.00  0.00     0.001 A 
ATOM     99  C   UNL A   1      42.393  35.452  29.013  1.00  0.00     0.001 A 
ATOM    100  C   UNL A   1      43.149  35.085  30.128  1.00  0.00     0.000 A 
ENDBRANCH  94  95
ENDBRANCH  87  90
ENDBRANCH  80  83
ENDBRANCH  78  79
ENDBRANCH  77  78
ENDBRANCH  76  77
ENDBRANCH   1  76
TORSDOF 18
ENDMDL
