MODEL 1
REMARK VINA RESULT:     -12.3      0.000      0.000
REMARK SMILES CCc1sc(NC(=O)[C@H]2CC(C)=C(C)C[C@H]2C(=O)NCCCCCCNC(=O)c2ccc(-c3c4nc(c(-c5c(F)cc(S(=O)(=O)[O-])cc5F)c5ccc([nH]5)c(-c5c(F)cc(S(=O)(=O)[O-])cc5F)c5nc(c(-c6c(F)cc(S(=O)(=O)[O-])cc6F)c6ccc3[nH]6)C=C5)C=C4)cc2)nc1-c1ccccc1
REMARK SMILES IDX 22 1 21 2 20 3 19 4 17 5 18 6 16 8 9 9 10 10 11 11 15 12
REMARK SMILES IDX 12 13 13 14 14 15 7 16 6 17 8 19 5 20 3 21 4 22 96 23 95 24
REMARK SMILES IDX 2 25 1 26 97 27 98 28 102 29 99 30 101 31 100 32 23 33 24 34
REMARK SMILES IDX 25 35 26 36 27 37 28 39 29 40 30 41 94 42 31 43 93 44 32 45
REMARK SMILES IDX 33 46 34 47 87 48 35 49 92 50 86 51 88 52 36 53 91 54 85 55
REMARK SMILES IDX 84 56 37 58 71 59 50 60 70 61 51 62 54 63 69 64 89 65 52 66
REMARK SMILES IDX 53 67 68 69 90 70 55 71 38 72 39 73 48 74 40 75 41 76 47 77
REMARK SMILES IDX 49 78 42 79 43 80 44 81 45 82 46 83 72 84 73 85 82 86 74 87
REMARK SMILES IDX 75 88 81 89 83 90 76 91 77 92 78 93 79 94 80 95 56 96 57 97
REMARK SMILES IDX 66 98 58 99 59 100 65 101 67 102 60 103 61 104 62 105 63 106
REMARK SMILES IDX 64 107
REMARK H PARENT 19 7 6 18 26 38 88 57 54 68
REMARK Flexibility Score: inf
ROOT
ATOM      1  C   UNL A   1      31.790  29.288  27.116  1.00  0.00     0.002 C 
ENDROOT
BRANCH   1   2
ATOM      2  C   UNL A   1      32.728  28.087  27.001  1.00  0.00     0.021 C 
BRANCH   2   3
ATOM      3  C   UNL A   1      32.882  27.564  25.580  1.00  0.00     0.116 C 
BRANCH   3   4
ATOM      4  N   UNL A   1      34.019  26.694  25.429  1.00  0.00    -0.356 N 
ATOM      5  C   UNL A   1      34.088  25.361  25.192  1.00  0.00     0.224 C 
ATOM      6  O   UNL A   1      35.206  24.899  24.930  1.00  0.00    -0.275 OA
ATOM      7  H   UNL A   1      34.892  27.143  25.511  1.00  0.00     0.163 HD
BRANCH   5   8
ATOM      8  C   UNL A   1      32.853  24.448  25.137  1.00  0.00     0.095 C 
ATOM      9  C   UNL A   1      32.374  23.875  23.770  1.00  0.00     0.095 C 
ATOM     10  C   UNL A   1      32.698  22.377  23.585  1.00  0.00     0.045 C 
ATOM     11  C   UNL A   1      33.112  21.529  24.756  1.00  0.00    -0.074 C 
ATOM     12  C   UNL A   1      32.900  23.460  26.317  1.00  0.00     0.045 C 
ATOM     13  C   UNL A   1      33.412  20.099  24.371  1.00  0.00     0.039 C 
ATOM     14  C   UNL A   1      33.220  22.022  26.002  1.00  0.00    -0.074 C 
ATOM     15  C   UNL A   1      33.698  21.189  27.163  1.00  0.00     0.039 C 
BRANCH   9  16
ATOM     16  C   UNL A   1      32.787  24.781  22.575  1.00  0.00     0.230 C 
ATOM     17  N   UNL A   1      32.038  25.791  22.058  1.00  0.00    -0.302 N 
ATOM     18  H   UNL A   1      32.282  26.031  21.136  1.00  0.00     0.172 HD
ATOM     19  O   UNL A   1      33.876  24.615  22.011  1.00  0.00    -0.274 OA
BRANCH  17  20
ATOM     20  C   UNL A   1      31.015  26.539  22.561  1.00  0.00     0.190 A 
ATOM     21  C   UNL A   1      28.917  27.265  23.477  1.00  0.00     0.034 A 
ATOM     22  S   UNL A   1      29.987  25.939  23.770  1.00  0.00    -0.101 S 
ATOM     23  C   UNL A   1      29.662  28.252  22.844  1.00  0.00     0.087 A 
ATOM     24  N   UNL A   1      30.857  27.810  22.287  1.00  0.00    -0.220 NA
BRANCH  21  25
ATOM     25  C   UNL A   1      27.505  27.126  23.964  1.00  0.00     0.046 C 
ATOM     26  C   UNL A   1      26.520  28.197  23.536  1.00  0.00     0.010 C 
ENDBRANCH  21  25
BRANCH  23  27
ATOM     27  C   UNL A   1      29.257  29.643  22.736  1.00  0.00     0.001 A 
ATOM     28  C   UNL A   1      28.712  30.104  21.529  1.00  0.00     0.010 A 
ATOM     29  C   UNL A   1      29.414  30.531  23.804  1.00  0.00     0.010 A 
ATOM     30  C   UNL A   1      28.392  31.452  21.367  1.00  0.00     0.001 A 
ATOM     31  C   UNL A   1      29.087  31.882  23.640  1.00  0.00     0.001 A 
ATOM     32  C   UNL A   1      28.590  32.342  22.420  1.00  0.00     0.000 A 
ENDBRANCH  23  27
ENDBRANCH  17  20
ENDBRANCH   9  16
ENDBRANCH   5   8
ENDBRANCH   3   4
ENDBRANCH   2   3
ENDBRANCH   1   2
BRANCH   1  33
ATOM     33  C   UNL A   1      32.205  30.508  26.287  1.00  0.00     0.002 C 
BRANCH  33  34
ATOM     34  C   UNL A   1      31.816  31.861  26.889  1.00  0.00     0.021 C 
BRANCH  34  35
ATOM     35  C   UNL A   1      32.970  32.611  27.541  1.00  0.00     0.116 C 
BRANCH  35  36
ATOM     36  N   UNL A   1      32.644  34.012  27.764  1.00  0.00    -0.352 N 
ATOM     37  C   UNL A   1      33.137  34.864  28.719  1.00  0.00     0.251 C 
ATOM     38  H   UNL A   1      31.982  34.399  27.146  1.00  0.00     0.163 HD
ATOM     39  O   UNL A   1      32.604  35.950  28.924  1.00  0.00    -0.269 OA
BRANCH  37  40
ATOM     40  C   UNL A   1      34.312  34.446  29.508  1.00  0.00     0.039 A 
ATOM     41  C   UNL A   1      34.126  33.872  30.767  1.00  0.00     0.014 A 
ATOM     42  C   UNL A   1      35.596  34.593  28.974  1.00  0.00     0.014 A 
ATOM     43  C   UNL A   1      35.230  33.386  31.469  1.00  0.00     0.010 A 
ATOM     44  C   UNL A   1      36.683  34.048  29.644  1.00  0.00     0.010 A 
ATOM     45  C   UNL A   1      36.512  33.441  30.898  1.00  0.00    -0.014 A 
BRANCH  45  46
ATOM     46  C   UNL A   1      37.702  32.883  31.586  1.00  0.00     0.031 A 
ATOM     47  C   UNL A   1      38.365  31.651  31.033  1.00  0.00     0.074 A 
ATOM     48  C   UNL A   1      38.116  33.413  32.752  1.00  0.00     0.049 A 
ATOM     49  N   UNL A   1      39.296  30.904  31.564  1.00  0.00    -0.248 NA
ATOM     50  C   UNL A   1      37.889  31.183  29.721  1.00  0.00     0.031 C 
ATOM     51  C   UNL A   1      37.529  34.586  33.405  1.00  0.00     0.029 A 
ATOM     52  N   UNL A   1      39.108  33.017  33.614  1.00  0.00    -0.354 N 
ATOM     53  C   UNL A   1      39.505  29.867  30.663  1.00  0.00     0.074 A 
ATOM     54  C   UNL A   1      38.566  30.053  29.578  1.00  0.00     0.031 C 
ATOM     55  C   UNL A   1      38.170  34.812  34.563  1.00  0.00     0.029 A 
ATOM     56  C   UNL A   1      39.180  33.775  34.758  1.00  0.00     0.049 A 
ATOM     57  H   UNL A   1      39.712  32.261  33.429  1.00  0.00     0.167 HD
ATOM     58  C   UNL A   1      40.412  28.864  30.725  1.00  0.00     0.037 A 
ATOM     59  C   UNL A   1      39.953  33.637  35.854  1.00  0.00     0.037 A 
ATOM     60  C   UNL A   1      41.353  28.700  31.801  1.00  0.00     0.049 A 
ATOM     61  C   UNL A   1      40.947  32.508  35.911  1.00  0.00     0.074 A 
ATOM     62  C   UNL A   1      42.340  27.741  31.944  1.00  0.00     0.029 A 
ATOM     63  N   UNL A   1      41.424  29.518  32.921  1.00  0.00    -0.354 N 
ATOM     64  N   UNL A   1      41.163  31.558  35.032  1.00  0.00    -0.248 NA
ATOM     65  C   UNL A   1      41.804  32.431  37.102  1.00  0.00     0.031 C 
ATOM     66  C   UNL A   1      42.980  27.952  33.168  1.00  0.00     0.029 A 
ATOM     67  C   UNL A   1      42.428  29.075  33.765  1.00  0.00     0.049 A 
ATOM     68  H   UNL A   1      40.846  30.296  33.089  1.00  0.00     0.167 HD
ATOM     69  C   UNL A   1      42.200  30.789  35.548  1.00  0.00     0.074 A 
ATOM     70  C   UNL A   1      42.569  31.384  36.816  1.00  0.00     0.031 C 
ATOM     71  C   UNL A   1      42.795  29.693  35.016  1.00  0.00     0.037 A 
BRANCH  58  72
ATOM     72  C   UNL A   1      40.423  27.870  29.596  1.00  0.00     0.058 A 
ATOM     73  C   UNL A   1      39.527  26.789  29.559  1.00  0.00     0.135 A 
ATOM     74  C   UNL A   1      41.331  28.003  28.534  1.00  0.00     0.135 A 
ATOM     75  F   UNL A   1      38.646  26.605  30.556  1.00  0.00    -0.206 F 
ATOM     76  C   UNL A   1      39.562  25.849  28.534  1.00  0.00     0.059 A 
ATOM     77  C   UNL A   1      41.362  27.093  27.482  1.00  0.00     0.059 A 
ATOM     78  F   UNL A   1      42.208  29.019  28.517  1.00  0.00    -0.206 F 
ATOM     79  C   UNL A   1      40.488  26.007  27.502  1.00  0.00     0.060 A 
BRANCH  79  80
ATOM     80  S   UNL A   1      40.536  24.768  26.190  1.00  0.00     0.124 S 
ATOM     81  O   UNL A   1      41.377  23.739  26.796  1.00  0.00    -0.237 OA
ATOM     82  O   UNL A   1      39.127  24.424  26.032  1.00  0.00    -0.237 OA
ATOM     83  O   UNL A   1      41.133  25.484  25.068  1.00  0.00    -0.744 OA
ENDBRANCH  79  80
ENDBRANCH  58  72
BRANCH  59  84
ATOM     84  C   UNL A   1      39.814  34.599  36.979  1.00  0.00     0.058 A 
ATOM     85  C   UNL A   1      40.512  35.814  36.982  1.00  0.00     0.135 A 
ATOM     86  C   UNL A   1      38.951  34.338  38.056  1.00  0.00     0.135 A 
ATOM     87  F   UNL A   1      41.354  36.106  35.978  1.00  0.00    -0.206 F 
ATOM     88  C   UNL A   1      40.368  36.735  38.014  1.00  0.00     0.059 A 
ATOM     89  C   UNL A   1      38.771  35.254  39.087  1.00  0.00     0.059 A 
ATOM     90  F   UNL A   1      38.247  33.197  38.092  1.00  0.00    -0.206 F 
ATOM     91  C   UNL A   1      39.490  36.448  39.061  1.00  0.00     0.060 A 
BRANCH  91  92
ATOM     92  S   UNL A   1      39.261  37.678  40.364  1.00  0.00     0.124 S 
ATOM     93  O   UNL A   1      38.933  36.836  41.508  1.00  0.00    -0.237 OA
ATOM     94  O   UNL A   1      40.568  38.329  40.403  1.00  0.00    -0.237 OA
ATOM     95  O   UNL A   1      38.173  38.506  39.854  1.00  0.00    -0.744 OA
ENDBRANCH  91  92
ENDBRANCH  59  84
BRANCH  71  96
ATOM     96  C   UNL A   1      43.941  29.081  35.771  1.00  0.00     0.058 A 
ATOM     97  C   UNL A   1      45.246  29.585  35.669  1.00  0.00     0.135 A 
ATOM     98  C   UNL A   1      43.706  28.044  36.689  1.00  0.00     0.135 A 
ATOM     99  F   UNL A   1      45.525  30.570  34.801  1.00  0.00    -0.206 F 
ATOM    100  C   UNL A   1      46.279  29.084  36.456  1.00  0.00     0.059 A 
ATOM    101  C   UNL A   1      44.718  27.545  37.502  1.00  0.00     0.059 A 
ATOM    102  F   UNL A   1      42.473  27.531  36.826  1.00  0.00    -0.206 F 
ATOM    103  C   UNL A   1      46.003  28.072  37.377  1.00  0.00     0.060 A 
BRANCH 103 104
ATOM    104  S   UNL A   1      47.334  27.492  38.450  1.00  0.00     0.124 S 
ATOM    105  O   UNL A   1      46.919  26.118  38.716  1.00  0.00    -0.237 OA
ATOM    106  O   UNL A   1      48.510  27.646  37.598  1.00  0.00    -0.237 OA
ATOM    107  O   UNL A   1      47.271  28.399  39.593  1.00  0.00    -0.744 OA
ENDBRANCH 103 104
ENDBRANCH  71  96
ENDBRANCH  45  46
ENDBRANCH  37  40
ENDBRANCH  35  36
ENDBRANCH  34  35
ENDBRANCH  33  34
ENDBRANCH   1  33
TORSDOF 20
ENDMDL
MODEL 2
REMARK VINA RESULT:     -12.0      6.137      9.212
REMARK SMILES CCc1sc(NC(=O)[C@H]2CC(C)=C(C)C[C@H]2C(=O)NCCCCCCNC(=O)c2ccc(-c3c4nc(c(-c5c(F)cc(S(=O)(=O)[O-])cc5F)c5ccc([nH]5)c(-c5c(F)cc(S(=O)(=O)[O-])cc5F)c5nc(c(-c6c(F)cc(S(=O)(=O)[O-])cc6F)c6ccc3[nH]6)C=C5)C=C4)cc2)nc1-c1ccccc1
REMARK SMILES IDX 22 1 21 2 20 3 19 4 17 5 18 6 16 8 9 9 10 10 11 11 15 12
REMARK SMILES IDX 12 13 13 14 14 15 7 16 6 17 8 19 5 20 3 21 4 22 96 23 95 24
REMARK SMILES IDX 2 25 1 26 97 27 98 28 102 29 99 30 101 31 100 32 23 33 24 34
REMARK SMILES IDX 25 35 26 36 27 37 28 39 29 40 30 41 94 42 31 43 93 44 32 45
REMARK SMILES IDX 33 46 34 47 87 48 35 49 92 50 86 51 88 52 36 53 91 54 85 55
REMARK SMILES IDX 84 56 37 58 71 59 50 60 70 61 51 62 54 63 69 64 89 65 52 66
REMARK SMILES IDX 53 67 68 69 90 70 55 71 38 72 39 73 48 74 40 75 41 76 47 77
REMARK SMILES IDX 49 78 42 79 43 80 44 81 45 82 46 83 72 84 73 85 82 86 74 87
REMARK SMILES IDX 75 88 81 89 83 90 76 91 77 92 78 93 79 94 80 95 56 96 57 97
REMARK SMILES IDX 66 98 58 99 59 100 65 101 67 102 60 103 61 104 62 105 63 106
REMARK SMILES IDX 64 107
REMARK H PARENT 19 7 6 18 26 38 88 57 54 68
REMARK Flexibility Score: inf
ROOT
ATOM      1  C   UNL A   1      33.239  30.094  26.919  1.00  0.00     0.002 C 
ENDROOT
BRANCH   1   2
ATOM      2  C   UNL A   1      31.894  29.743  26.283  1.00  0.00     0.021 C 
BRANCH   2   3
ATOM      3  C   UNL A   1      31.536  28.268  26.383  1.00  0.00     0.116 C 
BRANCH   3   4
ATOM      4  N   UNL A   1      32.693  27.425  26.540  1.00  0.00    -0.356 N 
ATOM      5  C   UNL A   1      33.168  26.421  25.763  1.00  0.00     0.224 C 
ATOM      6  O   UNL A   1      34.290  25.980  26.045  1.00  0.00    -0.275 OA
ATOM      7  H   UNL A   1      33.228  27.609  27.346  1.00  0.00     0.163 HD
BRANCH   5   8
ATOM      8  C   UNL A   1      32.433  25.896  24.518  1.00  0.00     0.095 C 
ATOM      9  C   UNL A   1      31.067  25.165  24.676  1.00  0.00     0.095 C 
ATOM     10  C   UNL A   1      29.859  26.022  24.242  1.00  0.00     0.045 C 
ATOM     11  C   UNL A   1      30.055  27.278  23.437  1.00  0.00    -0.074 C 
ATOM     12  C   UNL A   1      32.525  26.945  23.395  1.00  0.00     0.045 C 
ATOM     13  C   UNL A   1      28.759  27.991  23.131  1.00  0.00     0.039 C 
ATOM     14  C   UNL A   1      31.272  27.710  23.060  1.00  0.00    -0.074 C 
ATOM     15  C   UNL A   1      31.474  29.002  22.311  1.00  0.00     0.039 C 
BRANCH   9  16
ATOM     16  C   UNL A   1      30.917  24.492  26.071  1.00  0.00     0.230 C 
ATOM     17  N   UNL A   1      31.399  23.266  26.408  1.00  0.00    -0.302 N 
ATOM     18  H   UNL A   1      30.947  22.865  27.185  1.00  0.00     0.172 HD
ATOM     19  O   UNL A   1      30.322  25.075  26.986  1.00  0.00    -0.274 OA
BRANCH  17  20
ATOM     20  C   UNL A   1      32.382  22.480  25.885  1.00  0.00     0.190 A 
ATOM     21  C   UNL A   1      34.410  21.678  24.879  1.00  0.00     0.034 A 
ATOM     22  S   UNL A   1      34.023  22.860  26.079  1.00  0.00    -0.101 S 
ATOM     23  C   UNL A   1      33.327  20.812  24.802  1.00  0.00     0.087 A 
ATOM     24  N   UNL A   1      32.150  21.303  25.357  1.00  0.00    -0.220 NA
BRANCH  21  25
ATOM     25  C   UNL A   1      35.757  21.779  24.228  1.00  0.00     0.046 C 
ATOM     26  C   UNL A   1      36.940  21.228  25.001  1.00  0.00     0.010 C 
ENDBRANCH  21  25
BRANCH  23  27
ATOM     27  C   UNL A   1      33.371  19.495  24.190  1.00  0.00     0.001 A 
ATOM     28  C   UNL A   1      34.314  18.562  24.646  1.00  0.00     0.010 A 
ATOM     29  C   UNL A   1      32.506  19.147  23.150  1.00  0.00     0.010 A 
ATOM     30  C   UNL A   1      34.437  17.320  24.023  1.00  0.00     0.001 A 
ATOM     31  C   UNL A   1      32.628  17.898  22.530  1.00  0.00     0.001 A 
ATOM     32  C   UNL A   1      33.601  16.994  22.958  1.00  0.00     0.000 A 
ENDBRANCH  23  27
ENDBRANCH  17  20
ENDBRANCH   9  16
ENDBRANCH   5   8
ENDBRANCH   3   4
ENDBRANCH   2   3
ENDBRANCH   1   2
BRANCH   1  33
ATOM     33  C   UNL A   1      33.286  31.461  27.609  1.00  0.00     0.002 C 
BRANCH  33  34
ATOM     34  C   UNL A   1      34.693  31.991  27.898  1.00  0.00     0.021 C 
BRANCH  34  35
ATOM     35  C   UNL A   1      35.694  30.918  28.310  1.00  0.00     0.116 C 
BRANCH  35  36
ATOM     36  N   UNL A   1      35.617  30.628  29.733  1.00  0.00    -0.352 N 
ATOM     37  C   UNL A   1      36.574  30.079  30.548  1.00  0.00     0.251 C 
ATOM     38  H   UNL A   1      34.765  30.858  30.170  1.00  0.00     0.163 HD
ATOM     39  O   UNL A   1      36.287  29.689  31.676  1.00  0.00    -0.269 OA
BRANCH  37  40
ATOM     40  C   UNL A   1      37.953  29.951  30.040  1.00  0.00     0.039 A 
ATOM     41  C   UNL A   1      39.020  29.947  30.940  1.00  0.00     0.014 A 
ATOM     42  C   UNL A   1      38.177  29.798  28.668  1.00  0.00     0.014 A 
ATOM     43  C   UNL A   1      40.315  29.726  30.469  1.00  0.00     0.010 A 
ATOM     44  C   UNL A   1      39.456  29.510  28.211  1.00  0.00     0.010 A 
ATOM     45  C   UNL A   1      40.537  29.473  29.105  1.00  0.00    -0.014 A 
BRANCH  45  46
ATOM     46  C   UNL A   1      41.890  29.175  28.573  1.00  0.00     0.031 A 
ATOM     47  C   UNL A   1      42.220  27.775  28.136  1.00  0.00     0.074 A 
ATOM     48  C   UNL A   1      42.843  30.127  28.584  1.00  0.00     0.049 A 
ATOM     49  N   UNL A   1      43.376  27.262  27.810  1.00  0.00    -0.248 NA
ATOM     50  C   UNL A   1      41.101  26.819  28.094  1.00  0.00     0.031 C 
ATOM     51  C   UNL A   1      42.650  31.513  29.019  1.00  0.00     0.029 A 
ATOM     52  N   UNL A   1      44.172  30.068  28.248  1.00  0.00    -0.354 N 
ATOM     53  C   UNL A   1      43.130  25.920  27.542  1.00  0.00     0.074 A 
ATOM     54  C   UNL A   1      41.724  25.689  27.797  1.00  0.00     0.031 C 
ATOM     55  C   UNL A   1      43.818  32.169  28.926  1.00  0.00     0.029 A 
ATOM     56  C   UNL A   1      44.849  31.242  28.469  1.00  0.00     0.049 A 
ATOM     57  H   UNL A   1      44.599  29.260  27.882  1.00  0.00     0.167 HD
ATOM     58  C   UNL A   1      43.993  24.973  27.104  1.00  0.00     0.037 A 
ATOM     59  C   UNL A   1      46.160  31.535  28.345  1.00  0.00     0.037 A 
ATOM     60  C   UNL A   1      45.385  25.220  26.837  1.00  0.00     0.049 A 
ATOM     61  C   UNL A   1      47.107  30.466  27.870  1.00  0.00     0.074 A 
ATOM     62  C   UNL A   1      46.338  24.341  26.354  1.00  0.00     0.029 A 
ATOM     63  N   UNL A   1      46.023  26.437  27.030  1.00  0.00    -0.354 N 
ATOM     64  N   UNL A   1      46.852  29.212  27.580  1.00  0.00    -0.248 NA
ATOM     65  C   UNL A   1      48.515  30.848  27.698  1.00  0.00     0.031 C 
ATOM     66  C   UNL A   1      47.561  25.014  26.295  1.00  0.00     0.029 A 
ATOM     67  C   UNL A   1      47.361  26.328  26.690  1.00  0.00     0.049 A 
ATOM     68  H   UNL A   1      45.589  27.256  27.360  1.00  0.00     0.167 HD
ATOM     69  C   UNL A   1      48.060  28.663  27.164  1.00  0.00     0.074 A 
ATOM     70  C   UNL A   1      49.046  29.722  27.238  1.00  0.00     0.031 C 
ATOM     71  C   UNL A   1      48.325  27.399  26.752  1.00  0.00     0.037 A 
BRANCH  58  72
ATOM     72  C   UNL A   1      43.449  23.587  26.890  1.00  0.00     0.058 A 
ATOM     73  C   UNL A   1      43.307  22.680  27.953  1.00  0.00     0.135 A 
ATOM     74  C   UNL A   1      43.057  23.162  25.611  1.00  0.00     0.135 A 
ATOM     75  F   UNL A   1      43.679  23.029  29.195  1.00  0.00    -0.206 F 
ATOM     76  C   UNL A   1      42.838  21.386  27.748  1.00  0.00     0.059 A 
ATOM     77  C   UNL A   1      42.555  21.883  25.389  1.00  0.00     0.059 A 
ATOM     78  F   UNL A   1      43.169  23.988  24.559  1.00  0.00    -0.206 F 
ATOM     79  C   UNL A   1      42.470  20.995  26.461  1.00  0.00     0.060 A 
BRANCH  79  80
ATOM     80  S   UNL A   1      41.886  19.307  26.207  1.00  0.00     0.124 S 
ATOM     81  O   UNL A   1      40.455  19.523  26.006  1.00  0.00    -0.237 OA
ATOM     82  O   UNL A   1      42.635  18.890  25.026  1.00  0.00    -0.237 OA
ATOM     83  O   UNL A   1      42.249  18.630  27.447  1.00  0.00    -0.744 OA
ENDBRANCH  79  80
ENDBRANCH  58  72
BRANCH  59  84
ATOM     84  C   UNL A   1      46.644  32.901  28.676  1.00  0.00     0.058 A 
ATOM     85  C   UNL A   1      46.615  33.929  27.723  1.00  0.00     0.135 A 
ATOM     86  C   UNL A   1      47.109  33.217  29.963  1.00  0.00     0.135 A 
ATOM     87  F   UNL A   1      46.185  33.676  26.477  1.00  0.00    -0.206 F 
ATOM     88  C   UNL A   1      47.037  35.219  28.028  1.00  0.00     0.059 A 
ATOM     89  C   UNL A   1      47.513  34.505  30.299  1.00  0.00     0.059 A 
ATOM     90  F   UNL A   1      47.140  32.273  30.916  1.00  0.00    -0.206 F 
ATOM     91  C   UNL A   1      47.480  35.498  29.322  1.00  0.00     0.060 A 
BRANCH  91  92
ATOM     92  S   UNL A   1      47.966  37.190  29.726  1.00  0.00     0.124 S 
ATOM     93  O   UNL A   1      48.244  37.739  28.405  1.00  0.00    -0.237 OA
ATOM     94  O   UNL A   1      46.770  37.700  30.392  1.00  0.00    -0.237 OA
ATOM     95  O   UNL A   1      49.126  37.008  30.593  1.00  0.00    -0.744 OA
ENDBRANCH  91  92
ENDBRANCH  59  84
BRANCH  71  96
ATOM     96  C   UNL A   1      49.725  27.086  26.303  1.00  0.00     0.058 A 
ATOM     97  C   UNL A   1      50.683  26.564  27.184  1.00  0.00     0.135 A 
ATOM     98  C   UNL A   1      50.074  27.210  24.949  1.00  0.00     0.135 A 
ATOM     99  F   UNL A   1      50.402  26.434  28.490  1.00  0.00    -0.206 F 
ATOM    100  C   UNL A   1      51.941  26.172  26.736  1.00  0.00     0.059 A 
ATOM    101  C   UNL A   1      51.316  26.803  24.475  1.00  0.00     0.059 A 
ATOM    102  F   UNL A   1      49.190  27.700  24.065  1.00  0.00    -0.206 F 
ATOM    103  C   UNL A   1      52.244  26.285  25.378  1.00  0.00     0.060 A 
BRANCH 103 104
ATOM    104  S   UNL A   1      53.848  25.693  24.798  1.00  0.00     0.124 S 
ATOM    105  O   UNL A   1      54.736  26.762  25.246  1.00  0.00    -0.237 OA
ATOM    106  O   UNL A   1      53.983  24.421  25.500  1.00  0.00    -0.237 OA
ATOM    107  O   UNL A   1      53.671  25.589  23.352  1.00  0.00    -0.744 OA
ENDBRANCH 103 104
ENDBRANCH  71  96
ENDBRANCH  45  46
ENDBRANCH  37  40
ENDBRANCH  35  36
ENDBRANCH  34  35
ENDBRANCH  33  34
ENDBRANCH   1  33
TORSDOF 20
ENDMDL
MODEL 3
REMARK VINA RESULT:     -11.8      6.128     11.724
REMARK SMILES CCc1sc(NC(=O)[C@H]2CC(C)=C(C)C[C@H]2C(=O)NCCCCCCNC(=O)c2ccc(-c3c4nc(c(-c5c(F)cc(S(=O)(=O)[O-])cc5F)c5ccc([nH]5)c(-c5c(F)cc(S(=O)(=O)[O-])cc5F)c5nc(c(-c6c(F)cc(S(=O)(=O)[O-])cc6F)c6ccc3[nH]6)C=C5)C=C4)cc2)nc1-c1ccccc1
REMARK SMILES IDX 22 1 21 2 20 3 19 4 17 5 18 6 16 8 9 9 10 10 11 11 15 12
REMARK SMILES IDX 12 13 13 14 14 15 7 16 6 17 8 19 5 20 3 21 4 22 96 23 95 24
REMARK SMILES IDX 2 25 1 26 97 27 98 28 102 29 99 30 101 31 100 32 23 33 24 34
REMARK SMILES IDX 25 35 26 36 27 37 28 39 29 40 30 41 94 42 31 43 93 44 32 45
REMARK SMILES IDX 33 46 34 47 87 48 35 49 92 50 86 51 88 52 36 53 91 54 85 55
REMARK SMILES IDX 84 56 37 58 71 59 50 60 70 61 51 62 54 63 69 64 89 65 52 66
REMARK SMILES IDX 53 67 68 69 90 70 55 71 38 72 39 73 48 74 40 75 41 76 47 77
REMARK SMILES IDX 49 78 42 79 43 80 44 81 45 82 46 83 72 84 73 85 82 86 74 87
REMARK SMILES IDX 75 88 81 89 83 90 76 91 77 92 78 93 79 94 80 95 56 96 57 97
REMARK SMILES IDX 66 98 58 99 59 100 65 101 67 102 60 103 61 104 62 105 63 106
REMARK SMILES IDX 64 107
REMARK H PARENT 19 7 6 18 26 38 88 57 54 68
REMARK Flexibility Score: inf
ROOT
ATOM      1  C   UNL A   1      35.787  22.129  25.673  1.00  0.00     0.002 C 
ENDROOT
BRANCH   1   2
ATOM      2  C   UNL A   1      35.715  23.643  25.866  1.00  0.00     0.021 C 
BRANCH   2   3
ATOM      3  C   UNL A   1      34.787  24.342  24.882  1.00  0.00     0.116 C 
BRANCH   3   4
ATOM      4  N   UNL A   1      34.265  25.581  25.398  1.00  0.00    -0.356 N 
ATOM      5  C   UNL A   1      33.119  26.246  25.108  1.00  0.00     0.224 C 
ATOM      6  O   UNL A   1      32.834  27.206  25.835  1.00  0.00    -0.275 OA
ATOM      7  H   UNL A   1      34.834  26.016  26.072  1.00  0.00     0.163 HD
BRANCH   5   8
ATOM      8  C   UNL A   1      32.139  25.803  24.009  1.00  0.00     0.095 C 
ATOM      9  C   UNL A   1      30.807  25.097  24.399  1.00  0.00     0.095 C 
ATOM     10  C   UNL A   1      29.566  26.003  24.249  1.00  0.00     0.045 C 
ATOM     11  C   UNL A   1      29.643  27.294  23.480  1.00  0.00    -0.074 C 
ATOM     12  C   UNL A   1      32.045  26.907  22.940  1.00  0.00     0.045 C 
ATOM     13  C   UNL A   1      28.337  28.052  23.468  1.00  0.00     0.039 C 
ATOM     14  C   UNL A   1      30.777  27.717  22.893  1.00  0.00    -0.074 C 
ATOM     15  C   UNL A   1      30.871  29.040  22.178  1.00  0.00     0.039 C 
BRANCH   9  16
ATOM     16  C   UNL A   1      30.909  24.357  25.763  1.00  0.00     0.230 C 
ATOM     17  N   UNL A   1      31.124  23.023  25.920  1.00  0.00    -0.302 N 
ATOM     18  H   UNL A   1      30.837  22.679  26.796  1.00  0.00     0.172 HD
ATOM     19  O   UNL A   1      30.797  24.983  26.824  1.00  0.00    -0.274 OA
BRANCH  17  20
ATOM     20  C   UNL A   1      31.655  22.067  25.106  1.00  0.00     0.190 A 
ATOM     21  C   UNL A   1      32.188  20.663  23.232  1.00  0.00     0.034 A 
ATOM     22  S   UNL A   1      31.941  22.359  23.460  1.00  0.00    -0.101 S 
ATOM     23  C   UNL A   1      32.486  20.127  24.478  1.00  0.00     0.087 A 
ATOM     24  N   UNL A   1      32.139  20.935  25.556  1.00  0.00    -0.220 NA
BRANCH  21  25
ATOM     25  C   UNL A   1      32.082  20.139  21.831  1.00  0.00     0.046 C 
ATOM     26  C   UNL A   1      32.247  18.643  21.641  1.00  0.00     0.010 C 
ENDBRANCH  21  25
BRANCH  23  27
ATOM     27  C   UNL A   1      33.098  18.827  24.687  1.00  0.00     0.001 A 
ATOM     28  C   UNL A   1      34.457  18.655  24.383  1.00  0.00     0.010 A 
ATOM     29  C   UNL A   1      32.359  17.743  25.169  1.00  0.00     0.010 A 
ATOM     30  C   UNL A   1      35.053  17.398  24.493  1.00  0.00     0.001 A 
ATOM     31  C   UNL A   1      32.961  16.485  25.284  1.00  0.00     0.001 A 
ATOM     32  C   UNL A   1      34.301  16.312  24.933  1.00  0.00     0.000 A 
ENDBRANCH  23  27
ENDBRANCH  17  20
ENDBRANCH   9  16
ENDBRANCH   5   8
ENDBRANCH   3   4
ENDBRANCH   2   3
ENDBRANCH   1   2
BRANCH   1  33
ATOM     33  C   UNL A   1      36.790  21.664  24.612  1.00  0.00     0.002 C 
BRANCH  33  34
ATOM     34  C   UNL A   1      37.694  20.505  25.042  1.00  0.00     0.021 C 
BRANCH  34  35
ATOM     35  C   UNL A   1      38.875  20.920  25.911  1.00  0.00     0.116 C 
BRANCH  35  36
ATOM     36  N   UNL A   1      39.894  19.883  25.966  1.00  0.00    -0.352 N 
ATOM     37  C   UNL A   1      41.245  20.021  26.152  1.00  0.00     0.251 C 
ATOM     38  H   UNL A   1      39.569  18.960  25.856  1.00  0.00     0.163 HD
ATOM     39  O   UNL A   1      42.004  19.077  25.952  1.00  0.00    -0.269 OA
BRANCH  37  40
ATOM     40  C   UNL A   1      41.775  21.329  26.583  1.00  0.00     0.039 A 
ATOM     41  C   UNL A   1      42.163  21.509  27.912  1.00  0.00     0.014 A 
ATOM     42  C   UNL A   1      41.917  22.362  25.652  1.00  0.00     0.014 A 
ATOM     43  C   UNL A   1      42.756  22.713  28.296  1.00  0.00     0.010 A 
ATOM     44  C   UNL A   1      42.569  23.532  26.022  1.00  0.00     0.010 A 
ATOM     45  C   UNL A   1      42.993  23.719  27.346  1.00  0.00    -0.014 A 
BRANCH  45  46
ATOM     46  C   UNL A   1      43.674  24.989  27.701  1.00  0.00     0.031 A 
ATOM     47  C   UNL A   1      42.858  26.152  28.195  1.00  0.00     0.074 A 
ATOM     48  C   UNL A   1      44.995  25.130  27.479  1.00  0.00     0.049 A 
ATOM     49  N   UNL A   1      43.220  27.391  28.392  1.00  0.00    -0.248 NA
ATOM     50  C   UNL A   1      41.437  25.886  28.471  1.00  0.00     0.031 C 
ATOM     51  C   UNL A   1      45.884  24.084  26.969  1.00  0.00     0.029 A 
ATOM     52  N   UNL A   1      45.816  26.220  27.625  1.00  0.00    -0.354 N 
ATOM     53  C   UNL A   1      42.070  28.059  28.797  1.00  0.00     0.074 A 
ATOM     54  C   UNL A   1      40.988  27.097  28.764  1.00  0.00     0.031 C 
ATOM     55  C   UNL A   1      47.124  24.584  26.843  1.00  0.00     0.029 A 
ATOM     56  C   UNL A   1      47.109  25.995  27.218  1.00  0.00     0.049 A 
ATOM     57  H   UNL A   1      45.508  27.082  27.989  1.00  0.00     0.167 HD
ATOM     58  C   UNL A   1      41.932  29.350  29.180  1.00  0.00     0.037 A 
ATOM     59  C   UNL A   1      48.159  26.836  27.130  1.00  0.00     0.037 A 
ATOM     60  C   UNL A   1      43.019  30.292  29.225  1.00  0.00     0.049 A 
ATOM     61  C   UNL A   1      47.984  28.271  27.548  1.00  0.00     0.074 A 
ATOM     62  C   UNL A   1      42.996  31.613  29.634  1.00  0.00     0.029 A 
ATOM     63  N   UNL A   1      44.325  30.011  28.847  1.00  0.00    -0.354 N 
ATOM     64  N   UNL A   1      46.900  28.879  27.968  1.00  0.00    -0.248 NA
ATOM     65  C   UNL A   1      49.171  29.135  27.485  1.00  0.00     0.031 C 
ATOM     66  C   UNL A   1      44.278  32.144  29.464  1.00  0.00     0.029 A 
ATOM     67  C   UNL A   1      45.113  31.140  29.000  1.00  0.00     0.049 A 
ATOM     68  H   UNL A   1      44.643  29.140  28.519  1.00  0.00     0.167 HD
ATOM     69  C   UNL A   1      47.280  30.186  28.249  1.00  0.00     0.074 A 
ATOM     70  C   UNL A   1      48.695  30.283  27.952  1.00  0.00     0.031 C 
ATOM     71  C   UNL A   1      46.526  31.212  28.717  1.00  0.00     0.037 A 
BRANCH  58  72
ATOM     72  C   UNL A   1      40.557  29.812  29.578  1.00  0.00     0.058 A 
ATOM     73  C   UNL A   1      40.216  30.037  30.921  1.00  0.00     0.135 A 
ATOM     74  C   UNL A   1      39.570  30.040  28.606  1.00  0.00     0.135 A 
ATOM     75  F   UNL A   1      41.117  29.821  31.894  1.00  0.00    -0.206 F 
ATOM     76  C   UNL A   1      38.933  30.428  31.291  1.00  0.00     0.059 A 
ATOM     77  C   UNL A   1      38.290  30.462  28.950  1.00  0.00     0.059 A 
ATOM     78  F   UNL A   1      39.841  29.842  27.306  1.00  0.00    -0.206 F 
ATOM     79  C   UNL A   1      37.975  30.633  30.298  1.00  0.00     0.060 A 
BRANCH  79  80
ATOM     80  S   UNL A   1      36.309  31.118  30.794  1.00  0.00     0.124 S 
ATOM     81  O   UNL A   1      35.594  31.040  29.523  1.00  0.00    -0.237 OA
ATOM     82  O   UNL A   1      35.965  30.097  31.779  1.00  0.00    -0.237 OA
ATOM     83  O   UNL A   1      36.491  32.463  31.329  1.00  0.00    -0.744 OA
ENDBRANCH  79  80
ENDBRANCH  58  72
BRANCH  59  84
ATOM     84  C   UNL A   1      49.465  26.333  26.627  1.00  0.00     0.058 A 
ATOM     85  C   UNL A   1      49.837  26.501  25.286  1.00  0.00     0.135 A 
ATOM     86  C   UNL A   1      50.383  25.708  27.487  1.00  0.00     0.135 A 
ATOM     87  F   UNL A   1      48.990  27.086  24.424  1.00  0.00    -0.206 F 
ATOM     88  C   UNL A   1      51.067  26.060  24.810  1.00  0.00     0.059 A 
ATOM     89  C   UNL A   1      51.630  25.282  27.040  1.00  0.00     0.059 A 
ATOM     90  F   UNL A   1      50.083  25.540  28.784  1.00  0.00    -0.206 F 
ATOM     91  C   UNL A   1      51.960  25.456  25.698  1.00  0.00     0.060 A 
BRANCH  91  92
ATOM     92  S   UNL A   1      53.581  24.947  25.085  1.00  0.00     0.124 S 
ATOM     93  O   UNL A   1      53.632  25.622  23.794  1.00  0.00    -0.237 OA
ATOM     94  O   UNL A   1      54.475  25.467  26.115  1.00  0.00    -0.237 OA
ATOM     95  O   UNL A   1      53.477  23.492  25.034  1.00  0.00    -0.744 OA
ENDBRANCH  91  92
ENDBRANCH  59  84
BRANCH  71  96
ATOM     96  C   UNL A   1      47.211  32.523  28.984  1.00  0.00     0.058 A 
ATOM     97  C   UNL A   1      47.255  33.542  28.022  1.00  0.00     0.135 A 
ATOM     98  C   UNL A   1      47.734  32.796  30.259  1.00  0.00     0.135 A 
ATOM     99  F   UNL A   1      46.777  33.327  26.786  1.00  0.00    -0.206 F 
ATOM    100  C   UNL A   1      47.792  34.792  28.316  1.00  0.00     0.059 A 
ATOM    101  C   UNL A   1      48.253  34.045  30.582  1.00  0.00     0.059 A 
ATOM    102  F   UNL A   1      47.710  31.855  31.215  1.00  0.00    -0.206 F 
ATOM    103  C   UNL A   1      48.278  35.037  29.601  1.00  0.00     0.060 A 
BRANCH 103 104
ATOM    104  S   UNL A   1      48.893  36.689  29.993  1.00  0.00     0.124 S 
ATOM    105  O   UNL A   1      47.694  37.330  30.525  1.00  0.00    -0.237 OA
ATOM    106  O   UNL A   1      49.945  36.407  30.964  1.00  0.00    -0.237 OA
ATOM    107  O   UNL A   1      49.356  37.195  28.704  1.00  0.00    -0.744 OA
ENDBRANCH 103 104
ENDBRANCH  71  96
ENDBRANCH  45  46
ENDBRANCH  37  40
ENDBRANCH  35  36
ENDBRANCH  34  35
ENDBRANCH  33  34
ENDBRANCH   1  33
TORSDOF 20
ENDMDL
