MODEL 1
REMARK VINA RESULT:     -10.6      0.000      0.000
REMARK SMILES CC/C(=C/C(=O)[C@H](Cc1ccc(Cl)cc1Cl)C(=O)NCCCCCCNC(=O)c1ccc(-c2c3nc(c(-c4c(F)cc(S(=O)(=O)[O-])cc4F)c4ccc([nH]4)c(-c4c(F)cc(S(=O)(=O)[O-])cc4F)c4nc(c(-c5c(F)cc(S(=O)(=O)[O-])cc5F)c5ccc2[nH]5)C=C4)C=C3)cc1)N(C)C
REMARK SMILES IDX 22 1 21 2 20 3 19 4 17 5 18 6 7 8 5 9 6 10 4 11 3 12 2 13
REMARK SMILES IDX 1 14 95 15 96 16 97 17 8 18 9 19 10 20 15 21 11 22 14 23
REMARK SMILES IDX 16 24 12 25 13 26 23 27 24 28 25 29 26 30 27 31 28 33 29 34
REMARK SMILES IDX 30 35 94 36 31 37 93 38 32 39 33 40 34 41 87 42 35 43 92 44
REMARK SMILES IDX 86 45 88 46 36 47 91 48 85 49 84 50 37 52 71 53 50 54 70 55
REMARK SMILES IDX 51 56 54 57 69 58 89 59 52 60 53 61 68 63 90 64 55 65 38 66
REMARK SMILES IDX 39 67 48 68 40 69 41 70 47 71 49 72 42 73 43 74 44 75 45 76
REMARK SMILES IDX 46 77 72 78 73 79 82 80 74 81 75 82 81 83 83 84 76 85 77 86
REMARK SMILES IDX 78 87 79 88 80 89 56 90 57 91 66 92 58 93 59 94 65 95 67 96
REMARK SMILES IDX 60 97 61 98 62 99 63 100 64 101
REMARK H PARENT 19 7 26 32 88 51 54 62
REMARK Flexibility Score: inf
ROOT
ATOM      1  C   UNL A   1      36.179  21.172  25.188  1.00  0.00     0.002 C 
ENDROOT
BRANCH   1   2
ATOM      2  C   UNL A   1      35.272  22.324  24.723  1.00  0.00     0.021 C 
BRANCH   2   3
ATOM      3  C   UNL A   1      35.191  23.445  25.736  1.00  0.00     0.116 C 
BRANCH   3   4
ATOM      4  N   UNL A   1      34.532  23.046  26.962  1.00  0.00    -0.355 N 
ATOM      5  C   UNL A   1      33.230  22.753  27.187  1.00  0.00     0.231 C 
ATOM      6  O   UNL A   1      32.920  22.310  28.299  1.00  0.00    -0.274 OA
ATOM      7  H   UNL A   1      35.118  22.977  27.750  1.00  0.00     0.163 HD
BRANCH   5   8
ATOM      8  C   UNL A   1      32.162  23.077  26.189  1.00  0.00     0.154 C 
BRANCH   8   9
ATOM      9  C   UNL A   1      31.240  24.261  26.465  1.00  0.00     0.170 C 
ATOM     10  O   UNL A   1      30.075  24.022  26.825  1.00  0.00    -0.294 OA
BRANCH   9  11
ATOM     11  C   UNL A   1      31.575  25.738  26.364  1.00  0.00     0.069 C 
ATOM     12  C   UNL A   1      31.595  26.784  25.498  1.00  0.00     0.016 C 
BRANCH  12  13
ATOM     13  C   UNL A   1      32.362  28.031  26.000  1.00  0.00     0.050 C 
ATOM     14  C   UNL A   1      33.883  27.855  26.006  1.00  0.00     0.010 C 
ENDBRANCH  12  13
BRANCH  12  15
ATOM     15  N   UNL A   1      31.099  26.879  24.188  1.00  0.00    -0.381 N 
ATOM     16  C   UNL A   1      31.602  26.058  23.070  1.00  0.00     0.143 C 
ATOM     17  C   UNL A   1      30.366  28.050  23.699  1.00  0.00     0.143 C 
ENDBRANCH  12  15
ENDBRANCH   9  11
ENDBRANCH   8   9
BRANCH   8  18
ATOM     18  C   UNL A   1      31.396  21.773  25.707  1.00  0.00     0.059 C 
BRANCH  18  19
ATOM     19  C   UNL A   1      32.254  20.710  25.013  1.00  0.00    -0.028 A 
ATOM     20  C   UNL A   1      32.865  19.705  25.782  1.00  0.00     0.007 A 
ATOM     21  C   UNL A   1      32.272  20.557  23.617  1.00  0.00     0.045 A 
ATOM     22  C   UNL A   1      33.247  18.496  25.192  1.00  0.00     0.021 A 
ATOM     23  C   UNL A   1      32.534  19.311  23.042  1.00  0.00     0.041 A 
ATOM     24  Cl  UNL A   1      32.036  21.900  22.556  1.00  0.00    -0.084 Cl
ATOM     25  C   UNL A   1      32.981  18.271  23.845  1.00  0.00     0.042 A 
ATOM     26  Cl  UNL A   1      33.208  16.704  23.172  1.00  0.00    -0.084 Cl
ENDBRANCH  18  19
ENDBRANCH   8  18
ENDBRANCH   5   8
ENDBRANCH   3   4
ENDBRANCH   2   3
ENDBRANCH   1   2
BRANCH   1  27
ATOM     27  C   UNL A   1      37.679  21.460  25.206  1.00  0.00     0.002 C 
BRANCH  27  28
ATOM     28  C   UNL A   1      38.576  20.239  25.348  1.00  0.00     0.021 C 
BRANCH  28  29
ATOM     29  C   UNL A   1      39.659  20.418  26.396  1.00  0.00     0.116 C 
BRANCH  29  30
ATOM     30  N   UNL A   1      40.681  19.394  26.254  1.00  0.00    -0.352 N 
ATOM     31  C   UNL A   1      42.013  19.609  26.002  1.00  0.00     0.251 C 
ATOM     32  H   UNL A   1      40.389  18.459  26.347  1.00  0.00     0.163 HD
ATOM     33  O   UNL A   1      42.740  18.718  25.595  1.00  0.00    -0.269 OA
BRANCH  31  34
ATOM     34  C   UNL A   1      42.521  20.972  26.243  1.00  0.00     0.039 A 
ATOM     35  C   UNL A   1      42.633  21.867  25.180  1.00  0.00     0.014 A 
ATOM     36  C   UNL A   1      42.782  21.369  27.560  1.00  0.00     0.014 A 
ATOM     37  C   UNL A   1      43.003  23.185  25.444  1.00  0.00     0.010 A 
ATOM     38  C   UNL A   1      43.073  22.699  27.825  1.00  0.00     0.010 A 
ATOM     39  C   UNL A   1      43.218  23.608  26.767  1.00  0.00    -0.014 A 
BRANCH  39  40
ATOM     40  C   UNL A   1      43.683  24.981  27.070  1.00  0.00     0.031 A 
ATOM     41  C   UNL A   1      45.129  25.325  26.840  1.00  0.00     0.074 A 
ATOM     42  C   UNL A   1      42.832  25.884  27.594  1.00  0.00     0.049 A 
ATOM     43  N   UNL A   1      45.768  26.434  27.104  1.00  0.00    -0.248 NA
ATOM     44  C   UNL A   1      45.979  24.265  26.270  1.00  0.00     0.031 C 
ATOM     45  C   UNL A   1      41.421  25.640  27.904  1.00  0.00     0.029 A 
ATOM     46  N   UNL A   1      43.034  27.186  27.968  1.00  0.00    -0.354 N 
ATOM     47  C   UNL A   1      47.091  26.197  26.751  1.00  0.00     0.074 A 
ATOM     48  C   UNL A   1      47.179  24.822  26.316  1.00  0.00     0.031 C 
ATOM     49  C   UNL A   1      40.880  26.767  28.399  1.00  0.00     0.029 A 
ATOM     50  C   UNL A   1      41.910  27.798  28.471  1.00  0.00     0.049 A 
ATOM     51  H   UNL A   1      43.903  27.642  27.885  1.00  0.00     0.167 HD
ATOM     52  C   UNL A   1      48.134  27.060  26.758  1.00  0.00     0.037 A 
ATOM     53  C   UNL A   1      41.737  29.051  28.936  1.00  0.00     0.037 A 
ATOM     54  C   UNL A   1      48.024  28.436  27.157  1.00  0.00     0.049 A 
ATOM     55  C   UNL A   1      42.907  29.999  28.917  1.00  0.00     0.074 A 
ATOM     56  C   UNL A   1      49.000  29.416  27.151  1.00  0.00     0.029 A 
ATOM     57  N   UNL A   1      46.860  29.030  27.625  1.00  0.00    -0.354 N 
ATOM     58  N   UNL A   1      44.141  29.778  28.525  1.00  0.00    -0.248 NA
ATOM     59  C   UNL A   1      42.663  31.367  29.394  1.00  0.00     0.031 C 
ATOM     60  C   UNL A   1      48.435  30.594  27.651  1.00  0.00     0.029 A 
ATOM     61  C   UNL A   1      47.096  30.360  27.924  1.00  0.00     0.049 A 
ATOM     62  H   UNL A   1      45.995  28.571  27.731  1.00  0.00     0.167 HD
ATOM     63  C   UNL A   1      44.811  30.986  28.678  1.00  0.00     0.074 A 
ATOM     64  C   UNL A   1      43.843  31.936  29.190  1.00  0.00     0.031 C 
ATOM     65  C   UNL A   1      46.108  31.287  28.418  1.00  0.00     0.037 A 
BRANCH  52  66
ATOM     66  C   UNL A   1      49.471  26.539  26.307  1.00  0.00     0.058 A 
ATOM     67  C   UNL A   1      50.273  25.746  27.145  1.00  0.00     0.135 A 
ATOM     68  C   UNL A   1      49.953  26.822  25.019  1.00  0.00     0.135 A 
ATOM     69  F   UNL A   1      49.871  25.462  28.395  1.00  0.00    -0.206 F 
ATOM     70  C   UNL A   1      51.517  25.281  26.736  1.00  0.00     0.059 A 
ATOM     71  C   UNL A   1      51.183  26.342  24.578  1.00  0.00     0.059 A 
ATOM     72  F   UNL A   1      49.231  27.578  24.178  1.00  0.00    -0.206 F 
ATOM     73  C   UNL A   1      51.965  25.585  25.449  1.00  0.00     0.060 A 
BRANCH  73  74
ATOM     74  S   UNL A   1      53.580  24.968  24.931  1.00  0.00     0.124 S 
ATOM     75  O   UNL A   1      53.558  25.257  23.501  1.00  0.00    -0.237 OA
ATOM     76  O   UNL A   1      54.495  25.781  25.728  1.00  0.00    -0.237 OA
ATOM     77  O   UNL A   1      53.533  23.553  25.287  1.00  0.00    -0.744 OA
ENDBRANCH  73  74
ENDBRANCH  52  66
BRANCH  53  78
ATOM     78  C   UNL A   1      40.401  29.489  29.420  1.00  0.00     0.058 A 
ATOM     79  C   UNL A   1      40.150  29.655  30.790  1.00  0.00     0.135 A 
ATOM     80  C   UNL A   1      39.354  29.763  28.526  1.00  0.00     0.135 A 
ATOM     81  F   UNL A   1      41.117  29.402  31.684  1.00  0.00    -0.206 F 
ATOM     82  C   UNL A   1      38.904  30.058  31.260  1.00  0.00     0.059 A 
ATOM     83  C   UNL A   1      38.107  30.192  28.971  1.00  0.00     0.059 A 
ATOM     84  F   UNL A   1      39.548  29.639  27.204  1.00  0.00    -0.206 F 
ATOM     85  C   UNL A   1      37.888  30.325  30.342  1.00  0.00     0.060 A 
BRANCH  85  86
ATOM     86  S   UNL A   1      36.288  30.893  30.960  1.00  0.00     0.124 S 
ATOM     87  O   UNL A   1      36.038  29.945  32.040  1.00  0.00    -0.237 OA
ATOM     88  O   UNL A   1      36.586  32.262  31.368  1.00  0.00    -0.237 OA
ATOM     89  O   UNL A   1      35.417  30.770  29.796  1.00  0.00    -0.744 OA
ENDBRANCH  85  86
ENDBRANCH  53  78
BRANCH  65  90
ATOM     90  C   UNL A   1      46.547  32.706  28.644  1.00  0.00     0.058 A 
ATOM     91  C   UNL A   1      46.441  33.678  27.639  1.00  0.00     0.135 A 
ATOM     92  C   UNL A   1      47.019  33.107  29.903  1.00  0.00     0.135 A 
ATOM     93  F   UNL A   1      46.000  33.342  26.417  1.00  0.00    -0.206 F 
ATOM     94  C   UNL A   1      46.807  35.000  27.869  1.00  0.00     0.059 A 
ATOM     95  C   UNL A   1      47.365  34.428  30.164  1.00  0.00     0.059 A 
ATOM     96  F   UNL A   1      47.128  32.215  30.901  1.00  0.00    -0.206 F 
ATOM     97  C   UNL A   1      47.266  35.366  29.137  1.00  0.00     0.060 A 
BRANCH  97  98
ATOM     98  S   UNL A   1      47.699  37.092  29.435  1.00  0.00     0.124 S 
ATOM     99  O   UNL A   1      46.465  37.774  29.059  1.00  0.00    -0.237 OA
ATOM    100  O   UNL A   1      48.015  37.094  30.861  1.00  0.00    -0.237 OA
ATOM    101  O   UNL A   1      48.836  37.315  28.547  1.00  0.00    -0.744 OA
ENDBRANCH  97  98
ENDBRANCH  65  90
ENDBRANCH  39  40
ENDBRANCH  31  34
ENDBRANCH  29  30
ENDBRANCH  28  29
ENDBRANCH  27  28
ENDBRANCH   1  27
TORSDOF 22
ENDMDL
MODEL 2
REMARK VINA RESULT:     -10.6      6.010      8.109
REMARK SMILES CC/C(=C/C(=O)[C@H](Cc1ccc(Cl)cc1Cl)C(=O)NCCCCCCNC(=O)c1ccc(-c2c3nc(c(-c4c(F)cc(S(=O)(=O)[O-])cc4F)c4ccc([nH]4)c(-c4c(F)cc(S(=O)(=O)[O-])cc4F)c4nc(c(-c5c(F)cc(S(=O)(=O)[O-])cc5F)c5ccc2[nH]5)C=C4)C=C3)cc1)N(C)C
REMARK SMILES IDX 22 1 21 2 20 3 19 4 17 5 18 6 7 8 5 9 6 10 4 11 3 12 2 13
REMARK SMILES IDX 1 14 95 15 96 16 97 17 8 18 9 19 10 20 15 21 11 22 14 23
REMARK SMILES IDX 16 24 12 25 13 26 23 27 24 28 25 29 26 30 27 31 28 33 29 34
REMARK SMILES IDX 30 35 94 36 31 37 93 38 32 39 33 40 34 41 87 42 35 43 92 44
REMARK SMILES IDX 86 45 88 46 36 47 91 48 85 49 84 50 37 52 71 53 50 54 70 55
REMARK SMILES IDX 51 56 54 57 69 58 89 59 52 60 53 61 68 63 90 64 55 65 38 66
REMARK SMILES IDX 39 67 48 68 40 69 41 70 47 71 49 72 42 73 43 74 44 75 45 76
REMARK SMILES IDX 46 77 72 78 73 79 82 80 74 81 75 82 81 83 83 84 76 85 77 86
REMARK SMILES IDX 78 87 79 88 80 89 56 90 57 91 66 92 58 93 59 94 65 95 67 96
REMARK SMILES IDX 60 97 61 98 62 99 63 100 64 101
REMARK H PARENT 19 7 26 32 88 51 54 62
REMARK Flexibility Score: inf
ROOT
ATOM      1  C   UNL A   1      36.981  21.826  24.508  1.00  0.00     0.002 C 
ENDROOT
BRANCH   1   2
ATOM      2  C   UNL A   1      36.374  23.011  23.739  1.00  0.00     0.021 C 
BRANCH   2   3
ATOM      3  C   UNL A   1      34.956  23.317  24.167  1.00  0.00     0.116 C 
BRANCH   3   4
ATOM      4  N   UNL A   1      34.774  23.236  25.602  1.00  0.00    -0.355 N 
ATOM      5  C   UNL A   1      33.637  23.092  26.321  1.00  0.00     0.231 C 
ATOM      6  O   UNL A   1      33.743  22.919  27.541  1.00  0.00    -0.274 OA
ATOM      7  H   UNL A   1      35.601  23.294  26.133  1.00  0.00     0.163 HD
BRANCH   5   8
ATOM      8  C   UNL A   1      32.284  23.272  25.708  1.00  0.00     0.154 C 
BRANCH   8   9
ATOM      9  C   UNL A   1      31.378  24.374  26.250  1.00  0.00     0.170 C 
ATOM     10  O   UNL A   1      30.333  24.035  26.833  1.00  0.00    -0.294 OA
BRANCH   9  11
ATOM     11  C   UNL A   1      31.597  25.873  26.178  1.00  0.00     0.069 C 
ATOM     12  C   UNL A   1      31.310  26.972  25.434  1.00  0.00     0.016 C 
BRANCH  12  13
ATOM     13  C   UNL A   1      32.132  28.234  25.790  1.00  0.00     0.050 C 
ATOM     14  C   UNL A   1      33.224  27.981  26.835  1.00  0.00     0.010 C 
ENDBRANCH  12  13
BRANCH  12  15
ATOM     15  N   UNL A   1      30.443  27.118  24.339  1.00  0.00    -0.381 N 
ATOM     16  C   UNL A   1      30.427  28.311  23.472  1.00  0.00     0.143 C 
ATOM     17  C   UNL A   1      29.210  26.338  24.194  1.00  0.00     0.143 C 
ENDBRANCH  12  15
ENDBRANCH   9  11
ENDBRANCH   8   9
BRANCH   8  18
ATOM     18  C   UNL A   1      31.545  21.883  25.502  1.00  0.00     0.059 C 
BRANCH  18  19
ATOM     19  C   UNL A   1      32.380  20.768  24.864  1.00  0.00    -0.028 A 
ATOM     20  C   UNL A   1      33.045  19.844  25.687  1.00  0.00     0.007 A 
ATOM     21  C   UNL A   1      32.326  20.487  23.488  1.00  0.00     0.045 A 
ATOM     22  C   UNL A   1      33.412  18.589  25.191  1.00  0.00     0.021 A 
ATOM     23  C   UNL A   1      32.575  19.196  23.017  1.00  0.00     0.041 A 
ATOM     24  Cl  UNL A   1      32.016  21.724  22.322  1.00  0.00    -0.084 Cl
ATOM     25  C   UNL A   1      33.079  18.238  23.886  1.00  0.00     0.042 A 
ATOM     26  Cl  UNL A   1      33.291  16.618  23.349  1.00  0.00    -0.084 Cl
ENDBRANCH  18  19
ENDBRANCH   8  18
ENDBRANCH   5   8
ENDBRANCH   3   4
ENDBRANCH   2   3
ENDBRANCH   1   2
BRANCH   1  27
ATOM     27  C   UNL A   1      38.195  22.138  25.381  1.00  0.00     0.002 C 
BRANCH  27  28
ATOM     28  C   UNL A   1      37.929  23.061  26.562  1.00  0.00     0.021 C 
BRANCH  28  29
ATOM     29  C   UNL A   1      38.648  24.393  26.444  1.00  0.00     0.116 C 
BRANCH  29  30
ATOM     30  N   UNL A   1      40.040  24.191  26.079  1.00  0.00    -0.352 N 
ATOM     31  C   UNL A   1      41.088  25.020  26.393  1.00  0.00     0.251 C 
ATOM     32  H   UNL A   1      40.251  23.382  25.558  1.00  0.00     0.163 HD
ATOM     33  O   UNL A   1      42.155  24.954  25.805  1.00  0.00    -0.269 OA
BRANCH  31  34
ATOM     34  C   UNL A   1      40.859  25.999  27.472  1.00  0.00     0.039 A 
ATOM     35  C   UNL A   1      39.929  25.721  28.471  1.00  0.00     0.014 A 
ATOM     36  C   UNL A   1      41.664  27.143  27.523  1.00  0.00     0.014 A 
ATOM     37  C   UNL A   1      39.809  26.602  29.545  1.00  0.00     0.010 A 
ATOM     38  C   UNL A   1      41.596  27.973  28.632  1.00  0.00     0.010 A 
ATOM     39  C   UNL A   1      40.646  27.728  29.634  1.00  0.00    -0.014 A 
BRANCH  39  40
ATOM     40  C   UNL A   1      40.492  28.718  30.724  1.00  0.00     0.031 A 
ATOM     41  C   UNL A   1      41.361  28.593  31.946  1.00  0.00     0.074 A 
ATOM     42  C   UNL A   1      39.551  29.677  30.640  1.00  0.00     0.049 A 
ATOM     43  N   UNL A   1      41.347  29.296  33.047  1.00  0.00    -0.248 NA
ATOM     44  C   UNL A   1      42.355  27.505  31.943  1.00  0.00     0.031 C 
ATOM     45  C   UNL A   1      38.622  29.859  29.522  1.00  0.00     0.029 A 
ATOM     46  N   UNL A   1      39.215  30.676  31.516  1.00  0.00    -0.354 N 
ATOM     47  C   UNL A   1      42.311  28.726  33.869  1.00  0.00     0.074 A 
ATOM     48  C   UNL A   1      42.846  27.580  33.170  1.00  0.00     0.031 C 
ATOM     49  C   UNL A   1      37.837  30.921  29.772  1.00  0.00     0.029 A 
ATOM     50  C   UNL A   1      38.185  31.474  31.078  1.00  0.00     0.049 A 
ATOM     51  H   UNL A   1      39.669  30.809  32.380  1.00  0.00     0.167 HD
ATOM     52  C   UNL A   1      42.737  29.141  35.085  1.00  0.00     0.037 A 
ATOM     53  C   UNL A   1      37.593  32.530  31.667  1.00  0.00     0.037 A 
ATOM     54  C   UNL A   1      42.222  30.305  35.752  1.00  0.00     0.049 A 
ATOM     55  C   UNL A   1      38.095  32.985  33.013  1.00  0.00     0.074 A 
ATOM     56  C   UNL A   1      42.617  30.851  36.960  1.00  0.00     0.029 A 
ATOM     57  N   UNL A   1      41.204  31.110  35.259  1.00  0.00    -0.354 N 
ATOM     58  N   UNL A   1      39.049  32.470  33.753  1.00  0.00    -0.248 NA
ATOM     59  C   UNL A   1      37.449  34.167  33.599  1.00  0.00     0.031 C 
ATOM     60  C   UNL A   1      41.812  31.966  37.215  1.00  0.00     0.029 A 
ATOM     61  C   UNL A   1      40.948  32.141  36.144  1.00  0.00     0.049 A 
ATOM     62  H   UNL A   1      40.734  30.966  34.406  1.00  0.00     0.167 HD
ATOM     63  C   UNL A   1      39.139  33.283  34.878  1.00  0.00     0.074 A 
ATOM     64  C   UNL A   1      38.148  34.329  34.714  1.00  0.00     0.031 C 
ATOM     65  C   UNL A   1      39.965  33.178  35.948  1.00  0.00     0.037 A 
BRANCH  52  66
ATOM     66  C   UNL A   1      43.817  28.336  35.756  1.00  0.00     0.058 A 
ATOM     67  C   UNL A   1      45.178  28.593  35.522  1.00  0.00     0.135 A 
ATOM     68  C   UNL A   1      43.490  27.307  36.652  1.00  0.00     0.135 A 
ATOM     69  F   UNL A   1      45.548  29.552  34.658  1.00  0.00    -0.206 F 
ATOM     70  C   UNL A   1      46.175  27.837  36.127  1.00  0.00     0.059 A 
ATOM     71  C   UNL A   1      44.473  26.556  37.292  1.00  0.00     0.059 A 
ATOM     72  F   UNL A   1      42.205  27.015  36.909  1.00  0.00    -0.206 F 
ATOM     73  C   UNL A   1      45.813  26.819  37.011  1.00  0.00     0.060 A 
BRANCH  73  74
ATOM     74  S   UNL A   1      47.121  25.851  37.793  1.00  0.00     0.124 S 
ATOM     75  O   UNL A   1      47.668  26.814  38.743  1.00  0.00    -0.237 OA
ATOM     76  O   UNL A   1      46.379  24.737  38.377  1.00  0.00    -0.237 OA
ATOM     77  O   UNL A   1      47.996  25.501  36.678  1.00  0.00    -0.744 OA
ENDBRANCH  73  74
ENDBRANCH  52  66
BRANCH  53  78
ATOM     78  C   UNL A   1      36.492  33.251  30.975  1.00  0.00     0.058 A 
ATOM     79  C   UNL A   1      36.753  34.072  29.868  1.00  0.00     0.135 A 
ATOM     80  C   UNL A   1      35.159  33.126  31.394  1.00  0.00     0.135 A 
ATOM     81  F   UNL A   1      38.012  34.228  29.431  1.00  0.00    -0.206 F 
ATOM     82  C   UNL A   1      35.736  34.759  29.212  1.00  0.00     0.059 A 
ATOM     83  C   UNL A   1      34.121  33.782  30.739  1.00  0.00     0.059 A 
ATOM     84  F   UNL A   1      34.852  32.337  32.436  1.00  0.00    -0.206 F 
ATOM     85  C   UNL A   1      34.422  34.607  29.655  1.00  0.00     0.060 A 
BRANCH  85  86
ATOM     86  S   UNL A   1      33.104  35.466  28.767  1.00  0.00     0.124 S 
ATOM     87  O   UNL A   1      32.473  34.367  28.045  1.00  0.00    -0.237 OA
ATOM     88  O   UNL A   1      32.326  36.043  29.858  1.00  0.00    -0.237 OA
ATOM     89  O   UNL A   1      33.827  36.430  27.944  1.00  0.00    -0.744 OA
ENDBRANCH  85  86
ENDBRANCH  53  78
BRANCH  65  90
ATOM     90  C   UNL A   1      39.863  34.239  37.006  1.00  0.00     0.058 A 
ATOM     91  C   UNL A   1      39.022  34.092  38.119  1.00  0.00     0.135 A 
ATOM     92  C   UNL A   1      40.668  35.388  36.935  1.00  0.00     0.135 A 
ATOM     93  F   UNL A   1      38.230  33.014  38.230  1.00  0.00    -0.206 F 
ATOM     94  C   UNL A   1      38.967  35.059  39.117  1.00  0.00     0.059 A 
ATOM     95  C   UNL A   1      40.649  36.353  37.935  1.00  0.00     0.059 A 
ATOM     96  F   UNL A   1      41.498  35.568  35.895  1.00  0.00    -0.206 F 
ATOM     97  C   UNL A   1      39.787  36.185  39.018  1.00  0.00     0.060 A 
BRANCH  97  98
ATOM     98  S   UNL A   1      39.736  37.412  40.340  1.00  0.00     0.124 S 
ATOM     99  O   UNL A   1      39.883  36.573  41.525  1.00  0.00    -0.237 OA
ATOM    100  O   UNL A   1      40.878  38.264  40.020  1.00  0.00    -0.237 OA
ATOM    101  O   UNL A   1      38.429  38.039  40.172  1.00  0.00    -0.744 OA
ENDBRANCH  97  98
ENDBRANCH  65  90
ENDBRANCH  39  40
ENDBRANCH  31  34
ENDBRANCH  29  30
ENDBRANCH  28  29
ENDBRANCH  27  28
ENDBRANCH   1  27
TORSDOF 22
ENDMDL
MODEL 3
REMARK VINA RESULT:     -10.5      2.389      8.473
REMARK SMILES CC/C(=C/C(=O)[C@H](Cc1ccc(Cl)cc1Cl)C(=O)NCCCCCCNC(=O)c1ccc(-c2c3nc(c(-c4c(F)cc(S(=O)(=O)[O-])cc4F)c4ccc([nH]4)c(-c4c(F)cc(S(=O)(=O)[O-])cc4F)c4nc(c(-c5c(F)cc(S(=O)(=O)[O-])cc5F)c5ccc2[nH]5)C=C4)C=C3)cc1)N(C)C
REMARK SMILES IDX 22 1 21 2 20 3 19 4 17 5 18 6 7 8 5 9 6 10 4 11 3 12 2 13
REMARK SMILES IDX 1 14 95 15 96 16 97 17 8 18 9 19 10 20 15 21 11 22 14 23
REMARK SMILES IDX 16 24 12 25 13 26 23 27 24 28 25 29 26 30 27 31 28 33 29 34
REMARK SMILES IDX 30 35 94 36 31 37 93 38 32 39 33 40 34 41 87 42 35 43 92 44
REMARK SMILES IDX 86 45 88 46 36 47 91 48 85 49 84 50 37 52 71 53 50 54 70 55
REMARK SMILES IDX 51 56 54 57 69 58 89 59 52 60 53 61 68 63 90 64 55 65 38 66
REMARK SMILES IDX 39 67 48 68 40 69 41 70 47 71 49 72 42 73 43 74 44 75 45 76
REMARK SMILES IDX 46 77 72 78 73 79 82 80 74 81 75 82 81 83 83 84 76 85 77 86
REMARK SMILES IDX 78 87 79 88 80 89 56 90 57 91 66 92 58 93 59 94 65 95 67 96
REMARK SMILES IDX 60 97 61 98 62 99 63 100 64 101
REMARK H PARENT 19 7 26 32 88 51 54 62
REMARK Flexibility Score: inf
ROOT
ATOM      1  C   UNL A   1      31.921  30.210  26.860  1.00  0.00     0.002 C 
ENDROOT
BRANCH   1   2
ATOM      2  C   UNL A   1      31.691  28.814  26.256  1.00  0.00     0.021 C 
BRANCH   2   3
ATOM      3  C   UNL A   1      31.399  27.767  27.307  1.00  0.00     0.116 C 
BRANCH   3   4
ATOM      4  N   UNL A   1      30.699  26.617  26.774  1.00  0.00    -0.355 N 
ATOM      5  C   UNL A   1      31.182  25.412  26.392  1.00  0.00     0.231 C 
ATOM      6  O   UNL A   1      30.368  24.534  26.084  1.00  0.00    -0.274 OA
ATOM      7  H   UNL A   1      29.726  26.729  26.674  1.00  0.00     0.163 HD
BRANCH   5   8
ATOM      8  C   UNL A   1      32.648  25.170  26.207  1.00  0.00     0.154 C 
BRANCH   8   9
ATOM      9  C   UNL A   1      33.344  25.795  25.002  1.00  0.00     0.170 C 
ATOM     10  O   UNL A   1      34.466  26.302  25.174  1.00  0.00    -0.294 OA
BRANCH   9  11
ATOM     11  C   UNL A   1      32.834  25.873  23.575  1.00  0.00     0.069 C 
ATOM     12  C   UNL A   1      32.361  26.741  22.643  1.00  0.00     0.016 C 
BRANCH  12  13
ATOM     13  C   UNL A   1      31.716  26.077  21.403  1.00  0.00     0.050 C 
ATOM     14  C   UNL A   1      32.727  25.397  20.474  1.00  0.00     0.010 C 
ENDBRANCH  12  13
BRANCH  12  15
ATOM     15  N   UNL A   1      32.293  28.143  22.669  1.00  0.00    -0.381 N 
ATOM     16  C   UNL A   1      33.437  29.002  23.031  1.00  0.00     0.143 C 
ATOM     17  C   UNL A   1      31.027  28.875  22.763  1.00  0.00     0.143 C 
ENDBRANCH  12  15
ENDBRANCH   9  11
ENDBRANCH   8   9
BRANCH   8  18
ATOM     18  C   UNL A   1      33.022  23.645  26.438  1.00  0.00     0.059 C 
BRANCH  18  19
ATOM     19  C   UNL A   1      34.275  23.145  25.711  1.00  0.00    -0.028 A 
ATOM     20  C   UNL A   1      35.541  23.389  26.268  1.00  0.00     0.007 A 
ATOM     21  C   UNL A   1      34.205  22.252  24.628  1.00  0.00     0.045 A 
ATOM     22  C   UNL A   1      36.635  22.589  25.919  1.00  0.00     0.021 A 
ATOM     23  C   UNL A   1      35.257  21.370  24.366  1.00  0.00     0.041 A 
ATOM     24  Cl  UNL A   1      32.860  22.245  23.544  1.00  0.00    -0.084 Cl
ATOM     25  C   UNL A   1      36.456  21.518  25.048  1.00  0.00     0.042 A 
ATOM     26  Cl  UNL A   1      37.723  20.378  24.814  1.00  0.00    -0.084 Cl
ENDBRANCH  18  19
ENDBRANCH   8  18
ENDBRANCH   5   8
ENDBRANCH   3   4
ENDBRANCH   2   3
ENDBRANCH   1   2
BRANCH   1  27
ATOM     27  C   UNL A   1      33.360  30.552  27.240  1.00  0.00     0.002 C 
BRANCH  27  28
ATOM     28  C   UNL A   1      34.424  29.624  26.670  1.00  0.00     0.021 C 
BRANCH  28  29
ATOM     29  C   UNL A   1      35.436  29.175  27.709  1.00  0.00     0.116 C 
BRANCH  29  30
ATOM     30  N   UNL A   1      35.397  30.050  28.870  1.00  0.00    -0.352 N 
ATOM     31  C   UNL A   1      36.403  30.222  29.788  1.00  0.00     0.251 C 
ATOM     32  H   UNL A   1      34.570  30.566  29.010  1.00  0.00     0.163 HD
ATOM     33  O   UNL A   1      36.194  30.721  30.881  1.00  0.00    -0.269 OA
BRANCH  31  34
ATOM     34  C   UNL A   1      37.748  29.770  29.389  1.00  0.00     0.039 A 
ATOM     35  C   UNL A   1      38.161  29.909  28.065  1.00  0.00     0.014 A 
ATOM     36  C   UNL A   1      38.622  29.306  30.379  1.00  0.00     0.014 A 
ATOM     37  C   UNL A   1      39.475  29.585  27.731  1.00  0.00     0.010 A 
ATOM     38  C   UNL A   1      39.948  29.060  30.057  1.00  0.00     0.010 A 
ATOM     39  C   UNL A   1      40.376  29.166  28.725  1.00  0.00    -0.014 A 
BRANCH  39  40
ATOM     40  C   UNL A   1      41.755  28.747  28.387  1.00  0.00     0.031 A 
ATOM     41  C   UNL A   1      42.846  29.783  28.373  1.00  0.00     0.074 A 
ATOM     42  C   UNL A   1      42.010  27.469  28.047  1.00  0.00     0.049 A 
ATOM     43  N   UNL A   1      44.102  29.658  28.035  1.00  0.00    -0.248 NA
ATOM     44  C   UNL A   1      42.462  31.154  28.755  1.00  0.00     0.031 C 
ATOM     45  C   UNL A   1      41.018  26.394  27.980  1.00  0.00     0.029 A 
ATOM     46  N   UNL A   1      43.183  26.861  27.683  1.00  0.00    -0.354 N 
ATOM     47  C   UNL A   1      44.649  30.931  28.146  1.00  0.00     0.074 A 
ATOM     48  C   UNL A   1      43.577  31.827  28.517  1.00  0.00     0.031 C 
ATOM     49  C   UNL A   1      41.631  25.253  27.620  1.00  0.00     0.029 A 
ATOM     50  C   UNL A   1      43.049  25.522  27.401  1.00  0.00     0.049 A 
ATOM     51  H   UNL A   1      44.043  27.339  27.628  1.00  0.00     0.167 HD
ATOM     52  C   UNL A   1      45.936  31.313  27.985  1.00  0.00     0.037 A 
ATOM     53  C   UNL A   1      43.969  24.619  27.012  1.00  0.00     0.037 A 
ATOM     54  C   UNL A   1      47.000  30.405  27.652  1.00  0.00     0.049 A 
ATOM     55  C   UNL A   1      45.400  25.064  26.856  1.00  0.00     0.074 A 
ATOM     56  C   UNL A   1      48.350  30.671  27.518  1.00  0.00     0.029 A 
ATOM     57  N   UNL A   1      46.830  29.049  27.411  1.00  0.00    -0.354 N 
ATOM     58  N   UNL A   1      45.913  26.261  27.021  1.00  0.00    -0.248 NA
ATOM     59  C   UNL A   1      46.377  24.037  26.471  1.00  0.00     0.031 C 
ATOM     60  C   UNL A   1      48.992  29.481  27.160  1.00  0.00     0.029 A 
ATOM     61  C   UNL A   1      48.049  28.466  27.116  1.00  0.00     0.049 A 
ATOM     62  H   UNL A   1      45.968  28.573  27.444  1.00  0.00     0.167 HD
ATOM     63  C   UNL A   1      47.278  26.125  26.790  1.00  0.00     0.074 A 
ATOM     64  C   UNL A   1      47.510  24.727  26.483  1.00  0.00     0.031 C 
ATOM     65  C   UNL A   1      48.253  27.068  26.829  1.00  0.00     0.037 A 
BRANCH  52  66
ATOM     66  C   UNL A   1      46.259  32.770  28.180  1.00  0.00     0.058 A 
ATOM     67  C   UNL A   1      46.152  33.696  27.128  1.00  0.00     0.135 A 
ATOM     68  C   UNL A   1      46.668  33.251  29.434  1.00  0.00     0.135 A 
ATOM     69  F   UNL A   1      45.786  33.287  25.903  1.00  0.00    -0.206 F 
ATOM     70  C   UNL A   1      46.470  35.037  27.304  1.00  0.00     0.059 A 
ATOM     71  C   UNL A   1      46.963  34.596  29.640  1.00  0.00     0.059 A 
ATOM     72  F   UNL A   1      46.792  32.410  30.473  1.00  0.00    -0.206 F 
ATOM     73  C   UNL A   1      46.875  35.479  28.565  1.00  0.00     0.060 A 
BRANCH  73  74
ATOM     74  S   UNL A   1      47.277  37.225  28.777  1.00  0.00     0.124 S 
ATOM     75  O   UNL A   1      47.422  37.661  27.392  1.00  0.00    -0.237 OA
ATOM     76  O   UNL A   1      46.104  37.733  29.482  1.00  0.00    -0.237 OA
ATOM     77  O   UNL A   1      48.510  37.197  29.558  1.00  0.00    -0.744 OA
ENDBRANCH  73  74
ENDBRANCH  52  66
BRANCH  53  78
ATOM     78  C   UNL A   1      43.575  23.204  26.781  1.00  0.00     0.058 A 
ATOM     79  C   UNL A   1      43.238  22.366  27.855  1.00  0.00     0.135 A 
ATOM     80  C   UNL A   1      43.516  22.663  25.487  1.00  0.00     0.135 A 
ATOM     81  F   UNL A   1      43.285  22.835  29.111  1.00  0.00    -0.206 F 
ATOM     82  C   UNL A   1      42.874  21.038  27.658  1.00  0.00     0.059 A 
ATOM     83  C   UNL A   1      43.129  21.345  25.263  1.00  0.00     0.059 A 
ATOM     84  F   UNL A   1      43.809  23.428  24.424  1.00  0.00    -0.206 F 
ATOM     85  C   UNL A   1      42.821  20.537  26.357  1.00  0.00     0.060 A 
BRANCH  85  86
ATOM     86  S   UNL A   1      42.302  18.824  26.109  1.00  0.00     0.124 S 
ATOM     87  O   UNL A   1      43.213  18.391  25.056  1.00  0.00    -0.237 OA
ATOM     88  O   UNL A   1      42.525  18.242  27.428  1.00  0.00    -0.237 OA
ATOM     89  O   UNL A   1      40.901  18.953  25.719  1.00  0.00    -0.744 OA
ENDBRANCH  85  86
ENDBRANCH  53  78
BRANCH  65  90
ATOM     90  C   UNL A   1      49.662  26.615  26.574  1.00  0.00     0.058 A 
ATOM     91  C   UNL A   1      50.226  26.652  25.291  1.00  0.00     0.135 A 
ATOM     92  C   UNL A   1      50.475  26.201  27.641  1.00  0.00     0.135 A 
ATOM     93  F   UNL A   1      49.488  27.035  24.238  1.00  0.00    -0.206 F 
ATOM     94  C   UNL A   1      51.546  26.274  25.070  1.00  0.00     0.059 A 
ATOM     95  C   UNL A   1      51.805  25.845  27.447  1.00  0.00     0.059 A 
ATOM     96  F   UNL A   1      49.984  26.160  28.890  1.00  0.00    -0.206 F 
ATOM     97  C   UNL A   1      52.329  25.874  26.156  1.00  0.00     0.060 A 
BRANCH  97  98
ATOM     98  S   UNL A   1      54.052  25.425  25.862  1.00  0.00     0.124 S 
ATOM     99  O   UNL A   1      54.574  26.646  25.257  1.00  0.00    -0.237 OA
ATOM    100  O   UNL A   1      54.532  25.129  27.209  1.00  0.00    -0.237 OA
ATOM    101  O   UNL A   1      53.956  24.274  24.970  1.00  0.00    -0.744 OA
ENDBRANCH  97  98
ENDBRANCH  65  90
ENDBRANCH  39  40
ENDBRANCH  31  34
ENDBRANCH  29  30
ENDBRANCH  28  29
ENDBRANCH  27  28
ENDBRANCH   1  27
TORSDOF 22
ENDMDL
