MODEL 1
REMARK VINA RESULT:     -14.2      0.000      0.000
REMARK SMILES Cc1ccc(-c2cc(Cl)cc3c2O[C@@H](C(F)(F)F)C(C(=O)NCCCCCCNC(=O)c2ccc(-c4c5nc(c(-c6c(F)cc(S(=O)(=O)[O-])cc6F)c6ccc([nH]6)c(-c6c(F)cc(S(=O)(=O)[O-])cc6F)c6nc(c(-c7c(F)cc(S(=O)(=O)[O-])cc7F)c7ccc4[nH]7)C=C6)C=C5)cc2)=C3)cc1
REMARK SMILES IDX 26 1 25 2 24 3 23 4 22 5 20 6 21 7 19 9 6 10 7 11 12 12 8 13
REMARK SMILES IDX 11 14 13 15 9 16 10 17 98 18 14 19 5 20 1 21 2 22 3 23
REMARK SMILES IDX 100 24 4 25 99 26 15 27 16 28 17 29 18 30 27 31 28 32 29 33
REMARK SMILES IDX 30 34 31 36 32 37 33 38 97 39 34 40 96 41 35 42 36 43 37 44
REMARK SMILES IDX 90 45 38 46 95 47 89 48 91 49 39 50 94 51 88 52 87 53 40 55
REMARK SMILES IDX 74 56 53 57 73 58 54 59 57 60 72 61 92 62 55 63 56 64 71 66
REMARK SMILES IDX 93 67 58 68 41 69 42 70 51 71 43 72 44 73 50 74 52 75 45 76
REMARK SMILES IDX 46 77 47 78 48 79 49 80 75 81 76 82 85 83 77 84 78 85 84 86
REMARK SMILES IDX 86 87 79 88 80 89 81 90 82 91 83 92 59 93 60 94 69 95 61 96
REMARK SMILES IDX 62 97 68 98 70 99 63 100 64 101 65 102 66 103 67 104
REMARK H PARENT 22 8 29 35 91 54 57 65
REMARK Flexibility Score: inf
ROOT
ATOM      1  C   UNL A   1      36.776  21.216  25.406  1.00  0.00     0.002 C 
ENDROOT
BRANCH   1   2
ATOM      2  C   UNL A   1      35.269  21.469  25.474  1.00  0.00     0.002 C 
BRANCH   2   3
ATOM      3  C   UNL A   1      34.729  22.422  26.536  1.00  0.00     0.021 C 
BRANCH   3   4
ATOM      4  C   UNL A   1      33.247  22.788  26.589  1.00  0.00     0.116 C 
BRANCH   4   5
ATOM      5  N   UNL A   1      32.849  24.176  26.678  1.00  0.00    -0.352 N 
ATOM      6  C   UNL A   1      31.838  24.870  26.061  1.00  0.00     0.251 C 
ATOM      7  O   UNL A   1      31.488  25.928  26.599  1.00  0.00    -0.270 OA
ATOM      8  H   UNL A   1      33.400  24.717  27.289  1.00  0.00     0.163 HD
BRANCH   6   9
ATOM      9  C   UNL A   1      31.166  24.464  24.735  1.00  0.00     0.067 C 
ATOM     10  C   UNL A   1      31.738  28.283  23.761  1.00  0.00     0.026 A 
ATOM     11  C   UNL A   1      30.736  29.041  23.123  1.00  0.00     0.033 A 
ATOM     12  C   UNL A   1      31.511  26.909  23.792  1.00  0.00     0.135 A 
ATOM     13  C   UNL A   1      29.463  28.498  22.919  1.00  0.00     0.042 A 
ATOM     14  C   UNL A   1      30.179  26.438  23.915  1.00  0.00     0.019 A 
ATOM     15  O   UNL A   1      32.566  25.990  23.600  1.00  0.00    -0.475 OA
ATOM     16  Cl  UNL A   1      28.229  29.469  22.217  1.00  0.00    -0.084 Cl
ATOM     17  C   UNL A   1      29.151  27.228  23.412  1.00  0.00     0.032 A 
ATOM     18  C   UNL A   1      29.969  25.087  24.552  1.00  0.00     0.025 C 
ATOM     19  C   UNL A   1      31.974  24.657  23.467  1.00  0.00     0.314 C 
BRANCH  10  20
ATOM     20  C   UNL A   1      32.297  28.942  24.978  1.00  0.00    -0.015 A 
ATOM     21  C   UNL A   1      33.897  31.465  28.128  1.00  0.00     0.044 C 
ATOM     22  C   UNL A   1      33.324  30.563  27.074  1.00  0.00    -0.051 A 
ATOM     23  C   UNL A   1      34.050  29.470  26.575  1.00  0.00     0.004 A 
ATOM     24  C   UNL A   1      32.050  30.805  26.571  1.00  0.00     0.004 A 
ATOM     25  C   UNL A   1      33.545  28.667  25.533  1.00  0.00     0.009 A 
ATOM     26  C   UNL A   1      31.547  30.001  25.549  1.00  0.00     0.009 A 
ENDBRANCH  10  20
BRANCH  19  27
ATOM     27  C   UNL A   1      32.736  23.414  22.966  1.00  0.00     0.429 C 
ATOM     28  F   UNL A   1      34.030  23.470  23.393  1.00  0.00    -0.167 F 
ATOM     29  F   UNL A   1      32.223  22.258  23.435  1.00  0.00    -0.167 F 
ATOM     30  F   UNL A   1      32.812  23.333  21.618  1.00  0.00    -0.167 F 
ENDBRANCH  19  27
ENDBRANCH   6   9
ENDBRANCH   4   5
ENDBRANCH   3   4
ENDBRANCH   2   3
ENDBRANCH   1   2
BRANCH   1  31
ATOM     31  C   UNL A   1      37.660  22.361  24.922  1.00  0.00     0.021 C 
BRANCH  31  32
ATOM     32  C   UNL A   1      38.120  23.334  26.002  1.00  0.00     0.116 C 
BRANCH  32  33
ATOM     33  N   UNL A   1      39.479  23.072  26.455  1.00  0.00    -0.352 N 
ATOM     34  C   UNL A   1      40.423  23.982  26.899  1.00  0.00     0.251 C 
ATOM     35  H   UNL A   1      39.762  22.129  26.445  1.00  0.00     0.163 HD
ATOM     36  O   UNL A   1      41.600  23.696  27.029  1.00  0.00    -0.269 OA
BRANCH  34  37
ATOM     37  C   UNL A   1      39.923  25.301  27.333  1.00  0.00     0.039 A 
ATOM     38  C   UNL A   1      40.300  26.412  26.569  1.00  0.00     0.014 A 
ATOM     39  C   UNL A   1      39.325  25.454  28.581  1.00  0.00     0.014 A 
ATOM     40  C   UNL A   1      40.231  27.684  27.133  1.00  0.00     0.010 A 
ATOM     41  C   UNL A   1      39.338  26.705  29.169  1.00  0.00     0.010 A 
ATOM     42  C   UNL A   1      39.827  27.812  28.463  1.00  0.00    -0.014 A 
BRANCH  42  43
ATOM     43  C   UNL A   1      39.978  29.045  29.228  1.00  0.00     0.031 A 
ATOM     44  C   UNL A   1      38.923  30.081  29.208  1.00  0.00     0.074 A 
ATOM     45  C   UNL A   1      41.063  29.222  30.013  1.00  0.00     0.049 A 
ATOM     46  N   UNL A   1      39.138  31.334  29.437  1.00  0.00    -0.248 NA
ATOM     47  C   UNL A   1      37.528  29.785  28.895  1.00  0.00     0.031 C 
ATOM     48  C   UNL A   1      41.241  30.233  31.052  1.00  0.00     0.029 A 
ATOM     49  N   UNL A   1      42.317  28.626  29.897  1.00  0.00    -0.354 N 
ATOM     50  C   UNL A   1      37.915  31.948  29.577  1.00  0.00     0.074 A 
ATOM     51  C   UNL A   1      36.944  30.956  29.173  1.00  0.00     0.031 C 
ATOM     52  C   UNL A   1      42.550  30.364  31.315  1.00  0.00     0.029 A 
ATOM     53  C   UNL A   1      43.273  29.546  30.356  1.00  0.00     0.049 A 
ATOM     54  H   UNL A   1      42.499  27.721  29.553  1.00  0.00     0.167 HD
ATOM     55  C   UNL A   1      37.831  33.181  30.153  1.00  0.00     0.037 A 
ATOM     56  C   UNL A   1      44.262  30.008  29.536  1.00  0.00     0.037 A 
ATOM     57  C   UNL A   1      39.146  33.691  30.530  1.00  0.00     0.049 A 
ATOM     58  C   UNL A   1      44.207  31.499  29.288  1.00  0.00     0.074 A 
ATOM     59  C   UNL A   1      39.843  33.672  31.727  1.00  0.00     0.029 A 
ATOM     60  N   UNL A   1      40.067  34.036  29.546  1.00  0.00    -0.354 N 
ATOM     61  N   UNL A   1      43.169  32.246  29.542  1.00  0.00    -0.248 NA
ATOM     62  C   UNL A   1      45.315  32.268  28.726  1.00  0.00     0.031 C 
ATOM     63  C   UNL A   1      41.201  33.959  31.455  1.00  0.00     0.029 A 
ATOM     64  C   UNL A   1      41.330  34.168  30.094  1.00  0.00     0.049 A 
ATOM     65  H   UNL A   1      39.850  34.166  28.594  1.00  0.00     0.167 HD
ATOM     66  C   UNL A   1      43.423  33.540  29.163  1.00  0.00     0.074 A 
ATOM     67  C   UNL A   1      44.793  33.506  28.687  1.00  0.00     0.031 C 
ATOM     68  C   UNL A   1      42.478  34.523  29.271  1.00  0.00     0.037 A 
BRANCH  55  69
ATOM     69  C   UNL A   1      36.521  33.748  30.649  1.00  0.00     0.058 A 
ATOM     70  C   UNL A   1      35.559  34.262  29.752  1.00  0.00     0.135 A 
ATOM     71  C   UNL A   1      36.186  33.864  32.013  1.00  0.00     0.135 A 
ATOM     72  F   UNL A   1      35.704  34.153  28.426  1.00  0.00    -0.206 F 
ATOM     73  C   UNL A   1      34.416  34.941  30.175  1.00  0.00     0.059 A 
ATOM     74  C   UNL A   1      35.074  34.583  32.462  1.00  0.00     0.059 A 
ATOM     75  F   UNL A   1      36.936  33.271  32.955  1.00  0.00    -0.206 F 
ATOM     76  C   UNL A   1      34.198  35.131  31.533  1.00  0.00     0.060 A 
BRANCH  76  77
ATOM     77  S   UNL A   1      32.785  36.126  32.047  1.00  0.00     0.124 S 
ATOM     78  O   UNL A   1      32.461  36.859  30.827  1.00  0.00    -0.237 OA
ATOM     79  O   UNL A   1      31.825  35.103  32.446  1.00  0.00    -0.237 OA
ATOM     80  O   UNL A   1      33.322  36.942  33.132  1.00  0.00    -0.744 OA
ENDBRANCH  76  77
ENDBRANCH  55  69
BRANCH  56  81
ATOM     81  C   UNL A   1      44.746  28.983  28.572  1.00  0.00     0.058 A 
ATOM     82  C   UNL A   1      44.127  28.936  27.307  1.00  0.00     0.135 A 
ATOM     83  C   UNL A   1      46.017  28.403  28.693  1.00  0.00     0.135 A 
ATOM     84  F   UNL A   1      42.902  29.463  27.140  1.00  0.00    -0.206 F 
ATOM     85  C   UNL A   1      44.800  28.486  26.177  1.00  0.00     0.059 A 
ATOM     86  C   UNL A   1      46.710  27.939  27.573  1.00  0.00     0.059 A 
ATOM     87  F   UNL A   1      46.654  28.416  29.872  1.00  0.00    -0.206 F 
ATOM     88  C   UNL A   1      46.117  28.049  26.313  1.00  0.00     0.060 A 
BRANCH  88  89
ATOM     89  S   UNL A   1      47.080  27.796  24.802  1.00  0.00     0.124 S 
ATOM     90  O   UNL A   1      48.445  27.768  25.314  1.00  0.00    -0.237 OA
ATOM     91  O   UNL A   1      46.559  26.515  24.326  1.00  0.00    -0.237 OA
ATOM     92  O   UNL A   1      46.735  28.955  23.988  1.00  0.00    -0.744 OA
ENDBRANCH  88  89
ENDBRANCH  56  81
BRANCH  68  93
ATOM     93  C   UNL A   1      42.569  35.934  28.726  1.00  0.00     0.058 A 
ATOM     94  C   UNL A   1      42.092  36.331  27.466  1.00  0.00     0.135 A 
ATOM     95  C   UNL A   1      43.044  36.987  29.550  1.00  0.00     0.135 A 
ATOM     96  F   UNL A   1      41.511  35.457  26.632  1.00  0.00    -0.206 F 
ATOM     97  C   UNL A   1      42.144  37.657  27.026  1.00  0.00     0.059 A 
ATOM     98  C   UNL A   1      43.052  38.323  29.154  1.00  0.00     0.059 A 
ATOM     99  F   UNL A   1      43.508  36.756  30.788  1.00  0.00    -0.206 F 
ATOM    100  C   UNL A   1      42.625  38.647  27.877  1.00  0.00     0.060 A 
BRANCH 100 101
ATOM    101  S   UNL A   1      42.633  40.370  27.347  1.00  0.00     0.124 S 
ATOM    102  O   UNL A   1      43.405  41.000  28.414  1.00  0.00    -0.237 OA
ATOM    103  O   UNL A   1      43.291  40.309  26.046  1.00  0.00    -0.237 OA
ATOM    104  O   UNL A   1      41.214  40.710  27.307  1.00  0.00    -0.744 OA
ENDBRANCH 100 101
ENDBRANCH  68  93
ENDBRANCH  42  43
ENDBRANCH  34  37
ENDBRANCH  32  33
ENDBRANCH  31  32
ENDBRANCH   1  31
TORSDOF 18
ENDMDL
MODEL 2
REMARK VINA RESULT:     -12.7      1.893      3.184
REMARK SMILES Cc1ccc(-c2cc(Cl)cc3c2O[C@@H](C(F)(F)F)C(C(=O)NCCCCCCNC(=O)c2ccc(-c4c5nc(c(-c6c(F)cc(S(=O)(=O)[O-])cc6F)c6ccc([nH]6)c(-c6c(F)cc(S(=O)(=O)[O-])cc6F)c6nc(c(-c7c(F)cc(S(=O)(=O)[O-])cc7F)c7ccc4[nH]7)C=C6)C=C5)cc2)=C3)cc1
REMARK SMILES IDX 26 1 25 2 24 3 23 4 22 5 20 6 21 7 19 9 6 10 7 11 12 12 8 13
REMARK SMILES IDX 11 14 13 15 9 16 10 17 98 18 14 19 5 20 1 21 2 22 3 23
REMARK SMILES IDX 100 24 4 25 99 26 15 27 16 28 17 29 18 30 27 31 28 32 29 33
REMARK SMILES IDX 30 34 31 36 32 37 33 38 97 39 34 40 96 41 35 42 36 43 37 44
REMARK SMILES IDX 90 45 38 46 95 47 89 48 91 49 39 50 94 51 88 52 87 53 40 55
REMARK SMILES IDX 74 56 53 57 73 58 54 59 57 60 72 61 92 62 55 63 56 64 71 66
REMARK SMILES IDX 93 67 58 68 41 69 42 70 51 71 43 72 44 73 50 74 52 75 45 76
REMARK SMILES IDX 46 77 47 78 48 79 49 80 75 81 76 82 85 83 77 84 78 85 84 86
REMARK SMILES IDX 86 87 79 88 80 89 81 90 82 91 83 92 59 93 60 94 69 95 61 96
REMARK SMILES IDX 62 97 68 98 70 99 63 100 64 101 65 102 66 103 67 104
REMARK H PARENT 22 8 29 35 91 54 57 65
REMARK Flexibility Score: inf
ROOT
ATOM      1  C   UNL A   1      35.662  23.123  24.920  1.00  0.00     0.002 C 
ENDROOT
BRANCH   1   2
ATOM      2  C   UNL A   1      35.011  24.445  24.510  1.00  0.00     0.002 C 
BRANCH   2   3
ATOM      3  C   UNL A   1      34.750  25.500  25.581  1.00  0.00     0.021 C 
BRANCH   3   4
ATOM      4  C   UNL A   1      34.372  26.931  25.204  1.00  0.00     0.116 C 
BRANCH   4   5
ATOM      5  N   UNL A   1      33.259  27.581  25.861  1.00  0.00    -0.352 N 
ATOM      6  C   UNL A   1      32.103  28.126  25.360  1.00  0.00     0.251 C 
ATOM      7  O   UNL A   1      31.168  28.264  26.157  1.00  0.00    -0.270 OA
ATOM      8  H   UNL A   1      33.345  27.640  26.840  1.00  0.00     0.163 HD
BRANCH   6   9
ATOM      9  C   UNL A   1      31.916  28.631  23.915  1.00  0.00     0.067 C 
ATOM     10  C   UNL A   1      31.151  24.802  23.125  1.00  0.00     0.026 A 
ATOM     11  C   UNL A   1      31.690  24.160  21.992  1.00  0.00     0.033 A 
ATOM     12  C   UNL A   1      31.270  26.191  23.130  1.00  0.00     0.135 A 
ATOM     13  C   UNL A   1      32.608  24.826  21.174  1.00  0.00     0.042 A 
ATOM     14  C   UNL A   1      32.421  26.781  22.548  1.00  0.00     0.019 A 
ATOM     15  O   UNL A   1      30.225  27.012  23.607  1.00  0.00    -0.475 OA
ATOM     16  Cl  UNL A   1      33.320  23.995  19.846  1.00  0.00    -0.084 Cl
ATOM     17  C   UNL A   1      33.057  26.106  21.512  1.00  0.00     0.032 A 
ATOM     18  C   UNL A   1      32.857  28.129  23.069  1.00  0.00     0.025 C 
ATOM     19  C   UNL A   1      30.562  28.397  23.275  1.00  0.00     0.314 C 
BRANCH  10  20
ATOM     20  C   UNL A   1      31.390  24.061  24.398  1.00  0.00    -0.015 A 
ATOM     21  C   UNL A   1      32.610  22.387  28.213  1.00  0.00     0.044 C 
ATOM     22  C   UNL A   1      32.142  22.950  26.903  1.00  0.00    -0.051 A 
ATOM     23  C   UNL A   1      32.174  22.183  25.726  1.00  0.00     0.004 A 
ATOM     24  C   UNL A   1      31.666  24.255  26.837  1.00  0.00     0.004 A 
ATOM     25  C   UNL A   1      31.806  22.733  24.482  1.00  0.00     0.009 A 
ATOM     26  C   UNL A   1      31.290  24.792  25.608  1.00  0.00     0.009 A 
ENDBRANCH  10  20
BRANCH  19  27
ATOM     27  C   UNL A   1      29.572  29.576  23.360  1.00  0.00     0.429 C 
ATOM     28  F   UNL A   1      29.927  30.396  24.389  1.00  0.00    -0.167 F 
ATOM     29  F   UNL A   1      29.561  30.335  22.246  1.00  0.00    -0.167 F 
ATOM     30  F   UNL A   1      28.302  29.197  23.632  1.00  0.00    -0.167 F 
ENDBRANCH  19  27
ENDBRANCH   6   9
ENDBRANCH   4   5
ENDBRANCH   3   4
ENDBRANCH   2   3
ENDBRANCH   1   2
BRANCH   1  31
ATOM     31  C   UNL A   1      36.781  23.181  25.955  1.00  0.00     0.021 C 
BRANCH  31  32
ATOM     32  C   UNL A   1      38.129  23.667  25.435  1.00  0.00     0.116 C 
BRANCH  32  33
ATOM     33  N   UNL A   1      39.248  23.192  26.237  1.00  0.00    -0.352 N 
ATOM     34  C   UNL A   1      40.110  23.932  27.027  1.00  0.00     0.251 C 
ATOM     35  H   UNL A   1      39.411  22.221  26.215  1.00  0.00     0.163 HD
ATOM     36  O   UNL A   1      41.152  23.478  27.466  1.00  0.00    -0.269 OA
BRANCH  34  37
ATOM     37  C   UNL A   1      39.656  25.279  27.427  1.00  0.00     0.039 A 
ATOM     38  C   UNL A   1      40.158  26.365  26.701  1.00  0.00     0.014 A 
ATOM     39  C   UNL A   1      38.970  25.466  28.623  1.00  0.00     0.014 A 
ATOM     40  C   UNL A   1      40.120  27.638  27.264  1.00  0.00     0.010 A 
ATOM     41  C   UNL A   1      39.010  26.714  29.218  1.00  0.00     0.010 A 
ATOM     42  C   UNL A   1      39.619  27.790  28.558  1.00  0.00    -0.014 A 
BRANCH  42  43
ATOM     43  C   UNL A   1      39.781  29.011  29.340  1.00  0.00     0.031 A 
ATOM     44  C   UNL A   1      38.739  30.061  29.327  1.00  0.00     0.074 A 
ATOM     45  C   UNL A   1      40.863  29.165  30.133  1.00  0.00     0.049 A 
ATOM     46  N   UNL A   1      38.967  31.308  29.572  1.00  0.00    -0.248 NA
ATOM     47  C   UNL A   1      37.342  29.786  29.003  1.00  0.00     0.031 C 
ATOM     48  C   UNL A   1      41.048  30.161  31.185  1.00  0.00     0.029 A 
ATOM     49  N   UNL A   1      42.110  28.555  30.016  1.00  0.00    -0.354 N 
ATOM     50  C   UNL A   1      37.752  31.935  29.714  1.00  0.00     0.074 A 
ATOM     51  C   UNL A   1      36.771  30.960  29.292  1.00  0.00     0.031 C 
ATOM     52  C   UNL A   1      42.357  30.272  31.457  1.00  0.00     0.029 A 
ATOM     53  C   UNL A   1      43.075  29.458  30.492  1.00  0.00     0.049 A 
ATOM     54  H   UNL A   1      42.283  27.653  29.662  1.00  0.00     0.167 HD
ATOM     55  C   UNL A   1      37.680  33.162  30.305  1.00  0.00     0.037 A 
ATOM     56  C   UNL A   1      44.074  29.917  29.683  1.00  0.00     0.037 A 
ATOM     57  C   UNL A   1      38.998  33.650  30.695  1.00  0.00     0.049 A 
ATOM     58  C   UNL A   1      44.039  31.412  29.453  1.00  0.00     0.074 A 
ATOM     59  C   UNL A   1      39.689  33.608  31.896  1.00  0.00     0.029 A 
ATOM     60  N   UNL A   1      39.929  33.996  29.721  1.00  0.00    -0.354 N 
ATOM     61  N   UNL A   1      43.008  32.168  29.711  1.00  0.00    -0.248 NA
ATOM     62  C   UNL A   1      45.160  32.174  28.906  1.00  0.00     0.031 C 
ATOM     63  C   UNL A   1      41.051  33.882  31.635  1.00  0.00     0.029 A 
ATOM     64  C   UNL A   1      41.190  34.106  30.277  1.00  0.00     0.049 A 
ATOM     65  H   UNL A   1      39.719  34.141  28.769  1.00  0.00     0.167 HD
ATOM     66  C   UNL A   1      43.281  33.464  29.350  1.00  0.00     0.074 A 
ATOM     67  C   UNL A   1      44.652  33.419  28.880  1.00  0.00     0.031 C 
ATOM     68  C   UNL A   1      42.347  34.457  29.465  1.00  0.00     0.037 A 
BRANCH  55  69
ATOM     69  C   UNL A   1      36.373  33.738  30.800  1.00  0.00     0.058 A 
ATOM     70  C   UNL A   1      35.391  34.205  29.901  1.00  0.00     0.135 A 
ATOM     71  C   UNL A   1      36.064  33.911  32.164  1.00  0.00     0.135 A 
ATOM     72  F   UNL A   1      35.512  34.040  28.578  1.00  0.00    -0.206 F 
ATOM     73  C   UNL A   1      34.250  34.892  30.316  1.00  0.00     0.059 A 
ATOM     74  C   UNL A   1      34.953  34.639  32.604  1.00  0.00     0.059 A 
ATOM     75  F   UNL A   1      36.836  33.366  33.117  1.00  0.00    -0.206 F 
ATOM     76  C   UNL A   1      34.056  35.139  31.668  1.00  0.00     0.060 A 
BRANCH  76  77
ATOM     77  S   UNL A   1      32.643  36.143  32.166  1.00  0.00     0.124 S 
ATOM     78  O   UNL A   1      33.190  36.920  33.275  1.00  0.00    -0.237 OA
ATOM     79  O   UNL A   1      32.359  36.892  30.948  1.00  0.00    -0.237 OA
ATOM     80  O   UNL A   1      31.640  35.152  32.544  1.00  0.00    -0.744 OA
ENDBRANCH  76  77
ENDBRANCH  55  69
BRANCH  56  81
ATOM     81  C   UNL A   1      44.551  28.899  28.708  1.00  0.00     0.058 A 
ATOM     82  C   UNL A   1      44.068  28.986  27.388  1.00  0.00     0.135 A 
ATOM     83  C   UNL A   1      45.736  28.180  28.919  1.00  0.00     0.135 A 
ATOM     84  F   UNL A   1      42.928  29.649  27.134  1.00  0.00    -0.206 F 
ATOM     85  C   UNL A   1      44.808  28.525  26.305  1.00  0.00     0.059 A 
ATOM     86  C   UNL A   1      46.493  27.703  27.846  1.00  0.00     0.059 A 
ATOM     87  F   UNL A   1      46.243  28.061  30.154  1.00  0.00    -0.206 F 
ATOM     88  C   UNL A   1      46.052  27.943  26.543  1.00  0.00     0.060 A 
BRANCH  88  89
ATOM     89  S   UNL A   1      47.139  27.668  25.123  1.00  0.00     0.124 S 
ATOM     90  O   UNL A   1      46.370  28.260  24.034  1.00  0.00    -0.237 OA
ATOM     91  O   UNL A   1      48.340  28.402  25.519  1.00  0.00    -0.237 OA
ATOM     92  O   UNL A   1      47.275  26.218  25.084  1.00  0.00    -0.744 OA
ENDBRANCH  88  89
ENDBRANCH  56  81
BRANCH  68  93
ATOM     93  C   UNL A   1      42.459  35.873  28.938  1.00  0.00     0.058 A 
ATOM     94  C   UNL A   1      43.236  36.882  29.532  1.00  0.00     0.135 A 
ATOM     95  C   UNL A   1      41.861  36.223  27.700  1.00  0.00     0.135 A 
ATOM     96  F   UNL A   1      43.948  36.652  30.643  1.00  0.00    -0.206 F 
ATOM     97  C   UNL A   1      43.358  38.161  28.978  1.00  0.00     0.059 A 
ATOM     98  C   UNL A   1      42.015  37.472  27.102  1.00  0.00     0.059 A 
ATOM     99  F   UNL A   1      41.110  35.349  27.011  1.00  0.00    -0.206 F 
ATOM    100  C   UNL A   1      42.744  38.447  27.763  1.00  0.00     0.060 A 
BRANCH 100 101
ATOM    101  S   UNL A   1      42.950  40.069  27.005  1.00  0.00     0.124 S 
ATOM    102  O   UNL A   1      41.706  40.200  26.253  1.00  0.00    -0.237 OA
ATOM    103  O   UNL A   1      43.085  40.954  28.159  1.00  0.00    -0.237 OA
ATOM    104  O   UNL A   1      44.160  39.910  26.205  1.00  0.00    -0.744 OA
ENDBRANCH 100 101
ENDBRANCH  68  93
ENDBRANCH  42  43
ENDBRANCH  34  37
ENDBRANCH  32  33
ENDBRANCH  31  32
ENDBRANCH   1  31
TORSDOF 18
ENDMDL
MODEL 3
REMARK VINA RESULT:     -12.4      2.118      3.382
REMARK SMILES Cc1ccc(-c2cc(Cl)cc3c2O[C@@H](C(F)(F)F)C(C(=O)NCCCCCCNC(=O)c2ccc(-c4c5nc(c(-c6c(F)cc(S(=O)(=O)[O-])cc6F)c6ccc([nH]6)c(-c6c(F)cc(S(=O)(=O)[O-])cc6F)c6nc(c(-c7c(F)cc(S(=O)(=O)[O-])cc7F)c7ccc4[nH]7)C=C6)C=C5)cc2)=C3)cc1
REMARK SMILES IDX 26 1 25 2 24 3 23 4 22 5 20 6 21 7 19 9 6 10 7 11 12 12 8 13
REMARK SMILES IDX 11 14 13 15 9 16 10 17 98 18 14 19 5 20 1 21 2 22 3 23
REMARK SMILES IDX 100 24 4 25 99 26 15 27 16 28 17 29 18 30 27 31 28 32 29 33
REMARK SMILES IDX 30 34 31 36 32 37 33 38 97 39 34 40 96 41 35 42 36 43 37 44
REMARK SMILES IDX 90 45 38 46 95 47 89 48 91 49 39 50 94 51 88 52 87 53 40 55
REMARK SMILES IDX 74 56 53 57 73 58 54 59 57 60 72 61 92 62 55 63 56 64 71 66
REMARK SMILES IDX 93 67 58 68 41 69 42 70 51 71 43 72 44 73 50 74 52 75 45 76
REMARK SMILES IDX 46 77 47 78 48 79 49 80 75 81 76 82 85 83 77 84 78 85 84 86
REMARK SMILES IDX 86 87 79 88 80 89 81 90 82 91 83 92 59 93 60 94 69 95 61 96
REMARK SMILES IDX 62 97 68 98 70 99 63 100 64 101 65 102 66 103 67 104
REMARK H PARENT 22 8 29 35 91 54 57 65
REMARK Flexibility Score: inf
ROOT
ATOM      1  C   UNL A   1      35.380  24.035  25.276  1.00  0.00     0.002 C 
ENDROOT
BRANCH   1   2
ATOM      2  C   UNL A   1      34.449  25.206  25.592  1.00  0.00     0.002 C 
BRANCH   2   3
ATOM      3  C   UNL A   1      33.040  24.910  26.099  1.00  0.00     0.021 C 
BRANCH   3   4
ATOM      4  C   UNL A   1      32.027  26.033  26.317  1.00  0.00     0.116 C 
BRANCH   4   5
ATOM      5  N   UNL A   1      30.640  25.833  25.957  1.00  0.00    -0.352 N 
ATOM      6  C   UNL A   1      29.816  26.526  25.106  1.00  0.00     0.251 C 
ATOM      7  O   UNL A   1      28.815  25.925  24.697  1.00  0.00    -0.270 OA
ATOM      8  H   UNL A   1      30.214  25.065  26.401  1.00  0.00     0.163 HD
BRANCH   6   9
ATOM      9  C   UNL A   1      30.013  27.996  24.684  1.00  0.00     0.067 C 
ATOM     10  C   UNL A   1      32.451  26.445  21.943  1.00  0.00     0.026 A 
ATOM     11  C   UNL A   1      33.706  27.020  21.660  1.00  0.00     0.033 A 
ATOM     12  C   UNL A   1      31.597  27.235  22.710  1.00  0.00     0.135 A 
ATOM     13  C   UNL A   1      34.178  28.093  22.424  1.00  0.00     0.042 A 
ATOM     14  C   UNL A   1      32.154  28.075  23.708  1.00  0.00     0.019 A 
ATOM     15  O   UNL A   1      30.212  27.288  22.440  1.00  0.00    -0.475 OA
ATOM     16  Cl  UNL A   1      35.749  28.724  22.119  1.00  0.00    -0.084 Cl
ATOM     17  C   UNL A   1      33.446  28.554  23.521  1.00  0.00     0.032 A 
ATOM     18  C   UNL A   1      31.288  28.426  24.893  1.00  0.00     0.025 C 
ATOM     19  C   UNL A   1      29.641  28.359  23.260  1.00  0.00     0.314 C 
BRANCH  10  20
ATOM     20  C   UNL A   1      32.519  24.981  22.230  1.00  0.00    -0.015 A 
ATOM     21  C   UNL A   1      32.605  20.917  23.753  1.00  0.00     0.044 C 
ATOM     22  C   UNL A   1      32.557  22.305  23.183  1.00  0.00    -0.051 A 
ATOM     23  C   UNL A   1      33.660  22.855  22.509  1.00  0.00     0.004 A 
ATOM     24  C   UNL A   1      31.407  23.074  23.319  1.00  0.00     0.004 A 
ATOM     25  C   UNL A   1      33.646  24.183  22.039  1.00  0.00     0.009 A 
ATOM     26  C   UNL A   1      31.390  24.382  22.842  1.00  0.00     0.009 A 
ENDBRANCH  10  20
BRANCH  19  27
ATOM     27  C   UNL A   1      28.226  28.940  23.068  1.00  0.00     0.429 C 
ATOM     28  F   UNL A   1      27.301  28.045  23.517  1.00  0.00    -0.167 F 
ATOM     29  F   UNL A   1      28.028  30.082  23.756  1.00  0.00    -0.167 F 
ATOM     30  F   UNL A   1      27.904  29.160  21.772  1.00  0.00    -0.167 F 
ENDBRANCH  19  27
ENDBRANCH   6   9
ENDBRANCH   4   5
ENDBRANCH   3   4
ENDBRANCH   2   3
ENDBRANCH   1   2
BRANCH   1  31
ATOM     31  C   UNL A   1      36.613  23.861  26.158  1.00  0.00     0.021 C 
BRANCH  31  32
ATOM     32  C   UNL A   1      37.937  23.725  25.413  1.00  0.00     0.116 C 
BRANCH  32  33
ATOM     33  N   UNL A   1      39.008  23.213  26.256  1.00  0.00    -0.352 N 
ATOM     34  C   UNL A   1      39.910  23.930  27.023  1.00  0.00     0.251 C 
ATOM     35  H   UNL A   1      39.103  22.234  26.284  1.00  0.00     0.163 HD
ATOM     36  O   UNL A   1      40.911  23.427  27.501  1.00  0.00    -0.269 OA
BRANCH  34  37
ATOM     37  C   UNL A   1      39.546  25.324  27.349  1.00  0.00     0.039 A 
ATOM     38  C   UNL A   1      40.217  26.339  26.657  1.00  0.00     0.014 A 
ATOM     39  C   UNL A   1      38.766  25.607  28.467  1.00  0.00     0.014 A 
ATOM     40  C   UNL A   1      40.243  27.626  27.189  1.00  0.00     0.010 A 
ATOM     41  C   UNL A   1      38.863  26.862  29.038  1.00  0.00     0.010 A 
ATOM     42  C   UNL A   1      39.633  27.859  28.423  1.00  0.00    -0.014 A 
BRANCH  42  43
ATOM     43  C   UNL A   1      39.830  29.082  29.193  1.00  0.00     0.031 A 
ATOM     44  C   UNL A   1      38.793  30.137  29.216  1.00  0.00     0.074 A 
ATOM     45  C   UNL A   1      40.943  29.233  29.944  1.00  0.00     0.049 A 
ATOM     46  N   UNL A   1      39.037  31.384  29.448  1.00  0.00    -0.248 NA
ATOM     47  C   UNL A   1      37.384  29.868  28.947  1.00  0.00     0.031 C 
ATOM     48  C   UNL A   1      41.172  30.231  30.984  1.00  0.00     0.029 A 
ATOM     49  N   UNL A   1      42.182  28.616  29.782  1.00  0.00    -0.354 N 
ATOM     50  C   UNL A   1      37.831  32.017  29.633  1.00  0.00     0.074 A 
ATOM     51  C   UNL A   1      36.830  31.045  29.253  1.00  0.00     0.031 C 
ATOM     52  C   UNL A   1      42.491  30.338  31.206  1.00  0.00     0.029 A 
ATOM     53  C   UNL A   1      43.168  29.516  30.218  1.00  0.00     0.049 A 
ATOM     54  H   UNL A   1      42.337  27.712  29.425  1.00  0.00     0.167 HD
ATOM     55  C   UNL A   1      37.787  33.246  30.222  1.00  0.00     0.037 A 
ATOM     56  C   UNL A   1      44.138  29.968  29.369  1.00  0.00     0.037 A 
ATOM     57  C   UNL A   1      39.122  33.730  30.560  1.00  0.00     0.049 A 
ATOM     58  C   UNL A   1      44.102  31.461  29.136  1.00  0.00     0.074 A 
ATOM     59  C   UNL A   1      39.857  33.688  31.734  1.00  0.00     0.029 A 
ATOM     60  N   UNL A   1      40.017  34.067  29.550  1.00  0.00    -0.354 N 
ATOM     61  N   UNL A   1      43.085  32.224  29.430  1.00  0.00    -0.248 NA
ATOM     62  C   UNL A   1      45.204  32.216  28.544  1.00  0.00     0.031 C 
ATOM     63  C   UNL A   1      41.210  33.954  31.420  1.00  0.00     0.029 A 
ATOM     64  C   UNL A   1      41.299  34.173  30.058  1.00  0.00     0.049 A 
ATOM     65  H   UNL A   1      39.772  34.210  28.606  1.00  0.00     0.167 HD
ATOM     66  C   UNL A   1      43.349  33.517  29.054  1.00  0.00     0.074 A 
ATOM     67  C   UNL A   1      44.702  33.464  28.533  1.00  0.00     0.031 C 
ATOM     68  C   UNL A   1      42.426  34.516  29.201  1.00  0.00     0.037 A 
BRANCH  55  69
ATOM     69  C   UNL A   1      36.504  33.831  30.765  1.00  0.00     0.058 A 
ATOM     70  C   UNL A   1      35.481  34.281  29.902  1.00  0.00     0.135 A 
ATOM     71  C   UNL A   1      36.255  34.028  32.138  1.00  0.00     0.135 A 
ATOM     72  F   UNL A   1      35.543  34.091  28.578  1.00  0.00    -0.206 F 
ATOM     73  C   UNL A   1      34.359  34.975  30.355  1.00  0.00     0.059 A 
ATOM     74  C   UNL A   1      35.164  34.763  32.613  1.00  0.00     0.059 A 
ATOM     75  F   UNL A   1      37.070  33.501  33.065  1.00  0.00    -0.206 F 
ATOM     76  C   UNL A   1      34.225  35.246  31.709  1.00  0.00     0.060 A 
BRANCH  76  77
ATOM     77  S   UNL A   1      32.834  36.258  32.251  1.00  0.00     0.124 S 
ATOM     78  O   UNL A   1      32.544  37.051  31.060  1.00  0.00    -0.237 OA
ATOM     79  O   UNL A   1      31.842  35.248  32.598  1.00  0.00    -0.237 OA
ATOM     80  O   UNL A   1      33.383  37.013  33.374  1.00  0.00    -0.744 OA
ENDBRANCH  76  77
ENDBRANCH  55  69
BRANCH  56  81
ATOM     81  C   UNL A   1      44.572  28.943  28.382  1.00  0.00     0.058 A 
ATOM     82  C   UNL A   1      45.409  27.908  28.843  1.00  0.00     0.135 A 
ATOM     83  C   UNL A   1      43.860  28.720  27.195  1.00  0.00     0.135 A 
ATOM     84  F   UNL A   1      46.126  28.076  29.966  1.00  0.00    -0.206 F 
ATOM     85  C   UNL A   1      45.415  26.651  28.249  1.00  0.00     0.059 A 
ATOM     86  C   UNL A   1      43.856  27.467  26.578  1.00  0.00     0.059 A 
ATOM     87  F   UNL A   1      43.049  29.670  26.706  1.00  0.00    -0.206 F 
ATOM     88  C   UNL A   1      44.583  26.424  27.154  1.00  0.00     0.060 A 
BRANCH  88  89
ATOM     89  S   UNL A   1      44.347  24.712  26.617  1.00  0.00     0.124 S 
ATOM     90  O   UNL A   1      44.123  24.025  27.884  1.00  0.00    -0.237 OA
ATOM     91  O   UNL A   1      43.176  24.830  25.748  1.00  0.00    -0.237 OA
ATOM     92  O   UNL A   1      45.599  24.399  25.941  1.00  0.00    -0.744 OA
ENDBRANCH  88  89
ENDBRANCH  56  81
BRANCH  68  93
ATOM     93  C   UNL A   1      42.524  35.929  28.665  1.00  0.00     0.058 A 
ATOM     94  C   UNL A   1      42.051  36.336  27.406  1.00  0.00     0.135 A 
ATOM     95  C   UNL A   1      43.002  36.975  29.496  1.00  0.00     0.135 A 
ATOM     96  F   UNL A   1      41.469  35.470  26.566  1.00  0.00    -0.206 F 
ATOM     97  C   UNL A   1      42.110  37.665  26.974  1.00  0.00     0.059 A 
ATOM     98  C   UNL A   1      43.016  38.313  29.109  1.00  0.00     0.059 A 
ATOM     99  F   UNL A   1      43.462  36.735  30.734  1.00  0.00    -0.206 F 
ATOM    100  C   UNL A   1      42.593  38.647  27.833  1.00  0.00     0.060 A 
BRANCH 100 101
ATOM    101  S   UNL A   1      42.609  40.374  27.314  1.00  0.00     0.124 S 
ATOM    102  O   UNL A   1      43.605  40.941  28.219  1.00  0.00    -0.237 OA
ATOM    103  O   UNL A   1      43.008  40.290  25.913  1.00  0.00    -0.237 OA
ATOM    104  O   UNL A   1      41.232  40.800  27.541  1.00  0.00    -0.744 OA
ENDBRANCH 100 101
ENDBRANCH  68  93
ENDBRANCH  42  43
ENDBRANCH  34  37
ENDBRANCH  32  33
ENDBRANCH  31  32
ENDBRANCH   1  31
TORSDOF 18
ENDMDL
