MODEL 1
REMARK VINA RESULT:     -11.7      0.000      0.000
REMARK SMILES O=C1C[N@@H+](Cc2ccc(C(=O)NCCCCCCNC(=O)c3ccc(-c4c5nc(c(-c6c(F)cc(S(=O)(=O)[O-])cc6F)c6ccc([nH]6)c(-c6c(F)cc(S(=O)(=O)[O-])cc6F)c6nc(c(-c7c(F)cc(S(=O)(=O)[O-])cc7F)c7ccc4[nH]7)C=C6)C=C5)cc3)cc2)CCN1
REMARK SMILES IDX 16 1 15 2 14 3 13 4 12 5 10 6 11 7 9 9 6 10 7 11 89 12 8 13
REMARK SMILES IDX 88 14 5 15 4 16 1 17 2 18 3 19 92 20 91 21 90 23 17 25 18 26
REMARK SMILES IDX 19 27 20 28 21 30 22 31 23 32 87 33 24 34 86 35 25 36 26 37
REMARK SMILES IDX 27 38 80 39 28 40 85 41 79 42 81 43 29 44 84 45 78 46 77 47
REMARK SMILES IDX 30 49 64 50 43 51 63 52 44 53 47 54 62 55 82 56 45 57 46 58
REMARK SMILES IDX 61 60 83 61 48 62 31 63 32 64 41 65 33 66 34 67 40 68 42 69
REMARK SMILES IDX 35 70 36 71 37 72 38 73 39 74 65 75 66 76 75 77 67 78 68 79
REMARK SMILES IDX 74 80 76 81 69 82 70 83 71 84 72 85 73 86 49 87 50 88 59 89
REMARK SMILES IDX 51 90 52 91 58 92 60 93 53 94 54 95 55 96 56 97 57 98
REMARK H PARENT 12 8 92 22 4 24 19 29 81 48 47 59
REMARK Flexibility Score: inf
ROOT
ATOM      1  C   UNL A   1      36.010  23.658  25.172  1.00  0.00     0.002 C 
ENDROOT
BRANCH   1   2
ATOM      2  C   UNL A   1      34.876  23.913  26.171  1.00  0.00     0.002 C 
BRANCH   2   3
ATOM      3  C   UNL A   1      33.977  25.110  25.833  1.00  0.00     0.021 C 
BRANCH   3   4
ATOM      4  C   UNL A   1      34.127  25.596  24.390  1.00  0.00     0.116 C 
BRANCH   4   5
ATOM      5  N   UNL A   1      32.824  25.679  23.752  1.00  0.00    -0.352 N 
ATOM      6  C   UNL A   1      31.918  24.703  23.424  1.00  0.00     0.251 C 
ATOM      7  O   UNL A   1      30.853  25.021  22.899  1.00  0.00    -0.269 OA
ATOM      8  H   UNL A   1      32.544  26.593  23.514  1.00  0.00     0.163 HD
BRANCH   6   9
ATOM      9  C   UNL A   1      32.165  23.287  23.777  1.00  0.00     0.039 A 
ATOM     10  C   UNL A   1      32.782  20.743  24.774  1.00  0.00     0.006 A 
ATOM     11  C   UNL A   1      31.745  21.493  25.345  1.00  0.00     0.010 A 
ATOM     12  C   UNL A   1      33.410  21.223  23.616  1.00  0.00     0.010 A 
ATOM     13  C   UNL A   1      31.439  22.760  24.850  1.00  0.00     0.014 A 
ATOM     14  C   UNL A   1      33.096  22.486  23.112  1.00  0.00     0.014 A 
BRANCH  10  15
ATOM     15  C   UNL A   1      33.249  19.461  25.417  1.00  0.00     0.299 C 
BRANCH  15  16
ATOM     16  N   UNL A   1      32.559  18.232  25.021  1.00  0.00    -0.322 N 
ATOM     17  O   UNL A   1      34.929  15.479  25.373  1.00  0.00    -0.269 OA
ATOM     18  C   UNL A   1      34.135  16.253  24.835  1.00  0.00     0.275 C 
ATOM     19  C   UNL A   1      33.059  16.991  25.634  1.00  0.00     0.363 C 
ATOM     20  N   UNL A   1      34.125  16.375  23.474  1.00  0.00    -0.346 N 
ATOM     21  C   UNL A   1      33.385  17.395  22.767  1.00  0.00     0.177 C 
ATOM     22  H   UNL A   1      34.651  15.732  22.946  1.00  0.00     0.163 HD
ATOM     23  C   UNL A   1      32.272  18.059  23.594  1.00  0.00     0.284 C 
ATOM     24  H   UNL A   1      31.647  18.412  25.441  1.00  0.00     0.348 HD
ENDBRANCH  15  16
ENDBRANCH  10  15
ENDBRANCH   6   9
ENDBRANCH   4   5
ENDBRANCH   3   4
ENDBRANCH   2   3
ENDBRANCH   1   2
BRANCH   1  25
ATOM     25  C   UNL A   1      37.314  23.152  25.793  1.00  0.00     0.021 C 
BRANCH  25  26
ATOM     26  C   UNL A   1      38.210  24.249  26.361  1.00  0.00     0.116 C 
BRANCH  26  27
ATOM     27  N   UNL A   1      39.621  23.956  26.157  1.00  0.00    -0.352 N 
ATOM     28  C   UNL A   1      40.723  24.650  26.593  1.00  0.00     0.251 C 
ATOM     29  H   UNL A   1      39.812  23.146  25.630  1.00  0.00     0.163 HD
ATOM     30  O   UNL A   1      41.831  24.386  26.141  1.00  0.00    -0.269 OA
BRANCH  28  31
ATOM     31  C   UNL A   1      40.562  25.724  27.596  1.00  0.00     0.039 A 
ATOM     32  C   UNL A   1      39.596  25.581  28.595  1.00  0.00     0.014 A 
ATOM     33  C   UNL A   1      41.360  26.870  27.548  1.00  0.00     0.014 A 
ATOM     34  C   UNL A   1      39.471  26.563  29.581  1.00  0.00     0.010 A 
ATOM     35  C   UNL A   1      41.286  27.809  28.573  1.00  0.00     0.010 A 
ATOM     36  C   UNL A   1      40.338  27.668  29.597  1.00  0.00    -0.014 A 
BRANCH  36  37
ATOM     37  C   UNL A   1      40.269  28.687  30.676  1.00  0.00     0.031 A 
ATOM     38  C   UNL A   1      41.157  28.569  31.886  1.00  0.00     0.074 A 
ATOM     39  C   UNL A   1      39.361  29.681  30.597  1.00  0.00     0.049 A 
ATOM     40  N   UNL A   1      41.195  29.317  32.958  1.00  0.00    -0.248 NA
ATOM     41  C   UNL A   1      42.110  27.449  31.902  1.00  0.00     0.031 C 
ATOM     42  C   UNL A   1      38.415  29.875  29.496  1.00  0.00     0.029 A 
ATOM     43  N   UNL A   1      39.079  30.709  31.461  1.00  0.00    -0.354 N 
ATOM     44  C   UNL A   1      42.165  28.753  33.780  1.00  0.00     0.074 A 
ATOM     45  C   UNL A   1      42.649  27.568  33.107  1.00  0.00     0.031 C 
ATOM     46  C   UNL A   1      37.675  30.970  29.740  1.00  0.00     0.029 A 
ATOM     47  C   UNL A   1      38.062  31.529  31.032  1.00  0.00     0.049 A 
ATOM     48  H   UNL A   1      39.559  30.846  32.310  1.00  0.00     0.167 HD
ATOM     49  C   UNL A   1      42.627  29.196  34.973  1.00  0.00     0.037 A 
ATOM     50  C   UNL A   1      37.498  32.605  31.615  1.00  0.00     0.037 A 
ATOM     51  C   UNL A   1      42.151  30.389  35.627  1.00  0.00     0.049 A 
ATOM     52  C   UNL A   1      38.016  33.069  32.950  1.00  0.00     0.074 A 
ATOM     53  C   UNL A   1      42.589  30.952  36.813  1.00  0.00     0.029 A 
ATOM     54  N   UNL A   1      41.127  31.198  35.155  1.00  0.00    -0.354 N 
ATOM     55  N   UNL A   1      38.975  32.558  33.685  1.00  0.00    -0.248 NA
ATOM     56  C   UNL A   1      37.379  34.258  33.533  1.00  0.00     0.031 C 
ATOM     57  C   UNL A   1      41.795  32.070  37.085  1.00  0.00     0.029 A 
ATOM     58  C   UNL A   1      40.902  32.241  36.039  1.00  0.00     0.049 A 
ATOM     59  H   UNL A   1      40.634  31.052  34.316  1.00  0.00     0.167 HD
ATOM     60  C   UNL A   1      39.078  33.381  34.801  1.00  0.00     0.074 A 
ATOM     61  C   UNL A   1      38.090  34.427  34.639  1.00  0.00     0.031 C 
ATOM     62  C   UNL A   1      39.917  33.280  35.862  1.00  0.00     0.037 A 
BRANCH  49  63
ATOM     63  C   UNL A   1      43.702  28.388  35.649  1.00  0.00     0.058 A 
ATOM     64  C   UNL A   1      45.066  28.601  35.382  1.00  0.00     0.135 A 
ATOM     65  C   UNL A   1      43.370  27.405  36.595  1.00  0.00     0.135 A 
ATOM     66  F   UNL A   1      45.442  29.518  34.477  1.00  0.00    -0.206 F 
ATOM     67  C   UNL A   1      46.056  27.845  36.000  1.00  0.00     0.059 A 
ATOM     68  C   UNL A   1      44.346  26.658  37.250  1.00  0.00     0.059 A 
ATOM     69  F   UNL A   1      42.083  27.159  36.890  1.00  0.00    -0.206 F 
ATOM     70  C   UNL A   1      45.686  26.873  36.931  1.00  0.00     0.060 A 
BRANCH  70  71
ATOM     71  S   UNL A   1      46.983  25.896  37.718  1.00  0.00     0.124 S 
ATOM     72  O   UNL A   1      48.180  26.434  37.079  1.00  0.00    -0.237 OA
ATOM     73  O   UNL A   1      46.813  26.231  39.128  1.00  0.00    -0.237 OA
ATOM     74  O   UNL A   1      46.643  24.523  37.357  1.00  0.00    -0.744 OA
ENDBRANCH  70  71
ENDBRANCH  49  63
BRANCH  50  75
ATOM     75  C   UNL A   1      36.395  33.328  30.927  1.00  0.00     0.058 A 
ATOM     76  C   UNL A   1      35.078  33.257  31.404  1.00  0.00     0.135 A 
ATOM     77  C   UNL A   1      36.637  34.119  29.793  1.00  0.00     0.135 A 
ATOM     78  F   UNL A   1      34.794  32.508  32.482  1.00  0.00    -0.206 F 
ATOM     79  C   UNL A   1      34.036  33.932  30.775  1.00  0.00     0.059 A 
ATOM     80  C   UNL A   1      35.617  34.826  29.164  1.00  0.00     0.059 A 
ATOM     81  F   UNL A   1      37.881  34.236  29.306  1.00  0.00    -0.206 F 
ATOM     82  C   UNL A   1      34.317  34.718  29.657  1.00  0.00     0.060 A 
BRANCH  82  83
ATOM     83  S   UNL A   1      32.967  35.633  28.881  1.00  0.00     0.124 S 
ATOM     84  O   UNL A   1      32.189  36.048  30.042  1.00  0.00    -0.237 OA
ATOM     85  O   UNL A   1      33.683  36.692  28.177  1.00  0.00    -0.237 OA
ATOM     86  O   UNL A   1      32.336  34.634  28.023  1.00  0.00    -0.744 OA
ENDBRANCH  82  83
ENDBRANCH  50  75
BRANCH  62  87
ATOM     87  C   UNL A   1      39.831  34.347  36.920  1.00  0.00     0.058 A 
ATOM     88  C   UNL A   1      40.592  35.524  36.847  1.00  0.00     0.135 A 
ATOM     89  C   UNL A   1      38.933  34.213  37.991  1.00  0.00     0.135 A 
ATOM     90  F   UNL A   1      41.471  35.701  35.848  1.00  0.00    -0.206 F 
ATOM     91  C   UNL A   1      40.482  36.521  37.811  1.00  0.00     0.059 A 
ATOM     92  C   UNL A   1      38.784  35.210  38.949  1.00  0.00     0.059 A 
ATOM     93  F   UNL A   1      38.174  33.111  38.103  1.00  0.00    -0.206 F 
ATOM     94  C   UNL A   1      39.571  36.357  38.857  1.00  0.00     0.060 A 
BRANCH  94  95
ATOM     95  S   UNL A   1      39.409  37.676  40.078  1.00  0.00     0.124 S 
ATOM     96  O   UNL A   1      40.676  38.382  39.917  1.00  0.00    -0.237 OA
ATOM     97  O   UNL A   1      38.222  38.387  39.614  1.00  0.00    -0.237 OA
ATOM     98  O   UNL A   1      39.249  36.956  41.338  1.00  0.00    -0.744 OA
ENDBRANCH  94  95
ENDBRANCH  62  87
ENDBRANCH  36  37
ENDBRANCH  28  31
ENDBRANCH  26  27
ENDBRANCH  25  26
ENDBRANCH   1  25
TORSDOF 18
ENDMDL
MODEL 2
REMARK VINA RESULT:     -11.7      3.742     10.109
REMARK SMILES O=C1C[N@@H+](Cc2ccc(C(=O)NCCCCCCNC(=O)c3ccc(-c4c5nc(c(-c6c(F)cc(S(=O)(=O)[O-])cc6F)c6ccc([nH]6)c(-c6c(F)cc(S(=O)(=O)[O-])cc6F)c6nc(c(-c7c(F)cc(S(=O)(=O)[O-])cc7F)c7ccc4[nH]7)C=C6)C=C5)cc3)cc2)CCN1
REMARK SMILES IDX 16 1 15 2 14 3 13 4 12 5 10 6 11 7 9 9 6 10 7 11 89 12 8 13
REMARK SMILES IDX 88 14 5 15 4 16 1 17 2 18 3 19 92 20 91 21 90 23 17 25 18 26
REMARK SMILES IDX 19 27 20 28 21 30 22 31 23 32 87 33 24 34 86 35 25 36 26 37
REMARK SMILES IDX 27 38 80 39 28 40 85 41 79 42 81 43 29 44 84 45 78 46 77 47
REMARK SMILES IDX 30 49 64 50 43 51 63 52 44 53 47 54 62 55 82 56 45 57 46 58
REMARK SMILES IDX 61 60 83 61 48 62 31 63 32 64 41 65 33 66 34 67 40 68 42 69
REMARK SMILES IDX 35 70 36 71 37 72 38 73 39 74 65 75 66 76 75 77 67 78 68 79
REMARK SMILES IDX 74 80 76 81 69 82 70 83 71 84 72 85 73 86 49 87 50 88 59 89
REMARK SMILES IDX 51 90 52 91 58 92 60 93 53 94 54 95 55 96 56 97 57 98
REMARK H PARENT 12 8 92 22 4 24 19 29 81 48 47 59
REMARK Flexibility Score: inf
ROOT
ATOM      1  C   UNL A   1      32.828  26.210  26.128  1.00  0.00     0.002 C 
ENDROOT
BRANCH   1   2
ATOM      2  C   UNL A   1      34.138  25.810  25.440  1.00  0.00     0.002 C 
BRANCH   2   3
ATOM      3  C   UNL A   1      34.319  24.302  25.224  1.00  0.00     0.021 C 
BRANCH   3   4
ATOM      4  C   UNL A   1      33.148  23.648  24.486  1.00  0.00     0.116 C 
BRANCH   4   5
ATOM      5  N   UNL A   1      33.395  23.650  23.054  1.00  0.00    -0.352 N 
ATOM      6  C   UNL A   1      32.995  24.520  22.072  1.00  0.00     0.251 C 
ATOM      7  O   UNL A   1      33.351  24.325  20.912  1.00  0.00    -0.269 OA
ATOM      8  H   UNL A   1      33.945  22.898  22.734  1.00  0.00     0.163 HD
BRANCH   6   9
ATOM      9  C   UNL A   1      32.220  25.737  22.404  1.00  0.00     0.039 A 
ATOM     10  C   UNL A   1      30.997  28.081  23.329  1.00  0.00     0.006 A 
ATOM     11  C   UNL A   1      32.264  28.133  22.733  1.00  0.00     0.010 A 
ATOM     12  C   UNL A   1      30.296  26.867  23.329  1.00  0.00     0.010 A 
ATOM     13  C   UNL A   1      32.874  26.966  22.274  1.00  0.00     0.014 A 
ATOM     14  C   UNL A   1      30.901  25.700  22.859  1.00  0.00     0.014 A 
BRANCH  10  15
ATOM     15  C   UNL A   1      30.412  29.299  23.999  1.00  0.00     0.299 C 
BRANCH  15  16
ATOM     16  N   UNL A   1      30.102  30.443  23.140  1.00  0.00    -0.322 N 
ATOM     17  O   UNL A   1      26.842  31.731  24.157  1.00  0.00    -0.269 OA
ATOM     18  C   UNL A   1      27.717  31.255  23.431  1.00  0.00     0.275 C 
ATOM     19  C   UNL A   1      29.205  31.455  23.720  1.00  0.00     0.363 C 
ATOM     20  N   UNL A   1      27.364  30.632  22.267  1.00  0.00    -0.346 N 
ATOM     21  C   UNL A   1      28.286  29.869  21.456  1.00  0.00     0.177 C 
ATOM     22  H   UNL A   1      26.431  30.708  21.963  1.00  0.00     0.163 HD
ATOM     23  C   UNL A   1      29.769  30.156  21.742  1.00  0.00     0.284 C 
ATOM     24  H   UNL A   1      31.027  30.871  23.095  1.00  0.00     0.348 HD
ENDBRANCH  15  16
ENDBRANCH  10  15
ENDBRANCH   6   9
ENDBRANCH   4   5
ENDBRANCH   3   4
ENDBRANCH   2   3
ENDBRANCH   1   2
BRANCH   1  25
ATOM     25  C   UNL A   1      32.711  27.695  26.479  1.00  0.00     0.021 C 
BRANCH  25  26
ATOM     26  C   UNL A   1      33.961  28.516  26.174  1.00  0.00     0.116 C 
BRANCH  26  27
ATOM     27  N   UNL A   1      33.763  29.930  26.456  1.00  0.00    -0.352 N 
ATOM     28  C   UNL A   1      34.425  30.738  27.347  1.00  0.00     0.251 C 
ATOM     29  H   UNL A   1      33.052  30.369  25.935  1.00  0.00     0.163 HD
ATOM     30  O   UNL A   1      33.980  31.848  27.616  1.00  0.00    -0.269 OA
BRANCH  28  31
ATOM     31  C   UNL A   1      35.667  30.257  27.989  1.00  0.00     0.039 A 
ATOM     32  C   UNL A   1      36.884  30.422  27.324  1.00  0.00     0.014 A 
ATOM     33  C   UNL A   1      35.628  29.639  29.242  1.00  0.00     0.014 A 
ATOM     34  C   UNL A   1      38.070  30.021  27.944  1.00  0.00     0.010 A 
ATOM     35  C   UNL A   1      36.816  29.311  29.889  1.00  0.00     0.010 A 
ATOM     36  C   UNL A   1      38.049  29.493  29.245  1.00  0.00    -0.014 A 
BRANCH  36  37
ATOM     37  C   UNL A   1      39.305  29.126  29.949  1.00  0.00     0.031 A 
ATOM     38  C   UNL A   1      39.735  29.887  31.175  1.00  0.00     0.074 A 
ATOM     39  C   UNL A   1      40.090  28.152  29.447  1.00  0.00     0.049 A 
ATOM     40  N   UNL A   1      40.827  29.761  31.883  1.00  0.00    -0.248 NA
ATOM     41  C   UNL A   1      38.830  30.945  31.650  1.00  0.00     0.031 C 
ATOM     42  C   UNL A   1      39.802  27.372  28.240  1.00  0.00     0.029 A 
ATOM     43  N   UNL A   1      41.293  27.655  29.882  1.00  0.00    -0.354 N 
ATOM     44  C   UNL A   1      40.746  30.728  32.879  1.00  0.00     0.074 A 
ATOM     45  C   UNL A   1      39.527  31.470  32.648  1.00  0.00     0.031 C 
ATOM     46  C   UNL A   1      40.788  26.481  28.047  1.00  0.00     0.029 A 
ATOM     47  C   UNL A   1      41.798  26.653  29.088  1.00  0.00     0.049 A 
ATOM     48  H   UNL A   1      41.752  27.986  30.688  1.00  0.00     0.167 HD
ATOM     49  C   UNL A   1      41.597  30.959  33.908  1.00  0.00     0.037 A 
ATOM     50  C   UNL A   1      42.948  25.956  29.180  1.00  0.00     0.037 A 
ATOM     51  C   UNL A   1      42.801  30.203  34.141  1.00  0.00     0.049 A 
ATOM     52  C   UNL A   1      43.887  26.242  30.321  1.00  0.00     0.074 A 
ATOM     53  C   UNL A   1      43.705  30.324  35.181  1.00  0.00     0.029 A 
ATOM     54  N   UNL A   1      43.273  29.189  33.319  1.00  0.00    -0.354 N 
ATOM     55  N   UNL A   1      43.765  27.120  31.288  1.00  0.00    -0.248 NA
ATOM     56  C   UNL A   1      45.117  25.442  30.385  1.00  0.00     0.031 C 
ATOM     57  C   UNL A   1      44.750  29.421  34.961  1.00  0.00     0.029 A 
ATOM     58  C   UNL A   1      44.468  28.694  33.815  1.00  0.00     0.049 A 
ATOM     59  H   UNL A   1      42.824  28.868  32.503  1.00  0.00     0.167 HD
ATOM     60  C   UNL A   1      44.886  26.956  32.094  1.00  0.00     0.074 A 
ATOM     61  C   UNL A   1      45.669  25.889  31.505  1.00  0.00     0.031 C 
ATOM     62  C   UNL A   1      45.234  27.626  33.221  1.00  0.00     0.037 A 
BRANCH  49  63
ATOM     63  C   UNL A   1      41.257  32.076  34.858  1.00  0.00     0.058 A 
ATOM     64  C   UNL A   1      41.758  33.377  34.679  1.00  0.00     0.135 A 
ATOM     65  C   UNL A   1      40.399  31.852  35.947  1.00  0.00     0.135 A 
ATOM     66  F   UNL A   1      42.593  33.647  33.664  1.00  0.00    -0.206 F 
ATOM     67  C   UNL A   1      41.450  34.404  35.565  1.00  0.00     0.059 A 
ATOM     68  C   UNL A   1      40.052  32.873  36.828  1.00  0.00     0.059 A 
ATOM     69  F   UNL A   1      39.891  30.629  36.167  1.00  0.00    -0.206 F 
ATOM     70  C   UNL A   1      40.598  34.142  36.638  1.00  0.00     0.060 A 
BRANCH  70  71
ATOM     71  S   UNL A   1      40.215  35.485  37.783  1.00  0.00     0.124 S 
ATOM     72  O   UNL A   1      39.075  34.931  38.507  1.00  0.00    -0.237 OA
ATOM     73  O   UNL A   1      41.453  35.606  38.546  1.00  0.00    -0.237 OA
ATOM     74  O   UNL A   1      39.911  36.608  36.901  1.00  0.00    -0.744 OA
ENDBRANCH  70  71
ENDBRANCH  49  63
BRANCH  50  75
ATOM     75  C   UNL A   1      43.261  24.905  28.175  1.00  0.00     0.058 A 
ATOM     76  C   UNL A   1      42.927  23.562  28.407  1.00  0.00     0.135 A 
ATOM     77  C   UNL A   1      43.881  25.223  26.956  1.00  0.00     0.135 A 
ATOM     78  F   UNL A   1      42.339  23.207  29.560  1.00  0.00    -0.206 F 
ATOM     79  C   UNL A   1      43.209  22.569  27.475  1.00  0.00     0.059 A 
ATOM     80  C   UNL A   1      44.147  24.251  25.997  1.00  0.00     0.059 A 
ATOM     81  F   UNL A   1      44.205  26.494  26.677  1.00  0.00    -0.206 F 
ATOM     82  C   UNL A   1      43.816  22.925  26.270  1.00  0.00     0.060 A 
BRANCH  82  83
ATOM     83  S   UNL A   1      44.127  21.635  25.044  1.00  0.00     0.124 S 
ATOM     84  O   UNL A   1      43.011  20.727  25.283  1.00  0.00    -0.237 OA
ATOM     85  O   UNL A   1      44.084  22.387  23.794  1.00  0.00    -0.237 OA
ATOM     86  O   UNL A   1      45.444  21.129  25.418  1.00  0.00    -0.744 OA
ENDBRANCH  82  83
ENDBRANCH  50  75
BRANCH  62  87
ATOM     87  C   UNL A   1      46.500  27.205  33.917  1.00  0.00     0.058 A 
ATOM     88  C   UNL A   1      46.510  26.194  34.890  1.00  0.00     0.135 A 
ATOM     89  C   UNL A   1      47.730  27.785  33.563  1.00  0.00     0.135 A 
ATOM     90  F   UNL A   1      45.362  25.611  35.271  1.00  0.00    -0.206 F 
ATOM     91  C   UNL A   1      47.690  25.787  35.504  1.00  0.00     0.059 A 
ATOM     92  C   UNL A   1      48.926  27.373  34.141  1.00  0.00     0.059 A 
ATOM     93  F   UNL A   1      47.779  28.750  32.631  1.00  0.00    -0.206 F 
ATOM     94  C   UNL A   1      48.895  26.380  35.119  1.00  0.00     0.060 A 
BRANCH  94  95
ATOM     95  S   UNL A   1      50.423  25.815  35.895  1.00  0.00     0.124 S 
ATOM     96  O   UNL A   1      50.101  25.951  37.312  1.00  0.00    -0.237 OA
ATOM     97  O   UNL A   1      50.537  24.447  35.399  1.00  0.00    -0.237 OA
ATOM     98  O   UNL A   1      51.427  26.745  35.388  1.00  0.00    -0.744 OA
ENDBRANCH  94  95
ENDBRANCH  62  87
ENDBRANCH  36  37
ENDBRANCH  28  31
ENDBRANCH  26  27
ENDBRANCH  25  26
ENDBRANCH   1  25
TORSDOF 18
ENDMDL
MODEL 3
REMARK VINA RESULT:     -11.7      4.936     10.763
REMARK SMILES O=C1C[N@@H+](Cc2ccc(C(=O)NCCCCCCNC(=O)c3ccc(-c4c5nc(c(-c6c(F)cc(S(=O)(=O)[O-])cc6F)c6ccc([nH]6)c(-c6c(F)cc(S(=O)(=O)[O-])cc6F)c6nc(c(-c7c(F)cc(S(=O)(=O)[O-])cc7F)c7ccc4[nH]7)C=C6)C=C5)cc3)cc2)CCN1
REMARK SMILES IDX 16 1 15 2 14 3 13 4 12 5 10 6 11 7 9 9 6 10 7 11 89 12 8 13
REMARK SMILES IDX 88 14 5 15 4 16 1 17 2 18 3 19 92 20 91 21 90 23 17 25 18 26
REMARK SMILES IDX 19 27 20 28 21 30 22 31 23 32 87 33 24 34 86 35 25 36 26 37
REMARK SMILES IDX 27 38 80 39 28 40 85 41 79 42 81 43 29 44 84 45 78 46 77 47
REMARK SMILES IDX 30 49 64 50 43 51 63 52 44 53 47 54 62 55 82 56 45 57 46 58
REMARK SMILES IDX 61 60 83 61 48 62 31 63 32 64 41 65 33 66 34 67 40 68 42 69
REMARK SMILES IDX 35 70 36 71 37 72 38 73 39 74 65 75 66 76 75 77 67 78 68 79
REMARK SMILES IDX 74 80 76 81 69 82 70 83 71 84 72 85 73 86 49 87 50 88 59 89
REMARK SMILES IDX 51 90 52 91 58 92 60 93 53 94 54 95 55 96 56 97 57 98
REMARK H PARENT 12 8 92 22 4 24 19 29 81 48 47 59
REMARK Flexibility Score: inf
ROOT
ATOM      1  C   UNL A   1      33.440  26.362  25.807  1.00  0.00     0.002 C 
ENDROOT
BRANCH   1   2
ATOM      2  C   UNL A   1      34.185  25.645  24.676  1.00  0.00     0.002 C 
BRANCH   2   3
ATOM      3  C   UNL A   1      34.644  24.219  25.009  1.00  0.00     0.021 C 
BRANCH   3   4
ATOM      4  C   UNL A   1      34.288  23.198  23.927  1.00  0.00     0.116 C 
BRANCH   4   5
ATOM      5  N   UNL A   1      33.513  22.110  24.501  1.00  0.00    -0.352 N 
ATOM      6  C   UNL A   1      32.205  22.054  24.908  1.00  0.00     0.251 C 
ATOM      7  O   UNL A   1      31.755  20.999  25.350  1.00  0.00    -0.269 OA
ATOM      8  H   UNL A   1      34.014  21.270  24.616  1.00  0.00     0.163 HD
BRANCH   6   9
ATOM      9  C   UNL A   1      31.304  23.216  24.736  1.00  0.00     0.039 A 
ATOM     10  C   UNL A   1      29.904  25.594  24.255  1.00  0.00     0.006 A 
ATOM     11  C   UNL A   1      30.281  24.768  23.188  1.00  0.00     0.010 A 
ATOM     12  C   UNL A   1      30.114  25.147  25.568  1.00  0.00     0.010 A 
ATOM     13  C   UNL A   1      30.980  23.586  23.427  1.00  0.00     0.014 A 
ATOM     14  C   UNL A   1      30.803  23.957  25.808  1.00  0.00     0.014 A 
BRANCH  10  15
ATOM     15  C   UNL A   1      29.321  26.962  24.001  1.00  0.00     0.299 C 
BRANCH  15  16
ATOM     16  N   UNL A   1      30.129  27.888  23.204  1.00  0.00    -0.322 N 
ATOM     17  O   UNL A   1      31.641  30.285  25.503  1.00  0.00    -0.269 OA
ATOM     18  C   UNL A   1      30.968  29.858  24.564  1.00  0.00     0.275 C 
ATOM     19  C   UNL A   1      31.264  28.511  23.903  1.00  0.00     0.363 C 
ATOM     20  N   UNL A   1      30.003  30.650  24.008  1.00  0.00    -0.346 N 
ATOM     21  C   UNL A   1      29.030  30.175  23.051  1.00  0.00     0.177 C 
ATOM     22  H   UNL A   1      29.968  31.597  24.275  1.00  0.00     0.163 HD
ATOM     23  C   UNL A   1      29.408  28.851  22.368  1.00  0.00     0.284 C 
ATOM     24  H   UNL A   1      30.530  27.226  22.539  1.00  0.00     0.348 HD
ENDBRANCH  15  16
ENDBRANCH  10  15
ENDBRANCH   6   9
ENDBRANCH   4   5
ENDBRANCH   3   4
ENDBRANCH   2   3
ENDBRANCH   1   2
BRANCH   1  25
ATOM     25  C   UNL A   1      33.952  27.769  26.127  1.00  0.00     0.021 C 
BRANCH  25  26
ATOM     26  C   UNL A   1      33.599  28.266  27.525  1.00  0.00     0.116 C 
BRANCH  26  27
ATOM     27  N   UNL A   1      33.547  29.719  27.586  1.00  0.00    -0.352 N 
ATOM     28  C   UNL A   1      34.501  30.604  28.025  1.00  0.00     0.251 C 
ATOM     29  H   UNL A   1      32.708  30.125  27.269  1.00  0.00     0.163 HD
ATOM     30  O   UNL A   1      34.206  31.778  28.216  1.00  0.00    -0.269 OA
BRANCH  28  31
ATOM     31  C   UNL A   1      35.878  30.130  28.278  1.00  0.00     0.039 A 
ATOM     32  C   UNL A   1      36.810  30.161  27.237  1.00  0.00     0.014 A 
ATOM     33  C   UNL A   1      36.247  29.652  29.538  1.00  0.00     0.014 A 
ATOM     34  C   UNL A   1      38.128  29.767  27.478  1.00  0.00     0.010 A 
ATOM     35  C   UNL A   1      37.578  29.332  29.795  1.00  0.00     0.010 A 
ATOM     36  C   UNL A   1      38.530  29.381  28.767  1.00  0.00    -0.014 A 
BRANCH  36  37
ATOM     37  C   UNL A   1      39.943  29.027  29.060  1.00  0.00     0.031 A 
ATOM     38  C   UNL A   1      40.872  30.050  29.658  1.00  0.00     0.074 A 
ATOM     39  C   UNL A   1      40.406  27.805  28.729  1.00  0.00     0.049 A 
ATOM     40  N   UNL A   1      42.149  29.952  29.921  1.00  0.00    -0.248 NA
ATOM     41  C   UNL A   1      40.293  31.364  29.978  1.00  0.00     0.031 C 
ATOM     42  C   UNL A   1      39.615  26.742  28.104  1.00  0.00     0.029 A 
ATOM     43  N   UNL A   1      41.655  27.251  28.862  1.00  0.00    -0.354 N 
ATOM     44  C   UNL A   1      42.529  31.190  30.425  1.00  0.00     0.074 A 
ATOM     45  C   UNL A   1      41.361  32.041  30.376  1.00  0.00     0.031 C 
ATOM     46  C   UNL A   1      40.390  25.659  27.931  1.00  0.00     0.029 A 
ATOM     47  C   UNL A   1      41.742  25.963  28.391  1.00  0.00     0.049 A 
ATOM     48  H   UNL A   1      42.418  27.733  29.256  1.00  0.00     0.167 HD
ATOM     49  C   UNL A   1      43.735  31.576  30.908  1.00  0.00     0.037 A 
ATOM     50  C   UNL A   1      42.793  25.121  28.329  1.00  0.00     0.037 A 
ATOM     51  C   UNL A   1      44.889  30.716  30.969  1.00  0.00     0.049 A 
ATOM     52  C   UNL A   1      44.128  25.577  28.855  1.00  0.00     0.074 A 
ATOM     53  C   UNL A   1      46.141  30.993  31.487  1.00  0.00     0.029 A 
ATOM     54  N   UNL A   1      44.934  29.413  30.492  1.00  0.00    -0.354 N 
ATOM     55  N   UNL A   1      44.454  26.732  29.384  1.00  0.00    -0.248 NA
ATOM     56  C   UNL A   1      45.235  24.615  28.780  1.00  0.00     0.031 C 
ATOM     57  C   UNL A   1      46.959  29.879  31.275  1.00  0.00     0.029 A 
ATOM     58  C   UNL A   1      46.200  28.883  30.680  1.00  0.00     0.049 A 
ATOM     59  H   UNL A   1      44.177  28.936  30.081  1.00  0.00     0.167 HD
ATOM     60  C   UNL A   1      45.795  26.625  29.734  1.00  0.00     0.074 A 
ATOM     61  C   UNL A   1      46.216  25.289  29.365  1.00  0.00     0.031 C 
ATOM     62  C   UNL A   1      46.604  27.548  30.311  1.00  0.00     0.037 A 
BRANCH  49  63
ATOM     63  C   UNL A   1      43.867  32.989  31.408  1.00  0.00     0.058 A 
ATOM     64  C   UNL A   1      43.584  33.331  32.743  1.00  0.00     0.135 A 
ATOM     65  C   UNL A   1      44.304  34.013  30.552  1.00  0.00     0.135 A 
ATOM     66  F   UNL A   1      43.149  32.397  33.602  1.00  0.00    -0.206 F 
ATOM     67  C   UNL A   1      43.697  34.640  33.199  1.00  0.00     0.059 A 
ATOM     68  C   UNL A   1      44.455  35.325  30.996  1.00  0.00     0.059 A 
ATOM     69  F   UNL A   1      44.588  33.745  29.268  1.00  0.00    -0.206 F 
ATOM     70  C   UNL A   1      44.130  35.631  32.317  1.00  0.00     0.060 A 
BRANCH  70  71
ATOM     71  S   UNL A   1      44.263  37.326  32.923  1.00  0.00     0.124 S 
ATOM     72  O   UNL A   1      45.607  37.325  33.493  1.00  0.00    -0.237 OA
ATOM     73  O   UNL A   1      44.093  38.107  31.703  1.00  0.00    -0.237 OA
ATOM     74  O   UNL A   1      43.173  37.430  33.889  1.00  0.00    -0.744 OA
ENDBRANCH  70  71
ENDBRANCH  49  63
BRANCH  50  75
ATOM     75  C   UNL A   1      42.617  23.756  27.766  1.00  0.00     0.058 A 
ATOM     76  C   UNL A   1      42.434  22.647  28.606  1.00  0.00     0.135 A 
ATOM     77  C   UNL A   1      42.611  23.532  26.380  1.00  0.00     0.135 A 
ATOM     78  F   UNL A   1      42.439  22.807  29.939  1.00  0.00    -0.206 F 
ATOM     79  C   UNL A   1      42.263  21.364  28.095  1.00  0.00     0.059 A 
ATOM     80  C   UNL A   1      42.414  22.264  25.845  1.00  0.00     0.059 A 
ATOM     81  F   UNL A   1      42.765  24.560  25.532  1.00  0.00    -0.206 F 
ATOM     82  C   UNL A   1      42.250  21.184  26.711  1.00  0.00     0.060 A 
BRANCH  82  83
ATOM     83  S   UNL A   1      41.973  19.523  26.058  1.00  0.00     0.124 S 
ATOM     84  O   UNL A   1      42.378  18.692  27.186  1.00  0.00    -0.237 OA
ATOM     85  O   UNL A   1      40.544  19.547  25.761  1.00  0.00    -0.237 OA
ATOM     86  O   UNL A   1      42.848  19.473  24.891  1.00  0.00    -0.744 OA
ENDBRANCH  82  83
ENDBRANCH  50  75
BRANCH  62  87
ATOM     87  C   UNL A   1      48.020  27.139  30.615  1.00  0.00     0.058 A 
ATOM     88  C   UNL A   1      49.062  27.341  29.698  1.00  0.00     0.135 A 
ATOM     89  C   UNL A   1      48.345  26.587  31.865  1.00  0.00     0.135 A 
ATOM     90  F   UNL A   1      48.806  27.858  28.486  1.00  0.00    -0.206 F 
ATOM     91  C   UNL A   1      50.374  26.990  30.000  1.00  0.00     0.059 A 
ATOM     92  C   UNL A   1      49.655  26.257  32.200  1.00  0.00     0.059 A 
ATOM     93  F   UNL A   1      47.388  26.381  32.783  1.00  0.00    -0.206 F 
ATOM     94  C   UNL A   1      50.661  26.453  31.257  1.00  0.00     0.060 A 
BRANCH  94  95
ATOM     95  S   UNL A   1      52.374  26.040  31.650  1.00  0.00     0.124 S 
ATOM     96  O   UNL A   1      52.247  24.655  32.092  1.00  0.00    -0.237 OA
ATOM     97  O   UNL A   1      53.045  26.238  30.369  1.00  0.00    -0.237 OA
ATOM     98  O   UNL A   1      52.726  27.001  32.691  1.00  0.00    -0.744 OA
ENDBRANCH  94  95
ENDBRANCH  62  87
ENDBRANCH  36  37
ENDBRANCH  28  31
ENDBRANCH  26  27
ENDBRANCH  25  26
ENDBRANCH   1  25
TORSDOF 18
ENDMDL
