MODEL 1
REMARK VINA RESULT:     -12.1      0.000      0.000
REMARK SMILES CC(C)(C(=O)NCCCCCCNC(=O)c1ccc(-c2c3nc(c(-c4c(F)cc(S(=O)(=O)[O-])cc4F)c4ccc([nH]4)c(-c4c(F)cc(S(=O)(=O)[O-])cc4F)c4nc(c(-c5c(F)cc(S(=O)(=O)[O-])cc5F)c5ccc2[nH]5)C=C4)C=C3)cc1)N1C(=O)/C(=C/c2ccc(C=O)cc2)SC1=S
REMARK SMILES IDX 9 1 8 2 7 3 6 4 4 5 5 6 2 8 1 9 3 10 82 11 83 12 96 13 84 14
REMARK SMILES IDX 85 15 95 16 97 17 86 18 87 19 88 20 94 21 89 22 93 23 90 24
REMARK SMILES IDX 91 25 92 26 10 27 11 28 12 29 13 30 14 31 15 33 16 34 17 35
REMARK SMILES IDX 81 36 18 37 80 38 19 39 20 40 21 41 74 42 22 43 79 44 73 45
REMARK SMILES IDX 75 46 23 47 78 48 72 49 71 50 24 52 58 53 37 54 57 55 38 56
REMARK SMILES IDX 41 57 56 58 76 59 39 60 40 61 55 63 77 64 42 65 25 66 26 67
REMARK SMILES IDX 35 68 27 69 28 70 34 71 36 72 29 73 30 74 31 75 32 76 33 77
REMARK SMILES IDX 59 78 60 79 69 80 61 81 62 82 68 83 70 84 63 85 64 86 65 87
REMARK SMILES IDX 66 88 67 89 43 90 44 91 53 92 45 93 46 94 52 95 54 96 47 97
REMARK SMILES IDX 48 98 49 99 50 100 51 101
REMARK H PARENT 6 7 13 32 75 51 41 62
REMARK Flexibility Score: inf
ROOT
ATOM      1  C   UNL A   1      36.250  21.404  25.808  1.00  0.00     0.002 C 
ENDROOT
BRANCH   1   2
ATOM      2  C   UNL A   1      35.362  21.297  24.566  1.00  0.00     0.021 C 
BRANCH   2   3
ATOM      3  C   UNL A   1      33.900  21.637  24.820  1.00  0.00     0.116 C 
BRANCH   3   4
ATOM      4  N   UNL A   1      33.330  22.466  23.771  1.00  0.00    -0.354 N 
ATOM      5  C   UNL A   1      32.989  23.791  23.753  1.00  0.00     0.245 C 
ATOM      6  O   UNL A   1      32.902  24.309  22.633  1.00  0.00    -0.272 OA
ATOM      7  H   UNL A   1      33.160  21.991  22.926  1.00  0.00     0.163 HD
BRANCH   5   8
ATOM      8  C   UNL A   1      32.876  24.646  25.067  1.00  0.00     0.122 C 
ATOM      9  C   UNL A   1      31.997  23.994  26.150  1.00  0.00     0.046 C 
ATOM     10  C   UNL A   1      34.353  24.783  25.513  1.00  0.00     0.046 C 
BRANCH   8  11
ATOM     11  N   UNL A   1      32.243  25.985  24.730  1.00  0.00    -0.278 N 
ATOM     12  C   UNL A   1      30.945  25.982  24.212  1.00  0.00     0.267 C 
ATOM     13  C   UNL A   1      32.653  27.232  25.175  1.00  0.00     0.149 C 
ATOM     14  O   UNL A   1      30.184  25.025  24.142  1.00  0.00    -0.268 OA
ATOM     15  C   UNL A   1      30.513  27.361  23.860  1.00  0.00     0.081 C 
ATOM     16  S   UNL A   1      31.632  28.489  24.495  1.00  0.00    -0.054 SA
ATOM     17  S   UNL A   1      33.859  27.689  26.235  1.00  0.00    -0.052 S 
ATOM     18  C   UNL A   1      29.390  27.636  23.178  1.00  0.00     0.029 C 
BRANCH  18  19
ATOM     19  C   UNL A   1      28.944  28.995  22.844  1.00  0.00    -0.024 A 
ATOM     20  C   UNL A   1      27.832  29.542  23.496  1.00  0.00     0.009 A 
ATOM     21  C   UNL A   1      29.651  29.779  21.920  1.00  0.00     0.009 A 
ATOM     22  C   UNL A   1      27.468  30.874  23.268  1.00  0.00     0.012 A 
ATOM     23  C   UNL A   1      29.302  31.113  21.703  1.00  0.00     0.012 A 
ATOM     24  C   UNL A   1      28.217  31.659  22.388  1.00  0.00     0.014 A 
BRANCH  24  25
ATOM     25  C   UNL A   1      27.885  33.084  22.187  1.00  0.00     0.260 C 
ATOM     26  O   UNL A   1      28.504  33.985  22.739  1.00  0.00    -0.298 OA
ENDBRANCH  24  25
ENDBRANCH  18  19
ENDBRANCH   8  11
ENDBRANCH   5   8
ENDBRANCH   3   4
ENDBRANCH   2   3
ENDBRANCH   1   2
BRANCH   1  27
ATOM     27  C   UNL A   1      37.608  22.080  25.584  1.00  0.00     0.002 C 
BRANCH  27  28
ATOM     28  C   UNL A   1      37.609  23.605  25.718  1.00  0.00     0.021 C 
BRANCH  28  29
ATOM     29  C   UNL A   1      38.658  24.159  26.676  1.00  0.00     0.116 C 
BRANCH  29  30
ATOM     30  N   UNL A   1      39.976  24.220  26.064  1.00  0.00    -0.352 N 
ATOM     31  C   UNL A   1      41.011  25.081  26.319  1.00  0.00     0.251 C 
ATOM     32  H   UNL A   1      40.149  23.546  25.367  1.00  0.00     0.163 HD
ATOM     33  O   UNL A   1      41.979  25.116  25.561  1.00  0.00    -0.269 OA
BRANCH  31  34
ATOM     34  C   UNL A   1      40.953  25.977  27.493  1.00  0.00     0.039 A 
ATOM     35  C   UNL A   1      41.888  27.010  27.603  1.00  0.00     0.014 A 
ATOM     36  C   UNL A   1      39.982  25.801  28.483  1.00  0.00     0.014 A 
ATOM     37  C   UNL A   1      41.810  27.900  28.676  1.00  0.00     0.010 A 
ATOM     38  C   UNL A   1      39.859  26.735  29.508  1.00  0.00     0.010 A 
ATOM     39  C   UNL A   1      40.774  27.792  29.618  1.00  0.00    -0.014 A 
BRANCH  39  40
ATOM     40  C   UNL A   1      40.630  28.780  30.718  1.00  0.00     0.031 A 
ATOM     41  C   UNL A   1      41.487  28.676  31.950  1.00  0.00     0.074 A 
ATOM     42  C   UNL A   1      39.686  29.739  30.629  1.00  0.00     0.049 A 
ATOM     43  N   UNL A   1      41.470  29.414  33.032  1.00  0.00    -0.248 NA
ATOM     44  C   UNL A   1      42.476  27.586  31.985  1.00  0.00     0.031 C 
ATOM     45  C   UNL A   1      38.762  29.912  29.505  1.00  0.00     0.029 A 
ATOM     46  N   UNL A   1      39.341  30.744  31.498  1.00  0.00    -0.354 N 
ATOM     47  C   UNL A   1      42.435  28.873  33.874  1.00  0.00     0.074 A 
ATOM     48  C   UNL A   1      42.978  27.712  33.204  1.00  0.00     0.031 C 
ATOM     49  C   UNL A   1      37.974  30.974  29.743  1.00  0.00     0.029 A 
ATOM     50  C   UNL A   1      38.305  31.530  31.051  1.00  0.00     0.049 A 
ATOM     51  H   UNL A   1      39.792  30.887  32.361  1.00  0.00     0.167 HD
ATOM     52  C   UNL A   1      42.848  29.319  35.085  1.00  0.00     0.037 A 
ATOM     53  C   UNL A   1      37.685  32.576  31.631  1.00  0.00     0.037 A 
ATOM     54  C   UNL A   1      42.313  30.487  35.738  1.00  0.00     0.049 A 
ATOM     55  C   UNL A   1      38.151  33.043  32.984  1.00  0.00     0.074 A 
ATOM     56  C   UNL A   1      42.700  31.053  36.939  1.00  0.00     0.029 A 
ATOM     57  N   UNL A   1      41.271  31.263  35.248  1.00  0.00    -0.354 N 
ATOM     58  N   UNL A   1      39.112  32.562  33.736  1.00  0.00    -0.248 NA
ATOM     59  C   UNL A   1      37.455  34.200  33.563  1.00  0.00     0.031 C 
ATOM     60  C   UNL A   1      41.858  32.138  37.204  1.00  0.00     0.029 A 
ATOM     61  C   UNL A   1      40.986  32.287  36.138  1.00  0.00     0.049 A 
ATOM     62  H   UNL A   1      40.805  31.109  34.396  1.00  0.00     0.167 HD
ATOM     63  C   UNL A   1      39.154  33.374  34.865  1.00  0.00     0.074 A 
ATOM     64  C   UNL A   1      38.133  34.385  34.688  1.00  0.00     0.031 C 
ATOM     65  C   UNL A   1      39.967  33.291  35.947  1.00  0.00     0.037 A 
BRANCH  52  66
ATOM     66  C   UNL A   1      43.931  28.543  35.786  1.00  0.00     0.058 A 
ATOM     67  C   UNL A   1      43.634  27.493  36.671  1.00  0.00     0.135 A 
ATOM     68  C   UNL A   1      45.285  28.825  35.542  1.00  0.00     0.135 A 
ATOM     69  F   UNL A   1      42.357  27.187  36.953  1.00  0.00    -0.206 F 
ATOM     70  C   UNL A   1      44.637  26.771  37.309  1.00  0.00     0.059 A 
ATOM     71  C   UNL A   1      46.306  28.096  36.145  1.00  0.00     0.059 A 
ATOM     72  F   UNL A   1      45.629  29.818  34.708  1.00  0.00    -0.206 F 
ATOM     73  C   UNL A   1      45.971  27.079  37.039  1.00  0.00     0.060 A 
BRANCH  73  74
ATOM     74  S   UNL A   1      47.260  26.129  37.872  1.00  0.00     0.124 S 
ATOM     75  O   UNL A   1      46.498  25.467  38.927  1.00  0.00    -0.237 OA
ATOM     76  O   UNL A   1      47.747  25.263  36.803  1.00  0.00    -0.237 OA
ATOM     77  O   UNL A   1      48.199  27.151  38.324  1.00  0.00    -0.744 OA
ENDBRANCH  73  74
ENDBRANCH  52  66
BRANCH  53  78
ATOM     78  C   UNL A   1      36.567  33.260  30.928  1.00  0.00     0.058 A 
ATOM     79  C   UNL A   1      35.238  33.094  31.348  1.00  0.00     0.135 A 
ATOM     80  C   UNL A   1      36.802  34.102  29.830  1.00  0.00     0.135 A 
ATOM     81  F   UNL A   1      34.960  32.294  32.389  1.00  0.00    -0.206 F 
ATOM     82  C   UNL A   1      34.183  33.723  30.697  1.00  0.00     0.059 A 
ATOM     83  C   UNL A   1      35.766  34.766  29.181  1.00  0.00     0.059 A 
ATOM     84  F   UNL A   1      38.056  34.309  29.397  1.00  0.00    -0.206 F 
ATOM     85  C   UNL A   1      34.457  34.562  29.615  1.00  0.00     0.060 A 
BRANCH  85  86
ATOM     86  S   UNL A   1      33.084  35.411  28.807  1.00  0.00     0.124 S 
ATOM     87  O   UNL A   1      32.339  35.920  29.952  1.00  0.00    -0.237 OA
ATOM     88  O   UNL A   1      33.776  36.409  27.998  1.00  0.00    -0.237 OA
ATOM     89  O   UNL A   1      32.430  34.346  28.051  1.00  0.00    -0.744 OA
ENDBRANCH  85  86
ENDBRANCH  53  78
BRANCH  65  90
ATOM     90  C   UNL A   1      39.814  34.342  37.014  1.00  0.00     0.058 A 
ATOM     91  C   UNL A   1      39.068  34.112  38.179  1.00  0.00     0.135 A 
ATOM     92  C   UNL A   1      40.467  35.580  36.888  1.00  0.00     0.135 A 
ATOM     93  F   UNL A   1      38.418  32.949  38.348  1.00  0.00    -0.206 F 
ATOM     94  C   UNL A   1      38.953  35.080  39.172  1.00  0.00     0.059 A 
ATOM     95  C   UNL A   1      40.393  36.550  37.882  1.00  0.00     0.059 A 
ATOM     96  F   UNL A   1      41.203  35.849  35.797  1.00  0.00    -0.206 F 
ATOM     97  C   UNL A   1      39.624  36.295  39.015  1.00  0.00     0.060 A 
BRANCH  97  98
ATOM     98  S   UNL A   1      39.494  37.529  40.327  1.00  0.00     0.124 S 
ATOM     99  O   UNL A   1      38.706  38.570  39.675  1.00  0.00    -0.237 OA
ATOM    100  O   UNL A   1      38.814  36.787  41.385  1.00  0.00    -0.237 OA
ATOM    101  O   UNL A   1      40.884  37.877  40.606  1.00  0.00    -0.744 OA
ENDBRANCH  97  98
ENDBRANCH  65  90
ENDBRANCH  39  40
ENDBRANCH  31  34
ENDBRANCH  29  30
ENDBRANCH  28  29
ENDBRANCH  27  28
ENDBRANCH   1  27
TORSDOF 19
ENDMDL
MODEL 2
REMARK VINA RESULT:     -11.7      1.368      2.330
REMARK SMILES CC(C)(C(=O)NCCCCCCNC(=O)c1ccc(-c2c3nc(c(-c4c(F)cc(S(=O)(=O)[O-])cc4F)c4ccc([nH]4)c(-c4c(F)cc(S(=O)(=O)[O-])cc4F)c4nc(c(-c5c(F)cc(S(=O)(=O)[O-])cc5F)c5ccc2[nH]5)C=C4)C=C3)cc1)N1C(=O)/C(=C/c2ccc(C=O)cc2)SC1=S
REMARK SMILES IDX 9 1 8 2 7 3 6 4 4 5 5 6 2 8 1 9 3 10 82 11 83 12 96 13 84 14
REMARK SMILES IDX 85 15 95 16 97 17 86 18 87 19 88 20 94 21 89 22 93 23 90 24
REMARK SMILES IDX 91 25 92 26 10 27 11 28 12 29 13 30 14 31 15 33 16 34 17 35
REMARK SMILES IDX 81 36 18 37 80 38 19 39 20 40 21 41 74 42 22 43 79 44 73 45
REMARK SMILES IDX 75 46 23 47 78 48 72 49 71 50 24 52 58 53 37 54 57 55 38 56
REMARK SMILES IDX 41 57 56 58 76 59 39 60 40 61 55 63 77 64 42 65 25 66 26 67
REMARK SMILES IDX 35 68 27 69 28 70 34 71 36 72 29 73 30 74 31 75 32 76 33 77
REMARK SMILES IDX 59 78 60 79 69 80 61 81 62 82 68 83 70 84 63 85 64 86 65 87
REMARK SMILES IDX 66 88 67 89 43 90 44 91 53 92 45 93 46 94 52 95 54 96 47 97
REMARK SMILES IDX 48 98 49 99 50 100 51 101
REMARK H PARENT 6 7 13 32 75 51 41 62
REMARK Flexibility Score: inf
ROOT
ATOM      1  C   UNL A   1      38.543  20.596  25.452  1.00  0.00     0.002 C 
ENDROOT
BRANCH   1   2
ATOM      2  C   UNL A   1      37.271  20.819  24.630  1.00  0.00     0.021 C 
BRANCH   2   3
ATOM      3  C   UNL A   1      36.060  21.218  25.462  1.00  0.00     0.116 C 
BRANCH   3   4
ATOM      4  N   UNL A   1      35.886  22.659  25.537  1.00  0.00    -0.354 N 
ATOM      5  C   UNL A   1      34.758  23.427  25.635  1.00  0.00     0.245 C 
ATOM      6  O   UNL A   1      34.923  24.573  26.072  1.00  0.00    -0.272 OA
ATOM      7  H   UNL A   1      36.726  23.171  25.512  1.00  0.00     0.163 HD
BRANCH   5   8
ATOM      8  C   UNL A   1      33.321  22.847  25.369  1.00  0.00     0.122 C 
ATOM      9  C   UNL A   1      33.226  22.012  24.079  1.00  0.00     0.046 C 
ATOM     10  C   UNL A   1      33.056  22.000  26.638  1.00  0.00     0.046 C 
BRANCH   8  11
ATOM     11  N   UNL A   1      32.344  24.000  25.223  1.00  0.00    -0.278 N 
ATOM     12  C   UNL A   1      32.524  24.878  24.150  1.00  0.00     0.267 C 
ATOM     13  C   UNL A   1      31.098  24.113  25.820  1.00  0.00     0.149 C 
ATOM     14  O   UNL A   1      33.293  24.738  23.207  1.00  0.00    -0.268 OA
ATOM     15  C   UNL A   1      31.538  25.991  24.205  1.00  0.00     0.081 C 
ATOM     16  S   UNL A   1      30.345  25.638  25.380  1.00  0.00    -0.054 SA
ATOM     17  S   UNL A   1      30.234  23.062  26.787  1.00  0.00    -0.052 S 
ATOM     18  C   UNL A   1      31.593  27.071  23.411  1.00  0.00     0.029 C 
BRANCH  18  19
ATOM     19  C   UNL A   1      30.612  28.165  23.443  1.00  0.00    -0.024 A 
ATOM     20  C   UNL A   1      30.917  29.352  24.120  1.00  0.00     0.009 A 
ATOM     21  C   UNL A   1      29.394  28.059  22.756  1.00  0.00     0.009 A 
ATOM     22  C   UNL A   1      30.038  30.440  24.061  1.00  0.00     0.012 A 
ATOM     23  C   UNL A   1      28.523  29.147  22.680  1.00  0.00     0.012 A 
ATOM     24  C   UNL A   1      28.855  30.339  23.324  1.00  0.00     0.014 A 
BRANCH  24  25
ATOM     25  C   UNL A   1      27.950  31.499  23.199  1.00  0.00     0.260 C 
ATOM     26  O   UNL A   1      26.923  31.602  23.858  1.00  0.00    -0.298 OA
ENDBRANCH  24  25
ENDBRANCH  18  19
ENDBRANCH   8  11
ENDBRANCH   5   8
ENDBRANCH   3   4
ENDBRANCH   2   3
ENDBRANCH   1   2
BRANCH   1  27
ATOM     27  C   UNL A   1      39.140  21.857  26.089  1.00  0.00     0.002 C 
BRANCH  27  28
ATOM     28  C   UNL A   1      40.483  21.659  26.796  1.00  0.00     0.021 C 
BRANCH  28  29
ATOM     29  C   UNL A   1      41.178  22.951  27.214  1.00  0.00     0.116 C 
BRANCH  29  30
ATOM     30  N   UNL A   1      41.804  23.622  26.087  1.00  0.00    -0.352 N 
ATOM     31  C   UNL A   1      41.978  24.963  25.864  1.00  0.00     0.251 C 
ATOM     32  H   UNL A   1      42.153  23.028  25.383  1.00  0.00     0.163 HD
ATOM     33  O   UNL A   1      42.345  25.357  24.759  1.00  0.00    -0.269 OA
BRANCH  31  34
ATOM     34  C   UNL A   1      41.707  25.932  26.947  1.00  0.00     0.039 A 
ATOM     35  C   UNL A   1      40.677  25.664  27.853  1.00  0.00     0.014 A 
ATOM     36  C   UNL A   1      42.464  27.101  27.070  1.00  0.00     0.014 A 
ATOM     37  C   UNL A   1      40.447  26.540  28.915  1.00  0.00     0.010 A 
ATOM     38  C   UNL A   1      42.283  27.931  28.173  1.00  0.00     0.010 A 
ATOM     39  C   UNL A   1      41.270  27.662  29.105  1.00  0.00    -0.014 A 
BRANCH  39  40
ATOM     40  C   UNL A   1      41.089  28.557  30.276  1.00  0.00     0.031 A 
ATOM     41  C   UNL A   1      41.951  28.392  31.499  1.00  0.00     0.074 A 
ATOM     42  C   UNL A   1      40.109  29.484  30.259  1.00  0.00     0.049 A 
ATOM     43  N   UNL A   1      41.907  29.044  32.633  1.00  0.00    -0.248 NA
ATOM     44  C   UNL A   1      42.980  27.341  31.452  1.00  0.00     0.031 C 
ATOM     45  C   UNL A   1      39.178  29.707  29.150  1.00  0.00     0.029 A 
ATOM     46  N   UNL A   1      39.727  30.405  31.202  1.00  0.00    -0.354 N 
ATOM     47  C   UNL A   1      42.892  28.478  33.434  1.00  0.00     0.074 A 
ATOM     48  C   UNL A   1      43.479  27.393  32.678  1.00  0.00     0.031 C 
ATOM     49  C   UNL A   1      38.351  30.717  29.467  1.00  0.00     0.029 A 
ATOM     50  C   UNL A   1      38.661  31.184  30.814  1.00  0.00     0.049 A 
ATOM     51  H   UNL A   1      40.173  30.499  32.074  1.00  0.00     0.167 HD
ATOM     52  C   UNL A   1      43.289  28.845  34.676  1.00  0.00     0.037 A 
ATOM     53  C   UNL A   1      38.003  32.158  31.472  1.00  0.00     0.037 A 
ATOM     54  C   UNL A   1      42.711  29.938  35.415  1.00  0.00     0.049 A 
ATOM     55  C   UNL A   1      38.452  32.538  32.857  1.00  0.00     0.074 A 
ATOM     56  C   UNL A   1      43.078  30.425  36.657  1.00  0.00     0.029 A 
ATOM     57  N   UNL A   1      41.641  30.709  34.984  1.00  0.00    -0.354 N 
ATOM     58  N   UNL A   1      39.431  32.037  33.572  1.00  0.00    -0.248 NA
ATOM     59  C   UNL A   1      37.714  33.620  33.521  1.00  0.00     0.031 C 
ATOM     60  C   UNL A   1      42.195  31.454  37.002  1.00  0.00     0.029 A 
ATOM     61  C   UNL A   1      41.317  31.651  35.949  1.00  0.00     0.049 A 
ATOM     62  H   UNL A   1      41.179  30.604  34.122  1.00  0.00     0.167 HD
ATOM     63  C   UNL A   1      39.444  32.762  34.759  1.00  0.00     0.074 A 
ATOM     64  C   UNL A   1      38.385  33.744  34.658  1.00  0.00     0.031 C 
ATOM     65  C   UNL A   1      40.261  32.627  35.834  1.00  0.00     0.037 A 
BRANCH  52  66
ATOM     66  C   UNL A   1      44.402  28.059  35.318  1.00  0.00     0.058 A 
ATOM     67  C   UNL A   1      45.738  28.489  35.264  1.00  0.00     0.135 A 
ATOM     68  C   UNL A   1      44.124  26.881  36.032  1.00  0.00     0.135 A 
ATOM     69  F   UNL A   1      46.064  29.600  34.584  1.00  0.00    -0.206 F 
ATOM     70  C   UNL A   1      46.762  27.765  35.867  1.00  0.00     0.059 A 
ATOM     71  C   UNL A   1      45.129  26.158  36.670  1.00  0.00     0.059 A 
ATOM     72  F   UNL A   1      42.867  26.422  36.116  1.00  0.00    -0.206 F 
ATOM     73  C   UNL A   1      46.447  26.601  36.569  1.00  0.00     0.060 A 
BRANCH  73  74
ATOM     74  S   UNL A   1      47.787  25.678  37.350  1.00  0.00     0.124 S 
ATOM     75  O   UNL A   1      47.496  24.316  36.913  1.00  0.00    -0.237 OA
ATOM     76  O   UNL A   1      48.973  26.294  36.761  1.00  0.00    -0.237 OA
ATOM     77  O   UNL A   1      47.593  25.935  38.774  1.00  0.00    -0.744 OA
ENDBRANCH  73  74
ENDBRANCH  52  66
BRANCH  53  78
ATOM     78  C   UNL A   1      36.859  32.851  30.821  1.00  0.00     0.058 A 
ATOM     79  C   UNL A   1      37.069  33.903  29.916  1.00  0.00     0.135 A 
ATOM     80  C   UNL A   1      35.533  32.470  31.078  1.00  0.00     0.135 A 
ATOM     81  F   UNL A   1      38.318  34.310  29.641  1.00  0.00    -0.206 F 
ATOM     82  C   UNL A   1      36.009  34.563  29.305  1.00  0.00     0.059 A 
ATOM     83  C   UNL A   1      34.457  33.095  30.457  1.00  0.00     0.059 A 
ATOM     84  F   UNL A   1      35.276  31.458  31.923  1.00  0.00    -0.206 F 
ATOM     85  C   UNL A   1      34.704  34.148  29.578  1.00  0.00     0.060 A 
BRANCH  85  86
ATOM     86  S   UNL A   1      33.337  34.981  28.742  1.00  0.00     0.124 S 
ATOM     87  O   UNL A   1      32.566  35.486  29.871  1.00  0.00    -0.237 OA
ATOM     88  O   UNL A   1      34.035  35.983  27.943  1.00  0.00    -0.237 OA
ATOM     89  O   UNL A   1      32.709  33.907  27.978  1.00  0.00    -0.744 OA
ENDBRANCH  85  86
ENDBRANCH  53  78
BRANCH  65  90
ATOM     90  C   UNL A   1      40.069  33.587  36.977  1.00  0.00     0.058 A 
ATOM     91  C   UNL A   1      40.750  34.812  37.038  1.00  0.00     0.135 A 
ATOM     92  C   UNL A   1      39.151  33.297  38.000  1.00  0.00     0.135 A 
ATOM     93  F   UNL A   1      41.644  35.138  36.090  1.00  0.00    -0.206 F 
ATOM     94  C   UNL A   1      40.547  35.706  38.084  1.00  0.00     0.059 A 
ATOM     95  C   UNL A   1      38.907  34.189  39.038  1.00  0.00     0.059 A 
ATOM     96  F   UNL A   1      38.464  32.143  37.986  1.00  0.00    -0.206 F 
ATOM     97  C   UNL A   1      39.619  35.387  39.078  1.00  0.00     0.060 A 
BRANCH  97  98
ATOM     98  S   UNL A   1      39.341  36.570  40.413  1.00  0.00     0.124 S 
ATOM     99  O   UNL A   1      40.607  36.503  41.135  1.00  0.00    -0.237 OA
ATOM    100  O   UNL A   1      39.091  37.809  39.682  1.00  0.00    -0.237 OA
ATOM    101  O   UNL A   1      38.186  36.023  41.119  1.00  0.00    -0.744 OA
ENDBRANCH  97  98
ENDBRANCH  65  90
ENDBRANCH  39  40
ENDBRANCH  31  34
ENDBRANCH  29  30
ENDBRANCH  28  29
ENDBRANCH  27  28
ENDBRANCH   1  27
TORSDOF 19
ENDMDL
MODEL 3
REMARK VINA RESULT:     -11.4      1.319      2.026
REMARK SMILES CC(C)(C(=O)NCCCCCCNC(=O)c1ccc(-c2c3nc(c(-c4c(F)cc(S(=O)(=O)[O-])cc4F)c4ccc([nH]4)c(-c4c(F)cc(S(=O)(=O)[O-])cc4F)c4nc(c(-c5c(F)cc(S(=O)(=O)[O-])cc5F)c5ccc2[nH]5)C=C4)C=C3)cc1)N1C(=O)/C(=C/c2ccc(C=O)cc2)SC1=S
REMARK SMILES IDX 9 1 8 2 7 3 6 4 4 5 5 6 2 8 1 9 3 10 82 11 83 12 96 13 84 14
REMARK SMILES IDX 85 15 95 16 97 17 86 18 87 19 88 20 94 21 89 22 93 23 90 24
REMARK SMILES IDX 91 25 92 26 10 27 11 28 12 29 13 30 14 31 15 33 16 34 17 35
REMARK SMILES IDX 81 36 18 37 80 38 19 39 20 40 21 41 74 42 22 43 79 44 73 45
REMARK SMILES IDX 75 46 23 47 78 48 72 49 71 50 24 52 58 53 37 54 57 55 38 56
REMARK SMILES IDX 41 57 56 58 76 59 39 60 40 61 55 63 77 64 42 65 25 66 26 67
REMARK SMILES IDX 35 68 27 69 28 70 34 71 36 72 29 73 30 74 31 75 32 76 33 77
REMARK SMILES IDX 59 78 60 79 69 80 61 81 62 82 68 83 70 84 63 85 64 86 65 87
REMARK SMILES IDX 66 88 67 89 43 90 44 91 53 92 45 93 46 94 52 95 54 96 47 97
REMARK SMILES IDX 48 98 49 99 50 100 51 101
REMARK H PARENT 6 7 13 32 75 51 41 62
REMARK Flexibility Score: inf
ROOT
ATOM      1  C   UNL A   1      38.945  19.972  25.420  1.00  0.00     0.002 C 
ENDROOT
BRANCH   1   2
ATOM      2  C   UNL A   1      37.513  19.632  25.000  1.00  0.00     0.021 C 
BRANCH   2   3
ATOM      3  C   UNL A   1      36.504  20.732  25.297  1.00  0.00     0.116 C 
BRANCH   3   4
ATOM      4  N   UNL A   1      35.144  20.348  24.956  1.00  0.00    -0.354 N 
ATOM      5  C   UNL A   1      33.954  21.004  25.117  1.00  0.00     0.245 C 
ATOM      6  O   UNL A   1      33.027  20.623  24.392  1.00  0.00    -0.272 OA
ATOM      7  H   UNL A   1      35.066  19.462  24.536  1.00  0.00     0.163 HD
BRANCH   5   8
ATOM      8  C   UNL A   1      33.811  22.268  26.041  1.00  0.00     0.122 C 
ATOM      9  C   UNL A   1      32.948  22.019  27.291  1.00  0.00     0.046 C 
ATOM     10  C   UNL A   1      35.282  22.597  26.398  1.00  0.00     0.046 C 
BRANCH   8  11
ATOM     11  N   UNL A   1      33.140  23.380  25.254  1.00  0.00    -0.278 N 
ATOM     12  C   UNL A   1      32.189  24.164  25.912  1.00  0.00     0.267 C 
ATOM     13  C   UNL A   1      33.580  23.936  24.063  1.00  0.00     0.149 C 
ATOM     14  O   UNL A   1      31.940  24.165  27.111  1.00  0.00    -0.268 OA
ATOM     15  C   UNL A   1      31.572  25.144  24.977  1.00  0.00     0.081 C 
ATOM     16  S   UNL A   1      32.458  25.171  23.514  1.00  0.00    -0.054 SA
ATOM     17  S   UNL A   1      34.956  23.668  23.156  1.00  0.00    -0.052 S 
ATOM     18  C   UNL A   1      30.506  25.897  25.289  1.00  0.00     0.029 C 
BRANCH  18  19
ATOM     19  C   UNL A   1      29.904  26.883  24.381  1.00  0.00    -0.024 A 
ATOM     20  C   UNL A   1      28.560  26.755  24.008  1.00  0.00     0.009 A 
ATOM     21  C   UNL A   1      30.640  27.986  23.925  1.00  0.00     0.009 A 
ATOM     22  C   UNL A   1      27.947  27.748  23.237  1.00  0.00     0.012 A 
ATOM     23  C   UNL A   1      30.028  28.988  23.170  1.00  0.00     0.012 A 
ATOM     24  C   UNL A   1      28.678  28.871  22.838  1.00  0.00     0.014 A 
BRANCH  24  25
ATOM     25  C   UNL A   1      28.028  29.958  22.079  1.00  0.00     0.260 C 
ATOM     26  O   UNL A   1      28.161  30.081  20.868  1.00  0.00    -0.298 OA
ENDBRANCH  24  25
ENDBRANCH  18  19
ENDBRANCH   8  11
ENDBRANCH   5   8
ENDBRANCH   3   4
ENDBRANCH   2   3
ENDBRANCH   1   2
BRANCH   1  27
ATOM     27  C   UNL A   1      39.136  21.369  26.021  1.00  0.00     0.002 C 
BRANCH  27  28
ATOM     28  C   UNL A   1      40.406  21.555  26.856  1.00  0.00     0.021 C 
BRANCH  28  29
ATOM     29  C   UNL A   1      40.691  22.994  27.269  1.00  0.00     0.116 C 
BRANCH  29  30
ATOM     30  N   UNL A   1      41.225  23.780  26.169  1.00  0.00    -0.352 N 
ATOM     31  C   UNL A   1      41.417  25.135  26.085  1.00  0.00     0.251 C 
ATOM     32  H   UNL A   1      41.486  23.267  25.371  1.00  0.00     0.163 HD
ATOM     33  O   UNL A   1      41.687  25.649  25.000  1.00  0.00    -0.269 OA
BRANCH  31  34
ATOM     34  C   UNL A   1      41.282  25.976  27.292  1.00  0.00     0.039 A 
ATOM     35  C   UNL A   1      42.400  26.670  27.763  1.00  0.00     0.014 A 
ATOM     36  C   UNL A   1      40.058  26.081  27.960  1.00  0.00     0.014 A 
ATOM     37  C   UNL A   1      42.274  27.513  28.868  1.00  0.00     0.010 A 
ATOM     38  C   UNL A   1      39.917  26.981  29.012  1.00  0.00     0.010 A 
ATOM     39  C   UNL A   1      41.024  27.704  29.481  1.00  0.00    -0.014 A 
BRANCH  39  40
ATOM     40  C   UNL A   1      40.858  28.661  30.605  1.00  0.00     0.031 A 
ATOM     41  C   UNL A   1      41.700  28.530  31.845  1.00  0.00     0.074 A 
ATOM     42  C   UNL A   1      39.907  29.615  30.530  1.00  0.00     0.049 A 
ATOM     43  N   UNL A   1      41.664  29.238  32.946  1.00  0.00    -0.248 NA
ATOM     44  C   UNL A   1      42.698  27.448  31.862  1.00  0.00     0.031 C 
ATOM     45  C   UNL A   1      38.996  29.810  29.400  1.00  0.00     0.029 A 
ATOM     46  N   UNL A   1      39.543  30.592  31.421  1.00  0.00    -0.354 N 
ATOM     47  C   UNL A   1      42.622  28.683  33.785  1.00  0.00     0.074 A 
ATOM     48  C   UNL A   1      43.183  27.545  33.091  1.00  0.00     0.031 C 
ATOM     49  C   UNL A   1      38.197  30.859  29.656  1.00  0.00     0.029 A 
ATOM     50  C   UNL A   1      38.506  31.382  30.982  1.00  0.00     0.049 A 
ATOM     51  H   UNL A   1      39.982  30.716  32.293  1.00  0.00     0.167 HD
ATOM     52  C   UNL A   1      43.016  29.099  35.013  1.00  0.00     0.037 A 
ATOM     53  C   UNL A   1      37.871  32.407  31.583  1.00  0.00     0.037 A 
ATOM     54  C   UNL A   1      42.463  30.244  35.690  1.00  0.00     0.049 A 
ATOM     55  C   UNL A   1      38.315  32.841  32.954  1.00  0.00     0.074 A 
ATOM     56  C   UNL A   1      42.830  30.780  36.911  1.00  0.00     0.029 A 
ATOM     57  N   UNL A   1      41.422  31.024  35.209  1.00  0.00    -0.354 N 
ATOM     58  N   UNL A   1      39.271  32.347  33.705  1.00  0.00    -0.248 NA
ATOM     59  C   UNL A   1      37.603  33.977  33.555  1.00  0.00     0.031 C 
ATOM     60  C   UNL A   1      41.976  31.850  37.195  1.00  0.00     0.029 A 
ATOM     61  C   UNL A   1      41.117  32.021  36.122  1.00  0.00     0.049 A 
ATOM     62  H   UNL A   1      40.967  30.890  34.347  1.00  0.00     0.167 HD
ATOM     63  C   UNL A   1      39.292  33.128  34.855  1.00  0.00     0.074 A 
ATOM     64  C   UNL A   1      38.265  34.136  34.693  1.00  0.00     0.031 C 
ATOM     65  C   UNL A   1      40.092  33.022  35.946  1.00  0.00     0.037 A 
BRANCH  52  66
ATOM     66  C   UNL A   1      44.096  28.312  35.707  1.00  0.00     0.058 A 
ATOM     67  C   UNL A   1      43.795  27.262  36.590  1.00  0.00     0.135 A 
ATOM     68  C   UNL A   1      45.451  28.585  35.456  1.00  0.00     0.135 A 
ATOM     69  F   UNL A   1      42.518  26.965  36.878  1.00  0.00    -0.206 F 
ATOM     70  C   UNL A   1      44.797  26.531  37.222  1.00  0.00     0.059 A 
ATOM     71  C   UNL A   1      46.470  27.845  36.053  1.00  0.00     0.059 A 
ATOM     72  F   UNL A   1      45.799  29.577  34.623  1.00  0.00    -0.206 F 
ATOM     73  C   UNL A   1      46.131  26.829  36.946  1.00  0.00     0.060 A 
BRANCH  73  74
ATOM     74  S   UNL A   1      47.417  25.867  37.770  1.00  0.00     0.124 S 
ATOM     75  O   UNL A   1      47.241  26.276  39.160  1.00  0.00    -0.237 OA
ATOM     76  O   UNL A   1      47.026  24.495  37.458  1.00  0.00    -0.237 OA
ATOM     77  O   UNL A   1      48.647  26.325  37.132  1.00  0.00    -0.744 OA
ENDBRANCH  73  74
ENDBRANCH  52  66
BRANCH  53  78
ATOM     78  C   UNL A   1      36.755  33.101  30.884  1.00  0.00     0.058 A 
ATOM     79  C   UNL A   1      35.422  32.908  31.278  1.00  0.00     0.135 A 
ATOM     80  C   UNL A   1      36.998  33.981  29.817  1.00  0.00     0.135 A 
ATOM     81  F   UNL A   1      35.137  32.072  32.288  1.00  0.00    -0.206 F 
ATOM     82  C   UNL A   1      34.370  33.546  30.630  1.00  0.00     0.059 A 
ATOM     83  C   UNL A   1      35.965  34.653  29.173  1.00  0.00     0.059 A 
ATOM     84  F   UNL A   1      38.256  34.215  29.411  1.00  0.00    -0.206 F 
ATOM     85  C   UNL A   1      34.652  34.421  29.580  1.00  0.00     0.060 A 
BRANCH  85  86
ATOM     86  S   UNL A   1      33.282  35.281  28.778  1.00  0.00     0.124 S 
ATOM     87  O   UNL A   1      32.670  34.205  28.008  1.00  0.00    -0.237 OA
ATOM     88  O   UNL A   1      32.516  35.767  29.921  1.00  0.00    -0.237 OA
ATOM     89  O   UNL A   1      33.950  36.318  27.995  1.00  0.00    -0.744 OA
ENDBRANCH  85  86
ENDBRANCH  53  78
BRANCH  65  90
ATOM     90  C   UNL A   1      39.917  34.043  37.038  1.00  0.00     0.058 A 
ATOM     91  C   UNL A   1      40.467  35.330  36.945  1.00  0.00     0.135 A 
ATOM     92  C   UNL A   1      39.142  33.743  38.171  1.00  0.00     0.135 A 
ATOM     93  F   UNL A   1      41.222  35.668  35.887  1.00  0.00    -0.206 F 
ATOM     94  C   UNL A   1      40.278  36.276  37.947  1.00  0.00     0.059 A 
ATOM     95  C   UNL A   1      38.912  34.683  39.170  1.00  0.00     0.059 A 
ATOM     96  F   UNL A   1      38.583  32.529  38.307  1.00  0.00    -0.206 F 
ATOM     97  C   UNL A   1      39.495  35.944  39.054  1.00  0.00     0.060 A 
BRANCH  97  98
ATOM     98  S   UNL A   1      39.230  37.192  40.331  1.00  0.00     0.124 S 
ATOM     99  O   UNL A   1      38.445  36.449  41.312  1.00  0.00    -0.237 OA
ATOM    100  O   UNL A   1      40.594  37.525  40.729  1.00  0.00    -0.237 OA
ATOM    101  O   UNL A   1      38.512  38.252  39.628  1.00  0.00    -0.744 OA
ENDBRANCH  97  98
ENDBRANCH  65  90
ENDBRANCH  39  40
ENDBRANCH  31  34
ENDBRANCH  29  30
ENDBRANCH  28  29
ENDBRANCH  27  28
ENDBRANCH   1  27
TORSDOF 19
ENDMDL
