MODEL 1
REMARK VINA RESULT:     -12.2      0.000      0.000
REMARK SMILES O=C(NCCCCCCNC(=O)c1ccc(-c2c3nc(c(-c4c(F)cc(S(=O)(=O)[O-])cc4F)c4ccc([nH]4)c(-c4c(F)cc(S(=O)(=O)[O-])cc4F)c4nc(c(-c5c(F)cc(S(=O)(=O)[O-])cc5F)c5ccc2[nH]5)C=C4)C=C3)cc1)C1=Cc2cc(S(F)(F)(F)(F)F)ccc2O[C@@H]1C(F)(F)F
REMARK SMILES IDX 7 1 6 2 5 3 4 4 3 5 1 6 2 7 79 9 80 10 94 11 81 12 93 13
REMARK SMILES IDX 82 14 92 15 83 16 91 17 90 18 95 19 96 20 97 21 98 22 84 23
REMARK SMILES IDX 85 24 86 25 87 26 88 27 89 28 8 29 9 30 10 31 11 32 12 34
REMARK SMILES IDX 13 35 14 36 78 37 15 38 77 39 16 40 17 41 18 42 71 43 19 44
REMARK SMILES IDX 76 45 70 46 72 47 20 48 75 49 69 50 68 51 21 53 55 54 34 55
REMARK SMILES IDX 54 56 35 57 38 58 53 59 73 60 36 61 37 62 52 64 74 65 39 66
REMARK SMILES IDX 22 67 23 68 32 69 24 70 25 71 31 72 33 73 26 74 27 75 28 76
REMARK SMILES IDX 29 77 30 78 56 79 57 80 66 81 58 82 59 83 65 84 67 85 60 86
REMARK SMILES IDX 61 87 62 88 63 89 64 90 40 91 41 92 50 93 42 94 43 95 49 96
REMARK SMILES IDX 51 97 44 98 45 99 46 100 47 101 48 102
REMARK H PARENT 3 8 10 33 72 52 38 63
REMARK Flexibility Score: inf
ROOT
ATOM      1  C   UNL A   1      34.407  31.734  28.230  1.00  0.00     0.002 C 
ENDROOT
BRANCH   1   2
ATOM      2  C   UNL A   1      34.811  30.526  27.399  1.00  0.00     0.002 C 
BRANCH   2   3
ATOM      3  C   UNL A   1      33.582  29.944  26.720  1.00  0.00     0.021 C 
BRANCH   3   4
ATOM      4  C   UNL A   1      33.713  28.431  26.647  1.00  0.00     0.116 C 
BRANCH   4   5
ATOM      5  N   UNL A   1      32.530  27.807  27.257  1.00  0.00    -0.352 N 
ATOM      6  O   UNL A   1      30.441  26.722  26.930  1.00  0.00    -0.270 OA
ATOM      7  C   UNL A   1      31.464  27.262  26.403  1.00  0.00     0.251 C 
ATOM      8  H   UNL A   1      32.450  27.755  28.236  1.00  0.00     0.163 HD
BRANCH   7   9
ATOM      9  C   UNL A   1      31.587  27.343  24.890  1.00  0.00     0.067 C 
ATOM     10  C   UNL A   1      32.360  26.446  24.222  1.00  0.00     0.025 C 
ATOM     11  C   UNL A   1      30.844  28.426  24.125  1.00  0.00     0.314 C 
ATOM     12  C   UNL A   1      33.103  25.362  24.986  1.00  0.00     0.019 A 
ATOM     13  O   UNL A   1      31.058  25.125  26.174  1.00  0.00    -0.475 OA
ATOM     14  C   UNL A   1      34.456  25.116  24.818  1.00  0.00     0.036 A 
ATOM     15  C   UNL A   1      32.400  24.734  25.922  1.00  0.00     0.128 A 
ATOM     16  C   UNL A   1      34.919  23.967  25.502  1.00  0.00     0.107 A 
ATOM     17  C   UNL A   1      32.959  23.710  26.646  1.00  0.00     0.048 A 
ATOM     18  C   UNL A   1      34.275  23.373  26.489  1.00  0.00     0.028 A 
BRANCH  11  19
ATOM     19  C   UNL A   1      29.887  27.781  23.135  1.00  0.00     0.429 C 
ATOM     20  F   UNL A   1      29.445  26.629  23.631  1.00  0.00    -0.167 F 
ATOM     21  F   UNL A   1      28.858  28.595  22.920  1.00  0.00    -0.167 F 
ATOM     22  F   UNL A   1      30.522  27.555  21.988  1.00  0.00    -0.167 F 
ENDBRANCH  11  19
BRANCH  16  23
ATOM     23  S   UNL A   1      36.505  23.263  24.986  1.00  0.00     0.310 S 
ATOM     24  F   UNL A   1      36.434  22.113  26.076  1.00  0.00    -0.094 F 
ATOM     25  F   UNL A   1      37.227  24.150  26.070  1.00  0.00    -0.094 F 
ATOM     26  F   UNL A   1      37.865  22.664  24.531  1.00  0.00    -0.094 F 
ATOM     27  F   UNL A   1      35.752  22.281  24.006  1.00  0.00    -0.094 F 
ATOM     28  F   UNL A   1      35.108  23.781  25.517  1.00  0.00    -0.094 F 
ENDBRANCH  16  23
ENDBRANCH   7   9
ENDBRANCH   4   5
ENDBRANCH   3   4
ENDBRANCH   2   3
ENDBRANCH   1   2
BRANCH   1  29
ATOM     29  C   UNL A   1      35.455  32.824  28.083  1.00  0.00     0.021 C 
BRANCH  29  30
ATOM     30  C   UNL A   1      36.467  32.709  29.211  1.00  0.00     0.116 C 
BRANCH  30  31
ATOM     31  N   UNL A   1      35.875  31.957  30.326  1.00  0.00    -0.352 N 
ATOM     32  C   UNL A   1      36.601  30.823  30.916  1.00  0.00     0.251 C 
ATOM     33  H   UNL A   1      34.991  32.213  30.678  1.00  0.00     0.163 HD
ATOM     34  O   UNL A   1      36.088  30.172  31.880  1.00  0.00    -0.269 OA
BRANCH  32  35
ATOM     35  C   UNL A   1      37.964  30.428  30.372  1.00  0.00     0.039 A 
ATOM     36  C   UNL A   1      38.131  30.271  29.006  1.00  0.00     0.014 A 
ATOM     37  C   UNL A   1      38.973  30.239  31.215  1.00  0.00     0.014 A 
ATOM     38  C   UNL A   1      39.338  29.627  28.646  1.00  0.00     0.010 A 
ATOM     39  C   UNL A   1      40.171  29.733  30.770  1.00  0.00     0.010 A 
ATOM     40  C   UNL A   1      40.384  29.499  29.440  1.00  0.00    -0.014 A 
BRANCH  40  41
ATOM     41  C   UNL A   1      41.753  29.111  28.906  1.00  0.00     0.031 A 
ATOM     42  C   UNL A   1      42.725  30.109  28.804  1.00  0.00     0.074 A 
ATOM     43  C   UNL A   1      41.962  27.790  28.551  1.00  0.00     0.049 A 
ATOM     44  N   UNL A   1      43.988  29.976  28.396  1.00  0.00    -0.248 NA
ATOM     45  C   UNL A   1      42.496  31.520  29.148  1.00  0.00     0.031 C 
ATOM     46  C   UNL A   1      40.990  26.775  28.658  1.00  0.00     0.029 A 
ATOM     47  N   UNL A   1      43.108  27.222  28.042  1.00  0.00    -0.354 N 
ATOM     48  C   UNL A   1      44.616  31.152  28.453  1.00  0.00     0.074 A 
ATOM     49  C   UNL A   1      43.664  32.163  28.932  1.00  0.00     0.031 C 
ATOM     50  C   UNL A   1      41.539  25.616  28.210  1.00  0.00     0.029 A 
ATOM     51  C   UNL A   1      42.863  25.885  27.815  1.00  0.00     0.049 A 
ATOM     52  H   UNL A   1      43.957  27.690  27.869  1.00  0.00     0.167 HD
ATOM     53  C   UNL A   1      45.947  31.421  28.127  1.00  0.00     0.037 A 
ATOM     54  C   UNL A   1      43.731  24.940  27.292  1.00  0.00     0.037 A 
ATOM     55  C   UNL A   1      46.827  30.466  27.645  1.00  0.00     0.049 A 
ATOM     56  C   UNL A   1      45.045  25.221  26.911  1.00  0.00     0.074 A 
ATOM     57  C   UNL A   1      48.174  30.717  27.319  1.00  0.00     0.029 A 
ATOM     58  N   UNL A   1      46.575  29.134  27.396  1.00  0.00    -0.354 N 
ATOM     59  N   UNL A   1      45.684  26.387  27.005  1.00  0.00    -0.248 NA
ATOM     60  C   UNL A   1      45.963  24.235  26.326  1.00  0.00     0.031 C 
ATOM     61  C   UNL A   1      48.723  29.557  26.871  1.00  0.00     0.029 A 
ATOM     62  C   UNL A   1      47.728  28.561  26.908  1.00  0.00     0.049 A 
ATOM     63  H   UNL A   1      45.718  28.673  27.542  1.00  0.00     0.167 HD
ATOM     64  C   UNL A   1      46.937  26.263  26.558  1.00  0.00     0.074 A 
ATOM     65  C   UNL A   1      47.131  24.879  26.108  1.00  0.00     0.031 C 
ATOM     66  C   UNL A   1      47.925  27.248  26.510  1.00  0.00     0.037 A 
BRANCH  53  67
ATOM     67  C   UNL A   1      46.457  32.840  28.310  1.00  0.00     0.058 A 
ATOM     68  C   UNL A   1      47.013  33.157  29.539  1.00  0.00     0.135 A 
ATOM     69  C   UNL A   1      46.414  33.729  27.324  1.00  0.00     0.135 A 
ATOM     70  F   UNL A   1      47.308  32.242  30.459  1.00  0.00    -0.206 F 
ATOM     71  C   UNL A   1      47.240  34.541  29.725  1.00  0.00     0.059 A 
ATOM     72  C   UNL A   1      46.780  35.035  27.543  1.00  0.00     0.059 A 
ATOM     73  F   UNL A   1      46.013  33.351  26.114  1.00  0.00    -0.206 F 
ATOM     74  C   UNL A   1      47.283  35.431  28.752  1.00  0.00     0.060 A 
BRANCH  74  75
ATOM     75  S   UNL A   1      47.968  37.088  29.003  1.00  0.00     0.124 S 
ATOM     76  O   UNL A   1      49.483  37.050  28.790  1.00  0.00    -0.237 OA
ATOM     77  O   UNL A   1      47.335  38.058  28.003  1.00  0.00    -0.237 OA
ATOM     78  O   UNL A   1      47.628  37.610  30.596  1.00  0.00    -0.744 OA
ENDBRANCH  74  75
ENDBRANCH  53  67
BRANCH  54  79
ATOM     79  C   UNL A   1      43.224  23.517  27.125  1.00  0.00     0.058 A 
ATOM     80  C   UNL A   1      43.183  22.636  28.194  1.00  0.00     0.135 A 
ATOM     81  C   UNL A   1      42.868  23.135  25.904  1.00  0.00     0.135 A 
ATOM     82  F   UNL A   1      43.283  23.029  29.461  1.00  0.00    -0.206 F 
ATOM     83  C   UNL A   1      43.025  21.282  27.816  1.00  0.00     0.059 A 
ATOM     84  C   UNL A   1      42.596  21.815  25.637  1.00  0.00     0.059 A 
ATOM     85  F   UNL A   1      42.775  24.037  24.933  1.00  0.00    -0.206 F 
ATOM     86  C   UNL A   1      42.596  20.880  26.634  1.00  0.00     0.060 A 
BRANCH  86  87
ATOM     87  S   UNL A   1      42.035  19.182  26.349  1.00  0.00     0.124 S 
ATOM     88  O   UNL A   1      42.020  18.421  27.677  1.00  0.00    -0.237 OA
ATOM     89  O   UNL A   1      40.622  19.204  25.759  1.00  0.00    -0.237 OA
ATOM     90  O   UNL A   1      43.096  18.406  25.257  1.00  0.00    -0.744 OA
ENDBRANCH  86  87
ENDBRANCH  54  79
BRANCH  66  91
ATOM     91  C   UNL A   1      49.299  26.856  25.993  1.00  0.00     0.058 A 
ATOM     92  C   UNL A   1      50.264  26.426  26.888  1.00  0.00     0.135 A 
ATOM     93  C   UNL A   1      49.550  26.931  24.691  1.00  0.00     0.135 A 
ATOM     94  F   UNL A   1      49.990  26.095  28.146  1.00  0.00    -0.206 F 
ATOM     95  C   UNL A   1      51.569  26.372  26.341  1.00  0.00     0.059 A 
ATOM     96  C   UNL A   1      50.823  26.733  24.212  1.00  0.00     0.059 A 
ATOM     97  F   UNL A   1      48.562  27.202  23.843  1.00  0.00    -0.206 F 
ATOM     98  C   UNL A   1      51.839  26.365  25.049  1.00  0.00     0.060 A 
BRANCH  98  99
ATOM     99  S   UNL A   1      53.470  25.891  24.420  1.00  0.00     0.124 S 
ATOM    100  O   UNL A   1      53.572  26.263  22.939  1.00  0.00    -0.237 OA
ATOM    101  O   UNL A   1      54.554  26.628  25.207  1.00  0.00    -0.237 OA
ATOM    102  O   UNL A   1      53.681  24.204  24.600  1.00  0.00    -0.744 OA
ENDBRANCH  98  99
ENDBRANCH  66  91
ENDBRANCH  40  41
ENDBRANCH  32  35
ENDBRANCH  30  31
ENDBRANCH  29  30
ENDBRANCH   1  29
TORSDOF 18
ENDMDL
MODEL 2
REMARK VINA RESULT:     -12.2      0.555      8.013
REMARK SMILES O=C(NCCCCCCNC(=O)c1ccc(-c2c3nc(c(-c4c(F)cc(S(=O)(=O)[O-])cc4F)c4ccc([nH]4)c(-c4c(F)cc(S(=O)(=O)[O-])cc4F)c4nc(c(-c5c(F)cc(S(=O)(=O)[O-])cc5F)c5ccc2[nH]5)C=C4)C=C3)cc1)C1=Cc2cc(S(F)(F)(F)(F)F)ccc2O[C@@H]1C(F)(F)F
REMARK SMILES IDX 7 1 6 2 5 3 4 4 3 5 1 6 2 7 79 9 80 10 94 11 81 12 93 13
REMARK SMILES IDX 82 14 92 15 83 16 91 17 90 18 95 19 96 20 97 21 98 22 84 23
REMARK SMILES IDX 85 24 86 25 87 26 88 27 89 28 8 29 9 30 10 31 11 32 12 34
REMARK SMILES IDX 13 35 14 36 78 37 15 38 77 39 16 40 17 41 18 42 71 43 19 44
REMARK SMILES IDX 76 45 70 46 72 47 20 48 75 49 69 50 68 51 21 53 55 54 34 55
REMARK SMILES IDX 54 56 35 57 38 58 53 59 73 60 36 61 37 62 52 64 74 65 39 66
REMARK SMILES IDX 22 67 23 68 32 69 24 70 25 71 31 72 33 73 26 74 27 75 28 76
REMARK SMILES IDX 29 77 30 78 56 79 57 80 66 81 58 82 59 83 65 84 67 85 60 86
REMARK SMILES IDX 61 87 62 88 63 89 64 90 40 91 41 92 50 93 42 94 43 95 49 96
REMARK SMILES IDX 51 97 44 98 45 99 46 100 47 101 48 102
REMARK H PARENT 3 8 10 33 72 52 38 63
REMARK Flexibility Score: inf
ROOT
ATOM      1  C   UNL A   1      35.619  31.846  27.648  1.00  0.00     0.002 C 
ENDROOT
BRANCH   1   2
ATOM      2  C   UNL A   1      34.506  30.812  27.706  1.00  0.00     0.002 C 
BRANCH   2   3
ATOM      3  C   UNL A   1      35.099  29.421  27.569  1.00  0.00     0.021 C 
BRANCH   3   4
ATOM      4  C   UNL A   1      34.228  28.587  26.642  1.00  0.00     0.116 C 
BRANCH   4   5
ATOM      5  N   UNL A   1      33.044  28.115  27.376  1.00  0.00    -0.352 N 
ATOM      6  O   UNL A   1      30.806  27.324  27.276  1.00  0.00    -0.270 OA
ATOM      7  C   UNL A   1      31.829  27.732  26.642  1.00  0.00     0.251 C 
ATOM      8  H   UNL A   1      33.065  28.057  28.358  1.00  0.00     0.163 HD
BRANCH   7   9
ATOM      9  C   UNL A   1      31.797  27.823  25.125  1.00  0.00     0.067 C 
ATOM     10  C   UNL A   1      32.393  26.860  24.373  1.00  0.00     0.025 C 
ATOM     11  C   UNL A   1      31.099  28.992  24.449  1.00  0.00     0.314 C 
ATOM     12  C   UNL A   1      33.092  25.691  25.048  1.00  0.00     0.019 A 
ATOM     13  O   UNL A   1      31.172  25.655  26.449  1.00  0.00    -0.475 OA
ATOM     14  C   UNL A   1      34.384  25.304  24.734  1.00  0.00     0.036 A 
ATOM     15  C   UNL A   1      32.429  25.127  26.051  1.00  0.00     0.128 A 
ATOM     16  C   UNL A   1      34.790  24.101  25.358  1.00  0.00     0.107 A 
ATOM     17  C   UNL A   1      32.947  24.037  26.707  1.00  0.00     0.048 A 
ATOM     18  C   UNL A   1      34.195  23.563  26.407  1.00  0.00     0.028 A 
BRANCH  11  19
ATOM     19  C   UNL A   1      29.977  28.470  23.566  1.00  0.00     0.429 C 
ATOM     20  F   UNL A   1      29.443  27.386  24.121  1.00  0.00    -0.167 F 
ATOM     21  F   UNL A   1      29.043  29.407  23.435  1.00  0.00    -0.167 F 
ATOM     22  F   UNL A   1      30.465  28.159  22.368  1.00  0.00    -0.167 F 
ENDBRANCH  11  19
BRANCH  16  23
ATOM     23  S   UNL A   1      36.227  23.239  24.671  1.00  0.00     0.310 S 
ATOM     24  F   UNL A   1      36.254  22.184  25.856  1.00  0.00    -0.094 F 
ATOM     25  F   UNL A   1      37.166  24.148  25.551  1.00  0.00    -0.094 F 
ATOM     26  F   UNL A   1      37.456  22.503  24.069  1.00  0.00    -0.094 F 
ATOM     27  F   UNL A   1      35.267  22.247  23.906  1.00  0.00    -0.094 F 
ATOM     28  F   UNL A   1      34.967  23.902  25.361  1.00  0.00    -0.094 F 
ENDBRANCH  16  23
ENDBRANCH   7   9
ENDBRANCH   4   5
ENDBRANCH   3   4
ENDBRANCH   2   3
ENDBRANCH   1   2
BRANCH   1  29
ATOM     29  C   UNL A   1      35.523  32.763  28.856  1.00  0.00     0.021 C 
BRANCH  29  30
ATOM     30  C   UNL A   1      36.605  32.395  29.858  1.00  0.00     0.116 C 
BRANCH  30  31
ATOM     31  N   UNL A   1      36.022  31.575  30.929  1.00  0.00    -0.352 N 
ATOM     32  C   UNL A   1      36.749  30.400  31.434  1.00  0.00     0.251 C 
ATOM     33  H   UNL A   1      35.145  31.812  31.309  1.00  0.00     0.163 HD
ATOM     34  O   UNL A   1      36.244  29.691  32.360  1.00  0.00    -0.269 OA
BRANCH  32  35
ATOM     35  C   UNL A   1      38.102  30.035  30.847  1.00  0.00     0.039 A 
ATOM     36  C   UNL A   1      39.164  29.778  31.699  1.00  0.00     0.014 A 
ATOM     37  C   UNL A   1      38.245  29.969  29.529  1.00  0.00     0.014 A 
ATOM     38  C   UNL A   1      40.421  29.740  31.052  1.00  0.00     0.010 A 
ATOM     39  C   UNL A   1      39.488  29.796  28.967  1.00  0.00     0.010 A 
ATOM     40  C   UNL A   1      40.590  29.594  29.750  1.00  0.00    -0.014 A 
BRANCH  40  41
ATOM     41  C   UNL A   1      41.938  29.222  29.154  1.00  0.00     0.031 A 
ATOM     42  C   UNL A   1      42.130  27.904  28.737  1.00  0.00     0.074 A 
ATOM     43  C   UNL A   1      42.901  30.212  29.056  1.00  0.00     0.049 A 
ATOM     44  N   UNL A   1      43.214  27.382  28.161  1.00  0.00    -0.248 NA
ATOM     45  C   UNL A   1      41.121  26.842  28.870  1.00  0.00     0.031 C 
ATOM     46  C   UNL A   1      42.713  31.547  29.467  1.00  0.00     0.029 A 
ATOM     47  N   UNL A   1      44.181  30.100  28.562  1.00  0.00    -0.354 N 
ATOM     48  C   UNL A   1      43.014  26.091  27.888  1.00  0.00     0.074 A 
ATOM     49  C   UNL A   1      41.668  25.723  28.346  1.00  0.00     0.031 C 
ATOM     50  C   UNL A   1      43.866  32.226  29.235  1.00  0.00     0.029 A 
ATOM     51  C   UNL A   1      44.795  31.328  28.674  1.00  0.00     0.049 A 
ATOM     52  H   UNL A   1      44.588  29.284  28.192  1.00  0.00     0.167 HD
ATOM     53  C   UNL A   1      43.902  25.206  27.273  1.00  0.00     0.037 A 
ATOM     54  C   UNL A   1      46.090  31.666  28.316  1.00  0.00     0.037 A 
ATOM     55  C   UNL A   1      45.183  25.555  26.875  1.00  0.00     0.049 A 
ATOM     56  C   UNL A   1      46.998  30.766  27.754  1.00  0.00     0.074 A 
ATOM     57  C   UNL A   1      46.088  24.678  26.247  1.00  0.00     0.029 A 
ATOM     58  N   UNL A   1      45.804  26.777  27.009  1.00  0.00    -0.354 N 
ATOM     59  N   UNL A   1      46.785  29.486  27.445  1.00  0.00    -0.248 NA
ATOM     60  C   UNL A   1      48.383  31.104  27.399  1.00  0.00     0.031 C 
ATOM     61  C   UNL A   1      47.241  25.357  26.014  1.00  0.00     0.029 A 
ATOM     62  C   UNL A   1      47.077  26.671  26.494  1.00  0.00     0.049 A 
ATOM     63  H   UNL A   1      45.407  27.586  27.405  1.00  0.00     0.167 HD
ATOM     64  C   UNL A   1      47.885  28.953  26.907  1.00  0.00     0.074 A 
ATOM     65  C   UNL A   1      48.930  29.985  26.877  1.00  0.00     0.031 C 
ATOM     66  C   UNL A   1      48.057  27.651  26.437  1.00  0.00     0.037 A 
BRANCH  53  67
ATOM     67  C   UNL A   1      43.438  23.780  27.028  1.00  0.00     0.058 A 
ATOM     68  C   UNL A   1      42.997  23.471  25.752  1.00  0.00     0.135 A 
ATOM     69  C   UNL A   1      43.491  22.856  27.981  1.00  0.00     0.135 A 
ATOM     70  F   UNL A   1      43.162  24.283  24.711  1.00  0.00    -0.206 F 
ATOM     71  C   UNL A   1      42.356  22.213  25.655  1.00  0.00     0.059 A 
ATOM     72  C   UNL A   1      42.967  21.603  27.771  1.00  0.00     0.059 A 
ATOM     73  F   UNL A   1      44.059  23.146  29.148  1.00  0.00    -0.206 F 
ATOM     74  C   UNL A   1      42.460  21.249  26.551  1.00  0.00     0.060 A 
BRANCH  74  75
ATOM     75  S   UNL A   1      41.959  19.548  26.184  1.00  0.00     0.124 S 
ATOM     76  O   UNL A   1      42.747  19.034  24.978  1.00  0.00    -0.237 OA
ATOM     77  O   UNL A   1      42.245  18.661  27.398  1.00  0.00    -0.237 OA
ATOM     78  O   UNL A   1      40.286  19.510  25.832  1.00  0.00    -0.744 OA
ENDBRANCH  74  75
ENDBRANCH  53  67
BRANCH  54  79
ATOM     79  C   UNL A   1      46.547  33.097  28.546  1.00  0.00     0.058 A 
ATOM     80  C   UNL A   1      46.386  34.070  27.574  1.00  0.00     0.135 A 
ATOM     81  C   UNL A   1      47.152  33.367  29.697  1.00  0.00     0.135 A 
ATOM     82  F   UNL A   1      45.577  33.924  26.527  1.00  0.00    -0.206 F 
ATOM     83  C   UNL A   1      47.160  35.235  27.794  1.00  0.00     0.059 A 
ATOM     84  C   UNL A   1      47.772  34.577  29.894  1.00  0.00     0.059 A 
ATOM     85  F   UNL A   1      47.159  32.457  30.667  1.00  0.00    -0.206 F 
ATOM     86  C   UNL A   1      47.704  35.565  28.951  1.00  0.00     0.060 A 
BRANCH  86  87
ATOM     87  S   UNL A   1      48.325  37.234  29.273  1.00  0.00     0.124 S 
ATOM     88  O   UNL A   1      47.589  37.828  30.476  1.00  0.00    -0.237 OA
ATOM     89  O   UNL A   1      49.825  37.172  29.572  1.00  0.00    -0.237 OA
ATOM     90  O   UNL A   1      48.058  38.216  27.899  1.00  0.00    -0.744 OA
ENDBRANCH  86  87
ENDBRANCH  54  79
BRANCH  66  91
ATOM     91  C   UNL A   1      49.399  27.284  25.824  1.00  0.00     0.058 A 
ATOM     92  C   UNL A   1      50.424  26.849  26.647  1.00  0.00     0.135 A 
ATOM     93  C   UNL A   1      49.564  27.387  24.511  1.00  0.00     0.135 A 
ATOM     94  F   UNL A   1      50.235  26.491  27.913  1.00  0.00    -0.206 F 
ATOM     95  C   UNL A   1      51.691  26.820  26.016  1.00  0.00     0.059 A 
ATOM     96  C   UNL A   1      50.805  27.211  23.947  1.00  0.00     0.059 A 
ATOM     97  F   UNL A   1      48.521  27.662  23.733  1.00  0.00    -0.206 F 
ATOM     98  C   UNL A   1      51.877  26.839  24.710  1.00  0.00     0.060 A 
BRANCH  98  99
ATOM     99  S   UNL A   1      53.469  26.396  23.967  1.00  0.00     0.124 S 
ATOM    100  O   UNL A   1      53.371  26.514  22.445  1.00  0.00    -0.237 OA
ATOM    101  O   UNL A   1      54.554  27.343  24.483  1.00  0.00    -0.237 OA
ATOM    102  O   UNL A   1      53.866  24.788  24.391  1.00  0.00    -0.744 OA
ENDBRANCH  98  99
ENDBRANCH  66  91
ENDBRANCH  40  41
ENDBRANCH  32  35
ENDBRANCH  30  31
ENDBRANCH  29  30
ENDBRANCH   1  29
TORSDOF 18
ENDMDL
MODEL 3
REMARK VINA RESULT:     -12.2      2.915      9.279
REMARK SMILES O=C(NCCCCCCNC(=O)c1ccc(-c2c3nc(c(-c4c(F)cc(S(=O)(=O)[O-])cc4F)c4ccc([nH]4)c(-c4c(F)cc(S(=O)(=O)[O-])cc4F)c4nc(c(-c5c(F)cc(S(=O)(=O)[O-])cc5F)c5ccc2[nH]5)C=C4)C=C3)cc1)C1=Cc2cc(S(F)(F)(F)(F)F)ccc2O[C@@H]1C(F)(F)F
REMARK SMILES IDX 7 1 6 2 5 3 4 4 3 5 1 6 2 7 79 9 80 10 94 11 81 12 93 13
REMARK SMILES IDX 82 14 92 15 83 16 91 17 90 18 95 19 96 20 97 21 98 22 84 23
REMARK SMILES IDX 85 24 86 25 87 26 88 27 89 28 8 29 9 30 10 31 11 32 12 34
REMARK SMILES IDX 13 35 14 36 78 37 15 38 77 39 16 40 17 41 18 42 71 43 19 44
REMARK SMILES IDX 76 45 70 46 72 47 20 48 75 49 69 50 68 51 21 53 55 54 34 55
REMARK SMILES IDX 54 56 35 57 38 58 53 59 73 60 36 61 37 62 52 64 74 65 39 66
REMARK SMILES IDX 22 67 23 68 32 69 24 70 25 71 31 72 33 73 26 74 27 75 28 76
REMARK SMILES IDX 29 77 30 78 56 79 57 80 66 81 58 82 59 83 65 84 67 85 60 86
REMARK SMILES IDX 61 87 62 88 63 89 64 90 40 91 41 92 50 93 42 94 43 95 49 96
REMARK SMILES IDX 51 97 44 98 45 99 46 100 47 101 48 102
REMARK H PARENT 3 8 10 33 72 52 38 63
REMARK Flexibility Score: inf
ROOT
ATOM      1  C   UNL A   1      40.377  21.517  26.230  1.00  0.00     0.002 C 
ENDROOT
BRANCH   1   2
ATOM      2  C   UNL A   1      38.905  21.883  26.130  1.00  0.00     0.002 C 
BRANCH   2   3
ATOM      3  C   UNL A   1      38.720  23.345  26.498  1.00  0.00     0.021 C 
BRANCH   3   4
ATOM      4  C   UNL A   1      37.335  23.805  26.070  1.00  0.00     0.116 C 
BRANCH   4   5
ATOM      5  N   UNL A   1      37.218  23.712  24.608  1.00  0.00    -0.352 N 
ATOM      6  O   UNL A   1      36.071  22.794  22.741  1.00  0.00    -0.270 OA
ATOM      7  C   UNL A   1      36.172  22.874  24.005  1.00  0.00     0.251 C 
ATOM      8  H   UNL A   1      37.841  24.211  24.032  1.00  0.00     0.163 HD
BRANCH   7   9
ATOM      9  C   UNL A   1      35.210  22.103  24.895  1.00  0.00     0.067 C 
ATOM     10  C   UNL A   1      34.110  22.720  25.402  1.00  0.00     0.025 C 
ATOM     11  C   UNL A   1      35.479  20.642  25.217  1.00  0.00     0.314 C 
ATOM     12  C   UNL A   1      33.840  24.181  25.081  1.00  0.00     0.019 A 
ATOM     13  O   UNL A   1      34.437  23.561  22.865  1.00  0.00    -0.475 OA
ATOM     14  C   UNL A   1      33.567  25.127  26.055  1.00  0.00     0.036 A 
ATOM     15  C   UNL A   1      34.000  24.528  23.808  1.00  0.00     0.128 A 
ATOM     16  C   UNL A   1      33.190  26.390  25.538  1.00  0.00     0.107 A 
ATOM     17  C   UNL A   1      33.744  25.814  23.397  1.00  0.00     0.048 A 
ATOM     18  C   UNL A   1      33.410  26.788  24.298  1.00  0.00     0.028 A 
BRANCH  11  19
ATOM     19  C   UNL A   1      34.320  19.792  24.721  1.00  0.00     0.429 C 
ATOM     20  F   UNL A   1      33.479  19.560  25.725  1.00  0.00    -0.167 F 
ATOM     21  F   UNL A   1      33.681  20.436  23.749  1.00  0.00    -0.167 F 
ATOM     22  F   UNL A   1      34.785  18.636  24.257  1.00  0.00    -0.167 F 
ENDBRANCH  11  19
BRANCH  16  23
ATOM     23  S   UNL A   1      32.348  27.539  26.655  1.00  0.00     0.310 S 
ATOM     24  F   UNL A   1      32.102  28.598  25.499  1.00  0.00    -0.094 F 
ATOM     25  F   UNL A   1      33.726  28.255  26.923  1.00  0.00    -0.094 F 
ATOM     26  F   UNL A   1      31.621  28.515  27.621  1.00  0.00    -0.094 F 
ATOM     27  F   UNL A   1      30.958  26.900  26.265  1.00  0.00    -0.094 F 
ATOM     28  F   UNL A   1      33.056  26.615  25.584  1.00  0.00    -0.094 F 
ENDBRANCH  16  23
ENDBRANCH   7   9
ENDBRANCH   4   5
ENDBRANCH   3   4
ENDBRANCH   2   3
ENDBRANCH   1   2
BRANCH   1  29
ATOM     29  C   UNL A   1      40.537  20.013  26.077  1.00  0.00     0.021 C 
BRANCH  29  30
ATOM     30  C   UNL A   1      41.864  19.581  26.678  1.00  0.00     0.116 C 
BRANCH  30  31
ATOM     31  N   UNL A   1      42.658  18.879  25.660  1.00  0.00    -0.352 N 
ATOM     32  C   UNL A   1      43.770  19.570  24.990  1.00  0.00     0.251 C 
ATOM     33  H   UNL A   1      42.445  17.947  25.425  1.00  0.00     0.163 HD
ATOM     34  O   UNL A   1      44.457  18.962  24.109  1.00  0.00    -0.269 OA
BRANCH  32  35
ATOM     35  C   UNL A   1      44.099  21.009  25.352  1.00  0.00     0.039 A 
ATOM     36  C   UNL A   1      44.820  21.271  26.505  1.00  0.00     0.014 A 
ATOM     37  C   UNL A   1      43.688  21.990  24.558  1.00  0.00     0.014 A 
ATOM     38  C   UNL A   1      44.812  22.633  26.889  1.00  0.00     0.010 A 
ATOM     39  C   UNL A   1      43.833  23.304  24.937  1.00  0.00     0.010 A 
ATOM     40  C   UNL A   1      44.485  23.634  26.092  1.00  0.00    -0.014 A 
BRANCH  40  41
ATOM     41  C   UNL A   1      44.815  25.076  26.441  1.00  0.00     0.031 A 
ATOM     42  C   UNL A   1      43.782  25.891  26.908  1.00  0.00     0.074 A 
ATOM     43  C   UNL A   1      46.122  25.501  26.278  1.00  0.00     0.049 A 
ATOM     44  N   UNL A   1      43.864  27.164  27.299  1.00  0.00    -0.248 NA
ATOM     45  C   UNL A   1      42.386  25.452  27.051  1.00  0.00     0.031 C 
ATOM     46  C   UNL A   1      47.172  24.683  25.815  1.00  0.00     0.029 A 
ATOM     47  N   UNL A   1      46.641  26.753  26.522  1.00  0.00    -0.354 N 
ATOM     48  C   UNL A   1      42.667  27.600  27.699  1.00  0.00     0.074 A 
ATOM     49  C   UNL A   1      41.699  26.507  27.539  1.00  0.00     0.031 C 
ATOM     50  C   UNL A   1      48.304  25.433  25.770  1.00  0.00     0.029 A 
ATOM     51  C   UNL A   1      47.981  26.734  26.203  1.00  0.00     0.049 A 
ATOM     52  H   UNL A   1      46.140  27.529  26.864  1.00  0.00     0.167 HD
ATOM     53  C   UNL A   1      42.347  28.866  28.193  1.00  0.00     0.037 A 
ATOM     54  C   UNL A   1      48.886  27.780  26.278  1.00  0.00     0.037 A 
ATOM     55  C   UNL A   1      43.262  29.900  28.309  1.00  0.00     0.049 A 
ATOM     56  C   UNL A   1      48.553  29.064  26.718  1.00  0.00     0.074 A 
ATOM     57  C   UNL A   1      42.958  31.179  28.812  1.00  0.00     0.029 A 
ATOM     58  N   UNL A   1      44.597  29.887  27.968  1.00  0.00    -0.354 N 
ATOM     59  N   UNL A   1      47.367  29.488  27.154  1.00  0.00    -0.248 NA
ATOM     60  C   UNL A   1      49.496  30.188  26.771  1.00  0.00     0.031 C 
ATOM     61  C   UNL A   1      44.089  31.931  28.766  1.00  0.00     0.029 A 
ATOM     62  C   UNL A   1      45.120  31.133  28.233  1.00  0.00     0.049 A 
ATOM     63  H   UNL A   1      45.091  29.119  27.599  1.00  0.00     0.167 HD
ATOM     64  C   UNL A   1      47.438  30.774  27.506  1.00  0.00     0.074 A 
ATOM     65  C   UNL A   1      48.808  31.244  27.258  1.00  0.00     0.031 C 
ATOM     66  C   UNL A   1      46.419  31.572  28.028  1.00  0.00     0.037 A 
BRANCH  53  67
ATOM     67  C   UNL A   1      40.913  29.124  28.627  1.00  0.00     0.058 A 
ATOM     68  C   UNL A   1      39.991  29.391  27.629  1.00  0.00     0.135 A 
ATOM     69  C   UNL A   1      40.548  29.055  29.902  1.00  0.00     0.135 A 
ATOM     70  F   UNL A   1      40.252  29.222  26.335  1.00  0.00    -0.206 F 
ATOM     71  C   UNL A   1      38.745  29.859  28.110  1.00  0.00     0.059 A 
ATOM     72  C   UNL A   1      39.273  29.397  30.284  1.00  0.00     0.059 A 
ATOM     73  F   UNL A   1      41.424  28.649  30.817  1.00  0.00    -0.206 F 
ATOM     74  C   UNL A   1      38.326  29.729  29.355  1.00  0.00     0.060 A 
BRANCH  74  75
ATOM     75  S   UNL A   1      36.591  29.976  29.809  1.00  0.00     0.124 S 
ATOM     76  O   UNL A   1      35.691  29.338  28.749  1.00  0.00    -0.237 OA
ATOM     77  O   UNL A   1      36.322  29.325  31.167  1.00  0.00    -0.237 OA
ATOM     78  O   UNL A   1      36.261  31.652  29.905  1.00  0.00    -0.744 OA
ENDBRANCH  74  75
ENDBRANCH  53  67
BRANCH  54  79
ATOM     79  C   UNL A   1      50.323  27.516  25.860  1.00  0.00     0.058 A 
ATOM     80  C   UNL A   1      50.705  27.556  24.529  1.00  0.00     0.135 A 
ATOM     81  C   UNL A   1      51.188  27.198  26.816  1.00  0.00     0.135 A 
ATOM     82  F   UNL A   1      49.959  28.107  23.576  1.00  0.00    -0.206 F 
ATOM     83  C   UNL A   1      51.963  26.958  24.276  1.00  0.00     0.059 A 
ATOM     84  C   UNL A   1      52.447  26.749  26.498  1.00  0.00     0.059 A 
ATOM     85  F   UNL A   1      50.832  27.313  28.092  1.00  0.00    -0.206 F 
ATOM     86  C   UNL A   1      52.872  26.706  25.199  1.00  0.00     0.060 A 
BRANCH  86  87
ATOM     87  S   UNL A   1      54.589  26.325  24.770  1.00  0.00     0.124 S 
ATOM     88  O   UNL A   1      54.840  26.689  23.305  1.00  0.00    -0.237 OA
ATOM     89  O   UNL A   1      55.530  27.134  25.665  1.00  0.00    -0.237 OA
ATOM     90  O   UNL A   1      54.877  24.656  25.001  1.00  0.00    -0.744 OA
ENDBRANCH  86  87
ENDBRANCH  54  79
BRANCH  66  91
ATOM     91  C   UNL A   1      46.754  33.009  28.393  1.00  0.00     0.058 A 
ATOM     92  C   UNL A   1      46.591  34.006  27.446  1.00  0.00     0.135 A 
ATOM     93  C   UNL A   1      47.196  33.284  29.615  1.00  0.00     0.135 A 
ATOM     94  F   UNL A   1      45.922  33.826  26.312  1.00  0.00    -0.206 F 
ATOM     95  C   UNL A   1      47.202  35.234  27.796  1.00  0.00     0.059 A 
ATOM     96  C   UNL A   1      47.651  34.542  29.927  1.00  0.00     0.059 A 
ATOM     97  F   UNL A   1      47.200  32.333  30.545  1.00  0.00    -0.206 F 
ATOM     98  C   UNL A   1      47.576  35.562  29.019  1.00  0.00     0.060 A 
BRANCH  98  99
ATOM     99  S   UNL A   1      47.969  37.271  29.470  1.00  0.00     0.124 S 
ATOM    100  O   UNL A   1      47.201  37.654  30.737  1.00  0.00    -0.237 OA
ATOM    101  O   UNL A   1      49.472  37.399  29.727  1.00  0.00    -0.237 OA
ATOM    102  O   UNL A   1      47.518  38.314  28.192  1.00  0.00    -0.744 OA
ENDBRANCH  98  99
ENDBRANCH  66  91
ENDBRANCH  40  41
ENDBRANCH  32  35
ENDBRANCH  30  31
ENDBRANCH  29  30
ENDBRANCH   1  29
TORSDOF 18
ENDMDL
