MODEL 1
REMARK VINA RESULT:     -11.9      0.000      0.000
REMARK SMILES CCn1ccc2ccc(C[NH+]3CCC4(CC3)C[C@H](C(=O)NCCCCCCNC(=O)c3ccc(-c5c6nc(c(-c7c(F)cc(S(=O)(=O)[O-])cc7F)c7ccc([nH]7)c(-c7c(F)cc(S(=O)(=O)[O-])cc7F)c7nc(c(-c8c(F)cc(S(=O)(=O)[O-])cc8F)c8ccc5[nH]8)C=C7)C=C6)cc3)N(C(C)=O)C4)cc21
REMARK SMILES IDX 24 1 23 2 22 3 21 4 19 5 20 6 18 8 11 9 12 10 16 11 13 13
REMARK SMILES IDX 15 14 14 15 17 16 101 17 97 18 10 19 9 20 3 21 4 22 103 23
REMARK SMILES IDX 5 24 6 25 102 26 7 27 8 28 2 29 1 30 98 31 99 32 100 33
REMARK SMILES IDX 25 34 26 35 27 36 28 37 29 38 30 40 31 41 32 42 96 43 33 44
REMARK SMILES IDX 95 45 34 46 35 47 36 48 89 49 37 50 94 51 88 52 90 53 38 54
REMARK SMILES IDX 93 55 87 56 86 57 39 59 73 60 52 61 72 62 53 63 56 64 71 65
REMARK SMILES IDX 91 66 54 67 55 68 70 70 92 71 57 72 40 73 41 74 50 75 42 76
REMARK SMILES IDX 43 77 49 78 51 79 44 80 45 81 46 82 47 83 48 84 74 85 75 86
REMARK SMILES IDX 84 87 76 88 77 89 83 90 85 91 78 92 79 93 80 94 81 95 82 96
REMARK SMILES IDX 58 97 59 98 68 99 60 100 61 101 67 102 69 103 62 104 63 105
REMARK SMILES IDX 64 106 65 107 66 108
REMARK H PARENT 21 7 11 12 28 39 90 58 56 69
REMARK Flexibility Score: inf
ROOT
ATOM      1  C   UNL A   1      33.001  29.089  25.306  1.00  0.00     0.002 C 
ENDROOT
BRANCH   1   2
ATOM      2  C   UNL A   1      33.132  28.654  23.835  1.00  0.00     0.021 C 
BRANCH   2   3
ATOM      3  C   UNL A   1      33.751  27.267  23.686  1.00  0.00     0.116 C 
BRANCH   3   4
ATOM      4  N   UNL A   1      33.449  26.733  22.374  1.00  0.00    -0.354 N 
ATOM      5  C   UNL A   1      32.802  25.651  21.912  1.00  0.00     0.242 C 
ATOM      6  O   UNL A   1      32.128  25.900  20.902  1.00  0.00    -0.273 OA
ATOM      7  H   UNL A   1      33.801  27.297  21.649  1.00  0.00     0.163 HD
BRANCH   5   8
ATOM      8  C   UNL A   1      32.829  24.212  22.437  1.00  0.00     0.175 C 
ATOM      9  N   UNL A   1      36.249  22.259  26.163  1.00  0.00    -0.331 N 
ATOM     10  C   UNL A   1      35.559  23.546  26.399  1.00  0.00     0.263 C 
ATOM     11  C   UNL A   1      35.363  21.344  25.462  1.00  0.00     0.263 C 
ATOM     12  H   UNL A   1      36.454  21.878  27.086  1.00  0.00     0.348 HD
ATOM     13  C   UNL A   1      35.183  24.278  25.119  1.00  0.00     0.070 C 
ATOM     14  C   UNL A   1      34.861  21.997  24.215  1.00  0.00     0.070 C 
ATOM     15  C   UNL A   1      34.312  23.388  24.229  1.00  0.00     0.001 C 
ATOM     16  C   UNL A   1      34.274  23.994  22.810  1.00  0.00     0.044 C 
ATOM     17  C   UNL A   1      32.892  23.229  24.662  1.00  0.00     0.127 C 
ATOM     18  N   UNL A   1      32.156  24.086  23.764  1.00  0.00    -0.330 N 
BRANCH   9  19
ATOM     19  C   UNL A   1      37.627  22.346  25.562  1.00  0.00     0.299 C 
BRANCH  19  20
ATOM     20  C   UNL A   1      38.872  22.714  26.411  1.00  0.00     0.008 A 
ATOM     21  N   UNL A   1      42.554  21.718  26.599  1.00  0.00    -0.348 N 
ATOM     22  C   UNL A   1      43.494  22.653  26.997  1.00  0.00     0.087 A 
ATOM     23  C   UNL A   1      41.271  22.260  26.809  1.00  0.00     0.048 A 
ATOM     24  C   UNL A   1      42.837  23.806  27.359  1.00  0.00     0.028 A 
ATOM     25  C   UNL A   1      41.453  23.613  27.136  1.00  0.00    -0.000 A 
ATOM     26  C   UNL A   1      39.931  21.782  26.646  1.00  0.00     0.036 A 
ATOM     27  C   UNL A   1      40.324  24.463  27.237  1.00  0.00     0.011 A 
ATOM     28  C   UNL A   1      39.054  24.026  26.835  1.00  0.00     0.010 A 
BRANCH  21  29
ATOM     29  C   UNL A   1      43.007  20.428  26.063  1.00  0.00     0.119 C 
ATOM     30  C   UNL A   1      44.162  20.417  25.099  1.00  0.00     0.027 C 
ENDBRANCH  21  29
ENDBRANCH  19  20
ENDBRANCH   9  19
BRANCH  18  31
ATOM     31  C   UNL A   1      31.067  24.768  24.256  1.00  0.00     0.220 C 
ATOM     32  C   UNL A   1      31.127  25.435  25.613  1.00  0.00     0.114 C 
ATOM     33  O   UNL A   1      30.013  24.821  23.613  1.00  0.00    -0.275 OA
ENDBRANCH  18  31
ENDBRANCH   5   8
ENDBRANCH   3   4
ENDBRANCH   2   3
ENDBRANCH   1   2
BRANCH   1  34
ATOM     34  C   UNL A   1      31.857  30.089  25.519  1.00  0.00     0.002 C 
BRANCH  34  35
ATOM     35  C   UNL A   1      31.917  30.724  26.907  1.00  0.00     0.021 C 
BRANCH  35  36
ATOM     36  C   UNL A   1      32.616  32.080  26.871  1.00  0.00     0.116 C 
BRANCH  36  37
ATOM     37  N   UNL A   1      33.417  32.338  28.058  1.00  0.00    -0.352 N 
ATOM     38  C   UNL A   1      34.720  31.993  28.403  1.00  0.00     0.251 C 
ATOM     39  H   UNL A   1      32.946  32.855  28.751  1.00  0.00     0.163 HD
ATOM     40  O   UNL A   1      35.127  32.364  29.506  1.00  0.00    -0.269 OA
BRANCH  38  41
ATOM     41  C   UNL A   1      35.637  31.082  27.595  1.00  0.00     0.039 A 
ATOM     42  C   UNL A   1      35.321  29.793  27.463  1.00  0.00     0.014 A 
ATOM     43  C   UNL A   1      37.051  31.160  27.846  1.00  0.00     0.014 A 
ATOM     44  C   UNL A   1      36.391  28.827  28.206  1.00  0.00     0.010 A 
ATOM     45  C   UNL A   1      38.088  30.125  27.895  1.00  0.00     0.010 A 
ATOM     46  C   UNL A   1      37.842  29.327  28.967  1.00  0.00    -0.014 A 
BRANCH  46  47
ATOM     47  C   UNL A   1      39.519  28.983  30.033  1.00  0.00     0.031 A 
ATOM     48  C   UNL A   1      38.252  30.185  31.134  1.00  0.00     0.074 A 
ATOM     49  C   UNL A   1      41.046  28.141  30.078  1.00  0.00     0.049 A 
ATOM     50  N   UNL A   1      37.948  31.491  30.895  1.00  0.00    -0.248 NA
ATOM     51  C   UNL A   1      36.591  30.176  32.005  1.00  0.00     0.031 C 
ATOM     52  C   UNL A   1      42.480  26.826  29.565  1.00  0.00     0.029 A 
ATOM     53  N   UNL A   1      42.594  28.229  30.836  1.00  0.00    -0.354 N 
ATOM     54  C   UNL A   1      37.554  31.999  32.208  1.00  0.00     0.074 A 
ATOM     55  C   UNL A   1      36.500  31.297  32.782  1.00  0.00     0.031 C 
ATOM     56  C   UNL A   1      43.788  26.310  30.209  1.00  0.00     0.029 A 
ATOM     57  C   UNL A   1      43.644  27.090  31.376  1.00  0.00     0.049 A 
ATOM     58  H   UNL A   1      42.912  29.151  30.973  1.00  0.00     0.167 HD
ATOM     59  C   UNL A   1      38.545  32.291  33.057  1.00  0.00     0.037 A 
ATOM     60  C   UNL A   1      44.348  26.934  32.590  1.00  0.00     0.037 A 
ATOM     61  C   UNL A   1      39.695  32.419  32.255  1.00  0.00     0.049 A 
ATOM     62  C   UNL A   1      43.790  28.189  33.055  1.00  0.00     0.074 A 
ATOM     63  C   UNL A   1      39.893  33.146  31.105  1.00  0.00     0.029 A 
ATOM     64  N   UNL A   1      40.485  31.327  32.201  1.00  0.00    -0.354 N 
ATOM     65  N   UNL A   1      44.093  29.341  32.491  1.00  0.00    -0.248 NA
ATOM     66  C   UNL A   1      42.459  27.981  33.599  1.00  0.00     0.031 C 
ATOM     67  C   UNL A   1      40.940  32.534  30.420  1.00  0.00     0.029 A 
ATOM     68  C   UNL A   1      41.350  31.450  31.167  1.00  0.00     0.049 A 
ATOM     69  H   UNL A   1      40.439  30.559  32.817  1.00  0.00     0.167 HD
ATOM     70  C   UNL A   1      42.857  29.952  32.280  1.00  0.00     0.074 A 
ATOM     71  C   UNL A   1      41.903  29.093  33.119  1.00  0.00     0.031 C 
ATOM     72  C   UNL A   1      42.531  30.676  31.119  1.00  0.00     0.037 A 
BRANCH  59  73
ATOM     73  C   UNL A   1      38.578  32.198  34.530  1.00  0.00     0.058 A 
ATOM     74  C   UNL A   1      38.406  33.464  35.065  1.00  0.00     0.135 A 
ATOM     75  C   UNL A   1      38.860  31.127  35.412  1.00  0.00     0.135 A 
ATOM     76  F   UNL A   1      38.076  34.483  34.257  1.00  0.00    -0.206 F 
ATOM     77  C   UNL A   1      38.576  33.717  36.398  1.00  0.00     0.059 A 
ATOM     78  C   UNL A   1      39.008  31.357  36.782  1.00  0.00     0.059 A 
ATOM     79  F   UNL A   1      39.015  29.860  34.986  1.00  0.00    -0.206 F 
ATOM     80  C   UNL A   1      38.884  32.666  37.255  1.00  0.00     0.060 A 
BRANCH  80  81
ATOM     81  S   UNL A   1      39.105  33.077  38.996  1.00  0.00     0.124 S 
ATOM     82  O   UNL A   1      38.828  34.509  39.006  1.00  0.00    -0.237 OA
ATOM     83  O   UNL A   1      38.097  32.231  39.628  1.00  0.00    -0.237 OA
ATOM     84  O   UNL A   1      40.489  32.697  39.257  1.00  0.00    -0.744 OA
ENDBRANCH  80  81
ENDBRANCH  59  73
BRANCH  60  85
ATOM     85  C   UNL A   1      44.576  25.642  33.489  1.00  0.00     0.058 A 
ATOM     86  C   UNL A   1      44.474  24.295  33.046  1.00  0.00     0.135 A 
ATOM     87  C   UNL A   1      45.167  25.751  34.777  1.00  0.00     0.135 A 
ATOM     88  F   UNL A   1      43.827  24.015  31.906  1.00  0.00    -0.206 F 
ATOM     89  C   UNL A   1      45.035  23.184  33.745  1.00  0.00     0.059 A 
ATOM     90  C   UNL A   1      45.748  24.668  35.490  1.00  0.00     0.059 A 
ATOM     91  F   UNL A   1      45.237  26.957  35.360  1.00  0.00    -0.206 F 
ATOM     92  C   UNL A   1      45.709  23.385  34.951  1.00  0.00     0.060 A 
BRANCH  92  93
ATOM     93  S   UNL A   1      46.531  21.971  35.773  1.00  0.00     0.124 S 
ATOM     94  O   UNL A   1      45.633  21.701  36.892  1.00  0.00    -0.237 OA
ATOM     95  O   UNL A   1      46.548  20.959  34.722  1.00  0.00    -0.237 OA
ATOM     96  O   UNL A   1      47.840  22.501  36.146  1.00  0.00    -0.744 OA
ENDBRANCH  92  93
ENDBRANCH  60  85
BRANCH  72  97
ATOM     97  C   UNL A   1      43.438  30.912  29.851  1.00  0.00     0.058 A 
ATOM     98  C   UNL A   1      43.254  30.515  28.482  1.00  0.00     0.135 A 
ATOM     99  C   UNL A   1      44.537  31.734  30.039  1.00  0.00     0.135 A 
ATOM    100  F   UNL A   1      42.165  29.893  28.034  1.00  0.00    -0.206 F 
ATOM    101  C   UNL A   1      44.178  30.711  27.463  1.00  0.00     0.059 A 
ATOM    102  C   UNL A   1      45.428  32.049  29.004  1.00  0.00     0.059 A 
ATOM    103  F   UNL A   1      44.723  32.303  31.237  1.00  0.00    -0.206 F 
ATOM    104  C   UNL A   1      45.268  31.504  27.730  1.00  0.00     0.060 A 
BRANCH 104 105
ATOM    105  S   UNL A   1      46.411  31.842  26.380  1.00  0.00     0.124 S 
ATOM    106  O   UNL A   1      46.115  30.759  25.446  1.00  0.00    -0.237 OA
ATOM    107  O   UNL A   1      45.996  33.174  25.945  1.00  0.00    -0.237 OA
ATOM    108  O   UNL A   1      47.718  31.777  27.025  1.00  0.00    -0.744 OA
ENDBRANCH 104 105
ENDBRANCH  72  97
ENDBRANCH  46  47
ENDBRANCH  38  41
ENDBRANCH  36  37
ENDBRANCH  35  36
ENDBRANCH  34  35
ENDBRANCH   1  34
TORSDOF 20
ENDMDL
MODEL 2
REMARK VINA RESULT:     -11.6      4.185     10.671
REMARK SMILES CCn1ccc2ccc(C[NH+]3CCC4(CC3)C[C@H](C(=O)NCCCCCCNC(=O)c3ccc(-c5c6nc(c(-c7c(F)cc(S(=O)(=O)[O-])cc7F)c7ccc([nH]7)c(-c7c(F)cc(S(=O)(=O)[O-])cc7F)c7nc(c(-c8c(F)cc(S(=O)(=O)[O-])cc8F)c8ccc5[nH]8)C=C7)C=C6)cc3)N(C(C)=O)C4)cc21
REMARK SMILES IDX 24 1 23 2 22 3 21 4 19 5 20 6 18 8 11 9 12 10 16 11 13 13
REMARK SMILES IDX 15 14 14 15 17 16 101 17 97 18 10 19 9 20 3 21 4 22 103 23
REMARK SMILES IDX 5 24 6 25 102 26 7 27 8 28 2 29 1 30 98 31 99 32 100 33
REMARK SMILES IDX 25 34 26 35 27 36 28 37 29 38 30 40 31 41 32 42 96 43 33 44
REMARK SMILES IDX 95 45 34 46 35 47 36 48 89 49 37 50 94 51 88 52 90 53 38 54
REMARK SMILES IDX 93 55 87 56 86 57 39 59 73 60 52 61 72 62 53 63 56 64 71 65
REMARK SMILES IDX 91 66 54 67 55 68 70 70 92 71 57 72 40 73 41 74 50 75 42 76
REMARK SMILES IDX 43 77 49 78 51 79 44 80 45 81 46 82 47 83 48 84 74 85 75 86
REMARK SMILES IDX 84 87 76 88 77 89 83 90 85 91 78 92 79 93 80 94 81 95 82 96
REMARK SMILES IDX 58 97 59 98 68 99 60 100 61 101 67 102 69 103 62 104 63 105
REMARK SMILES IDX 64 106 65 107 66 108
REMARK H PARENT 21 7 11 12 28 39 90 58 56 69
REMARK Flexibility Score: inf
ROOT
ATOM      1  C   UNL A   1      40.491  30.544  33.806  1.00  0.00     0.002 C 
ENDROOT
BRANCH   1   2
ATOM      2  C   UNL A   1      39.889  31.365  34.960  1.00  0.00     0.021 C 
BRANCH   2   3
ATOM      3  C   UNL A   1      38.423  31.027  35.220  1.00  0.00     0.116 C 
BRANCH   3   4
ATOM      4  N   UNL A   1      37.575  31.835  34.368  1.00  0.00    -0.354 N 
ATOM      5  C   UNL A   1      36.999  31.672  33.167  1.00  0.00     0.242 C 
ATOM      6  O   UNL A   1      35.858  32.153  33.121  1.00  0.00    -0.273 OA
ATOM      7  H   UNL A   1      37.372  32.713  34.765  1.00  0.00     0.163 HD
BRANCH   5   8
ATOM      8  C   UNL A   1      37.573  31.029  31.900  1.00  0.00     0.175 C 
ATOM      9  N   UNL A   1      35.022  30.578  27.136  1.00  0.00    -0.331 N 
ATOM     10  C   UNL A   1      35.015  31.870  27.857  1.00  0.00     0.263 C 
ATOM     11  C   UNL A   1      36.303  29.915  27.323  1.00  0.00     0.263 C 
ATOM     12  H   UNL A   1      34.910  30.808  26.150  1.00  0.00     0.348 HD
ATOM     13  C   UNL A   1      35.159  31.727  29.365  1.00  0.00     0.070 C 
ATOM     14  C   UNL A   1      36.590  29.793  28.785  1.00  0.00     0.070 C 
ATOM     15  C   UNL A   1      36.436  30.957  29.711  1.00  0.00     0.001 C 
ATOM     16  C   UNL A   1      36.355  30.501  31.182  1.00  0.00     0.044 C 
ATOM     17  C   UNL A   1      37.712  31.721  29.571  1.00  0.00     0.127 C 
ATOM     18  N   UNL A   1      38.072  32.048  30.929  1.00  0.00    -0.330 N 
BRANCH   9  19
ATOM     19  C   UNL A   1      33.837  29.681  27.373  1.00  0.00     0.299 C 
BRANCH  19  20
ATOM     20  C   UNL A   1      33.063  29.017  26.204  1.00  0.00     0.008 A 
ATOM     21  N   UNL A   1      31.396  25.661  25.469  1.00  0.00    -0.348 N 
ATOM     22  C   UNL A   1      30.284  25.618  24.645  1.00  0.00     0.087 A 
ATOM     23  C   UNL A   1      31.938  26.960  25.416  1.00  0.00     0.048 A 
ATOM     24  C   UNL A   1      30.056  26.881  24.153  1.00  0.00     0.028 A 
ATOM     25  C   UNL A   1      31.014  27.755  24.719  1.00  0.00    -0.000 A 
ATOM     26  C   UNL A   1      33.082  27.603  25.989  1.00  0.00     0.036 A 
ATOM     27  C   UNL A   1      31.211  29.156  24.654  1.00  0.00     0.011 A 
ATOM     28  C   UNL A   1      32.200  29.782  25.427  1.00  0.00     0.010 A 
BRANCH  21  29
ATOM     29  C   UNL A   1      31.791  24.453  26.206  1.00  0.00     0.119 C 
ATOM     30  C   UNL A   1      33.255  24.126  26.316  1.00  0.00     0.027 C 
ENDBRANCH  21  29
ENDBRANCH  19  20
ENDBRANCH   9  19
BRANCH  18  31
ATOM     31  C   UNL A   1      38.664  33.266  31.174  1.00  0.00     0.220 C 
ATOM     32  C   UNL A   1      38.692  34.336  30.104  1.00  0.00     0.114 C 
ATOM     33  O   UNL A   1      39.209  33.495  32.260  1.00  0.00    -0.275 OA
ENDBRANCH  18  31
ENDBRANCH   5   8
ENDBRANCH   3   4
ENDBRANCH   2   3
ENDBRANCH   1   2
BRANCH   1  34
ATOM     34  C   UNL A   1      41.476  29.478  34.300  1.00  0.00     0.002 C 
BRANCH  34  35
ATOM     35  C   UNL A   1      41.022  28.071  33.916  1.00  0.00     0.021 C 
BRANCH  35  36
ATOM     36  C   UNL A   1      42.022  27.015  34.378  1.00  0.00     0.116 C 
BRANCH  36  37
ATOM     37  N   UNL A   1      42.835  27.456  35.502  1.00  0.00    -0.352 N 
ATOM     38  C   UNL A   1      44.137  27.159  35.890  1.00  0.00     0.251 C 
ATOM     39  H   UNL A   1      42.374  28.084  36.104  1.00  0.00     0.163 HD
ATOM     40  O   UNL A   1      44.557  27.701  36.915  1.00  0.00    -0.269 OA
BRANCH  38  41
ATOM     41  C   UNL A   1      45.040  26.119  35.235  1.00  0.00     0.039 A 
ATOM     42  C   UNL A   1      46.363  26.265  35.312  1.00  0.00     0.014 A 
ATOM     43  C   UNL A   1      44.724  25.706  33.894  1.00  0.00     0.014 A 
ATOM     44  C   UNL A   1      47.027  26.543  33.860  1.00  0.00     0.010 A 
ATOM     45  C   UNL A   1      45.581  25.389  32.748  1.00  0.00     0.010 A 
ATOM     46  C   UNL A   1      46.207  26.528  32.356  1.00  0.00    -0.014 A 
BRANCH  46  47
ATOM     47  C   UNL A   1      46.126  26.766  30.355  1.00  0.00     0.031 A 
ATOM     48  C   UNL A   1      45.477  28.499  31.268  1.00  0.00     0.074 A 
ATOM     49  C   UNL A   1      46.464  26.037  28.806  1.00  0.00     0.049 A 
ATOM     50  N   UNL A   1      44.309  28.682  31.944  1.00  0.00    -0.248 NA
ATOM     51  C   UNL A   1      46.074  29.919  32.339  1.00  0.00     0.031 C 
ATOM     52  C   UNL A   1      47.226  24.743  27.467  1.00  0.00     0.029 A 
ATOM     53  N   UNL A   1      45.983  26.140  27.151  1.00  0.00    -0.354 N 
ATOM     54  C   UNL A   1      44.072  30.121  31.843  1.00  0.00     0.074 A 
ATOM     55  C   UNL A   1      45.114  30.892  32.348  1.00  0.00     0.031 C 
ATOM     56  C   UNL A   1      47.379  24.706  25.928  1.00  0.00     0.029 A 
ATOM     57  C   UNL A   1      46.795  25.976  25.736  1.00  0.00     0.049 A 
ATOM     58  H   UNL A   1      45.026  26.338  27.033  1.00  0.00     0.167 HD
ATOM     59  C   UNL A   1      43.576  30.564  30.682  1.00  0.00     0.037 A 
ATOM     60  C   UNL A   1      46.845  26.761  24.563  1.00  0.00     0.037 A 
ATOM     61  C   UNL A   1      43.029  29.429  30.055  1.00  0.00     0.049 A 
ATOM     62  C   UNL A   1      45.870  27.662  25.146  1.00  0.00     0.074 A 
ATOM     63  C   UNL A   1      42.169  28.475  30.549  1.00  0.00     0.029 A 
ATOM     64  N   UNL A   1      43.818  28.841  29.133  1.00  0.00    -0.354 N 
ATOM     65  N   UNL A   1      44.631  27.286  25.395  1.00  0.00    -0.248 NA
ATOM     66  C   UNL A   1      46.523  28.619  26.022  1.00  0.00     0.031 C 
ATOM     67  C   UNL A   1      42.365  27.326  29.787  1.00  0.00     0.029 A 
ATOM     68  C   UNL A   1      43.340  27.607  28.853  1.00  0.00     0.049 A 
ATOM     69  H   UNL A   1      44.618  29.247  28.727  1.00  0.00     0.167 HD
ATOM     70  C   UNL A   1      44.408  27.704  26.707  1.00  0.00     0.074 A 
ATOM     71  C   UNL A   1      45.593  28.641  26.975  1.00  0.00     0.031 C 
ATOM     72  C   UNL A   1      43.710  26.943  27.662  1.00  0.00     0.037 A 
BRANCH  59  73
ATOM     73  C   UNL A   1      43.796  31.854  29.998  1.00  0.00     0.058 A 
ATOM     74  C   UNL A   1      42.688  32.663  30.197  1.00  0.00     0.135 A 
ATOM     75  C   UNL A   1      44.819  32.313  29.134  1.00  0.00     0.135 A 
ATOM     76  F   UNL A   1      41.735  32.277  31.059  1.00  0.00    -0.206 F 
ATOM     77  C   UNL A   1      42.525  33.844  29.528  1.00  0.00     0.059 A 
ATOM     78  C   UNL A   1      44.687  33.532  28.465  1.00  0.00     0.059 A 
ATOM     79  F   UNL A   1      45.942  31.608  28.904  1.00  0.00    -0.206 F 
ATOM     80  C   UNL A   1      43.520  34.275  28.658  1.00  0.00     0.060 A 
BRANCH  80  81
ATOM     81  S   UNL A   1      43.230  35.837  27.804  1.00  0.00     0.124 S 
ATOM     82  O   UNL A   1      42.991  35.393  26.436  1.00  0.00    -0.237 OA
ATOM     83  O   UNL A   1      42.065  36.350  28.519  1.00  0.00    -0.237 OA
ATOM     84  O   UNL A   1      44.469  36.574  28.025  1.00  0.00    -0.744 OA
ENDBRANCH  80  81
ENDBRANCH  59  73
BRANCH  60  85
ATOM     85  C   UNL A   1      48.087  27.204  23.673  1.00  0.00     0.058 A 
ATOM     86  C   UNL A   1      49.434  26.794  23.867  1.00  0.00     0.135 A 
ATOM     87  C   UNL A   1      47.888  27.857  22.427  1.00  0.00     0.135 A 
ATOM     88  F   UNL A   1      49.810  26.276  25.044  1.00  0.00    -0.206 F 
ATOM     89  C   UNL A   1      50.446  26.892  22.866  1.00  0.00     0.059 A 
ATOM     90  C   UNL A   1      48.870  27.956  21.404  1.00  0.00     0.059 A 
ATOM     91  F   UNL A   1      46.685  28.382  22.153  1.00  0.00    -0.206 F 
ATOM     92  C   UNL A   1      50.145  27.438  21.617  1.00  0.00     0.060 A 
BRANCH  92  93
ATOM     93  S   UNL A   1      51.416  27.443  20.301  1.00  0.00     0.124 S 
ATOM     94  O   UNL A   1      50.635  27.105  19.116  1.00  0.00    -0.237 OA
ATOM     95  O   UNL A   1      51.920  28.812  20.352  1.00  0.00    -0.237 OA
ATOM     96  O   UNL A   1      52.363  26.417  20.731  1.00  0.00    -0.744 OA
ENDBRANCH  92  93
ENDBRANCH  60  85
BRANCH  72  97
ATOM     97  C   UNL A   1      43.089  25.505  27.473  1.00  0.00     0.058 A 
ATOM     98  C   UNL A   1      43.408  24.257  28.110  1.00  0.00     0.135 A 
ATOM     99  C   UNL A   1      41.975  25.432  26.653  1.00  0.00     0.135 A 
ATOM    100  F   UNL A   1      44.307  24.135  29.084  1.00  0.00    -0.206 F 
ATOM    101  C   UNL A   1      42.840  23.030  27.790  1.00  0.00     0.059 A 
ATOM    102  C   UNL A   1      41.304  24.227  26.399  1.00  0.00     0.059 A 
ATOM    103  F   UNL A   1      41.479  26.561  26.131  1.00  0.00    -0.206 F 
ATOM    104  C   UNL A   1      41.764  23.025  26.936  1.00  0.00     0.060 A 
BRANCH 104 105
ATOM    105  S   UNL A   1      40.964  21.446  26.604  1.00  0.00     0.124 S 
ATOM    106  O   UNL A   1      39.751  21.856  25.903  1.00  0.00    -0.237 OA
ATOM    107  O   UNL A   1      41.958  20.758  25.783  1.00  0.00    -0.237 OA
ATOM    108  O   UNL A   1      40.762  20.887  27.937  1.00  0.00    -0.744 OA
ENDBRANCH 104 105
ENDBRANCH  72  97
ENDBRANCH  46  47
ENDBRANCH  38  41
ENDBRANCH  36  37
ENDBRANCH  35  36
ENDBRANCH  34  35
ENDBRANCH   1  34
TORSDOF 20
ENDMDL
MODEL 3
REMARK VINA RESULT:     -11.4      1.450      2.480
REMARK SMILES CCn1ccc2ccc(C[NH+]3CCC4(CC3)C[C@H](C(=O)NCCCCCCNC(=O)c3ccc(-c5c6nc(c(-c7c(F)cc(S(=O)(=O)[O-])cc7F)c7ccc([nH]7)c(-c7c(F)cc(S(=O)(=O)[O-])cc7F)c7nc(c(-c8c(F)cc(S(=O)(=O)[O-])cc8F)c8ccc5[nH]8)C=C7)C=C6)cc3)N(C(C)=O)C4)cc21
REMARK SMILES IDX 24 1 23 2 22 3 21 4 19 5 20 6 18 8 11 9 12 10 16 11 13 13
REMARK SMILES IDX 15 14 14 15 17 16 101 17 97 18 10 19 9 20 3 21 4 22 103 23
REMARK SMILES IDX 5 24 6 25 102 26 7 27 8 28 2 29 1 30 98 31 99 32 100 33
REMARK SMILES IDX 25 34 26 35 27 36 28 37 29 38 30 40 31 41 32 42 96 43 33 44
REMARK SMILES IDX 95 45 34 46 35 47 36 48 89 49 37 50 94 51 88 52 90 53 38 54
REMARK SMILES IDX 93 55 87 56 86 57 39 59 73 60 52 61 72 62 53 63 56 64 71 65
REMARK SMILES IDX 91 66 54 67 55 68 70 70 92 71 57 72 40 73 41 74 50 75 42 76
REMARK SMILES IDX 43 77 49 78 51 79 44 80 45 81 46 82 47 83 48 84 74 85 75 86
REMARK SMILES IDX 84 87 76 88 77 89 83 90 85 91 78 92 79 93 80 94 81 95 82 96
REMARK SMILES IDX 58 97 59 98 68 99 60 100 61 101 67 102 69 103 62 104 63 105
REMARK SMILES IDX 64 106 65 107 66 108
REMARK H PARENT 21 7 11 12 28 39 90 58 56 69
REMARK Flexibility Score: inf
ROOT
ATOM      1  C   UNL A   1      31.767  29.928  26.023  1.00  0.00     0.002 C 
ENDROOT
BRANCH   1   2
ATOM      2  C   UNL A   1      32.735  29.666  24.855  1.00  0.00     0.021 C 
BRANCH   2   3
ATOM      3  C   UNL A   1      33.437  28.314  24.966  1.00  0.00     0.116 C 
BRANCH   3   4
ATOM      4  N   UNL A   1      34.015  27.955  23.688  1.00  0.00    -0.354 N 
ATOM      5  C   UNL A   1      33.592  27.284  22.605  1.00  0.00     0.242 C 
ATOM      6  O   UNL A   1      33.988  27.797  21.548  1.00  0.00    -0.273 OA
ATOM      7  H   UNL A   1      34.940  28.280  23.590  1.00  0.00     0.163 HD
BRANCH   5   8
ATOM      8  C   UNL A   1      32.754  26.004  22.528  1.00  0.00     0.175 C 
ATOM      9  N   UNL A   1      31.519  22.767  26.699  1.00  0.00    -0.331 N 
ATOM     10  C   UNL A   1      31.355  24.231  26.829  1.00  0.00     0.263 C 
ATOM     11  C   UNL A   1      31.177  22.350  25.349  1.00  0.00     0.263 C 
ATOM     12  H   UNL A   1      30.855  22.352  27.352  1.00  0.00     0.348 HD
ATOM     13  C   UNL A   1      32.288  25.030  25.931  1.00  0.00     0.070 C 
ATOM     14  C   UNL A   1      31.983  23.137  24.367  1.00  0.00     0.070 C 
ATOM     15  C   UNL A   1      32.100  24.624  24.467  1.00  0.00     0.001 C 
ATOM     16  C   UNL A   1      33.296  25.152  23.649  1.00  0.00     0.044 C 
ATOM     17  C   UNL A   1      30.867  25.144  23.803  1.00  0.00     0.127 C 
ATOM     18  N   UNL A   1      31.347  26.227  22.978  1.00  0.00    -0.330 N 
BRANCH   9  19
ATOM     19  C   UNL A   1      32.822  22.199  27.195  1.00  0.00     0.299 C 
BRANCH  19  20
ATOM     20  C   UNL A   1      34.003  21.894  26.237  1.00  0.00     0.008 A 
ATOM     21  N   UNL A   1      37.714  22.753  25.965  1.00  0.00    -0.348 N 
ATOM     22  C   UNL A   1      38.585  21.839  25.398  1.00  0.00     0.087 A 
ATOM     23  C   UNL A   1      36.397  22.296  25.762  1.00  0.00     0.048 A 
ATOM     24  C   UNL A   1      37.857  20.771  24.931  1.00  0.00     0.028 A 
ATOM     25  C   UNL A   1      36.496  20.990  25.256  1.00  0.00    -0.000 A 
ATOM     26  C   UNL A   1      35.091  22.804  26.061  1.00  0.00     0.036 A 
ATOM     27  C   UNL A   1      35.324  20.208  25.112  1.00  0.00     0.011 A 
ATOM     28  C   UNL A   1      34.099  20.642  25.639  1.00  0.00     0.010 A 
BRANCH  21  29
ATOM     29  C   UNL A   1      38.256  23.943  26.634  1.00  0.00     0.119 C 
ATOM     30  C   UNL A   1      39.727  23.985  26.944  1.00  0.00     0.027 C 
ENDBRANCH  21  29
ENDBRANCH  19  20
ENDBRANCH   9  19
BRANCH  18  31
ATOM     31  C   UNL A   1      30.555  27.343  22.837  1.00  0.00     0.220 C 
ATOM     32  C   UNL A   1      29.633  27.778  23.956  1.00  0.00     0.114 C 
ATOM     33  O   UNL A   1      30.559  27.990  21.783  1.00  0.00    -0.275 OA
ENDBRANCH  18  31
ENDBRANCH   5   8
ENDBRANCH   3   4
ENDBRANCH   2   3
ENDBRANCH   1   2
BRANCH   1  34
ATOM     34  C   UNL A   1      31.045  31.275  25.890  1.00  0.00     0.002 C 
BRANCH  34  35
ATOM     35  C   UNL A   1      31.790  32.387  26.626  1.00  0.00     0.021 C 
BRANCH  35  36
ATOM     36  C   UNL A   1      32.619  31.834  27.782  1.00  0.00     0.116 C 
BRANCH  36  37
ATOM     37  N   UNL A   1      33.819  32.614  28.045  1.00  0.00    -0.352 N 
ATOM     38  C   UNL A   1      35.173  32.325  27.911  1.00  0.00     0.251 C 
ATOM     39  H   UNL A   1      33.637  33.520  28.384  1.00  0.00     0.163 HD
ATOM     40  O   UNL A   1      35.971  33.212  28.223  1.00  0.00    -0.269 OA
BRANCH  38  41
ATOM     41  C   UNL A   1      35.755  30.965  27.545  1.00  0.00     0.039 A 
ATOM     42  C   UNL A   1      35.191  29.862  28.040  1.00  0.00     0.014 A 
ATOM     43  C   UNL A   1      37.181  30.801  27.629  1.00  0.00     0.014 A 
ATOM     44  C   UNL A   1      36.180  29.083  29.061  1.00  0.00     0.010 A 
ATOM     45  C   UNL A   1      38.005  29.671  28.071  1.00  0.00     0.010 A 
ATOM     46  C   UNL A   1      37.807  29.496  29.403  1.00  0.00    -0.014 A 
BRANCH  46  47
ATOM     47  C   UNL A   1      39.552  29.251  30.384  1.00  0.00     0.031 A 
ATOM     48  C   UNL A   1      38.326  30.495  31.484  1.00  0.00     0.074 A 
ATOM     49  C   UNL A   1      41.097  28.442  30.387  1.00  0.00     0.049 A 
ATOM     50  N   UNL A   1      37.979  31.777  31.185  1.00  0.00    -0.248 NA
ATOM     51  C   UNL A   1      36.721  30.509  32.454  1.00  0.00     0.031 C 
ATOM     52  C   UNL A   1      42.528  27.125  29.869  1.00  0.00     0.029 A 
ATOM     53  N   UNL A   1      42.687  28.607  31.042  1.00  0.00    -0.354 N 
ATOM     54  C   UNL A   1      37.652  32.359  32.486  1.00  0.00     0.074 A 
ATOM     55  C   UNL A   1      36.651  31.674  33.165  1.00  0.00     0.031 C 
ATOM     56  C   UNL A   1      43.884  26.675  30.462  1.00  0.00     0.029 A 
ATOM     57  C   UNL A   1      43.792  27.523  31.586  1.00  0.00     0.049 A 
ATOM     58  H   UNL A   1      42.991  29.541  31.103  1.00  0.00     0.167 HD
ATOM     59  C   UNL A   1      38.686  32.722  33.254  1.00  0.00     0.037 A 
ATOM     60  C   UNL A   1      44.570  27.457  32.762  1.00  0.00     0.037 A 
ATOM     61  C   UNL A   1      39.783  32.821  32.377  1.00  0.00     0.049 A 
ATOM     62  C   UNL A   1      44.013  28.728  33.182  1.00  0.00     0.074 A 
ATOM     63  C   UNL A   1      39.895  33.479  31.174  1.00  0.00     0.029 A 
ATOM     64  N   UNL A   1      40.593  31.743  32.341  1.00  0.00    -0.354 N 
ATOM     65  N   UNL A   1      44.256  29.848  32.531  1.00  0.00    -0.248 NA
ATOM     66  C   UNL A   1      42.722  28.529  33.819  1.00  0.00     0.031 C 
ATOM     67  C   UNL A   1      40.913  32.845  30.466  1.00  0.00     0.029 A 
ATOM     68  C   UNL A   1      41.391  31.818  31.251  1.00  0.00     0.049 A 
ATOM     69  H   UNL A   1      40.601  31.015  33.004  1.00  0.00     0.167 HD
ATOM     70  C   UNL A   1      42.996  30.421  32.360  1.00  0.00     0.074 A 
ATOM     71  C   UNL A   1      42.113  29.598  33.306  1.00  0.00     0.031 C 
ATOM     72  C   UNL A   1      42.585  31.064  31.179  1.00  0.00     0.037 A 
BRANCH  59  73
ATOM     73  C   UNL A   1      38.808  32.721  34.725  1.00  0.00     0.058 A 
ATOM     74  C   UNL A   1      38.733  34.027  35.184  1.00  0.00     0.135 A 
ATOM     75  C   UNL A   1      39.095  31.696  35.658  1.00  0.00     0.135 A 
ATOM     76  F   UNL A   1      38.402  35.008  34.330  1.00  0.00    -0.206 F 
ATOM     77  C   UNL A   1      39.001  34.355  36.483  1.00  0.00     0.059 A 
ATOM     78  C   UNL A   1      39.341  32.005  36.997  1.00  0.00     0.059 A 
ATOM     79  F   UNL A   1      39.160  30.398  35.309  1.00  0.00    -0.206 F 
ATOM     80  C   UNL A   1      39.312  33.346  37.388  1.00  0.00     0.060 A 
BRANCH  80  81
ATOM     81  S   UNL A   1      39.664  33.856  39.081  1.00  0.00     0.124 S 
ATOM     82  O   UNL A   1      39.841  32.573  39.752  1.00  0.00    -0.237 OA
ATOM     83  O   UNL A   1      40.875  34.652  38.903  1.00  0.00    -0.237 OA
ATOM     84  O   UNL A   1      38.474  34.610  39.458  1.00  0.00    -0.744 OA
ENDBRANCH  80  81
ENDBRANCH  59  73
BRANCH  60  85
ATOM     85  C   UNL A   1      44.881  26.228  33.723  1.00  0.00     0.058 A 
ATOM     86  C   UNL A   1      44.379  24.907  33.568  1.00  0.00     0.135 A 
ATOM     87  C   UNL A   1      45.921  26.309  34.688  1.00  0.00     0.135 A 
ATOM     88  F   UNL A   1      43.312  24.687  32.787  1.00  0.00    -0.206 F 
ATOM     89  C   UNL A   1      44.950  23.761  34.199  1.00  0.00     0.059 A 
ATOM     90  C   UNL A   1      46.521  25.186  35.320  1.00  0.00     0.059 A 
ATOM     91  F   UNL A   1      46.422  27.511  35.006  1.00  0.00    -0.206 F 
ATOM     92  C   UNL A   1      46.051  23.904  35.045  1.00  0.00     0.060 A 
BRANCH  92  93
ATOM     93  S   UNL A   1      46.850  22.416  35.747  1.00  0.00     0.124 S 
ATOM     94  O   UNL A   1      48.214  22.880  35.983  1.00  0.00    -0.237 OA
ATOM     95  O   UNL A   1      46.057  22.165  36.946  1.00  0.00    -0.237 OA
ATOM     96  O   UNL A   1      46.712  21.417  34.690  1.00  0.00    -0.744 OA
ENDBRANCH  92  93
ENDBRANCH  60  85
BRANCH  72  97
ATOM     97  C   UNL A   1      43.409  31.238  29.845  1.00  0.00     0.058 A 
ATOM     98  C   UNL A   1      43.142  30.769  28.513  1.00  0.00     0.135 A 
ATOM     99  C   UNL A   1      44.510  32.074  29.920  1.00  0.00     0.135 A 
ATOM    100  F   UNL A   1      42.032  30.120  28.168  1.00  0.00    -0.206 F 
ATOM    101  C   UNL A   1      44.000  30.916  27.429  1.00  0.00     0.059 A 
ATOM    102  C   UNL A   1      45.333  32.339  28.817  1.00  0.00     0.059 A 
ATOM    103  F   UNL A   1      44.766  32.706  31.074  1.00  0.00    -0.206 F 
ATOM    104  C   UNL A   1      45.098  31.727  27.585  1.00  0.00     0.060 A 
BRANCH 104 105
ATOM    105  S   UNL A   1      46.151  31.999  26.150  1.00  0.00     0.124 S 
ATOM    106  O   UNL A   1      45.245  32.675  25.226  1.00  0.00    -0.237 OA
ATOM    107  O   UNL A   1      47.219  32.831  26.700  1.00  0.00    -0.237 OA
ATOM    108  O   UNL A   1      46.549  30.648  25.768  1.00  0.00    -0.744 OA
ENDBRANCH 104 105
ENDBRANCH  72  97
ENDBRANCH  46  47
ENDBRANCH  38  41
ENDBRANCH  36  37
ENDBRANCH  35  36
ENDBRANCH  34  35
ENDBRANCH   1  34
TORSDOF 20
ENDMDL
