MODEL 1
REMARK VINA RESULT:     -12.1      0.000      0.000
REMARK SMILES O=C(Nc1nc(C2CC2)cs1)N[C@@H]1C=C[C@@H](C(=O)NCCCCCCNC(=O)c2ccc(-c3c4nc(c(-c5c(F)cc(S(=O)(=O)[O-])cc5F)c5ccc([nH]5)c(-c5c(F)cc(S(=O)(=O)[O-])cc5F)c5nc(c(-c6c(F)cc(S(=O)(=O)[O-])cc6F)c6ccc3[nH]6)C=C5)C=C4)cc2)C1
REMARK SMILES IDX 22 1 21 2 20 3 19 4 17 5 18 6 16 8 13 9 14 10 95 11 15 12
REMARK SMILES IDX 12 13 1 14 2 15 3 16 4 19 5 20 11 21 6 22 10 23 7 24 8 25
REMARK SMILES IDX 9 26 23 27 24 28 25 29 26 30 27 31 28 33 29 34 30 35 94 36
REMARK SMILES IDX 31 37 93 38 32 39 33 40 34 41 87 42 35 43 92 44 86 45 88 46
REMARK SMILES IDX 36 47 91 48 85 49 84 50 37 52 71 53 50 54 70 55 51 56 54 57
REMARK SMILES IDX 69 58 89 59 52 60 53 61 68 63 90 64 55 65 38 66 39 67 48 68
REMARK SMILES IDX 40 69 41 70 47 71 49 72 42 73 43 74 44 75 45 76 46 77 72 78
REMARK SMILES IDX 73 79 82 80 74 81 75 82 81 83 83 84 76 85 77 86 78 87 79 88
REMARK SMILES IDX 80 89 56 90 57 91 66 92 58 93 59 94 65 95 67 96 60 97 61 98
REMARK SMILES IDX 62 99 63 100 64 101
REMARK H PARENT 19 7 3 17 12 18 26 32 88 51 54 62
REMARK Flexibility Score: inf
ROOT
ATOM      1  C   UNL A   1      37.424  21.787  24.725  1.00  0.00     0.002 C 
ENDROOT
BRANCH   1   2
ATOM      2  C   UNL A   1      36.369  20.737  25.089  1.00  0.00     0.021 C 
BRANCH   2   3
ATOM      3  C   UNL A   1      35.255  21.255  25.996  1.00  0.00     0.116 C 
BRANCH   3   4
ATOM      4  N   UNL A   1      33.993  20.597  25.717  1.00  0.00    -0.356 N 
ATOM      5  C   UNL A   1      32.803  21.090  25.281  1.00  0.00     0.227 C 
ATOM      6  O   UNL A   1      31.886  20.280  25.106  1.00  0.00    -0.274 OA
ATOM      7  H   UNL A   1      33.999  19.625  25.868  1.00  0.00     0.163 HD
BRANCH   5   8
ATOM      8  C   UNL A   1      32.578  22.575  24.987  1.00  0.00     0.103 C 
ATOM      9  C   UNL A   1      32.054  23.820  22.930  1.00  0.00     0.107 C 
ATOM     10  C   UNL A   1      30.853  23.633  23.803  1.00  0.00    -0.006 C 
ATOM     11  C   UNL A   1      33.179  23.082  23.669  1.00  0.00     0.047 C 
ATOM     12  C   UNL A   1      31.130  22.947  24.916  1.00  0.00    -0.016 C 
BRANCH   9  13
ATOM     13  N   UNL A   1      32.308  25.230  22.841  1.00  0.00    -0.332 N 
ATOM     14  O   UNL A   1      33.239  25.202  20.761  1.00  0.00    -0.248 OA
ATOM     15  C   UNL A   1      32.840  25.828  21.741  1.00  0.00     0.321 C 
ATOM     16  N   UNL A   1      32.832  27.189  21.712  1.00  0.00    -0.284 N 
ATOM     17  H   UNL A   1      33.088  27.625  20.867  1.00  0.00     0.174 HD
ATOM     18  H   UNL A   1      32.086  25.794  23.616  1.00  0.00     0.165 HD
BRANCH  16  19
ATOM     19  C   UNL A   1      32.496  27.997  22.757  1.00  0.00     0.191 A 
ATOM     20  N   UNL A   1      33.195  28.249  23.836  1.00  0.00    -0.225 NA
ATOM     21  S   UNL A   1      30.962  28.727  22.643  1.00  0.00    -0.105 S 
ATOM     22  C   UNL A   1      32.452  29.063  24.667  1.00  0.00     0.057 A 
ATOM     23  C   UNL A   1      31.178  29.357  24.229  1.00  0.00     0.092 A 
BRANCH  22  24
ATOM     24  C   UNL A   1      33.010  29.613  25.973  1.00  0.00     0.039 C 
ATOM     25  C   UNL A   1      32.258  29.362  27.262  1.00  0.00     0.011 C 
ATOM     26  C   UNL A   1      33.520  28.613  26.990  1.00  0.00     0.011 C 
ENDBRANCH  22  24
ENDBRANCH  16  19
ENDBRANCH   9  13
ENDBRANCH   5   8
ENDBRANCH   3   4
ENDBRANCH   2   3
ENDBRANCH   1   2
BRANCH   1  27
ATOM     27  C   UNL A   1      38.583  21.914  25.718  1.00  0.00     0.002 C 
BRANCH  27  28
ATOM     28  C   UNL A   1      38.680  23.261  26.441  1.00  0.00     0.021 C 
BRANCH  28  29
ATOM     29  C   UNL A   1      40.027  23.537  27.105  1.00  0.00     0.116 C 
BRANCH  29  30
ATOM     30  N   UNL A   1      40.992  24.097  26.174  1.00  0.00    -0.352 N 
ATOM     31  C   UNL A   1      41.501  25.369  26.102  1.00  0.00     0.251 C 
ATOM     32  H   UNL A   1      41.331  23.471  25.493  1.00  0.00     0.163 HD
ATOM     33  O   UNL A   1      42.163  25.704  25.118  1.00  0.00    -0.269 OA
BRANCH  31  34
ATOM     34  C   UNL A   1      41.243  26.340  27.185  1.00  0.00     0.039 A 
ATOM     35  C   UNL A   1      40.255  26.049  28.129  1.00  0.00     0.014 A 
ATOM     36  C   UNL A   1      41.957  27.541  27.268  1.00  0.00     0.014 A 
ATOM     37  C   UNL A   1      40.026  26.930  29.188  1.00  0.00     0.010 A 
ATOM     38  C   UNL A   1      41.778  28.382  28.365  1.00  0.00     0.010 A 
ATOM     39  C   UNL A   1      40.810  28.086  29.337  1.00  0.00    -0.014 A 
BRANCH  39  40
ATOM     40  C   UNL A   1      40.646  28.968  30.522  1.00  0.00     0.031 A 
ATOM     41  C   UNL A   1      41.501  28.782  31.745  1.00  0.00     0.074 A 
ATOM     42  C   UNL A   1      39.685  29.913  30.509  1.00  0.00     0.049 A 
ATOM     43  N   UNL A   1      41.490  29.453  32.869  1.00  0.00    -0.248 NA
ATOM     44  C   UNL A   1      42.482  27.685  31.714  1.00  0.00     0.031 C 
ATOM     45  C   UNL A   1      38.750  30.151  29.405  1.00  0.00     0.029 A 
ATOM     46  N   UNL A   1      39.330  30.849  31.448  1.00  0.00    -0.354 N 
ATOM     47  C   UNL A   1      42.450  28.858  33.679  1.00  0.00     0.074 A 
ATOM     48  C   UNL A   1      42.988  27.738  32.937  1.00  0.00     0.031 C 
ATOM     49  C   UNL A   1      37.949  31.180  29.721  1.00  0.00     0.029 A 
ATOM     50  C   UNL A   1      38.286  31.655  31.058  1.00  0.00     0.049 A 
ATOM     51  H   UNL A   1      39.781  30.934  32.319  1.00  0.00     0.167 HD
ATOM     52  C   UNL A   1      42.861  29.225  34.918  1.00  0.00     0.037 A 
ATOM     53  C   UNL A   1      37.667  32.660  31.705  1.00  0.00     0.037 A 
ATOM     54  C   UNL A   1      42.329  30.350  35.644  1.00  0.00     0.049 A 
ATOM     55  C   UNL A   1      38.146  33.054  33.076  1.00  0.00     0.074 A 
ATOM     56  C   UNL A   1      42.723  30.844  36.875  1.00  0.00     0.029 A 
ATOM     57  N   UNL A   1      41.281  31.152  35.212  1.00  0.00    -0.354 N 
ATOM     58  N   UNL A   1      39.112  32.531  33.793  1.00  0.00    -0.248 NA
ATOM     59  C   UNL A   1      37.458  34.180  33.720  1.00  0.00     0.031 C 
ATOM     60  C   UNL A   1      41.881  31.911  37.211  1.00  0.00     0.029 A 
ATOM     61  C   UNL A   1      40.998  32.118  36.165  1.00  0.00     0.049 A 
ATOM     62  H   UNL A   1      40.809  31.049  34.355  1.00  0.00     0.167 HD
ATOM     63  C   UNL A   1      39.160  33.276  34.965  1.00  0.00     0.074 A 
ATOM     64  C   UNL A   1      38.142  34.300  34.850  1.00  0.00     0.031 C 
ATOM     65  C   UNL A   1      39.973  33.126  36.043  1.00  0.00     0.037 A 
BRANCH  52  66
ATOM     66  C   UNL A   1      43.939  28.400  35.570  1.00  0.00     0.058 A 
ATOM     67  C   UNL A   1      45.302  28.659  35.350  1.00  0.00     0.135 A 
ATOM     68  C   UNL A   1      43.608  27.363  36.457  1.00  0.00     0.135 A 
ATOM     69  F   UNL A   1      45.678  29.630  34.502  1.00  0.00    -0.206 F 
ATOM     70  C   UNL A   1      46.296  27.901  35.961  1.00  0.00     0.059 A 
ATOM     71  C   UNL A   1      44.586  26.611  37.103  1.00  0.00     0.059 A 
ATOM     72  F   UNL A   1      42.322  27.071  36.707  1.00  0.00    -0.206 F 
ATOM     73  C   UNL A   1      45.928  26.879  36.837  1.00  0.00     0.060 A 
BRANCH  73  74
ATOM     74  S   UNL A   1      47.231  25.909  37.627  1.00  0.00     0.124 S 
ATOM     75  O   UNL A   1      47.440  26.655  38.863  1.00  0.00    -0.237 OA
ATOM     76  O   UNL A   1      46.599  24.602  37.776  1.00  0.00    -0.237 OA
ATOM     77  O   UNL A   1      48.328  25.967  36.667  1.00  0.00    -0.744 OA
ENDBRANCH  73  74
ENDBRANCH  52  66
BRANCH  53  78
ATOM     78  C   UNL A   1      36.538  33.377  31.053  1.00  0.00     0.058 A 
ATOM     79  C   UNL A   1      36.758  34.234  29.963  1.00  0.00     0.135 A 
ATOM     80  C   UNL A   1      35.216  33.202  31.490  1.00  0.00     0.135 A 
ATOM     81  F   UNL A   1      38.004  34.438  29.512  1.00  0.00    -0.206 F 
ATOM     82  C   UNL A   1      35.710  34.903  29.341  1.00  0.00     0.059 A 
ATOM     83  C   UNL A   1      34.149  33.840  30.865  1.00  0.00     0.059 A 
ATOM     84  F   UNL A   1      34.950  32.380  32.517  1.00  0.00    -0.206 F 
ATOM     85  C   UNL A   1      34.407  34.696  29.797  1.00  0.00     0.060 A 
BRANCH  85  86
ATOM     86  S   UNL A   1      33.048  35.527  28.945  1.00  0.00     0.124 S 
ATOM     87  O   UNL A   1      32.453  34.426  28.197  1.00  0.00    -0.237 OA
ATOM     88  O   UNL A   1      32.259  36.043  30.060  1.00  0.00    -0.237 OA
ATOM     89  O   UNL A   1      33.725  36.542  28.145  1.00  0.00    -0.744 OA
ENDBRANCH  85  86
ENDBRANCH  53  78
BRANCH  65  90
ATOM     90  C   UNL A   1      39.802  34.104  37.174  1.00  0.00     0.058 A 
ATOM     91  C   UNL A   1      38.949  33.838  38.257  1.00  0.00     0.135 A 
ATOM     92  C   UNL A   1      40.513  35.315  37.183  1.00  0.00     0.135 A 
ATOM     93  F   UNL A   1      38.241  32.698  38.296  1.00  0.00    -0.206 F 
ATOM     94  C   UNL A   1      38.779  34.755  39.289  1.00  0.00     0.059 A 
ATOM     95  C   UNL A   1      40.382  36.232  38.220  1.00  0.00     0.059 A 
ATOM     96  F   UNL A   1      41.352  35.615  36.178  1.00  0.00    -0.206 F 
ATOM     97  C   UNL A   1      39.497  35.951  39.260  1.00  0.00     0.060 A 
BRANCH  97  98
ATOM     98  S   UNL A   1      39.269  37.131  40.609  1.00  0.00     0.124 S 
ATOM     99  O   UNL A   1      38.292  38.049  40.033  1.00  0.00    -0.237 OA
ATOM    100  O   UNL A   1      38.780  36.281  41.690  1.00  0.00    -0.237 OA
ATOM    101  O   UNL A   1      40.607  37.681  40.808  1.00  0.00    -0.744 OA
ENDBRANCH  97  98
ENDBRANCH  65  90
ENDBRANCH  39  40
ENDBRANCH  31  34
ENDBRANCH  29  30
ENDBRANCH  28  29
ENDBRANCH  27  28
ENDBRANCH   1  27
TORSDOF 19
ENDMDL
MODEL 2
REMARK VINA RESULT:     -11.9      6.506     12.229
REMARK SMILES O=C(Nc1nc(C2CC2)cs1)N[C@@H]1C=C[C@@H](C(=O)NCCCCCCNC(=O)c2ccc(-c3c4nc(c(-c5c(F)cc(S(=O)(=O)[O-])cc5F)c5ccc([nH]5)c(-c5c(F)cc(S(=O)(=O)[O-])cc5F)c5nc(c(-c6c(F)cc(S(=O)(=O)[O-])cc6F)c6ccc3[nH]6)C=C5)C=C4)cc2)C1
REMARK SMILES IDX 22 1 21 2 20 3 19 4 17 5 18 6 16 8 13 9 14 10 95 11 15 12
REMARK SMILES IDX 12 13 1 14 2 15 3 16 4 19 5 20 11 21 6 22 10 23 7 24 8 25
REMARK SMILES IDX 9 26 23 27 24 28 25 29 26 30 27 31 28 33 29 34 30 35 94 36
REMARK SMILES IDX 31 37 93 38 32 39 33 40 34 41 87 42 35 43 92 44 86 45 88 46
REMARK SMILES IDX 36 47 91 48 85 49 84 50 37 52 71 53 50 54 70 55 51 56 54 57
REMARK SMILES IDX 69 58 89 59 52 60 53 61 68 63 90 64 55 65 38 66 39 67 48 68
REMARK SMILES IDX 40 69 41 70 47 71 49 72 42 73 43 74 44 75 45 76 46 77 72 78
REMARK SMILES IDX 73 79 82 80 74 81 75 82 81 83 83 84 76 85 77 86 78 87 79 88
REMARK SMILES IDX 80 89 56 90 57 91 66 92 58 93 59 94 65 95 67 96 60 97 61 98
REMARK SMILES IDX 62 99 63 100 64 101
REMARK H PARENT 19 7 3 17 12 18 26 32 88 51 54 62
REMARK Flexibility Score: inf
ROOT
ATOM      1  C   UNL A   1      34.553  31.781  27.954  1.00  0.00     0.002 C 
ENDROOT
BRANCH   1   2
ATOM      2  C   UNL A   1      34.911  30.327  27.631  1.00  0.00     0.021 C 
BRANCH   2   3
ATOM      3  C   UNL A   1      33.708  29.436  27.331  1.00  0.00     0.116 C 
BRANCH   3   4
ATOM      4  N   UNL A   1      33.180  29.685  26.003  1.00  0.00    -0.356 N 
ATOM      5  C   UNL A   1      32.919  28.841  24.969  1.00  0.00     0.227 C 
ATOM      6  O   UNL A   1      32.444  29.337  23.941  1.00  0.00    -0.274 OA
ATOM      7  H   UNL A   1      32.974  30.630  25.818  1.00  0.00     0.163 HD
BRANCH   5   8
ATOM      8  C   UNL A   1      33.169  27.333  25.046  1.00  0.00     0.103 C 
ATOM      9  C   UNL A   1      31.701  25.372  24.809  1.00  0.00     0.107 C 
ATOM     10  C   UNL A   1      32.521  25.621  23.582  1.00  0.00    -0.006 C 
ATOM     11  C   UNL A   1      32.077  26.522  25.755  1.00  0.00     0.047 C 
ATOM     12  C   UNL A   1      33.311  26.692  23.701  1.00  0.00    -0.016 C 
BRANCH   9  13
ATOM     13  N   UNL A   1      32.091  24.096  25.338  1.00  0.00    -0.332 N 
ATOM     14  O   UNL A   1      30.330  23.849  26.763  1.00  0.00    -0.248 OA
ATOM     15  C   UNL A   1      31.351  23.402  26.244  1.00  0.00     0.321 C 
ATOM     16  N   UNL A   1      31.729  22.120  26.500  1.00  0.00    -0.284 N 
ATOM     17  H   UNL A   1      31.122  21.570  27.047  1.00  0.00     0.174 HD
ATOM     18  H   UNL A   1      32.939  23.702  25.029  1.00  0.00     0.165 HD
BRANCH  16  19
ATOM     19  C   UNL A   1      32.878  21.535  26.058  1.00  0.00     0.191 A 
ATOM     20  N   UNL A   1      34.113  21.908  26.292  1.00  0.00    -0.225 NA
ATOM     21  S   UNL A   1      32.659  20.179  25.051  1.00  0.00    -0.105 S 
ATOM     22  C   UNL A   1      34.967  21.077  25.595  1.00  0.00     0.057 A 
ATOM     23  C   UNL A   1      34.359  20.133  24.793  1.00  0.00     0.092 A 
BRANCH  22  24
ATOM     24  C   UNL A   1      36.481  21.187  25.716  1.00  0.00     0.039 C 
ATOM     25  C   UNL A   1      37.354  20.609  24.623  1.00  0.00     0.011 C 
ATOM     26  C   UNL A   1      37.196  22.089  24.731  1.00  0.00     0.011 C 
ENDBRANCH  22  24
ENDBRANCH  16  19
ENDBRANCH   9  13
ENDBRANCH   5   8
ENDBRANCH   3   4
ENDBRANCH   2   3
ENDBRANCH   1   2
BRANCH   1  27
ATOM     27  C   UNL A   1      35.743  32.742  28.025  1.00  0.00     0.002 C 
BRANCH  27  28
ATOM     28  C   UNL A   1      35.793  33.630  29.273  1.00  0.00     0.021 C 
BRANCH  28  29
ATOM     29  C   UNL A   1      36.708  33.124  30.385  1.00  0.00     0.116 C 
BRANCH  29  30
ATOM     30  N   UNL A   1      36.198  31.910  31.003  1.00  0.00    -0.352 N 
ATOM     31  C   UNL A   1      36.712  30.639  30.986  1.00  0.00     0.251 C 
ATOM     32  H   UNL A   1      35.359  32.016  31.508  1.00  0.00     0.163 HD
ATOM     33  O   UNL A   1      36.031  29.702  31.406  1.00  0.00    -0.269 OA
BRANCH  31  34
ATOM     34  C   UNL A   1      38.067  30.386  30.451  1.00  0.00     0.039 A 
ATOM     35  C   UNL A   1      39.130  30.258  31.347  1.00  0.00     0.014 A 
ATOM     36  C   UNL A   1      38.297  30.289  29.075  1.00  0.00     0.014 A 
ATOM     37  C   UNL A   1      40.411  29.972  30.868  1.00  0.00     0.010 A 
ATOM     38  C   UNL A   1      39.559  29.933  28.603  1.00  0.00     0.010 A 
ATOM     39  C   UNL A   1      40.630  29.770  29.495  1.00  0.00    -0.014 A 
BRANCH  39  40
ATOM     40  C   UNL A   1      41.966  29.357  28.991  1.00  0.00     0.031 A 
ATOM     41  C   UNL A   1      43.088  30.352  28.876  1.00  0.00     0.074 A 
ATOM     42  C   UNL A   1      42.152  28.083  28.592  1.00  0.00     0.049 A 
ATOM     43  N   UNL A   1      44.312  30.169  28.452  1.00  0.00    -0.248 NA
ATOM     44  C   UNL A   1      42.791  31.741  29.264  1.00  0.00     0.031 C 
ATOM     45  C   UNL A   1      41.123  27.039  28.596  1.00  0.00     0.029 A 
ATOM     46  N   UNL A   1      43.265  27.446  28.103  1.00  0.00    -0.354 N 
ATOM     47  C   UNL A   1      44.929  31.413  28.515  1.00  0.00     0.074 A 
ATOM     48  C   UNL A   1      43.927  32.354  28.967  1.00  0.00     0.031 C 
ATOM     49  C   UNL A   1      41.661  25.889  28.159  1.00  0.00     0.029 A 
ATOM     50  C   UNL A   1      43.058  26.119  27.810  1.00  0.00     0.049 A 
ATOM     51  H   UNL A   1      44.130  27.898  27.975  1.00  0.00     0.167 HD
ATOM     52  C   UNL A   1      46.216  31.737  28.240  1.00  0.00     0.037 A 
ATOM     53  C   UNL A   1      43.897  25.190  27.312  1.00  0.00     0.037 A 
ATOM     54  C   UNL A   1      47.211  30.791  27.804  1.00  0.00     0.049 A 
ATOM     55  C   UNL A   1      45.324  25.572  27.024  1.00  0.00     0.074 A 
ATOM     56  C   UNL A   1      48.557  31.006  27.564  1.00  0.00     0.029 A 
ATOM     57  N   UNL A   1      46.969  29.452  27.530  1.00  0.00    -0.354 N 
ATOM     58  N   UNL A   1      45.910  26.736  27.168  1.00  0.00    -0.248 NA
ATOM     59  C   UNL A   1      46.204  24.512  26.517  1.00  0.00     0.031 C 
ATOM     60  C   UNL A   1      49.117  29.811  27.097  1.00  0.00     0.029 A 
ATOM     61  C   UNL A   1      48.133  28.836  27.098  1.00  0.00     0.049 A 
ATOM     62  H   UNL A   1      46.097  29.005  27.628  1.00  0.00     0.167 HD
ATOM     63  C   UNL A   1      47.233  26.545  26.785  1.00  0.00     0.074 A 
ATOM     64  C   UNL A   1      47.364  25.147  26.428  1.00  0.00     0.031 C 
ATOM     65  C   UNL A   1      48.248  27.445  26.733  1.00  0.00     0.037 A 
BRANCH  52  66
ATOM     66  C   UNL A   1      46.625  33.177  28.405  1.00  0.00     0.058 A 
ATOM     67  C   UNL A   1      46.470  34.113  27.369  1.00  0.00     0.135 A 
ATOM     68  C   UNL A   1      47.144  33.638  29.626  1.00  0.00     0.135 A 
ATOM     69  F   UNL A   1      45.991  33.727  26.175  1.00  0.00    -0.206 F 
ATOM     70  C   UNL A   1      46.840  35.445  27.526  1.00  0.00     0.059 A 
ATOM     71  C   UNL A   1      47.494  34.973  29.816  1.00  0.00     0.059 A 
ATOM     72  F   UNL A   1      47.314  32.790  30.652  1.00  0.00    -0.206 F 
ATOM     73  C   UNL A   1      47.351  35.866  28.755  1.00  0.00     0.060 A 
BRANCH  73  74
ATOM     74  S   UNL A   1      47.821  37.599  28.945  1.00  0.00     0.124 S 
ATOM     75  O   UNL A   1      46.517  38.253  28.969  1.00  0.00    -0.237 OA
ATOM     76  O   UNL A   1      48.545  37.588  30.213  1.00  0.00    -0.237 OA
ATOM     77  O   UNL A   1      48.634  37.863  27.763  1.00  0.00    -0.744 OA
ENDBRANCH  73  74
ENDBRANCH  52  66
BRANCH  53  78
ATOM     78  C   UNL A   1      43.412  23.804  27.075  1.00  0.00     0.058 A 
ATOM     79  C   UNL A   1      43.235  22.907  28.139  1.00  0.00     0.135 A 
ATOM     80  C   UNL A   1      43.094  23.357  25.783  1.00  0.00     0.135 A 
ATOM     81  F   UNL A   1      43.530  23.286  29.391  1.00  0.00    -0.206 F 
ATOM     82  C   UNL A   1      42.774  21.612  27.930  1.00  0.00     0.059 A 
ATOM     83  C   UNL A   1      42.606  22.074  25.553  1.00  0.00     0.059 A 
ATOM     84  F   UNL A   1      43.229  24.182  24.733  1.00  0.00    -0.206 F 
ATOM     85  C   UNL A   1      42.458  21.206  26.632  1.00  0.00     0.060 A 
BRANCH  85  86
ATOM     86  S   UNL A   1      41.809  19.540  26.379  1.00  0.00     0.124 S 
ATOM     87  O   UNL A   1      40.380  19.798  26.242  1.00  0.00    -0.237 OA
ATOM     88  O   UNL A   1      42.502  19.122  25.164  1.00  0.00    -0.237 OA
ATOM     89  O   UNL A   1      42.210  18.835  27.592  1.00  0.00    -0.744 OA
ENDBRANCH  85  86
ENDBRANCH  53  78
BRANCH  65  90
ATOM     90  C   UNL A   1      49.593  26.937  26.288  1.00  0.00     0.058 A 
ATOM     91  C   UNL A   1      50.489  26.334  27.185  1.00  0.00     0.135 A 
ATOM     92  C   UNL A   1      49.983  27.039  24.943  1.00  0.00     0.135 A 
ATOM     93  F   UNL A   1      50.168  26.215  28.483  1.00  0.00    -0.206 F 
ATOM     94  C   UNL A   1      51.739  25.885  26.772  1.00  0.00     0.059 A 
ATOM     95  C   UNL A   1      51.216  26.569  24.502  1.00  0.00     0.059 A 
ATOM     96  F   UNL A   1      49.161  27.596  24.039  1.00  0.00    -0.206 F 
ATOM     97  C   UNL A   1      52.096  26.010  25.429  1.00  0.00     0.060 A 
BRANCH  97  98
ATOM     98  S   UNL A   1      53.720  25.421  24.905  1.00  0.00     0.124 S 
ATOM     99  O   UNL A   1      53.571  23.977  25.058  1.00  0.00    -0.237 OA
ATOM    100  O   UNL A   1      53.803  25.907  23.531  1.00  0.00    -0.237 OA
ATOM    101  O   UNL A   1      54.633  26.062  25.847  1.00  0.00    -0.744 OA
ENDBRANCH  97  98
ENDBRANCH  65  90
ENDBRANCH  39  40
ENDBRANCH  31  34
ENDBRANCH  29  30
ENDBRANCH  28  29
ENDBRANCH  27  28
ENDBRANCH   1  27
TORSDOF 19
ENDMDL
MODEL 3
REMARK VINA RESULT:     -11.7      1.168      2.128
REMARK SMILES O=C(Nc1nc(C2CC2)cs1)N[C@@H]1C=C[C@@H](C(=O)NCCCCCCNC(=O)c2ccc(-c3c4nc(c(-c5c(F)cc(S(=O)(=O)[O-])cc5F)c5ccc([nH]5)c(-c5c(F)cc(S(=O)(=O)[O-])cc5F)c5nc(c(-c6c(F)cc(S(=O)(=O)[O-])cc6F)c6ccc3[nH]6)C=C5)C=C4)cc2)C1
REMARK SMILES IDX 22 1 21 2 20 3 19 4 17 5 18 6 16 8 13 9 14 10 95 11 15 12
REMARK SMILES IDX 12 13 1 14 2 15 3 16 4 19 5 20 11 21 6 22 10 23 7 24 8 25
REMARK SMILES IDX 9 26 23 27 24 28 25 29 26 30 27 31 28 33 29 34 30 35 94 36
REMARK SMILES IDX 31 37 93 38 32 39 33 40 34 41 87 42 35 43 92 44 86 45 88 46
REMARK SMILES IDX 36 47 91 48 85 49 84 50 37 52 71 53 50 54 70 55 51 56 54 57
REMARK SMILES IDX 69 58 89 59 52 60 53 61 68 63 90 64 55 65 38 66 39 67 48 68
REMARK SMILES IDX 40 69 41 70 47 71 49 72 42 73 43 74 44 75 45 76 46 77 72 78
REMARK SMILES IDX 73 79 82 80 74 81 75 82 81 83 83 84 76 85 77 86 78 87 79 88
REMARK SMILES IDX 80 89 56 90 57 91 66 92 58 93 59 94 65 95 67 96 60 97 61 98
REMARK SMILES IDX 62 99 63 100 64 101
REMARK H PARENT 19 7 3 17 12 18 26 32 88 51 54 62
REMARK Flexibility Score: inf
ROOT
ATOM      1  C   UNL A   1      35.780  21.923  24.454  1.00  0.00     0.002 C 
ENDROOT
BRANCH   1   2
ATOM      2  C   UNL A   1      34.493  21.344  25.050  1.00  0.00     0.021 C 
BRANCH   2   3
ATOM      3  C   UNL A   1      33.771  22.282  26.015  1.00  0.00     0.116 C 
BRANCH   3   4
ATOM      4  N   UNL A   1      32.411  21.844  26.265  1.00  0.00    -0.356 N 
ATOM      5  C   UNL A   1      31.218  22.344  25.845  1.00  0.00     0.227 C 
ATOM      6  O   UNL A   1      30.198  21.744  26.202  1.00  0.00    -0.274 OA
ATOM      7  H   UNL A   1      32.340  21.046  26.837  1.00  0.00     0.163 HD
BRANCH   5   8
ATOM      8  C   UNL A   1      31.104  23.581  24.951  1.00  0.00     0.103 C 
ATOM      9  C   UNL A   1      32.771  25.029  23.865  1.00  0.00     0.107 C 
ATOM     10  C   UNL A   1      32.144  24.065  22.907  1.00  0.00    -0.006 C 
ATOM     11  C   UNL A   1      32.138  24.682  25.220  1.00  0.00     0.047 C 
ATOM     12  C   UNL A   1      31.247  23.268  23.495  1.00  0.00    -0.016 C 
BRANCH   9  13
ATOM     13  N   UNL A   1      32.424  26.354  23.436  1.00  0.00    -0.332 N 
ATOM     14  O   UNL A   1      34.009  26.531  21.808  1.00  0.00    -0.248 OA
ATOM     15  C   UNL A   1      33.038  26.993  22.404  1.00  0.00     0.321 C 
ATOM     16  N   UNL A   1      32.472  28.152  21.970  1.00  0.00    -0.284 N 
ATOM     17  H   UNL A   1      32.828  28.546  21.141  1.00  0.00     0.174 HD
ATOM     18  H   UNL A   1      31.703  26.825  23.913  1.00  0.00     0.165 HD
BRANCH  16  19
ATOM     19  C   UNL A   1      31.451  28.810  22.588  1.00  0.00     0.191 A 
ATOM     20  N   UNL A   1      30.274  29.111  22.097  1.00  0.00    -0.225 NA
ATOM     21  S   UNL A   1      31.780  29.328  24.176  1.00  0.00    -0.105 S 
ATOM     22  C   UNL A   1      29.574  29.841  23.036  1.00  0.00     0.057 A 
ATOM     23  C   UNL A   1      30.261  30.136  24.195  1.00  0.00     0.092 A 
BRANCH  22  24
ATOM     24  C   UNL A   1      28.133  30.278  22.812  1.00  0.00     0.039 C 
ATOM     25  C   UNL A   1      27.567  31.413  23.639  1.00  0.00     0.011 C 
ATOM     26  C   UNL A   1      27.904  31.646  22.204  1.00  0.00     0.011 C 
ENDBRANCH  22  24
ENDBRANCH  16  19
ENDBRANCH   9  13
ENDBRANCH   5   8
ENDBRANCH   3   4
ENDBRANCH   2   3
ENDBRANCH   1   2
BRANCH   1  27
ATOM     27  C   UNL A   1      36.824  22.377  25.480  1.00  0.00     0.002 C 
BRANCH  27  28
ATOM     28  C   UNL A   1      37.084  23.886  25.525  1.00  0.00     0.021 C 
BRANCH  28  29
ATOM     29  C   UNL A   1      38.143  24.325  26.533  1.00  0.00     0.116 C 
BRANCH  29  30
ATOM     30  N   UNL A   1      39.481  24.308  25.964  1.00  0.00    -0.352 N 
ATOM     31  C   UNL A   1      40.574  25.073  26.279  1.00  0.00     0.251 C 
ATOM     32  H   UNL A   1      39.624  23.649  25.246  1.00  0.00     0.163 HD
ATOM     33  O   UNL A   1      41.567  25.045  25.550  1.00  0.00    -0.269 OA
BRANCH  31  34
ATOM     34  C   UNL A   1      40.559  25.943  27.474  1.00  0.00     0.039 A 
ATOM     35  C   UNL A   1      41.429  27.036  27.520  1.00  0.00     0.014 A 
ATOM     36  C   UNL A   1      39.707  25.682  28.552  1.00  0.00     0.014 A 
ATOM     37  C   UNL A   1      41.399  27.899  28.618  1.00  0.00     0.010 A 
ATOM     38  C   UNL A   1      39.628  26.584  29.611  1.00  0.00     0.010 A 
ATOM     39  C   UNL A   1      40.473  27.702  29.656  1.00  0.00    -0.014 A 
BRANCH  39  40
ATOM     40  C   UNL A   1      40.362  28.680  30.771  1.00  0.00     0.031 A 
ATOM     41  C   UNL A   1      41.227  28.555  31.995  1.00  0.00     0.074 A 
ATOM     42  C   UNL A   1      39.439  29.660  30.695  1.00  0.00     0.049 A 
ATOM     43  N   UNL A   1      41.259  29.310  33.063  1.00  0.00    -0.248 NA
ATOM     44  C   UNL A   1      42.162  27.419  32.038  1.00  0.00     0.031 C 
ATOM     45  C   UNL A   1      38.498  29.848  29.588  1.00  0.00     0.029 A 
ATOM     46  N   UNL A   1      39.136  30.679  31.563  1.00  0.00    -0.354 N 
ATOM     47  C   UNL A   1      42.208  28.742  33.905  1.00  0.00     0.074 A 
ATOM     48  C   UNL A   1      42.689  27.546  33.247  1.00  0.00     0.031 C 
ATOM     49  C   UNL A   1      37.744  30.932  29.831  1.00  0.00     0.029 A 
ATOM     50  C   UNL A   1      38.120  31.494  31.123  1.00  0.00     0.049 A 
ATOM     51  H   UNL A   1      39.603  30.813  32.419  1.00  0.00     0.167 HD
ATOM     52  C   UNL A   1      42.651  29.186  35.107  1.00  0.00     0.037 A 
ATOM     53  C   UNL A   1      37.551  32.572  31.697  1.00  0.00     0.037 A 
ATOM     54  C   UNL A   1      42.175  30.386  35.748  1.00  0.00     0.049 A 
ATOM     55  C   UNL A   1      38.065  33.051  33.027  1.00  0.00     0.074 A 
ATOM     56  C   UNL A   1      42.608  30.957  36.933  1.00  0.00     0.029 A 
ATOM     57  N   UNL A   1      41.154  31.194  35.268  1.00  0.00    -0.354 N 
ATOM     58  N   UNL A   1      39.021  32.546  33.770  1.00  0.00    -0.248 NA
ATOM     59  C   UNL A   1      37.433  34.251  33.589  1.00  0.00     0.031 C 
ATOM     60  C   UNL A   1      41.814  32.080  37.194  1.00  0.00     0.029 A 
ATOM     61  C   UNL A   1      40.924  32.242  36.145  1.00  0.00     0.049 A 
ATOM     62  H   UNL A   1      40.665  31.044  34.427  1.00  0.00     0.167 HD
ATOM     63  C   UNL A   1      39.116  33.378  34.881  1.00  0.00     0.074 A 
ATOM     64  C   UNL A   1      38.138  34.430  34.698  1.00  0.00     0.031 C 
ATOM     65  C   UNL A   1      39.939  33.279  35.956  1.00  0.00     0.037 A 
BRANCH  52  66
ATOM     66  C   UNL A   1      43.705  28.372  35.808  1.00  0.00     0.058 A 
ATOM     67  C   UNL A   1      43.370  27.360  36.722  1.00  0.00     0.135 A 
ATOM     68  C   UNL A   1      45.067  28.578  35.535  1.00  0.00     0.135 A 
ATOM     69  F   UNL A   1      42.085  27.126  37.033  1.00  0.00    -0.206 F 
ATOM     70  C   UNL A   1      44.347  26.602  37.363  1.00  0.00     0.059 A 
ATOM     71  C   UNL A   1      46.061  27.812  36.141  1.00  0.00     0.059 A 
ATOM     72  F   UNL A   1      45.447  29.530  34.669  1.00  0.00    -0.206 F 
ATOM     73  C   UNL A   1      45.690  26.836  37.064  1.00  0.00     0.060 A 
BRANCH  73  74
ATOM     74  S   UNL A   1      46.944  25.840  37.899  1.00  0.00     0.124 S 
ATOM     75  O   UNL A   1      46.199  25.339  39.050  1.00  0.00    -0.237 OA
ATOM     76  O   UNL A   1      47.281  24.848  36.883  1.00  0.00    -0.237 OA
ATOM     77  O   UNL A   1      47.996  26.804  38.205  1.00  0.00    -0.744 OA
ENDBRANCH  73  74
ENDBRANCH  52  66
BRANCH  53  78
ATOM     78  C   UNL A   1      36.442  33.282  31.003  1.00  0.00     0.058 A 
ATOM     79  C   UNL A   1      35.123  33.200  31.475  1.00  0.00     0.135 A 
ATOM     80  C   UNL A   1      36.683  34.073  29.870  1.00  0.00     0.135 A 
ATOM     81  F   UNL A   1      34.841  32.452  32.552  1.00  0.00    -0.206 F 
ATOM     82  C   UNL A   1      34.080  33.865  30.840  1.00  0.00     0.059 A 
ATOM     83  C   UNL A   1      35.659  34.769  29.233  1.00  0.00     0.059 A 
ATOM     84  F   UNL A   1      37.929  34.198  29.388  1.00  0.00    -0.206 F 
ATOM     85  C   UNL A   1      34.360  34.651  29.720  1.00  0.00     0.060 A 
BRANCH  85  86
ATOM     86  S   UNL A   1      33.007  35.555  28.936  1.00  0.00     0.124 S 
ATOM     87  O   UNL A   1      33.729  36.586  28.201  1.00  0.00    -0.237 OA
ATOM     88  O   UNL A   1      32.375  34.517  28.127  1.00  0.00    -0.237 OA
ATOM     89  O   UNL A   1      32.215  36.023  30.069  1.00  0.00    -0.744 OA
ENDBRANCH  85  86
ENDBRANCH  53  78
BRANCH  65  90
ATOM     90  C   UNL A   1      39.824  34.348  37.009  1.00  0.00     0.058 A 
ATOM     91  C   UNL A   1      39.032  34.173  38.155  1.00  0.00     0.135 A 
ATOM     92  C   UNL A   1      40.529  35.555  36.879  1.00  0.00     0.135 A 
ATOM     93  F   UNL A   1      38.333  33.040  38.328  1.00  0.00    -0.206 F 
ATOM     94  C   UNL A   1      38.913  35.173  39.115  1.00  0.00     0.059 A 
ATOM     95  C   UNL A   1      40.449  36.556  37.841  1.00  0.00     0.059 A 
ATOM     96  F   UNL A   1      41.310  35.771  35.808  1.00  0.00    -0.206 F 
ATOM     97  C   UNL A   1      39.623  36.363  38.948  1.00  0.00     0.060 A 
BRANCH  97  98
ATOM     98  S   UNL A   1      39.462  37.652  40.203  1.00  0.00     0.124 S 
ATOM     99  O   UNL A   1      38.434  38.505  39.617  1.00  0.00    -0.237 OA
ATOM    100  O   UNL A   1      39.058  36.892  41.382  1.00  0.00    -0.237 OA
ATOM    101  O   UNL A   1      40.800  38.232  40.267  1.00  0.00    -0.744 OA
ENDBRANCH  97  98
ENDBRANCH  65  90
ENDBRANCH  39  40
ENDBRANCH  31  34
ENDBRANCH  29  30
ENDBRANCH  28  29
ENDBRANCH  27  28
ENDBRANCH   1  27
TORSDOF 19
ENDMDL
