MODEL 1
REMARK VINA RESULT:     -11.2      0.000      0.000
REMARK SMILES O=C(NCCCCCCNC(=O)c1cc(OCc2ccccc2C(F)(F)F)cs1)c1ccc(-c2c3nc(c(-c4c(F)cc(S(=O)(=O)[O-])cc4F)c4ccc([nH]4)c(-c4c(F)cc(S(=O)(=O)[O-])cc4F)c4nc(c(-c5c(F)cc(S(=O)(=O)[O-])cc5F)c5ccc2[nH]5)C=C4)C=C3)cc1
REMARK SMILES IDX 7 1 6 2 5 3 4 4 3 5 1 6 2 7 30 9 31 10 95 11 32 12 94 13
REMARK SMILES IDX 33 14 34 15 35 16 88 17 36 18 93 19 87 20 89 21 37 22 92 23
REMARK SMILES IDX 86 24 85 25 38 27 72 28 51 29 71 30 52 31 55 32 70 33 90 34
REMARK SMILES IDX 53 35 54 36 69 38 91 39 56 40 39 41 40 42 49 43 41 44 42 45
REMARK SMILES IDX 48 46 50 47 43 48 44 49 45 50 46 51 47 52 73 53 74 54 83 55
REMARK SMILES IDX 75 56 76 57 82 58 84 59 77 60 78 61 79 62 80 63 81 64 57 65
REMARK SMILES IDX 58 66 67 67 59 68 60 69 66 70 68 71 61 72 62 73 63 74 64 75
REMARK SMILES IDX 65 76 8 77 9 78 10 79 11 80 12 82 13 83 14 84 29 85 15 86
REMARK SMILES IDX 28 87 16 88 17 89 18 90 19 91 23 92 20 93 22 94 21 95 24 96
REMARK SMILES IDX 25 97 26 98 27 99
REMARK H PARENT 3 8 89 26 55 37 10 81
REMARK Flexibility Score: inf
ROOT
ATOM      1  C   UNL A   1      35.777  31.090  27.696  1.00  0.00     0.002 C 
ENDROOT
BRANCH   1   2
ATOM      2  C   UNL A   1      34.877  32.168  28.308  1.00  0.00     0.002 C 
BRANCH   2   3
ATOM      3  C   UNL A   1      35.601  33.360  28.931  1.00  0.00     0.021 C 
BRANCH   3   4
ATOM      4  C   UNL A   1      36.705  33.006  29.919  1.00  0.00     0.116 C 
BRANCH   4   5
ATOM      5  N   UNL A   1      36.266  32.086  30.958  1.00  0.00    -0.352 N 
ATOM      6  O   UNL A   1      36.226  30.168  32.145  1.00  0.00    -0.269 OA
ATOM      7  C   UNL A   1      36.812  30.880  31.337  1.00  0.00     0.251 C 
ATOM      8  H   UNL A   1      35.466  32.365  31.459  1.00  0.00     0.163 HD
BRANCH   7   9
ATOM      9  C   UNL A   1      38.094  30.437  30.745  1.00  0.00     0.039 A 
ATOM     10  C   UNL A   1      39.299  30.676  31.408  1.00  0.00     0.014 A 
ATOM     11  C   UNL A   1      38.095  29.783  29.509  1.00  0.00     0.014 A 
ATOM     12  C   UNL A   1      40.502  30.413  30.765  1.00  0.00     0.010 A 
ATOM     13  C   UNL A   1      39.308  29.425  28.908  1.00  0.00     0.010 A 
ATOM     14  C   UNL A   1      40.525  29.768  29.516  1.00  0.00    -0.014 A 
BRANCH  14  15
ATOM     15  C   UNL A   1      41.843  29.406  28.929  1.00  0.00     0.031 A 
ATOM     16  C   UNL A   1      42.975  30.394  28.857  1.00  0.00     0.074 A 
ATOM     17  C   UNL A   1      42.027  28.135  28.520  1.00  0.00     0.049 A 
ATOM     18  N   UNL A   1      44.206  30.201  28.454  1.00  0.00    -0.248 NA
ATOM     19  C   UNL A   1      42.697  31.774  29.283  1.00  0.00     0.031 C 
ATOM     20  C   UNL A   1      40.989  27.098  28.510  1.00  0.00     0.029 A 
ATOM     21  N   UNL A   1      43.145  27.485  28.066  1.00  0.00    -0.354 N 
ATOM     22  C   UNL A   1      44.848  31.429  28.572  1.00  0.00     0.074 A 
ATOM     23  C   UNL A   1      43.859  32.371  29.054  1.00  0.00     0.031 C 
ATOM     24  C   UNL A   1      41.532  25.933  28.132  1.00  0.00     0.029 A 
ATOM     25  C   UNL A   1      42.938  26.150  27.811  1.00  0.00     0.049 A 
ATOM     26  H   UNL A   1      44.012  27.931  27.935  1.00  0.00     0.167 HD
ATOM     27  C   UNL A   1      46.143  31.736  28.314  1.00  0.00     0.037 A 
ATOM     28  C   UNL A   1      43.779  25.202  27.358  1.00  0.00     0.037 A 
ATOM     29  C   UNL A   1      47.121  30.790  27.834  1.00  0.00     0.049 A 
ATOM     30  C   UNL A   1      45.208  25.570  27.085  1.00  0.00     0.074 A 
ATOM     31  C   UNL A   1      48.459  31.003  27.547  1.00  0.00     0.029 A 
ATOM     32  N   UNL A   1      46.869  29.450  27.571  1.00  0.00    -0.354 N 
ATOM     33  N   UNL A   1      45.798  26.733  27.227  1.00  0.00    -0.248 NA
ATOM     34  C   UNL A   1      46.085  24.501  26.593  1.00  0.00     0.031 C 
ATOM     35  C   UNL A   1      49.006  29.803  27.079  1.00  0.00     0.029 A 
ATOM     36  C   UNL A   1      48.023  28.829  27.117  1.00  0.00     0.049 A 
ATOM     37  H   UNL A   1      45.998  29.006  27.689  1.00  0.00     0.167 HD
ATOM     38  C   UNL A   1      47.118  26.536  26.842  1.00  0.00     0.074 A 
ATOM     39  C   UNL A   1      47.246  25.133  26.498  1.00  0.00     0.031 C 
ATOM     40  C   UNL A   1      48.130  27.435  26.768  1.00  0.00     0.037 A 
BRANCH  27  41
ATOM     41  C   UNL A   1      46.588  33.156  28.545  1.00  0.00     0.058 A 
ATOM     42  C   UNL A   1      46.500  34.127  27.534  1.00  0.00     0.135 A 
ATOM     43  C   UNL A   1      47.046  33.569  29.808  1.00  0.00     0.135 A 
ATOM     44  F   UNL A   1      46.083  33.785  26.305  1.00  0.00    -0.206 F 
ATOM     45  C   UNL A   1      46.863  35.450  27.761  1.00  0.00     0.059 A 
ATOM     46  C   UNL A   1      47.393  34.893  30.063  1.00  0.00     0.059 A 
ATOM     47  F   UNL A   1      47.150  32.684  30.811  1.00  0.00    -0.206 F 
ATOM     48  C   UNL A   1      47.307  35.825  29.031  1.00  0.00     0.060 A 
BRANCH  48  49
ATOM     49  S   UNL A   1      47.758  37.551  29.311  1.00  0.00     0.124 S 
ATOM     50  O   UNL A   1      48.217  37.510  30.697  1.00  0.00    -0.237 OA
ATOM     51  O   UNL A   1      48.793  37.771  28.307  1.00  0.00    -0.237 OA
ATOM     52  O   UNL A   1      46.507  38.270  29.087  1.00  0.00    -0.744 OA
ENDBRANCH  48  49
ENDBRANCH  27  41
BRANCH  28  53
ATOM     53  C   UNL A   1      43.277  23.824  27.119  1.00  0.00     0.058 A 
ATOM     54  C   UNL A   1      43.140  22.903  28.168  1.00  0.00     0.135 A 
ATOM     55  C   UNL A   1      42.905  23.409  25.830  1.00  0.00     0.135 A 
ATOM     56  F   UNL A   1      43.481  23.253  29.416  1.00  0.00    -0.206 F 
ATOM     57  C   UNL A   1      42.671  21.613  27.944  1.00  0.00     0.059 A 
ATOM     58  C   UNL A   1      42.405  22.135  25.587  1.00  0.00     0.059 A 
ATOM     59  F   UNL A   1      42.997  24.260  24.797  1.00  0.00    -0.206 F 
ATOM     60  C   UNL A   1      42.306  21.238  26.650  1.00  0.00     0.060 A 
BRANCH  60  61
ATOM     61  S   UNL A   1      41.658  19.577  26.371  1.00  0.00     0.124 S 
ATOM     62  O   UNL A   1      42.073  18.895  27.592  1.00  0.00    -0.237 OA
ATOM     63  O   UNL A   1      40.226  19.822  26.233  1.00  0.00    -0.237 OA
ATOM     64  O   UNL A   1      42.335  19.155  25.149  1.00  0.00    -0.744 OA
ENDBRANCH  60  61
ENDBRANCH  28  53
BRANCH  40  65
ATOM     65  C   UNL A   1      49.464  26.917  26.309  1.00  0.00     0.058 A 
ATOM     66  C   UNL A   1      49.909  27.106  24.990  1.00  0.00     0.135 A 
ATOM     67  C   UNL A   1      50.305  26.225  27.195  1.00  0.00     0.135 A 
ATOM     68  F   UNL A   1      49.139  27.754  24.103  1.00  0.00    -0.206 F 
ATOM     69  C   UNL A   1      51.127  26.592  24.555  1.00  0.00     0.059 A 
ATOM     70  C   UNL A   1      51.538  25.726  26.788  1.00  0.00     0.059 A 
ATOM     71  F   UNL A   1      49.930  26.026  28.467  1.00  0.00    -0.206 F 
ATOM     72  C   UNL A   1      51.931  25.898  25.460  1.00  0.00     0.060 A 
BRANCH  72  73
ATOM     73  S   UNL A   1      53.507  25.232  24.885  1.00  0.00     0.124 S 
ATOM     74  O   UNL A   1      54.460  26.088  25.585  1.00  0.00    -0.237 OA
ATOM     75  O   UNL A   1      53.447  23.847  25.338  1.00  0.00    -0.237 OA
ATOM     76  O   UNL A   1      53.444  25.415  23.439  1.00  0.00    -0.744 OA
ENDBRANCH  72  73
ENDBRANCH  40  65
ENDBRANCH  14  15
ENDBRANCH   7   9
ENDBRANCH   4   5
ENDBRANCH   3   4
ENDBRANCH   2   3
ENDBRANCH   1   2
BRANCH   1  77
ATOM     77  C   UNL A   1      35.084  29.779  27.319  1.00  0.00     0.021 C 
BRANCH  77  78
ATOM     78  C   UNL A   1      33.674  29.923  26.752  1.00  0.00     0.116 C 
BRANCH  78  79
ATOM     79  N   UNL A   1      32.678  29.227  27.551  1.00  0.00    -0.351 N 
ATOM     80  C   UNL A   1      31.963  28.089  27.247  1.00  0.00     0.261 C 
ATOM     81  H   UNL A   1      32.488  29.625  28.431  1.00  0.00     0.163 HD
ATOM     82  O   UNL A   1      31.047  27.769  28.005  1.00  0.00    -0.268 OA
BRANCH  80  83
ATOM     83  C   UNL A   1      32.324  27.348  26.055  1.00  0.00     0.096 A 
ATOM     84  C   UNL A   1      33.344  26.430  25.878  1.00  0.00     0.072 A 
ATOM     85  S   UNL A   1      31.429  27.576  24.616  1.00  0.00    -0.135 S 
ATOM     86  C   UNL A   1      33.519  26.085  24.508  1.00  0.00     0.131 A 
ATOM     87  C   UNL A   1      32.521  26.611  23.719  1.00  0.00     0.112 A 
BRANCH  86  88
ATOM     88  O   UNL A   1      34.526  25.392  23.914  1.00  0.00    -0.488 OA
BRANCH  88  89
ATOM     89  C   UNL A   1      34.179  24.120  23.350  1.00  0.00     0.266 C 
BRANCH  89  90
ATOM     90  C   UNL A   1      34.936  22.907  23.890  1.00  0.00     0.001 A 
ATOM     91  C   UNL A   1      36.344  22.881  23.889  1.00  0.00     0.008 A 
ATOM     92  C   UNL A   1      34.246  21.777  24.397  1.00  0.00     0.062 A 
ATOM     93  C   UNL A   1      37.058  21.811  24.434  1.00  0.00     0.000 A 
ATOM     94  C   UNL A   1      34.987  20.703  24.937  1.00  0.00     0.013 A 
ATOM     95  C   UNL A   1      36.380  20.726  24.969  1.00  0.00     0.001 A 
BRANCH  92  96
ATOM     96  C   UNL A   1      32.737  21.606  24.359  1.00  0.00     0.416 C 
ATOM     97  F   UNL A   1      32.123  22.216  25.406  1.00  0.00    -0.166 F 
ATOM     98  F   UNL A   1      32.190  22.141  23.231  1.00  0.00    -0.166 F 
ATOM     99  F   UNL A   1      32.311  20.314  24.384  1.00  0.00    -0.166 F 
ENDBRANCH  92  96
ENDBRANCH  89  90
ENDBRANCH  88  89
ENDBRANCH  86  88
ENDBRANCH  80  83
ENDBRANCH  78  79
ENDBRANCH  77  78
ENDBRANCH   1  77
TORSDOF 20
ENDMDL
MODEL 2
REMARK VINA RESULT:     -11.2      6.176      8.484
REMARK SMILES O=C(NCCCCCCNC(=O)c1cc(OCc2ccccc2C(F)(F)F)cs1)c1ccc(-c2c3nc(c(-c4c(F)cc(S(=O)(=O)[O-])cc4F)c4ccc([nH]4)c(-c4c(F)cc(S(=O)(=O)[O-])cc4F)c4nc(c(-c5c(F)cc(S(=O)(=O)[O-])cc5F)c5ccc2[nH]5)C=C4)C=C3)cc1
REMARK SMILES IDX 7 1 6 2 5 3 4 4 3 5 1 6 2 7 30 9 31 10 95 11 32 12 94 13
REMARK SMILES IDX 33 14 34 15 35 16 88 17 36 18 93 19 87 20 89 21 37 22 92 23
REMARK SMILES IDX 86 24 85 25 38 27 72 28 51 29 71 30 52 31 55 32 70 33 90 34
REMARK SMILES IDX 53 35 54 36 69 38 91 39 56 40 39 41 40 42 49 43 41 44 42 45
REMARK SMILES IDX 48 46 50 47 43 48 44 49 45 50 46 51 47 52 73 53 74 54 83 55
REMARK SMILES IDX 75 56 76 57 82 58 84 59 77 60 78 61 79 62 80 63 81 64 57 65
REMARK SMILES IDX 58 66 67 67 59 68 60 69 66 70 68 71 61 72 62 73 63 74 64 75
REMARK SMILES IDX 65 76 8 77 9 78 10 79 11 80 12 82 13 83 14 84 29 85 15 86
REMARK SMILES IDX 28 87 16 88 17 89 18 90 19 91 23 92 20 93 22 94 21 95 24 96
REMARK SMILES IDX 25 97 26 98 27 99
REMARK H PARENT 3 8 89 26 55 37 10 81
REMARK Flexibility Score: inf
ROOT
ATOM      1  C   UNL A   1      34.118  31.519  27.638  1.00  0.00     0.002 C 
ENDROOT
BRANCH   1   2
ATOM      2  C   UNL A   1      34.430  32.821  28.381  1.00  0.00     0.002 C 
BRANCH   2   3
ATOM      3  C   UNL A   1      33.457  33.973  28.135  1.00  0.00     0.021 C 
BRANCH   3   4
ATOM      4  C   UNL A   1      33.802  35.277  28.842  1.00  0.00     0.116 C 
BRANCH   4   5
ATOM      5  N   UNL A   1      32.869  35.612  29.907  1.00  0.00    -0.352 N 
ATOM      6  O   UNL A   1      31.987  35.554  31.984  1.00  0.00    -0.269 OA
ATOM      7  C   UNL A   1      32.938  35.309  31.249  1.00  0.00     0.251 C 
ATOM      8  H   UNL A   1      32.077  36.126  29.630  1.00  0.00     0.163 HD
BRANCH   7   9
ATOM      9  C   UNL A   1      34.154  34.662  31.794  1.00  0.00     0.039 A 
ATOM     10  C   UNL A   1      35.308  35.411  32.028  1.00  0.00     0.014 A 
ATOM     11  C   UNL A   1      34.144  33.291  32.066  1.00  0.00     0.014 A 
ATOM     12  C   UNL A   1      36.489  34.767  32.371  1.00  0.00     0.010 A 
ATOM     13  C   UNL A   1      35.311  32.659  32.512  1.00  0.00     0.010 A 
ATOM     14  C   UNL A   1      36.504  33.386  32.637  1.00  0.00    -0.014 A 
BRANCH  14  15
ATOM     15  C   UNL A   1      37.771  32.769  33.115  1.00  0.00     0.031 A 
ATOM     16  C   UNL A   1      38.374  33.130  34.445  1.00  0.00     0.074 A 
ATOM     17  C   UNL A   1      38.339  31.815  32.351  1.00  0.00     0.049 A 
ATOM     18  N   UNL A   1      39.424  32.616  35.035  1.00  0.00    -0.248 NA
ATOM     19  C   UNL A   1      37.727  34.207  35.211  1.00  0.00     0.031 C 
ATOM     20  C   UNL A   1      37.861  31.406  31.026  1.00  0.00     0.029 A 
ATOM     21  N   UNL A   1      39.412  30.994  32.582  1.00  0.00    -0.354 N 
ATOM     22  C   UNL A   1      39.568  33.304  36.235  1.00  0.00     0.074 A 
ATOM     23  C   UNL A   1      38.516  34.298  36.274  1.00  0.00     0.031 C 
ATOM     24  C   UNL A   1      38.597  30.375  30.589  1.00  0.00     0.029 A 
ATOM     25  C   UNL A   1      39.637  30.090  31.570  1.00  0.00     0.049 A 
ATOM     26  H   UNL A   1      39.967  31.046  33.392  1.00  0.00     0.167 HD
ATOM     27  C   UNL A   1      40.484  33.113  37.215  1.00  0.00     0.037 A 
ATOM     28  C   UNL A   1      40.583  29.141  31.435  1.00  0.00     0.037 A 
ATOM     29  C   UNL A   1      41.530  32.119  37.167  1.00  0.00     0.049 A 
ATOM     30  C   UNL A   1      41.581  28.951  32.539  1.00  0.00     0.074 A 
ATOM     31  C   UNL A   1      42.504  31.846  38.112  1.00  0.00     0.029 A 
ATOM     32  N   UNL A   1      41.737  31.234  36.118  1.00  0.00    -0.354 N 
ATOM     33  N   UNL A   1      41.684  29.598  33.675  1.00  0.00    -0.248 NA
ATOM     34  C   UNL A   1      42.591  27.903  32.345  1.00  0.00     0.031 C 
ATOM     35  C   UNL A   1      43.320  30.820  37.621  1.00  0.00     0.029 A 
ATOM     36  C   UNL A   1      42.827  30.422  36.390  1.00  0.00     0.049 A 
ATOM     37  H   UNL A   1      41.189  31.189  35.301  1.00  0.00     0.167 HD
ATOM     38  C   UNL A   1      42.769  29.035  34.333  1.00  0.00     0.074 A 
ATOM     39  C   UNL A   1      43.265  27.970  33.484  1.00  0.00     0.031 C 
ATOM     40  C   UNL A   1      43.315  29.374  35.527  1.00  0.00     0.037 A 
BRANCH  27  41
ATOM     41  C   UNL A   1      40.405  33.996  38.433  1.00  0.00     0.058 A 
ATOM     42  C   UNL A   1      41.135  35.193  38.520  1.00  0.00     0.135 A 
ATOM     43  C   UNL A   1      39.543  33.679  39.495  1.00  0.00     0.135 A 
ATOM     44  F   UNL A   1      41.985  35.539  37.541  1.00  0.00    -0.206 F 
ATOM     45  C   UNL A   1      41.024  36.035  39.622  1.00  0.00     0.059 A 
ATOM     46  C   UNL A   1      39.399  34.518  40.598  1.00  0.00     0.059 A 
ATOM     47  F   UNL A   1      38.821  32.547  39.465  1.00  0.00    -0.206 F 
ATOM     48  C   UNL A   1      40.151  35.690  40.656  1.00  0.00     0.060 A 
BRANCH  48  49
ATOM     49  S   UNL A   1      40.007  36.803  42.070  1.00  0.00     0.124 S 
ATOM     50  O   UNL A   1      39.437  37.994  41.446  1.00  0.00    -0.237 OA
ATOM     51  O   UNL A   1      39.116  36.066  42.960  1.00  0.00    -0.237 OA
ATOM     52  O   UNL A   1      41.383  36.940  42.538  1.00  0.00    -0.744 OA
ENDBRANCH  48  49
ENDBRANCH  27  41
BRANCH  28  53
ATOM     53  C   UNL A   1      40.632  28.319  30.198  1.00  0.00     0.058 A 
ATOM     54  C   UNL A   1      41.596  28.546  29.206  1.00  0.00     0.135 A 
ATOM     55  C   UNL A   1      39.719  27.271  29.998  1.00  0.00     0.135 A 
ATOM     56  F   UNL A   1      42.490  29.535  29.354  1.00  0.00    -0.206 F 
ATOM     57  C   UNL A   1      41.641  27.776  28.048  1.00  0.00     0.059 A 
ATOM     58  C   UNL A   1      39.764  26.469  28.863  1.00  0.00     0.059 A 
ATOM     59  F   UNL A   1      38.791  27.000  30.927  1.00  0.00    -0.206 F 
ATOM     60  C   UNL A   1      40.721  26.740  27.886  1.00  0.00     0.060 A 
BRANCH  60  61
ATOM     61  S   UNL A   1      40.810  25.717  26.401  1.00  0.00     0.124 S 
ATOM     62  O   UNL A   1      41.158  26.706  25.388  1.00  0.00    -0.237 OA
ATOM     63  O   UNL A   1      41.857  24.761  26.747  1.00  0.00    -0.237 OA
ATOM     64  O   UNL A   1      39.466  25.155  26.302  1.00  0.00    -0.744 OA
ENDBRANCH  60  61
ENDBRANCH  28  53
BRANCH  40  65
ATOM     65  C   UNL A   1      44.502  28.573  35.982  1.00  0.00     0.058 A 
ATOM     66  C   UNL A   1      44.349  27.407  36.749  1.00  0.00     0.135 A 
ATOM     67  C   UNL A   1      45.805  28.974  35.648  1.00  0.00     0.135 A 
ATOM     68  F   UNL A   1      43.124  26.985  37.102  1.00  0.00    -0.206 F 
ATOM     69  C   UNL A   1      45.450  26.687  37.203  1.00  0.00     0.059 A 
ATOM     70  C   UNL A   1      46.919  28.254  36.068  1.00  0.00     0.059 A 
ATOM     71  F   UNL A   1      46.005  30.076  34.909  1.00  0.00    -0.206 F 
ATOM     72  C   UNL A   1      46.731  27.122  36.862  1.00  0.00     0.060 A 
BRANCH  72  73
ATOM     73  S   UNL A   1      48.152  26.184  37.458  1.00  0.00     0.124 S 
ATOM     74  O   UNL A   1      47.681  25.739  38.766  1.00  0.00    -0.237 OA
ATOM     75  O   UNL A   1      48.290  25.143  36.446  1.00  0.00    -0.237 OA
ATOM     76  O   UNL A   1      49.225  27.173  37.482  1.00  0.00    -0.744 OA
ENDBRANCH  72  73
ENDBRANCH  40  65
ENDBRANCH  14  15
ENDBRANCH   7   9
ENDBRANCH   4   5
ENDBRANCH   3   4
ENDBRANCH   2   3
ENDBRANCH   1   2
BRANCH   1  77
ATOM     77  C   UNL A   1      35.211  30.448  27.685  1.00  0.00     0.021 C 
BRANCH  77  78
ATOM     78  C   UNL A   1      34.778  29.051  27.245  1.00  0.00     0.116 C 
BRANCH  78  79
ATOM     79  N   UNL A   1      33.506  28.652  27.825  1.00  0.00    -0.351 N 
ATOM     80  C   UNL A   1      32.460  27.975  27.237  1.00  0.00     0.261 C 
ATOM     81  H   UNL A   1      33.374  28.901  28.769  1.00  0.00     0.163 HD
ATOM     82  O   UNL A   1      31.407  27.890  27.870  1.00  0.00    -0.268 OA
BRANCH  80  83
ATOM     83  C   UNL A   1      32.659  27.416  25.916  1.00  0.00     0.096 A 
ATOM     84  C   UNL A   1      33.116  26.159  25.563  1.00  0.00     0.072 A 
ATOM     85  S   UNL A   1      32.314  28.366  24.536  1.00  0.00    -0.135 S 
ATOM     86  C   UNL A   1      33.386  26.061  24.169  1.00  0.00     0.131 A 
ATOM     87  C   UNL A   1      32.962  27.179  23.488  1.00  0.00     0.112 A 
BRANCH  86  88
ATOM     88  O   UNL A   1      34.031  25.081  23.482  1.00  0.00    -0.488 OA
BRANCH  88  89
ATOM     89  C   UNL A   1      33.584  23.738  23.717  1.00  0.00     0.266 C 
BRANCH  89  90
ATOM     90  C   UNL A   1      34.660  22.720  24.092  1.00  0.00     0.001 A 
ATOM     91  C   UNL A   1      36.025  23.020  23.916  1.00  0.00     0.008 A 
ATOM     92  C   UNL A   1      34.316  21.448  24.615  1.00  0.00     0.062 A 
ATOM     93  C   UNL A   1      37.027  22.130  24.309  1.00  0.00     0.000 A 
ATOM     94  C   UNL A   1      35.346  20.560  25.000  1.00  0.00     0.013 A 
ATOM     95  C   UNL A   1      36.689  20.904  24.861  1.00  0.00     0.001 A 
BRANCH  92  96
ATOM     96  C   UNL A   1      32.894  20.933  24.752  1.00  0.00     0.416 C 
ATOM     97  F   UNL A   1      32.375  20.531  23.562  1.00  0.00    -0.166 F 
ATOM     98  F   UNL A   1      32.817  19.858  25.585  1.00  0.00    -0.166 F 
ATOM     99  F   UNL A   1      32.008  21.837  25.252  1.00  0.00    -0.166 F 
ENDBRANCH  92  96
ENDBRANCH  89  90
ENDBRANCH  88  89
ENDBRANCH  86  88
ENDBRANCH  80  83
ENDBRANCH  78  79
ENDBRANCH  77  78
ENDBRANCH   1  77
TORSDOF 20
ENDMDL
MODEL 3
REMARK VINA RESULT:     -10.9      6.097      8.509
REMARK SMILES O=C(NCCCCCCNC(=O)c1cc(OCc2ccccc2C(F)(F)F)cs1)c1ccc(-c2c3nc(c(-c4c(F)cc(S(=O)(=O)[O-])cc4F)c4ccc([nH]4)c(-c4c(F)cc(S(=O)(=O)[O-])cc4F)c4nc(c(-c5c(F)cc(S(=O)(=O)[O-])cc5F)c5ccc2[nH]5)C=C4)C=C3)cc1
REMARK SMILES IDX 7 1 6 2 5 3 4 4 3 5 1 6 2 7 30 9 31 10 95 11 32 12 94 13
REMARK SMILES IDX 33 14 34 15 35 16 88 17 36 18 93 19 87 20 89 21 37 22 92 23
REMARK SMILES IDX 86 24 85 25 38 27 72 28 51 29 71 30 52 31 55 32 70 33 90 34
REMARK SMILES IDX 53 35 54 36 69 38 91 39 56 40 39 41 40 42 49 43 41 44 42 45
REMARK SMILES IDX 48 46 50 47 43 48 44 49 45 50 46 51 47 52 73 53 74 54 83 55
REMARK SMILES IDX 75 56 76 57 82 58 84 59 77 60 78 61 79 62 80 63 81 64 57 65
REMARK SMILES IDX 58 66 67 67 59 68 60 69 66 70 68 71 61 72 62 73 63 74 64 75
REMARK SMILES IDX 65 76 8 77 9 78 10 79 11 80 12 82 13 83 14 84 29 85 15 86
REMARK SMILES IDX 28 87 16 88 17 89 18 90 19 91 23 92 20 93 22 94 21 95 24 96
REMARK SMILES IDX 25 97 26 98 27 99
REMARK H PARENT 3 8 89 26 55 37 10 81
REMARK Flexibility Score: inf
ROOT
ATOM      1  C   UNL A   1      35.307  31.304  28.197  1.00  0.00     0.002 C 
ENDROOT
BRANCH   1   2
ATOM      2  C   UNL A   1      35.906  32.699  27.995  1.00  0.00     0.002 C 
BRANCH   2   3
ATOM      3  C   UNL A   1      34.898  33.838  27.847  1.00  0.00     0.021 C 
BRANCH   3   4
ATOM      4  C   UNL A   1      33.457  33.478  28.187  1.00  0.00     0.116 C 
BRANCH   4   5
ATOM      5  N   UNL A   1      32.816  34.455  29.053  1.00  0.00    -0.352 N 
ATOM      6  O   UNL A   1      32.402  35.567  30.973  1.00  0.00    -0.269 OA
ATOM      7  C   UNL A   1      33.142  34.820  30.340  1.00  0.00     0.251 C 
ATOM      8  H   UNL A   1      32.040  34.920  28.665  1.00  0.00     0.163 HD
BRANCH   7   9
ATOM      9  C   UNL A   1      34.373  34.286  30.965  1.00  0.00     0.039 A 
ATOM     10  C   UNL A   1      35.532  35.061  31.018  1.00  0.00     0.014 A 
ATOM     11  C   UNL A   1      34.373  32.993  31.497  1.00  0.00     0.014 A 
ATOM     12  C   UNL A   1      36.724  34.490  31.446  1.00  0.00     0.010 A 
ATOM     13  C   UNL A   1      35.554  32.454  32.024  1.00  0.00     0.010 A 
ATOM     14  C   UNL A   1      36.748  33.186  31.973  1.00  0.00    -0.014 A 
BRANCH  14  15
ATOM     15  C   UNL A   1      38.029  32.668  32.525  1.00  0.00     0.031 A 
ATOM     16  C   UNL A   1      38.444  32.937  33.946  1.00  0.00     0.074 A 
ATOM     17  C   UNL A   1      38.788  31.883  31.735  1.00  0.00     0.049 A 
ATOM     18  N   UNL A   1      39.486  32.481  34.595  1.00  0.00    -0.248 NA
ATOM     19  C   UNL A   1      37.591  33.833  34.742  1.00  0.00     0.031 C 
ATOM     20  C   UNL A   1      38.502  31.582  30.328  1.00  0.00     0.029 A 
ATOM     21  N   UNL A   1      39.929  31.171  31.999  1.00  0.00    -0.354 N 
ATOM     22  C   UNL A   1      39.419  33.034  35.869  1.00  0.00     0.074 A 
ATOM     23  C   UNL A   1      38.250  33.888  35.892  1.00  0.00     0.031 C 
ATOM     24  C   UNL A   1      39.405  30.703  29.872  1.00  0.00     0.029 A 
ATOM     25  C   UNL A   1      40.369  30.426  30.930  1.00  0.00     0.049 A 
ATOM     26  H   UNL A   1      40.388  31.191  32.869  1.00  0.00     0.167 HD
ATOM     27  C   UNL A   1      40.249  32.836  36.923  1.00  0.00     0.037 A 
ATOM     28  C   UNL A   1      41.437  29.615  30.806  1.00  0.00     0.037 A 
ATOM     29  C   UNL A   1      41.412  31.982  36.890  1.00  0.00     0.049 A 
ATOM     30  C   UNL A   1      42.335  29.412  31.991  1.00  0.00     0.074 A 
ATOM     31  C   UNL A   1      42.313  31.714  37.906  1.00  0.00     0.029 A 
ATOM     32  N   UNL A   1      41.836  31.257  35.784  1.00  0.00    -0.354 N 
ATOM     33  N   UNL A   1      42.239  29.928  33.193  1.00  0.00    -0.248 NA
ATOM     34  C   UNL A   1      43.485  28.519  31.804  1.00  0.00     0.031 C 
ATOM     35  C   UNL A   1      43.299  30.855  37.407  1.00  0.00     0.029 A 
ATOM     36  C   UNL A   1      42.988  30.551  36.092  1.00  0.00     0.049 A 
ATOM     37  H   UNL A   1      41.384  31.247  34.909  1.00  0.00     0.167 HD
ATOM     38  C   UNL A   1      43.316  29.420  33.908  1.00  0.00     0.074 A 
ATOM     39  C   UNL A   1      44.027  28.528  33.013  1.00  0.00     0.031 C 
ATOM     40  C   UNL A   1      43.690  29.677  35.186  1.00  0.00     0.037 A 
BRANCH  27  41
ATOM     41  C   UNL A   1      39.935  33.553  38.209  1.00  0.00     0.058 A 
ATOM     42  C   UNL A   1      38.943  33.087  39.086  1.00  0.00     0.135 A 
ATOM     43  C   UNL A   1      40.677  34.680  38.603  1.00  0.00     0.135 A 
ATOM     44  F   UNL A   1      38.194  32.023  38.754  1.00  0.00    -0.206 F 
ATOM     45  C   UNL A   1      38.686  33.719  40.299  1.00  0.00     0.059 A 
ATOM     46  C   UNL A   1      40.452  35.314  39.822  1.00  0.00     0.059 A 
ATOM     47  F   UNL A   1      41.638  35.169  37.804  1.00  0.00    -0.206 F 
ATOM     48  C   UNL A   1      39.448  34.832  40.659  1.00  0.00     0.060 A 
BRANCH  48  49
ATOM     49  S   UNL A   1      39.113  35.628  42.245  1.00  0.00     0.124 S 
ATOM     50  O   UNL A   1      40.030  34.914  43.129  1.00  0.00    -0.237 OA
ATOM     51  O   UNL A   1      39.453  37.022  41.973  1.00  0.00    -0.237 OA
ATOM     52  O   UNL A   1      37.695  35.363  42.467  1.00  0.00    -0.744 OA
ENDBRANCH  48  49
ENDBRANCH  27  41
BRANCH  28  53
ATOM     53  C   UNL A   1      41.715  28.957  29.503  1.00  0.00     0.058 A 
ATOM     54  C   UNL A   1      41.130  27.728  29.164  1.00  0.00     0.135 A 
ATOM     55  C   UNL A   1      42.562  29.562  28.560  1.00  0.00     0.135 A 
ATOM     56  F   UNL A   1      40.314  27.112  30.032  1.00  0.00    -0.206 F 
ATOM     57  C   UNL A   1      41.391  27.112  27.945  1.00  0.00     0.059 A 
ATOM     58  C   UNL A   1      42.813  28.980  27.323  1.00  0.00     0.059 A 
ATOM     59  F   UNL A   1      43.128  30.749  28.828  1.00  0.00    -0.206 F 
ATOM     60  C   UNL A   1      42.234  27.746  27.031  1.00  0.00     0.060 A 
BRANCH  60  61
ATOM     61  S   UNL A   1      42.537  26.963  25.433  1.00  0.00     0.124 S 
ATOM     62  O   UNL A   1      43.840  26.346  25.654  1.00  0.00    -0.237 OA
ATOM     63  O   UNL A   1      41.408  26.045  25.320  1.00  0.00    -0.237 OA
ATOM     64  O   UNL A   1      42.517  28.086  24.501  1.00  0.00    -0.744 OA
ENDBRANCH  60  61
ENDBRANCH  28  53
BRANCH  40  65
ATOM     65  C   UNL A   1      44.918  28.970  35.687  1.00  0.00     0.058 A 
ATOM     66  C   UNL A   1      44.839  27.712  36.306  1.00  0.00     0.135 A 
ATOM     67  C   UNL A   1      46.186  29.555  35.545  1.00  0.00     0.135 A 
ATOM     68  F   UNL A   1      43.649  27.114  36.472  1.00  0.00    -0.206 F 
ATOM     69  C   UNL A   1      45.972  27.076  36.805  1.00  0.00     0.059 A 
ATOM     70  C   UNL A   1      47.335  28.924  36.013  1.00  0.00     0.059 A 
ATOM     71  F   UNL A   1      46.317  30.752  34.953  1.00  0.00    -0.206 F 
ATOM     72  C   UNL A   1      47.214  27.694  36.658  1.00  0.00     0.060 A 
BRANCH  72  73
ATOM     73  S   UNL A   1      48.677  26.862  37.312  1.00  0.00     0.124 S 
ATOM     74  O   UNL A   1      48.314  25.458  37.145  1.00  0.00    -0.237 OA
ATOM     75  O   UNL A   1      49.736  27.352  36.435  1.00  0.00    -0.237 OA
ATOM     76  O   UNL A   1      48.746  27.333  38.691  1.00  0.00    -0.744 OA
ENDBRANCH  72  73
ENDBRANCH  40  65
ENDBRANCH  14  15
ENDBRANCH   7   9
ENDBRANCH   4   5
ENDBRANCH   3   4
ENDBRANCH   2   3
ENDBRANCH   1   2
BRANCH   1  77
ATOM     77  C   UNL A   1      36.059  30.153  27.524  1.00  0.00     0.021 C 
BRANCH  77  78
ATOM     78  C   UNL A   1      35.193  28.977  27.077  1.00  0.00     0.116 C 
BRANCH  78  79
ATOM     79  N   UNL A   1      33.839  29.051  27.601  1.00  0.00    -0.351 N 
ATOM     80  C   UNL A   1      32.649  28.751  26.973  1.00  0.00     0.261 C 
ATOM     81  H   UNL A   1      33.761  29.359  28.533  1.00  0.00     0.163 HD
ATOM     82  O   UNL A   1      31.605  29.047  27.555  1.00  0.00    -0.268 OA
BRANCH  80  83
ATOM     83  C   UNL A   1      32.699  28.118  25.671  1.00  0.00     0.096 A 
ATOM     84  C   UNL A   1      32.709  26.770  25.360  1.00  0.00     0.072 A 
ATOM     85  S   UNL A   1      32.765  29.087  24.263  1.00  0.00    -0.135 S 
ATOM     86  C   UNL A   1      32.988  26.543  23.983  1.00  0.00     0.131 A 
ATOM     87  C   UNL A   1      33.007  27.718  23.266  1.00  0.00     0.112 A 
BRANCH  86  88
ATOM     88  O   UNL A   1      33.283  25.381  23.343  1.00  0.00    -0.488 OA
BRANCH  88  89
ATOM     89  C   UNL A   1      34.432  24.665  23.818  1.00  0.00     0.266 C 
BRANCH  89  90
ATOM     90  C   UNL A   1      34.182  23.254  24.349  1.00  0.00     0.001 A 
ATOM     91  C   UNL A   1      32.917  22.890  24.853  1.00  0.00     0.008 A 
ATOM     92  C   UNL A   1      35.212  22.280  24.359  1.00  0.00     0.062 A 
ATOM     93  C   UNL A   1      32.648  21.589  25.285  1.00  0.00     0.000 A 
ATOM     94  C   UNL A   1      34.919  20.973  24.807  1.00  0.00     0.013 A 
ATOM     95  C   UNL A   1      33.646  20.627  25.253  1.00  0.00     0.001 A 
BRANCH  92  96
ATOM     96  C   UNL A   1      36.652  22.552  23.962  1.00  0.00     0.416 C 
ATOM     97  F   UNL A   1      37.450  21.467  24.142  1.00  0.00    -0.166 F 
ATOM     98  F   UNL A   1      36.765  22.894  22.647  1.00  0.00    -0.166 F 
ATOM     99  F   UNL A   1      37.249  23.565  24.647  1.00  0.00    -0.166 F 
ENDBRANCH  92  96
ENDBRANCH  89  90
ENDBRANCH  88  89
ENDBRANCH  86  88
ENDBRANCH  80  83
ENDBRANCH  78  79
ENDBRANCH  77  78
ENDBRANCH   1  77
TORSDOF 20
ENDMDL
