MODEL 1
REMARK VINA RESULT:      -9.5      0.000      0.000
REMARK SMILES CC(C)Cc1ccc([C@@H](C)C(=O)NCCCCCCNC(=O)c2ccc(-c3c4nc(c(-c5c(F)cc(S(=O)(=O)[O-])cc5F)c5ccc([nH]5)c(-c5c(F)cc(S(=O)(=O)[O-])cc5F)c5nc(c(-c6c(F)cc(S(=O)(=O)[O-])cc6F)c6ccc3[nH]6)C=C5)C=C4)cc2)cc1
REMARK SMILES IDX 16 1 15 2 14 3 13 4 11 5 12 6 9 8 10 9 8 10 5 11 6 12 90 13
REMARK SMILES IDX 7 14 89 15 4 16 2 17 1 18 3 19 17 20 18 21 19 22 20 23 21 24
REMARK SMILES IDX 22 26 23 27 24 28 88 29 25 30 87 31 26 32 27 33 28 34 81 35
REMARK SMILES IDX 29 36 86 37 80 38 82 39 30 40 85 41 79 42 78 43 31 45 65 46
REMARK SMILES IDX 44 47 64 48 45 49 48 50 63 51 83 52 46 53 47 54 62 56 84 57
REMARK SMILES IDX 49 58 32 59 33 60 42 61 34 62 35 63 41 64 43 65 36 66 37 67
REMARK SMILES IDX 38 68 39 69 40 70 66 71 67 72 76 73 68 74 69 75 75 76 77 77
REMARK SMILES IDX 70 78 71 79 72 80 73 81 74 82 50 83 51 84 60 85 52 86 53 87
REMARK SMILES IDX 59 88 61 89 54 90 55 91 56 92 57 93 58 94
REMARK H PARENT 13 7 20 25 82 44 48 55
REMARK Flexibility Score: inf
ROOT
ATOM      1  C   UNL A   1      32.974  36.207  29.032  1.00  0.00     0.002 C 
ENDROOT
BRANCH   1   2
ATOM      2  C   UNL A   1      33.257  36.699  30.455  1.00  0.00     0.021 C 
BRANCH   2   3
ATOM      3  C   UNL A   1      32.822  35.729  31.560  1.00  0.00     0.116 C 
BRANCH   3   4
ATOM      4  N   UNL A   1      33.834  35.587  32.591  1.00  0.00    -0.356 N 
ATOM      5  C   UNL A   1      34.899  34.751  32.733  1.00  0.00     0.227 C 
ATOM      6  O   UNL A   1      35.547  34.873  33.781  1.00  0.00    -0.274 OA
ATOM      7  H   UNL A   1      33.731  36.222  33.336  1.00  0.00     0.163 HD
BRANCH   5   8
ATOM      8  C   UNL A   1      35.341  33.710  31.688  1.00  0.00     0.105 C 
ATOM      9  C   UNL A   1      35.094  32.259  32.104  1.00  0.00     0.023 C 
BRANCH   8  10
ATOM     10  C   UNL A   1      36.712  33.983  31.096  1.00  0.00    -0.036 A 
ATOM     11  C   UNL A   1      39.337  34.316  30.037  1.00  0.00    -0.048 A 
ATOM     12  C   UNL A   1      38.305  33.787  29.268  1.00  0.00     0.004 A 
ATOM     13  C   UNL A   1      39.030  34.705  31.350  1.00  0.00     0.004 A 
ATOM     14  C   UNL A   1      37.009  33.684  29.768  1.00  0.00     0.005 A 
ATOM     15  C   UNL A   1      37.745  34.514  31.882  1.00  0.00     0.005 A 
BRANCH  11  16
ATOM     16  C   UNL A   1      40.740  34.532  29.503  1.00  0.00     0.038 C 
BRANCH  16  17
ATOM     17  C   UNL A   1      41.935  34.102  30.391  1.00  0.00    -0.013 C 
ATOM     18  C   UNL A   1      42.466  32.698  30.064  1.00  0.00     0.008 C 
ATOM     19  C   UNL A   1      43.096  35.087  30.215  1.00  0.00     0.008 C 
ENDBRANCH  16  17
ENDBRANCH  11  16
ENDBRANCH   8  10
ENDBRANCH   5   8
ENDBRANCH   3   4
ENDBRANCH   2   3
ENDBRANCH   1   2
BRANCH   1  20
ATOM     20  C   UNL A   1      33.940  35.137  28.509  1.00  0.00     0.002 C 
BRANCH  20  21
ATOM     21  C   UNL A   1      33.296  33.847  27.986  1.00  0.00     0.021 C 
BRANCH  21  22
ATOM     22  C   UNL A   1      33.927  32.547  28.485  1.00  0.00     0.116 C 
BRANCH  22  23
ATOM     23  N   UNL A   1      33.585  31.415  27.640  1.00  0.00    -0.352 N 
ATOM     24  C   UNL A   1      34.335  30.333  27.254  1.00  0.00     0.251 C 
ATOM     25  H   UNL A   1      32.667  31.428  27.286  1.00  0.00     0.163 HD
ATOM     26  O   UNL A   1      33.923  29.611  26.350  1.00  0.00    -0.269 OA
BRANCH  24  27
ATOM     27  C   UNL A   1      35.630  30.027  27.906  1.00  0.00     0.039 A 
ATOM     28  C   UNL A   1      35.620  29.526  29.212  1.00  0.00     0.014 A 
ATOM     29  C   UNL A   1      36.850  30.294  27.276  1.00  0.00     0.014 A 
ATOM     30  C   UNL A   1      36.825  29.255  29.866  1.00  0.00     0.010 A 
ATOM     31  C   UNL A   1      38.052  29.967  27.908  1.00  0.00     0.010 A 
ATOM     32  C   UNL A   1      38.052  29.451  29.213  1.00  0.00    -0.014 A 
BRANCH  32  33
ATOM     33  C   UNL A   1      39.333  29.127  29.894  1.00  0.00     0.031 A 
ATOM     34  C   UNL A   1      39.763  29.894  31.117  1.00  0.00     0.074 A 
ATOM     35  C   UNL A   1      40.121  28.154  29.396  1.00  0.00     0.049 A 
ATOM     36  N   UNL A   1      40.850  29.760  31.834  1.00  0.00    -0.248 NA
ATOM     37  C   UNL A   1      38.867  30.962  31.584  1.00  0.00     0.031 C 
ATOM     38  C   UNL A   1      39.841  27.374  28.188  1.00  0.00     0.029 A 
ATOM     39  N   UNL A   1      41.320  27.655  29.840  1.00  0.00    -0.354 N 
ATOM     40  C   UNL A   1      40.766  30.720  32.838  1.00  0.00     0.074 A 
ATOM     41  C   UNL A   1      39.551  31.469  32.600  1.00  0.00     0.031 C 
ATOM     42  C   UNL A   1      40.828  26.483  28.000  1.00  0.00     0.029 A 
ATOM     43  C   UNL A   1      41.822  26.642  29.057  1.00  0.00     0.049 A 
ATOM     44  H   UNL A   1      41.779  27.991  30.644  1.00  0.00     0.167 HD
ATOM     45  C   UNL A   1      41.606  30.938  33.878  1.00  0.00     0.037 A 
ATOM     46  C   UNL A   1      42.954  25.922  29.176  1.00  0.00     0.037 A 
ATOM     47  C   UNL A   1      42.808  30.183  34.120  1.00  0.00     0.049 A 
ATOM     48  C   UNL A   1      43.865  26.177  30.347  1.00  0.00     0.074 A 
ATOM     49  C   UNL A   1      43.717  30.315  35.156  1.00  0.00     0.029 A 
ATOM     50  N   UNL A   1      43.264  29.144  33.322  1.00  0.00    -0.354 N 
ATOM     51  N   UNL A   1      43.744  27.061  31.309  1.00  0.00    -0.248 NA
ATOM     52  C   UNL A   1      45.059  25.328  30.457  1.00  0.00     0.031 C 
ATOM     53  C   UNL A   1      44.736  29.373  34.971  1.00  0.00     0.029 A 
ATOM     54  C   UNL A   1      44.442  28.629  33.841  1.00  0.00     0.049 A 
ATOM     55  H   UNL A   1      42.817  28.819  32.507  1.00  0.00     0.167 HD
ATOM     56  C   UNL A   1      44.832  26.858  32.150  1.00  0.00     0.074 A 
ATOM     57  C   UNL A   1      45.590  25.755  31.594  1.00  0.00     0.031 C 
ATOM     58  C   UNL A   1      45.177  27.525  33.279  1.00  0.00     0.037 A 
BRANCH  45  59
ATOM     59  C   UNL A   1      41.241  32.026  34.851  1.00  0.00     0.058 A 
ATOM     60  C   UNL A   1      40.440  31.759  35.973  1.00  0.00     0.135 A 
ATOM     61  C   UNL A   1      41.729  33.333  34.692  1.00  0.00     0.135 A 
ATOM     62  F   UNL A   1      39.933  30.531  36.164  1.00  0.00    -0.206 F 
ATOM     63  C   UNL A   1      40.116  32.752  36.890  1.00  0.00     0.059 A 
ATOM     64  C   UNL A   1      41.438  34.338  35.612  1.00  0.00     0.059 A 
ATOM     65  F   UNL A   1      42.500  33.643  33.638  1.00  0.00    -0.206 F 
ATOM     66  C   UNL A   1      40.621  34.040  36.701  1.00  0.00     0.060 A 
BRANCH  66  67
ATOM     67  S   UNL A   1      40.202  35.315  37.909  1.00  0.00     0.124 S 
ATOM     68  O   UNL A   1      40.163  36.509  37.071  1.00  0.00    -0.237 OA
ATOM     69  O   UNL A   1      38.914  34.856  38.416  1.00  0.00    -0.237 OA
ATOM     70  O   UNL A   1      41.306  35.253  38.864  1.00  0.00    -0.744 OA
ENDBRANCH  66  67
ENDBRANCH  45  59
BRANCH  46  71
ATOM     71  C   UNL A   1      43.285  24.875  28.174  1.00  0.00     0.058 A 
ATOM     72  C   UNL A   1      43.961  25.196  26.987  1.00  0.00     0.135 A 
ATOM     73  C   UNL A   1      42.918  23.536  28.376  1.00  0.00     0.135 A 
ATOM     74  F   UNL A   1      44.330  26.464  26.748  1.00  0.00    -0.206 F 
ATOM     75  C   UNL A   1      44.231  24.234  26.019  1.00  0.00     0.059 A 
ATOM     76  C   UNL A   1      43.201  22.551  27.435  1.00  0.00     0.059 A 
ATOM     77  F   UNL A   1      42.289  23.174  29.505  1.00  0.00    -0.206 F 
ATOM     78  C   UNL A   1      43.842  22.914  26.251  1.00  0.00     0.060 A 
BRANCH  78  79
ATOM     79  S   UNL A   1      44.211  21.665  25.000  1.00  0.00     0.124 S 
ATOM     80  O   UNL A   1      45.539  21.226  25.408  1.00  0.00    -0.237 OA
ATOM     81  O   UNL A   1      43.131  20.703  25.194  1.00  0.00    -0.237 OA
ATOM     82  O   UNL A   1      44.149  22.419  23.750  1.00  0.00    -0.744 OA
ENDBRANCH  78  79
ENDBRANCH  46  71
BRANCH  58  83
ATOM     83  C   UNL A   1      46.409  27.056  34.002  1.00  0.00     0.058 A 
ATOM     84  C   UNL A   1      47.677  27.588  33.719  1.00  0.00     0.135 A 
ATOM     85  C   UNL A   1      46.316  26.075  35.002  1.00  0.00     0.135 A 
ATOM     86  F   UNL A   1      47.818  28.525  32.767  1.00  0.00    -0.206 F 
ATOM     87  C   UNL A   1      48.815  27.140  34.379  1.00  0.00     0.059 A 
ATOM     88  C   UNL A   1      47.439  25.631  35.693  1.00  0.00     0.059 A 
ATOM     89  F   UNL A   1      45.126  25.542  35.319  1.00  0.00    -0.206 F 
ATOM     90  C   UNL A   1      48.687  26.157  35.362  1.00  0.00     0.060 A 
BRANCH  90  91
ATOM     91  S   UNL A   1      50.170  25.587  36.218  1.00  0.00     0.124 S 
ATOM     92  O   UNL A   1      50.312  26.596  37.262  1.00  0.00    -0.237 OA
ATOM     93  O   UNL A   1      49.778  24.255  36.674  1.00  0.00    -0.237 OA
ATOM     94  O   UNL A   1      51.193  25.610  35.177  1.00  0.00    -0.744 OA
ENDBRANCH  90  91
ENDBRANCH  58  83
ENDBRANCH  32  33
ENDBRANCH  24  27
ENDBRANCH  22  23
ENDBRANCH  21  22
ENDBRANCH  20  21
ENDBRANCH   1  20
TORSDOF 19
ENDMDL
MODEL 2
REMARK VINA RESULT:      -9.5      4.782      6.560
REMARK SMILES CC(C)Cc1ccc([C@@H](C)C(=O)NCCCCCCNC(=O)c2ccc(-c3c4nc(c(-c5c(F)cc(S(=O)(=O)[O-])cc5F)c5ccc([nH]5)c(-c5c(F)cc(S(=O)(=O)[O-])cc5F)c5nc(c(-c6c(F)cc(S(=O)(=O)[O-])cc6F)c6ccc3[nH]6)C=C5)C=C4)cc2)cc1
REMARK SMILES IDX 16 1 15 2 14 3 13 4 11 5 12 6 9 8 10 9 8 10 5 11 6 12 90 13
REMARK SMILES IDX 7 14 89 15 4 16 2 17 1 18 3 19 17 20 18 21 19 22 20 23 21 24
REMARK SMILES IDX 22 26 23 27 24 28 88 29 25 30 87 31 26 32 27 33 28 34 81 35
REMARK SMILES IDX 29 36 86 37 80 38 82 39 30 40 85 41 79 42 78 43 31 45 65 46
REMARK SMILES IDX 44 47 64 48 45 49 48 50 63 51 83 52 46 53 47 54 62 56 84 57
REMARK SMILES IDX 49 58 32 59 33 60 42 61 34 62 35 63 41 64 43 65 36 66 37 67
REMARK SMILES IDX 38 68 39 69 40 70 66 71 67 72 76 73 68 74 69 75 75 76 77 77
REMARK SMILES IDX 70 78 71 79 72 80 73 81 74 82 50 83 51 84 60 85 52 86 53 87
REMARK SMILES IDX 59 88 61 89 54 90 55 91 56 92 57 93 58 94
REMARK H PARENT 13 7 20 25 82 44 48 55
REMARK Flexibility Score: inf
ROOT
ATOM      1  C   UNL A   1      33.882  34.317  28.420  1.00  0.00     0.002 C 
ENDROOT
BRANCH   1   2
ATOM      2  C   UNL A   1      34.360  35.763  28.587  1.00  0.00     0.021 C 
BRANCH   2   3
ATOM      3  C   UNL A   1      33.235  36.783  28.802  1.00  0.00     0.116 C 
BRANCH   3   4
ATOM      4  N   UNL A   1      33.411  37.538  30.029  1.00  0.00    -0.356 N 
ATOM      5  C   UNL A   1      33.228  37.226  31.342  1.00  0.00     0.227 C 
ATOM      6  O   UNL A   1      33.433  38.142  32.149  1.00  0.00    -0.274 OA
ATOM      7  H   UNL A   1      33.724  38.460  29.884  1.00  0.00     0.163 HD
BRANCH   5   8
ATOM      8  C   UNL A   1      32.815  35.838  31.863  1.00  0.00     0.105 C 
ATOM      9  C   UNL A   1      31.494  35.825  32.635  1.00  0.00     0.023 C 
BRANCH   8  10
ATOM     10  C   UNL A   1      33.948  35.069  32.518  1.00  0.00    -0.036 A 
ATOM     11  C   UNL A   1      35.942  33.509  33.827  1.00  0.00    -0.048 A 
ATOM     12  C   UNL A   1      35.468  33.171  32.564  1.00  0.00     0.004 A 
ATOM     13  C   UNL A   1      35.418  34.666  34.424  1.00  0.00     0.004 A 
ATOM     14  C   UNL A   1      34.540  33.970  31.900  1.00  0.00     0.005 A 
ATOM     15  C   UNL A   1      34.415  35.418  33.793  1.00  0.00     0.005 A 
BRANCH  11  16
ATOM     16  C   UNL A   1      37.019  32.720  34.547  1.00  0.00     0.038 C 
BRANCH  16  17
ATOM     17  C   UNL A   1      37.896  31.751  33.714  1.00  0.00    -0.013 C 
ATOM     18  C   UNL A   1      39.085  32.439  33.026  1.00  0.00     0.008 C 
ATOM     19  C   UNL A   1      38.460  30.651  34.620  1.00  0.00     0.008 C 
ENDBRANCH  16  17
ENDBRANCH  11  16
ENDBRANCH   8  10
ENDBRANCH   5   8
ENDBRANCH   3   4
ENDBRANCH   2   3
ENDBRANCH   1   2
BRANCH   1  20
ATOM     20  C   UNL A   1      34.999  33.275  28.274  1.00  0.00     0.002 C 
BRANCH  20  21
ATOM     21  C   UNL A   1      34.574  31.908  27.722  1.00  0.00     0.021 C 
BRANCH  21  22
ATOM     22  C   UNL A   1      35.378  30.713  28.233  1.00  0.00     0.116 C 
BRANCH  22  23
ATOM     23  N   UNL A   1      35.424  30.668  29.685  1.00  0.00    -0.352 N 
ATOM     24  C   UNL A   1      36.386  30.176  30.531  1.00  0.00     0.251 C 
ATOM     25  H   UNL A   1      34.637  31.052  30.135  1.00  0.00     0.163 HD
ATOM     26  O   UNL A   1      36.119  30.032  31.721  1.00  0.00    -0.269 OA
BRANCH  24  27
ATOM     27  C   UNL A   1      37.733  29.815  30.031  1.00  0.00     0.039 A 
ATOM     28  C   UNL A   1      38.691  29.372  30.949  1.00  0.00     0.014 A 
ATOM     29  C   UNL A   1      38.084  29.973  28.685  1.00  0.00     0.014 A 
ATOM     30  C   UNL A   1      39.979  29.051  30.514  1.00  0.00     0.010 A 
ATOM     31  C   UNL A   1      39.353  29.595  28.243  1.00  0.00     0.010 A 
ATOM     32  C   UNL A   1      40.317  29.138  29.154  1.00  0.00    -0.014 A 
BRANCH  32  33
ATOM     33  C   UNL A   1      41.677  28.759  28.686  1.00  0.00     0.031 A 
ATOM     34  C   UNL A   1      42.771  29.792  28.603  1.00  0.00     0.074 A 
ATOM     35  C   UNL A   1      41.919  27.487  28.313  1.00  0.00     0.049 A 
ATOM     36  N   UNL A   1      44.010  29.649  28.207  1.00  0.00    -0.248 NA
ATOM     37  C   UNL A   1      42.423  31.165  28.997  1.00  0.00     0.031 C 
ATOM     38  C   UNL A   1      40.930  26.407  28.297  1.00  0.00     0.029 A 
ATOM     39  N   UNL A   1      43.072  26.887  27.871  1.00  0.00    -0.354 N 
ATOM     40  C   UNL A   1      44.590  30.909  28.310  1.00  0.00     0.074 A 
ATOM     41  C   UNL A   1      43.550  31.816  28.746  1.00  0.00     0.031 C 
ATOM     42  C   UNL A   1      41.522  25.273  27.889  1.00  0.00     0.029 A 
ATOM     43  C   UNL A   1      42.924  25.548  27.590  1.00  0.00     0.049 A 
ATOM     44  H   UNL A   1      43.924  27.368  27.765  1.00  0.00     0.167 HD
ATOM     45  C   UNL A   1      45.877  31.273  28.089  1.00  0.00     0.037 A 
ATOM     46  C   UNL A   1      43.817  24.644  27.144  1.00  0.00     0.037 A 
ATOM     47  C   UNL A   1      46.914  30.367  27.667  1.00  0.00     0.049 A 
ATOM     48  C   UNL A   1      45.243  25.071  26.917  1.00  0.00     0.074 A 
ATOM     49  C   UNL A   1      48.252  30.635  27.433  1.00  0.00     0.029 A 
ATOM     50  N   UNL A   1      46.732  29.013  27.425  1.00  0.00    -0.354 N 
ATOM     51  N   UNL A   1      45.780  26.259  27.062  1.00  0.00    -0.248 NA
ATOM     52  C   UNL A   1      46.186  24.033  26.481  1.00  0.00     0.031 C 
ATOM     53  C   UNL A   1      48.874  29.448  27.027  1.00  0.00     0.029 A 
ATOM     54  C   UNL A   1      47.931  28.434  27.043  1.00  0.00     0.049 A 
ATOM     55  H   UNL A   1      45.876  28.534  27.512  1.00  0.00     0.167 HD
ATOM     56  C   UNL A   1      47.128  26.105  26.758  1.00  0.00     0.074 A 
ATOM     57  C   UNL A   1      47.327  24.706  26.439  1.00  0.00     0.031 C 
ATOM     58  C   UNL A   1      48.112  27.037  26.739  1.00  0.00     0.037 A 
BRANCH  45  59
ATOM     59  C   UNL A   1      46.243  32.713  28.326  1.00  0.00     0.058 A 
ATOM     60  C   UNL A   1      46.140  33.667  27.300  1.00  0.00     0.135 A 
ATOM     61  C   UNL A   1      46.654  33.157  29.593  1.00  0.00     0.135 A 
ATOM     62  F   UNL A   1      45.768  33.295  26.065  1.00  0.00    -0.206 F 
ATOM     63  C   UNL A   1      46.455  35.004  27.515  1.00  0.00     0.059 A 
ATOM     64  C   UNL A   1      46.950  34.496  29.837  1.00  0.00     0.059 A 
ATOM     65  F   UNL A   1      46.769  32.287  30.609  1.00  0.00    -0.206 F 
ATOM     66  C   UNL A   1      46.859  35.409  28.789  1.00  0.00     0.060 A 
BRANCH  66  67
ATOM     67  S   UNL A   1      47.249  37.153  29.053  1.00  0.00     0.124 S 
ATOM     68  O   UNL A   1      45.988  37.654  29.591  1.00  0.00    -0.237 OA
ATOM     69  O   UNL A   1      48.358  37.086  29.998  1.00  0.00    -0.237 OA
ATOM     70  O   UNL A   1      47.595  37.630  27.717  1.00  0.00    -0.744 OA
ENDBRANCH  66  67
ENDBRANCH  45  59
BRANCH  46  71
ATOM     71  C   UNL A   1      43.401  23.237  26.900  1.00  0.00     0.058 A 
ATOM     72  C   UNL A   1      43.258  22.330  27.960  1.00  0.00     0.135 A 
ATOM     73  C   UNL A   1      43.154  22.769  25.601  1.00  0.00     0.135 A 
ATOM     74  F   UNL A   1      43.488  22.730  29.221  1.00  0.00    -0.206 F 
ATOM     75  C   UNL A   1      42.919  20.999  27.740  1.00  0.00     0.059 A 
ATOM     76  C   UNL A   1      42.787  21.449  25.357  1.00  0.00     0.059 A 
ATOM     77  F   UNL A   1      43.256  23.603  24.554  1.00  0.00    -0.206 F 
ATOM     78  C   UNL A   1      42.691  20.567  26.433  1.00  0.00     0.060 A 
BRANCH  78  79
ATOM     79  S   UNL A   1      42.233  18.843  26.153  1.00  0.00     0.124 S 
ATOM     80  O   UNL A   1      43.231  18.430  25.176  1.00  0.00    -0.237 OA
ATOM     81  O   UNL A   1      42.366  18.266  27.488  1.00  0.00    -0.237 OA
ATOM     82  O   UNL A   1      40.863  18.939  25.657  1.00  0.00    -0.744 OA
ENDBRANCH  78  79
ENDBRANCH  46  71
BRANCH  58  83
ATOM     83  C   UNL A   1      49.497  26.564  26.394  1.00  0.00     0.058 A 
ATOM     84  C   UNL A   1      50.305  25.904  27.333  1.00  0.00     0.135 A 
ATOM     85  C   UNL A   1      50.013  26.758  25.103  1.00  0.00     0.135 A 
ATOM     86  F   UNL A   1      49.858  25.699  28.583  1.00  0.00    -0.206 F 
ATOM     87  C   UNL A   1      51.591  25.482  27.014  1.00  0.00     0.059 A 
ATOM     88  C   UNL A   1      51.287  26.320  24.755  1.00  0.00     0.059 A 
ATOM     89  F   UNL A   1      49.277  27.373  24.165  1.00  0.00    -0.206 F 
ATOM     90  C   UNL A   1      52.076  25.699  25.723  1.00  0.00     0.060 A 
BRANCH  90  91
ATOM     91  S   UNL A   1      53.743  25.141  25.316  1.00  0.00     0.124 S 
ATOM     92  O   UNL A   1      53.610  23.695  25.453  1.00  0.00    -0.237 OA
ATOM     93  O   UNL A   1      53.916  25.635  23.952  1.00  0.00    -0.237 OA
ATOM     94  O   UNL A   1      54.574  25.796  26.322  1.00  0.00    -0.744 OA
ENDBRANCH  90  91
ENDBRANCH  58  83
ENDBRANCH  32  33
ENDBRANCH  24  27
ENDBRANCH  22  23
ENDBRANCH  21  22
ENDBRANCH  20  21
ENDBRANCH   1  20
TORSDOF 19
ENDMDL
MODEL 3
REMARK VINA RESULT:      -9.0      4.556      6.220
REMARK SMILES CC(C)Cc1ccc([C@@H](C)C(=O)NCCCCCCNC(=O)c2ccc(-c3c4nc(c(-c5c(F)cc(S(=O)(=O)[O-])cc5F)c5ccc([nH]5)c(-c5c(F)cc(S(=O)(=O)[O-])cc5F)c5nc(c(-c6c(F)cc(S(=O)(=O)[O-])cc6F)c6ccc3[nH]6)C=C5)C=C4)cc2)cc1
REMARK SMILES IDX 16 1 15 2 14 3 13 4 11 5 12 6 9 8 10 9 8 10 5 11 6 12 90 13
REMARK SMILES IDX 7 14 89 15 4 16 2 17 1 18 3 19 17 20 18 21 19 22 20 23 21 24
REMARK SMILES IDX 22 26 23 27 24 28 88 29 25 30 87 31 26 32 27 33 28 34 81 35
REMARK SMILES IDX 29 36 86 37 80 38 82 39 30 40 85 41 79 42 78 43 31 45 65 46
REMARK SMILES IDX 44 47 64 48 45 49 48 50 63 51 83 52 46 53 47 54 62 56 84 57
REMARK SMILES IDX 49 58 32 59 33 60 42 61 34 62 35 63 41 64 43 65 36 66 37 67
REMARK SMILES IDX 38 68 39 69 40 70 66 71 67 72 76 73 68 74 69 75 75 76 77 77
REMARK SMILES IDX 70 78 71 79 72 80 73 81 74 82 50 83 51 84 60 85 52 86 53 87
REMARK SMILES IDX 59 88 61 89 54 90 55 91 56 92 57 93 58 94
REMARK H PARENT 13 7 20 25 82 44 48 55
REMARK Flexibility Score: inf
ROOT
ATOM      1  C   UNL A   1      33.470  34.631  28.222  1.00  0.00     0.002 C 
ENDROOT
BRANCH   1   2
ATOM      2  C   UNL A   1      33.410  35.895  29.086  1.00  0.00     0.021 C 
BRANCH   2   3
ATOM      3  C   UNL A   1      32.788  35.687  30.473  1.00  0.00     0.116 C 
BRANCH   3   4
ATOM      4  N   UNL A   1      33.671  36.128  31.537  1.00  0.00    -0.356 N 
ATOM      5  C   UNL A   1      34.583  35.477  32.312  1.00  0.00     0.227 C 
ATOM      6  O   UNL A   1      35.144  36.163  33.177  1.00  0.00    -0.274 OA
ATOM      7  H   UNL A   1      33.597  37.088  31.740  1.00  0.00     0.163 HD
BRANCH   5   8
ATOM      8  C   UNL A   1      34.958  33.992  32.164  1.00  0.00     0.105 C 
ATOM      9  C   UNL A   1      34.337  33.080  33.223  1.00  0.00     0.023 C 
BRANCH   8  10
ATOM     10  C   UNL A   1      36.434  33.758  31.901  1.00  0.00    -0.036 A 
ATOM     11  C   UNL A   1      39.240  33.495  31.477  1.00  0.00    -0.048 A 
ATOM     12  C   UNL A   1      38.650  33.132  32.684  1.00  0.00     0.004 A 
ATOM     13  C   UNL A   1      38.395  33.972  30.463  1.00  0.00     0.004 A 
ATOM     14  C   UNL A   1      37.271  33.202  32.866  1.00  0.00     0.005 A 
ATOM     15  C   UNL A   1      37.017  34.130  30.681  1.00  0.00     0.005 A 
BRANCH  11  16
ATOM     16  C   UNL A   1      40.725  33.347  31.204  1.00  0.00     0.038 C 
BRANCH  16  17
ATOM     17  C   UNL A   1      41.557  34.633  30.966  1.00  0.00    -0.013 C 
ATOM     18  C   UNL A   1      43.008  34.523  31.458  1.00  0.00     0.008 C 
ATOM     19  C   UNL A   1      41.600  34.955  29.468  1.00  0.00     0.008 C 
ENDBRANCH  16  17
ENDBRANCH  11  16
ENDBRANCH   8  10
ENDBRANCH   5   8
ENDBRANCH   3   4
ENDBRANCH   2   3
ENDBRANCH   1   2
BRANCH   1  20
ATOM     20  C   UNL A   1      34.065  33.397  28.914  1.00  0.00     0.002 C 
BRANCH  20  21
ATOM     21  C   UNL A   1      34.521  32.262  27.988  1.00  0.00     0.021 C 
BRANCH  21  22
ATOM     22  C   UNL A   1      35.733  31.466  28.472  1.00  0.00     0.116 C 
BRANCH  22  23
ATOM     23  N   UNL A   1      35.630  31.117  29.879  1.00  0.00    -0.352 N 
ATOM     24  C   UNL A   1      36.464  30.374  30.675  1.00  0.00     0.251 C 
ATOM     25  H   UNL A   1      34.832  31.471  30.335  1.00  0.00     0.163 HD
ATOM     26  O   UNL A   1      36.070  30.012  31.781  1.00  0.00    -0.269 OA
BRANCH  24  27
ATOM     27  C   UNL A   1      37.824  30.000  30.222  1.00  0.00     0.039 A 
ATOM     28  C   UNL A   1      38.094  29.997  28.849  1.00  0.00     0.014 A 
ATOM     29  C   UNL A   1      38.811  29.586  31.123  1.00  0.00     0.014 A 
ATOM     30  C   UNL A   1      39.358  29.620  28.387  1.00  0.00     0.010 A 
ATOM     31  C   UNL A   1      40.090  29.268  30.664  1.00  0.00     0.010 A 
ATOM     32  C   UNL A   1      40.375  29.274  29.291  1.00  0.00    -0.014 A 
BRANCH  32  33
ATOM     33  C   UNL A   1      41.732  28.911  28.801  1.00  0.00     0.031 A 
ATOM     34  C   UNL A   1      42.817  29.951  28.714  1.00  0.00     0.074 A 
ATOM     35  C   UNL A   1      41.978  27.644  28.411  1.00  0.00     0.049 A 
ATOM     36  N   UNL A   1      44.053  29.822  28.301  1.00  0.00    -0.248 NA
ATOM     37  C   UNL A   1      42.465  31.318  29.128  1.00  0.00     0.031 C 
ATOM     38  C   UNL A   1      40.996  26.557  28.397  1.00  0.00     0.029 A 
ATOM     39  N   UNL A   1      43.129  27.056  27.948  1.00  0.00    -0.354 N 
ATOM     40  C   UNL A   1      44.625  31.085  28.410  1.00  0.00     0.074 A 
ATOM     41  C   UNL A   1      43.584  31.979  28.869  1.00  0.00     0.031 C 
ATOM     42  C   UNL A   1      41.591  25.432  27.969  1.00  0.00     0.029 A 
ATOM     43  C   UNL A   1      42.987  25.719  27.656  1.00  0.00     0.049 A 
ATOM     44  H   UNL A   1      43.976  27.545  27.836  1.00  0.00     0.167 HD
ATOM     45  C   UNL A   1      45.906  31.460  28.176  1.00  0.00     0.037 A 
ATOM     46  C   UNL A   1      43.881  24.827  27.188  1.00  0.00     0.037 A 
ATOM     47  C   UNL A   1      46.944  30.566  27.731  1.00  0.00     0.049 A 
ATOM     48  C   UNL A   1      45.300  25.267  26.948  1.00  0.00     0.074 A 
ATOM     49  C   UNL A   1      48.277  30.845  27.483  1.00  0.00     0.029 A 
ATOM     50  N   UNL A   1      46.768  29.213  27.478  1.00  0.00    -0.354 N 
ATOM     51  N   UNL A   1      45.831  26.457  27.098  1.00  0.00    -0.248 NA
ATOM     52  C   UNL A   1      46.245  24.239  26.488  1.00  0.00     0.031 C 
ATOM     53  C   UNL A   1      48.901  29.668  27.056  1.00  0.00     0.029 A 
ATOM     54  C   UNL A   1      47.966  28.647  27.075  1.00  0.00     0.049 A 
ATOM     55  H   UNL A   1      45.917  28.727  27.571  1.00  0.00     0.167 HD
ATOM     56  C   UNL A   1      47.176  26.315  26.775  1.00  0.00     0.074 A 
ATOM     57  C   UNL A   1      47.380  24.921  26.439  1.00  0.00     0.031 C 
ATOM     58  C   UNL A   1      48.153  27.255  26.754  1.00  0.00     0.037 A 
BRANCH  45  59
ATOM     59  C   UNL A   1      46.265  32.900  28.423  1.00  0.00     0.058 A 
ATOM     60  C   UNL A   1      46.160  33.860  27.404  1.00  0.00     0.135 A 
ATOM     61  C   UNL A   1      46.672  33.337  29.694  1.00  0.00     0.135 A 
ATOM     62  F   UNL A   1      45.792  33.495  26.166  1.00  0.00    -0.206 F 
ATOM     63  C   UNL A   1      46.468  35.197  27.628  1.00  0.00     0.059 A 
ATOM     64  C   UNL A   1      46.961  34.676  29.948  1.00  0.00     0.059 A 
ATOM     65  F   UNL A   1      46.788  32.461  30.705  1.00  0.00    -0.206 F 
ATOM     66  C   UNL A   1      46.868  35.596  28.906  1.00  0.00     0.060 A 
BRANCH  66  67
ATOM     67  S   UNL A   1      47.250  37.339  29.183  1.00  0.00     0.124 S 
ATOM     68  O   UNL A   1      45.922  37.890  29.437  1.00  0.00    -0.237 OA
ATOM     69  O   UNL A   1      48.144  37.285  30.333  1.00  0.00    -0.237 OA
ATOM     70  O   UNL A   1      47.871  37.754  27.928  1.00  0.00    -0.744 OA
ENDBRANCH  66  67
ENDBRANCH  45  59
BRANCH  46  71
ATOM     71  C   UNL A   1      43.471  23.420  26.935  1.00  0.00     0.058 A 
ATOM     72  C   UNL A   1      43.311  22.936  25.628  1.00  0.00     0.135 A 
ATOM     73  C   UNL A   1      43.217  22.536  27.994  1.00  0.00     0.135 A 
ATOM     74  F   UNL A   1      43.539  23.745  24.581  1.00  0.00    -0.206 F 
ATOM     75  C   UNL A   1      42.879  21.637  25.378  1.00  0.00     0.059 A 
ATOM     76  C   UNL A   1      42.811  21.225  27.771  1.00  0.00     0.059 A 
ATOM     77  F   UNL A   1      43.377  22.943  29.263  1.00  0.00    -0.206 F 
ATOM     78  C   UNL A   1      42.627  20.791  26.458  1.00  0.00     0.060 A 
BRANCH  78  79
ATOM     79  S   UNL A   1      42.085  19.099  26.130  1.00  0.00     0.124 S 
ATOM     80  O   UNL A   1      40.680  19.302  25.799  1.00  0.00    -0.237 OA
ATOM     81  O   UNL A   1      42.953  18.704  25.025  1.00  0.00    -0.237 OA
ATOM     82  O   UNL A   1      42.345  18.416  27.394  1.00  0.00    -0.744 OA
ENDBRANCH  78  79
ENDBRANCH  46  71
BRANCH  58  83
ATOM     83  C   UNL A   1      49.537  26.794  26.386  1.00  0.00     0.058 A 
ATOM     84  C   UNL A   1      49.984  26.797  25.055  1.00  0.00     0.135 A 
ATOM     85  C   UNL A   1      50.430  26.364  27.380  1.00  0.00     0.135 A 
ATOM     86  F   UNL A   1      49.165  27.195  24.068  1.00  0.00    -0.206 F 
ATOM     87  C   UNL A   1      51.259  26.356  24.719  1.00  0.00     0.059 A 
ATOM     88  C   UNL A   1      51.719  25.942  27.067  1.00  0.00     0.059 A 
ATOM     89  F   UNL A   1      50.055  26.352  28.668  1.00  0.00    -0.206 F 
ATOM     90  C   UNL A   1      52.118  25.925  25.731  1.00  0.00     0.060 A 
BRANCH  90  91
ATOM     91  S   UNL A   1      53.773  25.361  25.285  1.00  0.00     0.124 S 
ATOM     92  O   UNL A   1      54.227  26.440  24.415  1.00  0.00    -0.237 OA
ATOM     93  O   UNL A   1      54.437  25.273  26.584  1.00  0.00    -0.237 OA
ATOM     94  O   UNL A   1      53.529  24.082  24.626  1.00  0.00    -0.744 OA
ENDBRANCH  90  91
ENDBRANCH  58  83
ENDBRANCH  32  33
ENDBRANCH  24  27
ENDBRANCH  22  23
ENDBRANCH  21  22
ENDBRANCH  20  21
ENDBRANCH   1  20
TORSDOF 19
ENDMDL
