MODEL 1
REMARK VINA RESULT:     -10.5      0.000      0.000
REMARK SMILES O=C(CCCc1nc(-c2cccc(Cl)c2)no1)NCCCCCCNC(=O)c1ccc(-c2c3nc(c(-c4c(F)cc(S(=O)(=O)[O-])cc4F)c4ccc([nH]4)c(-c4c(F)cc(S(=O)(=O)[O-])cc4F)c4nc(c(-c5c(F)cc(S(=O)(=O)[O-])cc5F)c5ccc2[nH]5)C=C4)C=C3)cc1
REMARK SMILES IDX 21 1 20 2 19 3 18 4 1 5 2 6 3 8 4 9 5 10 6 11 7 12 17 13
REMARK SMILES IDX 8 14 16 15 9 16 10 17 15 18 11 19 13 20 12 21 14 22 22 23
REMARK SMILES IDX 23 24 24 25 25 26 26 27 27 29 28 30 29 31 93 32 30 33 92 34
REMARK SMILES IDX 31 35 32 36 33 37 86 38 34 39 91 40 85 41 87 42 35 43 90 44
REMARK SMILES IDX 84 45 83 46 36 48 70 49 49 50 69 51 50 52 53 53 68 54 88 55
REMARK SMILES IDX 51 56 52 57 67 59 89 60 54 61 37 62 38 63 47 64 39 65 40 66
REMARK SMILES IDX 46 67 48 68 41 69 42 70 43 71 44 72 45 73 71 74 72 75 81 76
REMARK SMILES IDX 73 77 74 78 80 79 82 80 75 81 76 82 77 83 78 84 79 85 55 86
REMARK SMILES IDX 56 87 65 88 57 89 58 90 64 91 66 92 59 93 60 94 61 95 62 96
REMARK SMILES IDX 63 97
REMARK H PARENT 18 7 25 28 87 47 53 58
REMARK Flexibility Score: inf
ROOT
ATOM      1  C   UNL A   1      33.723  27.499  23.453  1.00  0.00     0.002 C 
ENDROOT
BRANCH   1   2
ATOM      2  C   UNL A   1      33.327  26.575  22.295  1.00  0.00     0.021 C 
BRANCH   2   3
ATOM      3  C   UNL A   1      31.843  26.598  21.935  1.00  0.00     0.116 C 
BRANCH   3   4
ATOM      4  N   UNL A   1      31.029  26.037  22.994  1.00  0.00    -0.356 N 
ATOM      5  O   UNL A   1      29.908  27.974  23.512  1.00  0.00    -0.275 OA
ATOM      6  C   UNL A   1      30.108  26.778  23.691  1.00  0.00     0.220 C 
ATOM      7  H   UNL A   1      31.142  25.086  23.222  1.00  0.00     0.163 HD
BRANCH   6   8
ATOM      8  C   UNL A   1      29.329  25.978  24.714  1.00  0.00     0.100 C 
BRANCH   8   9
ATOM      9  C   UNL A   1      30.113  25.733  26.008  1.00  0.00     0.020 C 
BRANCH   9  10
ATOM     10  C   UNL A   1      30.123  24.297  26.540  1.00  0.00     0.101 C 
BRANCH  10  11
ATOM     11  C   UNL A   1      31.473  23.686  26.529  1.00  0.00     0.226 A 
ATOM     12  N   UNL A   1      32.378  23.721  25.579  1.00  0.00    -0.191 NA
ATOM     13  O   UNL A   1      31.866  22.988  27.629  1.00  0.00    -0.339 OA
ATOM     14  C   UNL A   1      33.393  22.953  26.108  1.00  0.00     0.202 A 
ATOM     15  N   UNL A   1      33.141  22.493  27.345  1.00  0.00    -0.057 NA
BRANCH  14  16
ATOM     16  C   UNL A   1      34.609  22.663  25.365  1.00  0.00     0.024 A 
ATOM     17  C   UNL A   1      35.118  23.597  24.450  1.00  0.00     0.012 A 
ATOM     18  C   UNL A   1      35.272  21.440  25.534  1.00  0.00     0.032 A 
ATOM     19  C   UNL A   1      36.282  23.319  23.726  1.00  0.00     0.002 A 
ATOM     20  C   UNL A   1      36.423  21.164  24.798  1.00  0.00     0.041 A 
ATOM     21  C   UNL A   1      36.933  22.099  23.898  1.00  0.00     0.020 A 
ATOM     22  Cl  UNL A   1      37.220  19.652  24.998  1.00  0.00    -0.084 Cl
ENDBRANCH  14  16
ENDBRANCH  10  11
ENDBRANCH   9  10
ENDBRANCH   8   9
ENDBRANCH   6   8
ENDBRANCH   3   4
ENDBRANCH   2   3
ENDBRANCH   1   2
BRANCH   1  23
ATOM     23  C   UNL A   1      33.703  26.857  24.843  1.00  0.00     0.002 C 
BRANCH  23  24
ATOM     24  C   UNL A   1      33.042  27.707  25.929  1.00  0.00     0.021 C 
BRANCH  24  25
ATOM     25  C   UNL A   1      33.999  28.239  26.990  1.00  0.00     0.116 C 
BRANCH  25  26
ATOM     26  N   UNL A   1      33.716  29.618  27.352  1.00  0.00    -0.352 N 
ATOM     27  C   UNL A   1      34.513  30.509  28.026  1.00  0.00     0.251 C 
ATOM     28  H   UNL A   1      32.835  29.959  27.077  1.00  0.00     0.163 HD
ATOM     29  O   UNL A   1      34.050  31.584  28.406  1.00  0.00    -0.269 OA
BRANCH  27  30
ATOM     30  C   UNL A   1      35.922  30.163  28.314  1.00  0.00     0.039 A 
ATOM     31  C   UNL A   1      36.259  29.684  29.582  1.00  0.00     0.014 A 
ATOM     32  C   UNL A   1      36.910  30.312  27.335  1.00  0.00     0.014 A 
ATOM     33  C   UNL A   1      37.577  29.311  29.852  1.00  0.00     0.010 A 
ATOM     34  C   UNL A   1      38.204  29.861  27.580  1.00  0.00     0.010 A 
ATOM     35  C   UNL A   1      38.556  29.371  28.847  1.00  0.00    -0.014 A 
BRANCH  35  36
ATOM     36  C   UNL A   1      39.962  28.968  29.114  1.00  0.00     0.031 A 
ATOM     37  C   UNL A   1      40.923  29.959  29.717  1.00  0.00     0.074 A 
ATOM     38  C   UNL A   1      40.384  27.731  28.781  1.00  0.00     0.049 A 
ATOM     39  N   UNL A   1      42.202  29.828  29.961  1.00  0.00    -0.248 NA
ATOM     40  C   UNL A   1      40.382  31.283  30.069  1.00  0.00     0.031 C 
ATOM     41  C   UNL A   1      39.561  26.696  28.150  1.00  0.00     0.029 A 
ATOM     42  N   UNL A   1      41.614  27.136  28.919  1.00  0.00    -0.354 N 
ATOM     43  C   UNL A   1      42.614  31.044  30.495  1.00  0.00     0.074 A 
ATOM     44  C   UNL A   1      41.469  31.927  30.469  1.00  0.00     0.031 C 
ATOM     45  C   UNL A   1      40.304  25.591  27.972  1.00  0.00     0.029 A 
ATOM     46  C   UNL A   1      41.663  25.848  28.438  1.00  0.00     0.049 A 
ATOM     47  H   UNL A   1      42.388  27.589  29.324  1.00  0.00     0.167 HD
ATOM     48  C   UNL A   1      43.825  31.385  30.996  1.00  0.00     0.037 A 
ATOM     49  C   UNL A   1      42.690  24.978  28.371  1.00  0.00     0.037 A 
ATOM     50  C   UNL A   1      44.957  30.497  31.037  1.00  0.00     0.049 A 
ATOM     51  C   UNL A   1      44.032  25.388  28.920  1.00  0.00     0.074 A 
ATOM     52  C   UNL A   1      46.225  30.742  31.535  1.00  0.00     0.029 A 
ATOM     53  N   UNL A   1      44.957  29.190  30.572  1.00  0.00    -0.354 N 
ATOM     54  N   UNL A   1      44.392  26.531  29.455  1.00  0.00    -0.248 NA
ATOM     55  C   UNL A   1      45.105  24.385  28.873  1.00  0.00     0.031 C 
ATOM     56  C   UNL A   1      47.002  29.596  31.338  1.00  0.00     0.029 A 
ATOM     57  C   UNL A   1      46.202  28.618  30.771  1.00  0.00     0.049 A 
ATOM     58  H   UNL A   1      44.185  28.737  30.161  1.00  0.00     0.167 HD
ATOM     59  C   UNL A   1      45.716  26.368  29.847  1.00  0.00     0.074 A 
ATOM     60  C   UNL A   1      46.091  25.014  29.498  1.00  0.00     0.031 C 
ATOM     61  C   UNL A   1      46.549  27.257  30.445  1.00  0.00     0.037 A 
BRANCH  48  62
ATOM     62  C   UNL A   1      43.981  32.766  31.572  1.00  0.00     0.058 A 
ATOM     63  C   UNL A   1      43.720  33.027  32.927  1.00  0.00     0.135 A 
ATOM     64  C   UNL A   1      44.451  33.827  30.782  1.00  0.00     0.135 A 
ATOM     65  F   UNL A   1      43.250  32.055  33.724  1.00  0.00    -0.206 F 
ATOM     66  C   UNL A   1      43.904  34.292  33.475  1.00  0.00     0.059 A 
ATOM     67  C   UNL A   1      44.672  35.094  31.315  1.00  0.00     0.059 A 
ATOM     68  F   UNL A   1      44.713  33.636  29.479  1.00  0.00    -0.206 F 
ATOM     69  C   UNL A   1      44.387  35.318  32.662  1.00  0.00     0.060 A 
BRANCH  69  70
ATOM     70  S   UNL A   1      44.654  36.943  33.400  1.00  0.00     0.124 S 
ATOM     71  O   UNL A   1      45.873  37.375  32.722  1.00  0.00    -0.237 OA
ATOM     72  O   UNL A   1      43.436  37.655  33.030  1.00  0.00    -0.237 OA
ATOM     73  O   UNL A   1      44.800  36.652  34.823  1.00  0.00    -0.744 OA
ENDBRANCH  69  70
ENDBRANCH  48  62
BRANCH  49  74
ATOM     74  C   UNL A   1      42.500  23.629  27.767  1.00  0.00     0.058 A 
ATOM     75  C   UNL A   1      42.322  22.490  28.566  1.00  0.00     0.135 A 
ATOM     76  C   UNL A   1      42.531  23.448  26.374  1.00  0.00     0.135 A 
ATOM     77  F   UNL A   1      42.286  22.608  29.902  1.00  0.00    -0.206 F 
ATOM     78  C   UNL A   1      42.230  21.216  28.013  1.00  0.00     0.059 A 
ATOM     79  C   UNL A   1      42.408  22.189  25.796  1.00  0.00     0.059 A 
ATOM     80  F   UNL A   1      42.675  24.506  25.561  1.00  0.00    -0.206 F 
ATOM     81  C   UNL A   1      42.281  21.076  26.625  1.00  0.00     0.060 A 
BRANCH  81  82
ATOM     82  S   UNL A   1      42.167  19.420  25.915  1.00  0.00     0.124 S 
ATOM     83  O   UNL A   1      42.644  18.595  27.020  1.00  0.00    -0.237 OA
ATOM     84  O   UNL A   1      40.745  19.315  25.607  1.00  0.00    -0.237 OA
ATOM     85  O   UNL A   1      43.049  19.492  24.755  1.00  0.00    -0.744 OA
ENDBRANCH  81  82
ENDBRANCH  49  74
BRANCH  61  86
ATOM     86  C   UNL A   1      47.921  26.774  30.831  1.00  0.00     0.058 A 
ATOM     87  C   UNL A   1      49.046  26.998  30.024  1.00  0.00     0.135 A 
ATOM     88  C   UNL A   1      48.113  26.107  32.053  1.00  0.00     0.135 A 
ATOM     89  F   UNL A   1      48.919  27.627  28.846  1.00  0.00    -0.206 F 
ATOM     90  C   UNL A   1      50.308  26.543  30.395  1.00  0.00     0.059 A 
ATOM     91  C   UNL A   1      49.371  25.675  32.460  1.00  0.00     0.059 A 
ATOM     92  F   UNL A   1      47.073  25.880  32.871  1.00  0.00    -0.206 F 
ATOM     93  C   UNL A   1      50.460  25.882  31.616  1.00  0.00     0.060 A 
BRANCH  93  94
ATOM     94  S   UNL A   1      52.105  25.312  32.094  1.00  0.00     0.124 S 
ATOM     95  O   UNL A   1      52.886  25.645  30.907  1.00  0.00    -0.237 OA
ATOM     96  O   UNL A   1      52.380  26.114  33.281  1.00  0.00    -0.237 OA
ATOM     97  O   UNL A   1      51.913  23.886  32.339  1.00  0.00    -0.744 OA
ENDBRANCH  93  94
ENDBRANCH  61  86
ENDBRANCH  35  36
ENDBRANCH  27  30
ENDBRANCH  25  26
ENDBRANCH  24  25
ENDBRANCH  23  24
ENDBRANCH   1  23
TORSDOF 20
ENDMDL
MODEL 2
REMARK VINA RESULT:     -10.3      4.327     11.048
REMARK SMILES O=C(CCCc1nc(-c2cccc(Cl)c2)no1)NCCCCCCNC(=O)c1ccc(-c2c3nc(c(-c4c(F)cc(S(=O)(=O)[O-])cc4F)c4ccc([nH]4)c(-c4c(F)cc(S(=O)(=O)[O-])cc4F)c4nc(c(-c5c(F)cc(S(=O)(=O)[O-])cc5F)c5ccc2[nH]5)C=C4)C=C3)cc1
REMARK SMILES IDX 21 1 20 2 19 3 18 4 1 5 2 6 3 8 4 9 5 10 6 11 7 12 17 13
REMARK SMILES IDX 8 14 16 15 9 16 10 17 15 18 11 19 13 20 12 21 14 22 22 23
REMARK SMILES IDX 23 24 24 25 25 26 26 27 27 29 28 30 29 31 93 32 30 33 92 34
REMARK SMILES IDX 31 35 32 36 33 37 86 38 34 39 91 40 85 41 87 42 35 43 90 44
REMARK SMILES IDX 84 45 83 46 36 48 70 49 49 50 69 51 50 52 53 53 68 54 88 55
REMARK SMILES IDX 51 56 52 57 67 59 89 60 54 61 37 62 38 63 47 64 39 65 40 66
REMARK SMILES IDX 46 67 48 68 41 69 42 70 43 71 44 72 45 73 71 74 72 75 81 76
REMARK SMILES IDX 73 77 74 78 80 79 82 80 75 81 76 82 77 83 78 84 79 85 55 86
REMARK SMILES IDX 56 87 65 88 57 89 58 90 64 91 66 92 59 93 60 94 61 95 62 96
REMARK SMILES IDX 63 97
REMARK H PARENT 18 7 25 28 87 47 53 58
REMARK Flexibility Score: inf
ROOT
ATOM      1  C   UNL A   1      42.730  23.879  27.806  1.00  0.00     0.002 C 
ENDROOT
BRANCH   1   2
ATOM      2  C   UNL A   1      43.756  22.941  28.455  1.00  0.00     0.021 C 
BRANCH   2   3
ATOM      3  C   UNL A   1      44.992  23.637  29.023  1.00  0.00     0.116 C 
BRANCH   3   4
ATOM      4  N   UNL A   1      45.251  24.894  28.352  1.00  0.00    -0.356 N 
ATOM      5  O   UNL A   1      47.436  25.105  29.028  1.00  0.00    -0.275 OA
ATOM      6  C   UNL A   1      46.470  25.522  28.399  1.00  0.00     0.220 C 
ATOM      7  H   UNL A   1      44.521  25.315  27.841  1.00  0.00     0.163 HD
BRANCH   6   8
ATOM      8  C   UNL A   1      46.535  26.795  27.580  1.00  0.00     0.100 C 
BRANCH   8   9
ATOM      9  C   UNL A   1      46.578  26.535  26.070  1.00  0.00     0.020 C 
BRANCH   9  10
ATOM     10  C   UNL A   1      47.467  25.380  25.600  1.00  0.00     0.101 C 
BRANCH  10  11
ATOM     11  C   UNL A   1      46.693  24.186  25.186  1.00  0.00     0.226 A 
ATOM     12  N   UNL A   1      46.583  23.031  25.799  1.00  0.00    -0.191 NA
ATOM     13  O   UNL A   1      45.990  24.255  24.023  1.00  0.00    -0.339 OA
ATOM     14  C   UNL A   1      45.787  22.311  24.933  1.00  0.00     0.202 A 
ATOM     15  N   UNL A   1      45.394  23.004  23.851  1.00  0.00    -0.057 NA
BRANCH  14  16
ATOM     16  C   UNL A   1      45.437  20.922  25.181  1.00  0.00     0.024 A 
ATOM     17  C   UNL A   1      46.431  19.931  25.179  1.00  0.00     0.012 A 
ATOM     18  C   UNL A   1      44.104  20.552  25.401  1.00  0.00     0.032 A 
ATOM     19  C   UNL A   1      46.099  18.592  25.407  1.00  0.00     0.002 A 
ATOM     20  C   UNL A   1      43.778  19.213  25.615  1.00  0.00     0.041 A 
ATOM     21  C   UNL A   1      44.769  18.233  25.622  1.00  0.00     0.020 A 
ATOM     22  Cl  UNL A   1      42.135  18.766  25.866  1.00  0.00    -0.084 Cl
ENDBRANCH  14  16
ENDBRANCH  10  11
ENDBRANCH   9  10
ENDBRANCH   8   9
ENDBRANCH   6   8
ENDBRANCH   3   4
ENDBRANCH   2   3
ENDBRANCH   1   2
BRANCH   1  23
ATOM     23  C   UNL A   1      42.644  23.804  26.280  1.00  0.00     0.002 C 
BRANCH  23  24
ATOM     24  C   UNL A   1      41.955  22.549  25.741  1.00  0.00     0.021 C 
BRANCH  24  25
ATOM     25  C   UNL A   1      40.761  22.077  26.563  1.00  0.00     0.116 C 
BRANCH  25  26
ATOM     26  N   UNL A   1      39.491  22.383  25.925  1.00  0.00    -0.352 N 
ATOM     27  C   UNL A   1      38.683  23.478  26.102  1.00  0.00     0.251 C 
ATOM     28  H   UNL A   1      39.166  21.715  25.279  1.00  0.00     0.163 HD
ATOM     29  O   UNL A   1      37.554  23.494  25.614  1.00  0.00    -0.269 OA
BRANCH  27  30
ATOM     30  C   UNL A   1      39.166  24.626  26.901  1.00  0.00     0.039 A 
ATOM     31  C   UNL A   1      39.870  25.649  26.263  1.00  0.00     0.014 A 
ATOM     32  C   UNL A   1      38.926  24.691  28.276  1.00  0.00     0.014 A 
ATOM     33  C   UNL A   1      40.292  26.759  26.998  1.00  0.00     0.010 A 
ATOM     34  C   UNL A   1      39.273  25.836  28.988  1.00  0.00     0.010 A 
ATOM     35  C   UNL A   1      39.975  26.875  28.361  1.00  0.00    -0.014 A 
BRANCH  35  36
ATOM     36  C   UNL A   1      40.407  28.055  29.156  1.00  0.00     0.031 A 
ATOM     37  C   UNL A   1      41.764  28.061  29.809  1.00  0.00     0.074 A 
ATOM     38  C   UNL A   1      39.570  29.099  29.322  1.00  0.00     0.049 A 
ATOM     39  N   UNL A   1      42.299  28.958  30.598  1.00  0.00    -0.248 NA
ATOM     40  C   UNL A   1      42.627  26.892  29.566  1.00  0.00     0.031 C 
ATOM     41  C   UNL A   1      38.213  29.194  28.777  1.00  0.00     0.029 A 
ATOM     42  N   UNL A   1      39.734  30.279  30.005  1.00  0.00    -0.354 N 
ATOM     43  C   UNL A   1      43.554  28.465  30.939  1.00  0.00     0.074 A 
ATOM     44  C   UNL A   1      43.672  27.156  30.336  1.00  0.00     0.031 C 
ATOM     45  C   UNL A   1      37.677  30.373  29.133  1.00  0.00     0.029 A 
ATOM     46  C   UNL A   1      38.632  31.103  29.962  1.00  0.00     0.049 A 
ATOM     47  H   UNL A   1      40.562  30.515  30.482  1.00  0.00     0.167 HD
ATOM     48  C   UNL A   1      44.534  29.061  31.659  1.00  0.00     0.037 A 
ATOM     49  C   UNL A   1      38.413  32.302  30.534  1.00  0.00     0.037 A 
ATOM     50  C   UNL A   1      44.418  30.372  32.243  1.00  0.00     0.049 A 
ATOM     51  C   UNL A   1      39.514  32.937  31.345  1.00  0.00     0.074 A 
ATOM     52  C   UNL A   1      45.358  31.071  32.980  1.00  0.00     0.029 A 
ATOM     53  N   UNL A   1      43.300  31.187  32.147  1.00  0.00    -0.354 N 
ATOM     54  N   UNL A   1      40.708  32.470  31.625  1.00  0.00    -0.248 NA
ATOM     55  C   UNL A   1      39.247  34.270  31.902  1.00  0.00     0.031 C 
ATOM     56  C   UNL A   1      44.795  32.293  33.361  1.00  0.00     0.029 A 
ATOM     57  C   UNL A   1      43.527  32.380  32.812  1.00  0.00     0.049 A 
ATOM     58  H   UNL A   1      42.468  30.951  31.676  1.00  0.00     0.167 HD
ATOM     59  C   UNL A   1      41.347  33.469  32.352  1.00  0.00     0.074 A 
ATOM     60  C   UNL A   1      40.411  34.569  32.460  1.00  0.00     0.031 C 
ATOM     61  C   UNL A   1      42.596  33.478  32.883  1.00  0.00     0.037 A 
BRANCH  48  62
ATOM     62  C   UNL A   1      45.830  28.316  31.829  1.00  0.00     0.058 A 
ATOM     63  C   UNL A   1      45.990  27.350  32.836  1.00  0.00     0.135 A 
ATOM     64  C   UNL A   1      46.901  28.523  30.946  1.00  0.00     0.135 A 
ATOM     65  F   UNL A   1      45.006  27.125  33.721  1.00  0.00    -0.206 F 
ATOM     66  C   UNL A   1      47.170  26.627  32.971  1.00  0.00     0.059 A 
ATOM     67  C   UNL A   1      48.080  27.789  31.043  1.00  0.00     0.059 A 
ATOM     68  F   UNL A   1      46.805  29.437  29.967  1.00  0.00    -0.206 F 
ATOM     69  C   UNL A   1      48.207  26.849  32.065  1.00  0.00     0.060 A 
BRANCH  69  70
ATOM     70  S   UNL A   1      49.717  25.875  32.235  1.00  0.00     0.124 S 
ATOM     71  O   UNL A   1      49.334  24.921  33.272  1.00  0.00    -0.237 OA
ATOM     72  O   UNL A   1      49.882  25.322  30.895  1.00  0.00    -0.237 OA
ATOM     73  O   UNL A   1      50.718  26.861  32.631  1.00  0.00    -0.744 OA
ENDBRANCH  69  70
ENDBRANCH  48  62
BRANCH  49  74
ATOM     74  C   UNL A   1      37.104  32.993  30.365  1.00  0.00     0.058 A 
ATOM     75  C   UNL A   1      36.820  33.748  29.217  1.00  0.00     0.135 A 
ATOM     76  C   UNL A   1      36.123  32.943  31.369  1.00  0.00     0.135 A 
ATOM     77  F   UNL A   1      37.724  33.830  28.228  1.00  0.00    -0.206 F 
ATOM     78  C   UNL A   1      35.636  34.467  29.088  1.00  0.00     0.059 A 
ATOM     79  C   UNL A   1      34.917  33.625  31.249  1.00  0.00     0.059 A 
ATOM     80  F   UNL A   1      36.332  32.216  32.478  1.00  0.00    -0.206 F 
ATOM     81  C   UNL A   1      34.692  34.404  30.115  1.00  0.00     0.060 A 
BRANCH  81  82
ATOM     82  S   UNL A   1      33.159  35.343  29.944  1.00  0.00     0.124 S 
ATOM     83  O   UNL A   1      32.535  35.123  31.244  1.00  0.00    -0.237 OA
ATOM     84  O   UNL A   1      33.653  36.693  29.694  1.00  0.00    -0.237 OA
ATOM     85  O   UNL A   1      32.500  34.704  28.810  1.00  0.00    -0.744 OA
ENDBRANCH  81  82
ENDBRANCH  49  74
BRANCH  61  86
ATOM     86  C   UNL A   1      43.054  34.741  33.560  1.00  0.00     0.058 A 
ATOM     87  C   UNL A   1      43.572  35.829  32.841  1.00  0.00     0.135 A 
ATOM     88  C   UNL A   1      42.934  34.875  34.953  1.00  0.00     0.135 A 
ATOM     89  F   UNL A   1      43.710  35.754  31.508  1.00  0.00    -0.206 F 
ATOM     90  C   UNL A   1      43.992  36.990  33.483  1.00  0.00     0.059 A 
ATOM     91  C   UNL A   1      43.314  36.039  35.612  1.00  0.00     0.059 A 
ATOM     92  F   UNL A   1      42.430  33.871  35.689  1.00  0.00    -0.206 F 
ATOM     93  C   UNL A   1      43.859  37.085  34.870  1.00  0.00     0.060 A 
BRANCH  93  94
ATOM     94  S   UNL A   1      44.392  38.603  35.688  1.00  0.00     0.124 S 
ATOM     95  O   UNL A   1      45.843  38.514  35.555  1.00  0.00    -0.237 OA
ATOM     96  O   UNL A   1      43.743  39.635  34.887  1.00  0.00    -0.237 OA
ATOM     97  O   UNL A   1      43.877  38.457  37.047  1.00  0.00    -0.744 OA
ENDBRANCH  93  94
ENDBRANCH  61  86
ENDBRANCH  35  36
ENDBRANCH  27  30
ENDBRANCH  25  26
ENDBRANCH  24  25
ENDBRANCH  23  24
ENDBRANCH   1  23
TORSDOF 20
ENDMDL
MODEL 3
REMARK VINA RESULT:     -10.3      3.705      5.456
REMARK SMILES O=C(CCCc1nc(-c2cccc(Cl)c2)no1)NCCCCCCNC(=O)c1ccc(-c2c3nc(c(-c4c(F)cc(S(=O)(=O)[O-])cc4F)c4ccc([nH]4)c(-c4c(F)cc(S(=O)(=O)[O-])cc4F)c4nc(c(-c5c(F)cc(S(=O)(=O)[O-])cc5F)c5ccc2[nH]5)C=C4)C=C3)cc1
REMARK SMILES IDX 21 1 20 2 19 3 18 4 1 5 2 6 3 8 4 9 5 10 6 11 7 12 17 13
REMARK SMILES IDX 8 14 16 15 9 16 10 17 15 18 11 19 13 20 12 21 14 22 22 23
REMARK SMILES IDX 23 24 24 25 25 26 26 27 27 29 28 30 29 31 93 32 30 33 92 34
REMARK SMILES IDX 31 35 32 36 33 37 86 38 34 39 91 40 85 41 87 42 35 43 90 44
REMARK SMILES IDX 84 45 83 46 36 48 70 49 49 50 69 51 50 52 53 53 68 54 88 55
REMARK SMILES IDX 51 56 52 57 67 59 89 60 54 61 37 62 38 63 47 64 39 65 40 66
REMARK SMILES IDX 46 67 48 68 41 69 42 70 43 71 44 72 45 73 71 74 72 75 81 76
REMARK SMILES IDX 73 77 74 78 80 79 82 80 75 81 76 82 77 83 78 84 79 85 55 86
REMARK SMILES IDX 56 87 65 88 57 89 58 90 64 91 66 92 59 93 60 94 61 95 62 96
REMARK SMILES IDX 63 97
REMARK H PARENT 18 7 25 28 87 47 53 58
REMARK Flexibility Score: inf
ROOT
ATOM      1  C   UNL A   1      33.727  31.728  27.816  1.00  0.00     0.002 C 
ENDROOT
BRANCH   1   2
ATOM      2  C   UNL A   1      32.462  31.903  26.965  1.00  0.00     0.021 C 
BRANCH   2   3
ATOM      3  C   UNL A   1      31.834  30.600  26.475  1.00  0.00     0.116 C 
BRANCH   3   4
ATOM      4  N   UNL A   1      32.842  29.605  26.171  1.00  0.00    -0.356 N 
ATOM      5  O   UNL A   1      31.897  27.899  27.385  1.00  0.00    -0.275 OA
ATOM      6  C   UNL A   1      32.779  28.318  26.644  1.00  0.00     0.220 C 
ATOM      7  H   UNL A   1      33.602  29.862  25.600  1.00  0.00     0.163 HD
BRANCH   6   8
ATOM      8  C   UNL A   1      33.905  27.431  26.156  1.00  0.00     0.100 C 
BRANCH   8   9
ATOM      9  C   UNL A   1      33.451  26.405  25.112  1.00  0.00     0.020 C 
BRANCH   9  10
ATOM     10  C   UNL A   1      33.345  26.901  23.667  1.00  0.00     0.101 C 
BRANCH  10  11
ATOM     11  C   UNL A   1      32.035  27.523  23.364  1.00  0.00     0.226 A 
ATOM     12  N   UNL A   1      31.759  28.790  23.159  1.00  0.00    -0.191 NA
ATOM     13  O   UNL A   1      30.947  26.709  23.279  1.00  0.00    -0.339 OA
ATOM     14  C   UNL A   1      30.393  28.770  22.976  1.00  0.00     0.202 A 
ATOM     15  N   UNL A   1      29.853  27.540  23.029  1.00  0.00    -0.057 NA
BRANCH  14  16
ATOM     16  C   UNL A   1      29.625  29.987  22.766  1.00  0.00     0.024 A 
ATOM     17  C   UNL A   1      29.347  30.841  23.844  1.00  0.00     0.012 A 
ATOM     18  C   UNL A   1      29.135  30.309  21.494  1.00  0.00     0.032 A 
ATOM     19  C   UNL A   1      28.601  32.008  23.649  1.00  0.00     0.002 A 
ATOM     20  C   UNL A   1      28.380  31.467  21.310  1.00  0.00     0.041 A 
ATOM     21  C   UNL A   1      28.114  32.319  22.381  1.00  0.00     0.020 A 
ATOM     22  Cl  UNL A   1      27.766  31.844  19.748  1.00  0.00    -0.084 Cl
ENDBRANCH  14  16
ENDBRANCH  10  11
ENDBRANCH   9  10
ENDBRANCH   8   9
ENDBRANCH   6   8
ENDBRANCH   3   4
ENDBRANCH   2   3
ENDBRANCH   1   2
BRANCH   1  23
ATOM     23  C   UNL A   1      34.431  33.026  28.220  1.00  0.00     0.002 C 
BRANCH  23  24
ATOM     24  C   UNL A   1      35.957  32.982  28.117  1.00  0.00     0.021 C 
BRANCH  24  25
ATOM     25  C   UNL A   1      36.687  33.145  29.445  1.00  0.00     0.116 C 
BRANCH  25  26
ATOM     26  N   UNL A   1      36.150  32.282  30.485  1.00  0.00    -0.352 N 
ATOM     27  C   UNL A   1      36.612  31.062  30.912  1.00  0.00     0.251 C 
ATOM     28  H   UNL A   1      35.347  32.618  30.944  1.00  0.00     0.163 HD
ATOM     29  O   UNL A   1      35.934  30.384  31.682  1.00  0.00    -0.269 OA
BRANCH  27  30
ATOM     30  C   UNL A   1      37.914  30.558  30.425  1.00  0.00     0.039 A 
ATOM     31  C   UNL A   1      38.043  30.194  29.083  1.00  0.00     0.014 A 
ATOM     32  C   UNL A   1      39.006  30.444  31.291  1.00  0.00     0.014 A 
ATOM     33  C   UNL A   1      39.279  29.759  28.601  1.00  0.00     0.010 A 
ATOM     34  C   UNL A   1      40.256  30.091  30.789  1.00  0.00     0.010 A 
ATOM     35  C   UNL A   1      40.403  29.729  29.442  1.00  0.00    -0.014 A 
BRANCH  35  36
ATOM     36  C   UNL A   1      41.729  29.278  28.943  1.00  0.00     0.031 A 
ATOM     37  C   UNL A   1      42.857  30.269  28.816  1.00  0.00     0.074 A 
ATOM     38  C   UNL A   1      41.909  27.996  28.569  1.00  0.00     0.049 A 
ATOM     39  N   UNL A   1      44.062  30.094  28.337  1.00  0.00    -0.248 NA
ATOM     40  C   UNL A   1      42.587  31.647  29.262  1.00  0.00     0.031 C 
ATOM     41  C   UNL A   1      40.882  26.951  28.602  1.00  0.00     0.029 A 
ATOM     42  N   UNL A   1      43.018  27.352  28.078  1.00  0.00    -0.354 N 
ATOM     43  C   UNL A   1      44.691  31.331  28.428  1.00  0.00     0.074 A 
ATOM     44  C   UNL A   1      43.711  32.267  28.935  1.00  0.00     0.031 C 
ATOM     45  C   UNL A   1      41.414  25.796  28.167  1.00  0.00     0.029 A 
ATOM     46  C   UNL A   1      42.805  26.023  27.789  1.00  0.00     0.049 A 
ATOM     47  H   UNL A   1      43.885  27.799  27.945  1.00  0.00     0.167 HD
ATOM     48  C   UNL A   1      45.976  31.653  28.150  1.00  0.00     0.037 A 
ATOM     49  C   UNL A   1      43.634  25.098  27.267  1.00  0.00     0.037 A 
ATOM     50  C   UNL A   1      46.952  30.714  27.662  1.00  0.00     0.049 A 
ATOM     51  C   UNL A   1      45.056  25.486  26.950  1.00  0.00     0.074 A 
ATOM     52  C   UNL A   1      48.285  30.938  27.361  1.00  0.00     0.029 A 
ATOM     53  N   UNL A   1      46.707  29.371  27.415  1.00  0.00    -0.354 N 
ATOM     54  N   UNL A   1      45.641  26.654  27.077  1.00  0.00    -0.248 NA
ATOM     55  C   UNL A   1      45.935  24.428  26.434  1.00  0.00     0.031 C 
ATOM     56  C   UNL A   1      48.836  29.739  26.897  1.00  0.00     0.029 A 
ATOM     57  C   UNL A   1      47.862  28.756  26.965  1.00  0.00     0.049 A 
ATOM     58  H   UNL A   1      45.839  28.923  27.541  1.00  0.00     0.167 HD
ATOM     59  C   UNL A   1      46.966  26.458  26.701  1.00  0.00     0.074 A 
ATOM     60  C   UNL A   1      47.098  25.060  26.351  1.00  0.00     0.031 C 
ATOM     61  C   UNL A   1      47.984  27.354  26.650  1.00  0.00     0.037 A 
BRANCH  48  62
ATOM     62  C   UNL A   1      46.412  33.072  28.396  1.00  0.00     0.058 A 
ATOM     63  C   UNL A   1      46.313  34.050  27.392  1.00  0.00     0.135 A 
ATOM     64  C   UNL A   1      46.875  33.475  29.658  1.00  0.00     0.135 A 
ATOM     65  F   UNL A   1      45.896  33.717  26.161  1.00  0.00    -0.206 F 
ATOM     66  C   UNL A   1      46.674  35.373  27.626  1.00  0.00     0.059 A 
ATOM     67  C   UNL A   1      47.212  34.799  29.924  1.00  0.00     0.059 A 
ATOM     68  F   UNL A   1      46.994  32.582  30.652  1.00  0.00    -0.206 F 
ATOM     69  C   UNL A   1      47.116  35.739  28.898  1.00  0.00     0.060 A 
BRANCH  69  70
ATOM     70  S   UNL A   1      47.544  37.468  29.192  1.00  0.00     0.124 S 
ATOM     71  O   UNL A   1      47.097  38.094  27.951  1.00  0.00    -0.237 OA
ATOM     72  O   UNL A   1      46.758  37.784  30.380  1.00  0.00    -0.237 OA
ATOM     73  O   UNL A   1      48.989  37.433  29.390  1.00  0.00    -0.744 OA
ENDBRANCH  69  70
ENDBRANCH  48  62
BRANCH  49  74
ATOM     74  C   UNL A   1      43.154  23.711  27.012  1.00  0.00     0.058 A 
ATOM     75  C   UNL A   1      43.032  22.777  28.052  1.00  0.00     0.135 A 
ATOM     76  C   UNL A   1      42.844  23.279  25.712  1.00  0.00     0.135 A 
ATOM     77  F   UNL A   1      43.318  23.138  29.313  1.00  0.00    -0.206 F 
ATOM     78  C   UNL A   1      42.668  21.456  27.811  1.00  0.00     0.059 A 
ATOM     79  C   UNL A   1      42.444  21.974  25.449  1.00  0.00     0.059 A 
ATOM     80  F   UNL A   1      42.920  24.137  24.682  1.00  0.00    -0.206 F 
ATOM     81  C   UNL A   1      42.382  21.062  26.502  1.00  0.00     0.060 A 
BRANCH  81  82
ATOM     82  S   UNL A   1      41.915  19.345  26.195  1.00  0.00     0.124 S 
ATOM     83  O   UNL A   1      40.484  19.473  25.943  1.00  0.00    -0.237 OA
ATOM     84  O   UNL A   1      42.739  19.004  25.041  1.00  0.00    -0.237 OA
ATOM     85  O   UNL A   1      42.279  18.673  27.439  1.00  0.00    -0.744 OA
ENDBRANCH  81  82
ENDBRANCH  49  74
BRANCH  61  86
ATOM     86  C   UNL A   1      49.347  26.837  26.276  1.00  0.00     0.058 A 
ATOM     87  C   UNL A   1      49.883  27.005  24.991  1.00  0.00     0.135 A 
ATOM     88  C   UNL A   1      50.143  26.195  27.240  1.00  0.00     0.135 A 
ATOM     89  F   UNL A   1      49.165  27.609  24.032  1.00  0.00    -0.206 F 
ATOM     90  C   UNL A   1      51.146  26.520  24.661  1.00  0.00     0.059 A 
ATOM     91  C   UNL A   1      51.421  25.733  26.942  1.00  0.00     0.059 A 
ATOM     92  F   UNL A   1      49.685  26.021  28.490  1.00  0.00    -0.206 F 
ATOM     93  C   UNL A   1      51.907  25.884  25.645  1.00  0.00     0.060 A 
BRANCH  93  94
ATOM     94  S   UNL A   1      53.549  25.275  25.210  1.00  0.00     0.124 S 
ATOM     95  O   UNL A   1      54.403  26.102  26.056  1.00  0.00    -0.237 OA
ATOM     96  O   UNL A   1      53.466  23.865  25.577  1.00  0.00    -0.237 OA
ATOM     97  O   UNL A   1      53.641  25.539  23.777  1.00  0.00    -0.744 OA
ENDBRANCH  93  94
ENDBRANCH  61  86
ENDBRANCH  35  36
ENDBRANCH  27  30
ENDBRANCH  25  26
ENDBRANCH  24  25
ENDBRANCH  23  24
ENDBRANCH   1  23
TORSDOF 20
ENDMDL
