MODEL 1
REMARK VINA RESULT:     -13.3      0.000      0.000
REMARK SMILES Cc1ccc(C(=O)NC2(CC(=O)NCCCCCCNC(=O)c3ccc(-c4c5nc(c(-c6c(F)cc(S(=O)(=O)[O-])cc6F)c6ccc([nH]6)c(-c6c(F)cc(S(=O)(=O)[O-])cc6F)c6nc(c(-c7c(F)cc(S(=O)(=O)[O-])cc7F)c7ccc4[nH]7)C=C6)C=C5)cc3)CCC2)cc1
REMARK SMILES IDX 16 1 15 2 14 3 13 4 11 5 12 6 10 8 9 9 89 10 91 11 90 12
REMARK SMILES IDX 8 13 6 14 7 15 5 17 1 18 2 19 3 20 93 21 4 22 92 23 17 24
REMARK SMILES IDX 18 25 19 26 20 27 21 28 22 30 23 31 24 32 88 33 25 34 87 35
REMARK SMILES IDX 26 36 27 37 28 38 81 39 29 40 86 41 80 42 82 43 30 44 85 45
REMARK SMILES IDX 79 46 78 47 31 49 65 50 44 51 64 52 45 53 48 54 63 55 83 56
REMARK SMILES IDX 46 57 47 58 62 60 84 61 49 62 32 63 33 64 42 65 34 66 35 67
REMARK SMILES IDX 41 68 43 69 36 70 37 71 38 72 39 73 40 74 66 75 67 76 76 77
REMARK SMILES IDX 68 78 69 79 75 80 77 81 70 82 71 83 72 84 73 85 74 86 50 87
REMARK SMILES IDX 51 88 60 89 52 90 53 91 59 92 61 93 54 94 55 95 56 96 57 97
REMARK SMILES IDX 58 98
REMARK H PARENT 13 7 8 16 20 29 82 48 48 59
REMARK Flexibility Score: inf
ROOT
ATOM      1  C   UNL A   1      34.727  23.094  23.137  1.00  0.00     0.002 C 
ENDROOT
BRANCH   1   2
ATOM      2  C   UNL A   1      33.335  22.979  22.552  1.00  0.00     0.021 C 
BRANCH   2   3
ATOM      3  C   UNL A   1      32.527  24.241  22.723  1.00  0.00     0.116 C 
BRANCH   3   4
ATOM      4  N   UNL A   1      33.096  25.543  21.882  1.00  0.00    -0.356 N 
ATOM      5  C   UNL A   1      33.625  27.414  22.229  1.00  0.00     0.222 C 
ATOM      6  O   UNL A   1      34.372  28.196  21.581  1.00  0.00    -0.275 OA
ATOM      7  H   UNL A   1      33.203  25.322  20.929  1.00  0.00     0.163 HD
BRANCH   5   8
ATOM      8  C   UNL A   1      32.991  28.411  23.716  1.00  0.00     0.128 C 
BRANCH   8   9
ATOM      9  C   UNL A   1      31.363  28.638  24.115  1.00  0.00     0.049 C 
ATOM     10  C   UNL A   1      30.385  27.435  23.875  1.00  0.00     0.029 C 
ATOM     11  C   UNL A   1      30.042  29.496  23.482  1.00  0.00     0.029 C 
ATOM     12  C   UNL A   1      29.668  28.232  22.741  1.00  0.00     0.005 C 
BRANCH   9  13
ATOM     13  N   UNL A   1      31.416  29.269  25.424  1.00  0.00    -0.346 N 
ATOM     14  C   UNL A   1      31.716  28.407  26.440  1.00  0.00     0.251 C 
ATOM     15  O   UNL A   1      31.935  28.770  27.584  1.00  0.00    -0.269 OA
ATOM     16  H   UNL A   1      31.251  30.229  25.564  1.00  0.00     0.164 HD
BRANCH  14  17
ATOM     17  C   UNL A   1      31.529  26.967  26.050  1.00  0.00     0.039 A 
ATOM     18  C   UNL A   1      32.073  21.956  25.806  1.00  0.00     0.044 C 
ATOM     19  C   UNL A   1      31.893  23.357  26.350  1.00  0.00    -0.051 A 
ATOM     20  C   UNL A   1      33.353  24.418  26.274  1.00  0.00     0.004 A 
ATOM     21  C   UNL A   1      30.228  24.037  26.370  1.00  0.00     0.004 A 
ATOM     22  C   UNL A   1      33.173  26.198  26.128  1.00  0.00     0.014 A 
ATOM     23  C   UNL A   1      29.999  25.846  26.185  1.00  0.00     0.014 A 
ENDBRANCH  14  17
ENDBRANCH   9  13
ENDBRANCH   8   9
ENDBRANCH   5   8
ENDBRANCH   3   4
ENDBRANCH   2   3
ENDBRANCH   1   2
BRANCH   1  24
ATOM     24  C   UNL A   1      35.100  22.019  24.177  1.00  0.00     0.002 C 
BRANCH  24  25
ATOM     25  C   UNL A   1      36.580  21.636  24.326  1.00  0.00     0.021 C 
BRANCH  25  26
ATOM     26  C   UNL A   1      37.419  22.719  24.933  1.00  0.00     0.116 C 
BRANCH  26  27
ATOM     27  N   UNL A   1      38.071  22.261  26.133  1.00  0.00    -0.352 N 
ATOM     28  C   UNL A   1      39.264  22.780  26.602  1.00  0.00     0.251 C 
ATOM     29  H   UNL A   1      37.643  21.539  26.649  1.00  0.00     0.163 HD
ATOM     30  O   UNL A   1      40.229  22.106  26.926  1.00  0.00    -0.269 OA
BRANCH  28  31
ATOM     31  C   UNL A   1      39.241  24.240  26.820  1.00  0.00     0.039 A 
ATOM     32  C   UNL A   1      40.112  25.005  26.035  1.00  0.00     0.014 A 
ATOM     33  C   UNL A   1      38.765  24.692  28.045  1.00  0.00     0.014 A 
ATOM     34  C   UNL A   1      40.684  26.134  26.588  1.00  0.00     0.010 A 
ATOM     35  C   UNL A   1      39.499  25.651  28.674  1.00  0.00     0.010 A 
ATOM     36  C   UNL A   1      40.453  26.360  27.939  1.00  0.00    -0.014 A 
BRANCH  36  37
ATOM     37  C   UNL A   1      40.948  27.485  28.684  1.00  0.00     0.031 A 
ATOM     38  C   UNL A   1      39.987  28.609  28.728  1.00  0.00     0.074 A 
ATOM     39  C   UNL A   1      42.031  27.249  29.458  1.00  0.00     0.049 A 
ATOM     40  N   UNL A   1      40.274  29.799  29.085  1.00  0.00    -0.248 NA
ATOM     41  C   UNL A   1      38.580  28.491  28.308  1.00  0.00     0.031 C 
ATOM     42  C   UNL A   1      42.535  27.976  30.614  1.00  0.00     0.029 A 
ATOM     43  N   UNL A   1      43.039  26.310  29.195  1.00  0.00    -0.354 N 
ATOM     44  C   UNL A   1      39.082  30.464  29.313  1.00  0.00     0.074 A 
ATOM     45  C   UNL A   1      38.071  29.669  28.678  1.00  0.00     0.031 C 
ATOM     46  C   UNL A   1      43.850  27.709  30.756  1.00  0.00     0.029 A 
ATOM     47  C   UNL A   1      44.251  26.889  29.620  1.00  0.00     0.049 A 
ATOM     48  H   UNL A   1      42.922  25.419  28.792  1.00  0.00     0.167 HD
ATOM     49  C   UNL A   1      39.115  31.515  30.178  1.00  0.00     0.037 A 
ATOM     50  C   UNL A   1      45.160  27.274  28.669  1.00  0.00     0.037 A 
ATOM     51  C   UNL A   1      40.504  31.706  30.593  1.00  0.00     0.049 A 
ATOM     52  C   UNL A   1      45.215  28.784  28.571  1.00  0.00     0.074 A 
ATOM     53  C   UNL A   1      41.211  31.216  31.676  1.00  0.00     0.029 A 
ATOM     54  N   UNL A   1      41.436  32.072  29.634  1.00  0.00    -0.354 N 
ATOM     55  N   UNL A   1      44.203  29.569  28.836  1.00  0.00    -0.248 NA
ATOM     56  C   UNL A   1      46.446  29.522  28.299  1.00  0.00     0.031 C 
ATOM     57  C   UNL A   1      42.586  31.202  31.314  1.00  0.00     0.029 A 
ATOM     58  C   UNL A   1      42.702  31.676  30.016  1.00  0.00     0.049 A 
ATOM     59  H   UNL A   1      41.225  32.549  28.799  1.00  0.00     0.167 HD
ATOM     60  C   UNL A   1      44.628  30.869  28.827  1.00  0.00     0.074 A 
ATOM     61  C   UNL A   1      46.034  30.789  28.473  1.00  0.00     0.031 C 
ATOM     62  C   UNL A   1      43.832  31.933  29.143  1.00  0.00     0.037 A 
BRANCH  49  63
ATOM     63  C   UNL A   1      37.961  32.208  30.872  1.00  0.00     0.058 A 
ATOM     64  C   UNL A   1      37.152  33.091  30.118  1.00  0.00     0.135 A 
ATOM     65  C   UNL A   1      37.597  32.101  32.230  1.00  0.00     0.135 A 
ATOM     66  F   UNL A   1      37.347  33.278  28.805  1.00  0.00    -0.206 F 
ATOM     67  C   UNL A   1      36.108  33.833  30.662  1.00  0.00     0.059 A 
ATOM     68  C   UNL A   1      36.551  32.842  32.802  1.00  0.00     0.059 A 
ATOM     69  F   UNL A   1      38.217  31.265  33.067  1.00  0.00    -0.206 F 
ATOM     70  C   UNL A   1      35.814  33.710  32.009  1.00  0.00     0.060 A 
BRANCH  70  71
ATOM     71  S   UNL A   1      34.450  34.680  32.669  1.00  0.00     0.124 S 
ATOM     72  O   UNL A   1      33.509  33.641  33.077  1.00  0.00    -0.237 OA
ATOM     73  O   UNL A   1      35.093  35.415  33.753  1.00  0.00    -0.237 OA
ATOM     74  O   UNL A   1      34.025  35.490  31.531  1.00  0.00    -0.744 OA
ENDBRANCH  70  71
ENDBRANCH  49  63
BRANCH  50  75
ATOM     75  C   UNL A   1      45.217  26.285  27.542  1.00  0.00     0.058 A 
ATOM     76  C   UNL A   1      45.904  25.078  27.802  1.00  0.00     0.135 A 
ATOM     77  C   UNL A   1      44.238  26.257  26.538  1.00  0.00     0.135 A 
ATOM     78  F   UNL A   1      46.882  25.052  28.723  1.00  0.00    -0.206 F 
ATOM     79  C   UNL A   1      45.494  23.863  27.258  1.00  0.00     0.059 A 
ATOM     80  C   UNL A   1      43.825  25.048  25.964  1.00  0.00     0.059 A 
ATOM     81  F   UNL A   1      43.559  27.368  26.222  1.00  0.00    -0.206 F 
ATOM     82  C   UNL A   1      44.405  23.852  26.391  1.00  0.00     0.060 A 
BRANCH  82  83
ATOM     83  S   UNL A   1      43.672  22.255  25.958  1.00  0.00     0.124 S 
ATOM     84  O   UNL A   1      43.129  21.813  27.237  1.00  0.00    -0.237 OA
ATOM     85  O   UNL A   1      42.686  22.633  24.944  1.00  0.00    -0.237 OA
ATOM     86  O   UNL A   1      44.804  21.491  25.452  1.00  0.00    -0.744 OA
ENDBRANCH  82  83
ENDBRANCH  50  75
BRANCH  62  87
ATOM     87  C   UNL A   1      44.110  33.352  28.720  1.00  0.00     0.058 A 
ATOM     88  C   UNL A   1      44.083  33.769  27.380  1.00  0.00     0.135 A 
ATOM     89  C   UNL A   1      44.250  34.384  29.681  1.00  0.00     0.135 A 
ATOM     90  F   UNL A   1      43.798  32.920  26.382  1.00  0.00    -0.206 F 
ATOM     91  C   UNL A   1      44.317  35.088  27.011  1.00  0.00     0.059 A 
ATOM     92  C   UNL A   1      44.387  35.721  29.337  1.00  0.00     0.059 A 
ATOM     93  F   UNL A   1      44.249  34.136  30.999  1.00  0.00    -0.206 F 
ATOM     94  C   UNL A   1      44.477  36.054  27.997  1.00  0.00     0.060 A 
BRANCH  94  95
ATOM     95  S   UNL A   1      44.817  37.746  27.510  1.00  0.00     0.124 S 
ATOM     96  O   UNL A   1      43.576  38.096  26.826  1.00  0.00    -0.237 OA
ATOM     97  O   UNL A   1      45.039  38.404  28.793  1.00  0.00    -0.237 OA
ATOM     98  O   UNL A   1      45.995  37.626  26.659  1.00  0.00    -0.744 OA
ENDBRANCH  94  95
ENDBRANCH  62  87
ENDBRANCH  36  37
ENDBRANCH  28  31
ENDBRANCH  26  27
ENDBRANCH  25  26
ENDBRANCH  24  25
ENDBRANCH   1  24
TORSDOF 19
ENDMDL
MODEL 2
REMARK VINA RESULT:     -13.0      1.911      3.035
REMARK SMILES Cc1ccc(C(=O)NC2(CC(=O)NCCCCCCNC(=O)c3ccc(-c4c5nc(c(-c6c(F)cc(S(=O)(=O)[O-])cc6F)c6ccc([nH]6)c(-c6c(F)cc(S(=O)(=O)[O-])cc6F)c6nc(c(-c7c(F)cc(S(=O)(=O)[O-])cc7F)c7ccc4[nH]7)C=C6)C=C5)cc3)CCC2)cc1
REMARK SMILES IDX 16 1 15 2 14 3 13 4 11 5 12 6 10 8 9 9 89 10 91 11 90 12
REMARK SMILES IDX 8 13 6 14 7 15 5 17 1 18 2 19 3 20 93 21 4 22 92 23 17 24
REMARK SMILES IDX 18 25 19 26 20 27 21 28 22 30 23 31 24 32 88 33 25 34 87 35
REMARK SMILES IDX 26 36 27 37 28 38 81 39 29 40 86 41 80 42 82 43 30 44 85 45
REMARK SMILES IDX 79 46 78 47 31 49 65 50 44 51 64 52 45 53 48 54 63 55 83 56
REMARK SMILES IDX 46 57 47 58 62 60 84 61 49 62 32 63 33 64 42 65 34 66 35 67
REMARK SMILES IDX 41 68 43 69 36 70 37 71 38 72 39 73 40 74 66 75 67 76 76 77
REMARK SMILES IDX 68 78 69 79 75 80 77 81 70 82 71 83 72 84 73 85 74 86 50 87
REMARK SMILES IDX 51 88 60 89 52 90 53 91 59 92 61 93 54 94 55 95 56 96 57 97
REMARK SMILES IDX 58 98
REMARK H PARENT 13 7 8 16 20 29 82 48 48 59
REMARK Flexibility Score: inf
ROOT
ATOM      1  C   UNL A   1      34.760  21.244  25.141  1.00  0.00     0.002 C 
ENDROOT
BRANCH   1   2
ATOM      2  C   UNL A   1      33.640  20.322  25.576  1.00  0.00     0.021 C 
BRANCH   2   3
ATOM      3  C   UNL A   1      32.527  20.243  24.561  1.00  0.00     0.116 C 
BRANCH   3   4
ATOM      4  N   UNL A   1      32.799  21.091  23.171  1.00  0.00    -0.356 N 
ATOM      5  C   UNL A   1      33.016  22.970  22.602  1.00  0.00     0.222 C 
ATOM      6  O   UNL A   1      33.568  23.467  21.583  1.00  0.00    -0.275 OA
ATOM      7  H   UNL A   1      32.878  20.483  22.402  1.00  0.00     0.163 HD
BRANCH   5   8
ATOM      8  C   UNL A   1      32.323  24.438  23.587  1.00  0.00     0.128 C 
BRANCH   8   9
ATOM      9  C   UNL A   1      31.280  24.317  24.913  1.00  0.00     0.049 C 
ATOM     10  C   UNL A   1      31.824  24.795  26.305  1.00  0.00     0.029 C 
ATOM     11  C   UNL A   1      30.650  23.073  25.883  1.00  0.00     0.029 C 
ATOM     12  C   UNL A   1      31.802  23.325  26.830  1.00  0.00     0.005 C 
BRANCH   9  13
ATOM     13  N   UNL A   1      30.025  24.851  24.412  1.00  0.00    -0.346 N 
ATOM     14  C   UNL A   1      29.980  26.215  24.379  1.00  0.00     0.251 C 
ATOM     15  O   UNL A   1      29.066  26.844  23.870  1.00  0.00    -0.269 OA
ATOM     16  H   UNL A   1      29.276  24.281  24.124  1.00  0.00     0.164 HD
BRANCH  14  17
ATOM     17  C   UNL A   1      31.049  26.849  25.224  1.00  0.00     0.039 A 
ATOM     18  C   UNL A   1      34.482  30.117  26.957  1.00  0.00     0.044 C 
ATOM     19  C   UNL A   1      33.185  29.538  26.438  1.00  0.00    -0.051 A 
ATOM     20  C   UNL A   1      33.169  29.106  24.683  1.00  0.00     0.004 A 
ATOM     21  C   UNL A   1      32.097  28.730  27.621  1.00  0.00     0.004 A 
ATOM     22  C   UNL A   1      32.116  27.781  24.085  1.00  0.00     0.014 A 
ATOM     23  C   UNL A   1      31.033  27.348  27.059  1.00  0.00     0.014 A 
ENDBRANCH  14  17
ENDBRANCH   9  13
ENDBRANCH   8   9
ENDBRANCH   5   8
ENDBRANCH   3   4
ENDBRANCH   2   3
ENDBRANCH   1   2
BRANCH   1  24
ATOM     24  C   UNL A   1      36.142  20.579  24.984  1.00  0.00     0.002 C 
BRANCH  24  25
ATOM     25  C   UNL A   1      37.340  21.471  24.628  1.00  0.00     0.021 C 
BRANCH  25  26
ATOM     26  C   UNL A   1      37.569  22.584  25.605  1.00  0.00     0.116 C 
BRANCH  26  27
ATOM     27  N   UNL A   1      38.675  22.290  26.480  1.00  0.00    -0.352 N 
ATOM     28  C   UNL A   1      39.835  23.041  26.526  1.00  0.00     0.251 C 
ATOM     29  H   UNL A   1      38.601  21.512  27.078  1.00  0.00     0.163 HD
ATOM     30  O   UNL A   1      40.962  22.573  26.460  1.00  0.00    -0.269 OA
BRANCH  28  31
ATOM     31  C   UNL A   1      39.615  24.473  26.804  1.00  0.00     0.039 A 
ATOM     32  C   UNL A   1      40.401  25.380  26.082  1.00  0.00     0.014 A 
ATOM     33  C   UNL A   1      39.049  24.802  28.029  1.00  0.00     0.014 A 
ATOM     34  C   UNL A   1      40.803  26.547  26.703  1.00  0.00     0.010 A 
ATOM     35  C   UNL A   1      39.632  25.818  28.723  1.00  0.00     0.010 A 
ATOM     36  C   UNL A   1      40.506  26.678  28.053  1.00  0.00    -0.014 A 
BRANCH  36  37
ATOM     37  C   UNL A   1      40.828  27.822  28.861  1.00  0.00     0.031 A 
ATOM     38  C   UNL A   1      39.806  28.889  28.775  1.00  0.00     0.074 A 
ATOM     39  C   UNL A   1      41.805  27.641  29.777  1.00  0.00     0.049 A 
ATOM     40  N   UNL A   1      39.972  30.089  29.170  1.00  0.00    -0.248 NA
ATOM     41  C   UNL A   1      38.480  28.694  28.164  1.00  0.00     0.031 C 
ATOM     42  C   UNL A   1      42.102  28.383  30.993  1.00  0.00     0.029 A 
ATOM     43  N   UNL A   1      42.893  26.763  29.654  1.00  0.00    -0.354 N 
ATOM     44  C   UNL A   1      38.723  30.683  29.233  1.00  0.00     0.074 A 
ATOM     45  C   UNL A   1      37.857  29.838  28.462  1.00  0.00     0.031 C 
ATOM     46  C   UNL A   1      43.398  28.191  31.315  1.00  0.00     0.029 A 
ATOM     47  C   UNL A   1      43.999  27.407  30.243  1.00  0.00     0.049 A 
ATOM     48  H   UNL A   1      42.884  25.871  29.237  1.00  0.00     0.167 HD
ATOM     49  C   UNL A   1      38.575  31.726  30.097  1.00  0.00     0.037 A 
ATOM     50  C   UNL A   1      45.007  27.852  29.429  1.00  0.00     0.037 A 
ATOM     51  C   UNL A   1      39.880  31.991  30.699  1.00  0.00     0.049 A 
ATOM     52  C   UNL A   1      44.987  29.364  29.342  1.00  0.00     0.074 A 
ATOM     53  C   UNL A   1      40.459  31.531  31.869  1.00  0.00     0.029 A 
ATOM     54  N   UNL A   1      40.913  32.420  29.879  1.00  0.00    -0.354 N 
ATOM     55  N   UNL A   1      43.904  30.087  29.466  1.00  0.00    -0.248 NA
ATOM     56  C   UNL A   1      46.198  30.174  29.245  1.00  0.00     0.031 C 
ATOM     57  C   UNL A   1      41.869  31.600  31.701  1.00  0.00     0.029 A 
ATOM     58  C   UNL A   1      42.135  32.093  30.432  1.00  0.00     0.049 A 
ATOM     59  H   UNL A   1      40.791  32.892  29.024  1.00  0.00     0.167 HD
ATOM     60  C   UNL A   1      44.250  31.409  29.519  1.00  0.00     0.074 A 
ATOM     61  C   UNL A   1      45.694  31.414  29.362  1.00  0.00     0.031 C 
ATOM     62  C   UNL A   1      43.357  32.423  29.723  1.00  0.00     0.037 A 
BRANCH  49  63
ATOM     63  C   UNL A   1      37.299  32.344  30.625  1.00  0.00     0.058 A 
ATOM     64  C   UNL A   1      37.281  33.735  30.887  1.00  0.00     0.135 A 
ATOM     65  C   UNL A   1      36.093  31.679  30.928  1.00  0.00     0.135 A 
ATOM     66  F   UNL A   1      38.337  34.516  30.621  1.00  0.00    -0.206 F 
ATOM     67  C   UNL A   1      36.189  34.401  31.436  1.00  0.00     0.059 A 
ATOM     68  C   UNL A   1      34.981  32.328  31.486  1.00  0.00     0.059 A 
ATOM     69  F   UNL A   1      35.920  30.377  30.683  1.00  0.00    -0.206 F 
ATOM     70  C   UNL A   1      35.040  33.691  31.740  1.00  0.00     0.060 A 
BRANCH  70  71
ATOM     71  S   UNL A   1      33.649  34.593  32.440  1.00  0.00     0.124 S 
ATOM     72  O   UNL A   1      32.927  35.012  31.242  1.00  0.00    -0.237 OA
ATOM     73  O   UNL A   1      32.996  33.569  33.249  1.00  0.00    -0.237 OA
ATOM     74  O   UNL A   1      34.284  35.671  33.192  1.00  0.00    -0.744 OA
ENDBRANCH  70  71
ENDBRANCH  49  63
BRANCH  50  75
ATOM     75  C   UNL A   1      45.276  26.880  28.318  1.00  0.00     0.058 A 
ATOM     76  C   UNL A   1      44.826  27.258  27.032  1.00  0.00     0.135 A 
ATOM     77  C   UNL A   1      46.344  25.973  28.377  1.00  0.00     0.135 A 
ATOM     78  F   UNL A   1      43.779  28.092  26.910  1.00  0.00    -0.206 F 
ATOM     79  C   UNL A   1      45.532  26.932  25.877  1.00  0.00     0.059 A 
ATOM     80  C   UNL A   1      47.054  25.616  27.224  1.00  0.00     0.059 A 
ATOM     81  F   UNL A   1      46.812  25.553  29.560  1.00  0.00    -0.206 F 
ATOM     82  C   UNL A   1      46.688  26.165  25.994  1.00  0.00     0.060 A 
BRANCH  82  83
ATOM     83  S   UNL A   1      47.775  26.029  24.553  1.00  0.00     0.124 S 
ATOM     84  O   UNL A   1      47.388  27.197  23.770  1.00  0.00    -0.237 OA
ATOM     85  O   UNL A   1      49.104  26.083  25.163  1.00  0.00    -0.237 OA
ATOM     86  O   UNL A   1      47.418  24.738  23.982  1.00  0.00    -0.744 OA
ENDBRANCH  82  83
ENDBRANCH  50  75
BRANCH  62  87
ATOM     87  C   UNL A   1      43.609  33.859  29.346  1.00  0.00     0.058 A 
ATOM     88  C   UNL A   1      43.722  34.291  28.015  1.00  0.00     0.135 A 
ATOM     89  C   UNL A   1      43.576  34.886  30.323  1.00  0.00     0.135 A 
ATOM     90  F   UNL A   1      43.607  33.441  26.985  1.00  0.00    -0.206 F 
ATOM     91  C   UNL A   1      43.928  35.625  27.685  1.00  0.00     0.059 A 
ATOM     92  C   UNL A   1      43.681  36.232  30.006  1.00  0.00     0.059 A 
ATOM     93  F   UNL A   1      43.427  34.622  31.630  1.00  0.00    -0.206 F 
ATOM     94  C   UNL A   1      43.915  36.585  28.689  1.00  0.00     0.060 A 
BRANCH  94  95
ATOM     95  S   UNL A   1      44.221  38.299  28.257  1.00  0.00     0.124 S 
ATOM     96  O   UNL A   1      45.609  38.452  28.681  1.00  0.00    -0.237 OA
ATOM     97  O   UNL A   1      43.994  38.305  26.816  1.00  0.00    -0.237 OA
ATOM     98  O   UNL A   1      43.235  39.031  29.046  1.00  0.00    -0.744 OA
ENDBRANCH  94  95
ENDBRANCH  62  87
ENDBRANCH  36  37
ENDBRANCH  28  31
ENDBRANCH  26  27
ENDBRANCH  25  26
ENDBRANCH  24  25
ENDBRANCH   1  24
TORSDOF 19
ENDMDL
MODEL 3
REMARK VINA RESULT:     -12.7      1.727      3.105
REMARK SMILES Cc1ccc(C(=O)NC2(CC(=O)NCCCCCCNC(=O)c3ccc(-c4c5nc(c(-c6c(F)cc(S(=O)(=O)[O-])cc6F)c6ccc([nH]6)c(-c6c(F)cc(S(=O)(=O)[O-])cc6F)c6nc(c(-c7c(F)cc(S(=O)(=O)[O-])cc7F)c7ccc4[nH]7)C=C6)C=C5)cc3)CCC2)cc1
REMARK SMILES IDX 16 1 15 2 14 3 13 4 11 5 12 6 10 8 9 9 89 10 91 11 90 12
REMARK SMILES IDX 8 13 6 14 7 15 5 17 1 18 2 19 3 20 93 21 4 22 92 23 17 24
REMARK SMILES IDX 18 25 19 26 20 27 21 28 22 30 23 31 24 32 88 33 25 34 87 35
REMARK SMILES IDX 26 36 27 37 28 38 81 39 29 40 86 41 80 42 82 43 30 44 85 45
REMARK SMILES IDX 79 46 78 47 31 49 65 50 44 51 64 52 45 53 48 54 63 55 83 56
REMARK SMILES IDX 46 57 47 58 62 60 84 61 49 62 32 63 33 64 42 65 34 66 35 67
REMARK SMILES IDX 41 68 43 69 36 70 37 71 38 72 39 73 40 74 66 75 67 76 76 77
REMARK SMILES IDX 68 78 69 79 75 80 77 81 70 82 71 83 72 84 73 85 74 86 50 87
REMARK SMILES IDX 51 88 60 89 52 90 53 91 59 92 61 93 54 94 55 95 56 96 57 97
REMARK SMILES IDX 58 98
REMARK H PARENT 13 7 8 16 20 29 82 48 48 59
REMARK Flexibility Score: inf
ROOT
ATOM      1  C   UNL A   1      34.684  21.558  25.392  1.00  0.00     0.002 C 
ENDROOT
BRANCH   1   2
ATOM      2  C   UNL A   1      33.485  20.791  25.911  1.00  0.00     0.021 C 
BRANCH   2   3
ATOM      3  C   UNL A   1      32.288  20.899  25.001  1.00  0.00     0.116 C 
BRANCH   3   4
ATOM      4  N   UNL A   1      32.633  21.401  23.466  1.00  0.00    -0.356 N 
ATOM      5  C   UNL A   1      32.739  23.091  22.450  1.00  0.00     0.222 C 
ATOM      6  O   UNL A   1      33.351  23.379  21.386  1.00  0.00    -0.275 OA
ATOM      7  H   UNL A   1      32.849  20.634  22.889  1.00  0.00     0.163 HD
BRANCH   5   8
ATOM      8  C   UNL A   1      31.812  24.667  22.961  1.00  0.00     0.128 C 
BRANCH   8   9
ATOM      9  C   UNL A   1      32.469  25.935  23.868  1.00  0.00     0.049 C 
ATOM     10  C   UNL A   1      32.345  27.384  23.280  1.00  0.00     0.029 C 
ATOM     11  C   UNL A   1      34.021  26.507  24.252  1.00  0.00     0.029 C 
ATOM     12  C   UNL A   1      33.891  27.441  23.069  1.00  0.00     0.005 C 
BRANCH   9  13
ATOM     13  N   UNL A   1      32.003  25.667  25.219  1.00  0.00    -0.346 N 
ATOM     14  C   UNL A   1      30.827  26.287  25.529  1.00  0.00     0.251 C 
ATOM     15  O   UNL A   1      30.212  26.080  26.563  1.00  0.00    -0.269 OA
ATOM     16  H   UNL A   1      32.490  25.092  25.851  1.00  0.00     0.164 HD
BRANCH  14  17
ATOM     17  C   UNL A   1      30.492  27.402  24.578  1.00  0.00     0.039 A 
ATOM     18  C   UNL A   1      27.892  30.714  21.796  1.00  0.00     0.044 C 
ATOM     19  C   UNL A   1      28.379  29.895  22.971  1.00  0.00    -0.051 A 
ATOM     20  C   UNL A   1      27.905  28.151  22.959  1.00  0.00     0.004 A 
ATOM     21  C   UNL A   1      29.845  30.471  23.841  1.00  0.00     0.004 A 
ATOM     22  C   UNL A   1      28.946  26.923  23.752  1.00  0.00     0.014 A 
ATOM     23  C   UNL A   1      30.955  29.246  24.632  1.00  0.00     0.014 A 
ENDBRANCH  14  17
ENDBRANCH   9  13
ENDBRANCH   8   9
ENDBRANCH   5   8
ENDBRANCH   3   4
ENDBRANCH   2   3
ENDBRANCH   1   2
BRANCH   1  24
ATOM     24  C   UNL A   1      35.958  20.721  25.164  1.00  0.00     0.002 C 
BRANCH  24  25
ATOM     25  C   UNL A   1      37.209  21.434  24.630  1.00  0.00     0.021 C 
BRANCH  25  26
ATOM     26  C   UNL A   1      37.609  22.627  25.443  1.00  0.00     0.116 C 
BRANCH  26  27
ATOM     27  N   UNL A   1      38.597  22.277  26.432  1.00  0.00    -0.352 N 
ATOM     28  C   UNL A   1      39.787  22.961  26.601  1.00  0.00     0.251 C 
ATOM     29  H   UNL A   1      38.414  21.509  27.020  1.00  0.00     0.163 HD
ATOM     30  O   UNL A   1      40.885  22.430  26.657  1.00  0.00    -0.269 OA
BRANCH  28  31
ATOM     31  C   UNL A   1      39.621  24.406  26.852  1.00  0.00     0.039 A 
ATOM     32  C   UNL A   1      40.438  25.269  26.113  1.00  0.00     0.014 A 
ATOM     33  C   UNL A   1      39.069  24.779  28.072  1.00  0.00     0.014 A 
ATOM     34  C   UNL A   1      40.885  26.432  26.710  1.00  0.00     0.010 A 
ATOM     35  C   UNL A   1      39.692  25.785  28.746  1.00  0.00     0.010 A 
ATOM     36  C   UNL A   1      40.596  26.599  28.058  1.00  0.00    -0.014 A 
BRANCH  36  37
ATOM     37  C   UNL A   1      40.962  27.745  28.844  1.00  0.00     0.031 A 
ATOM     38  C   UNL A   1      39.934  28.809  28.817  1.00  0.00     0.074 A 
ATOM     39  C   UNL A   1      41.992  27.568  29.701  1.00  0.00     0.049 A 
ATOM     40  N   UNL A   1      40.119  30.011  29.200  1.00  0.00    -0.248 NA
ATOM     41  C   UNL A   1      38.574  28.610  28.286  1.00  0.00     0.031 C 
ATOM     42  C   UNL A   1      42.359  28.313  30.897  1.00  0.00     0.029 A 
ATOM     43  N   UNL A   1      43.073  26.693  29.515  1.00  0.00    -0.354 N 
ATOM     44  C   UNL A   1      38.875  30.602  29.335  1.00  0.00     0.074 A 
ATOM     45  C   UNL A   1      37.968  29.753  28.619  1.00  0.00     0.031 C 
ATOM     46  C   UNL A   1      43.672  28.124  31.142  1.00  0.00     0.029 A 
ATOM     47  C   UNL A   1      44.210  27.340  30.037  1.00  0.00     0.049 A 
ATOM     48  H   UNL A   1      43.042  25.800  29.101  1.00  0.00     0.167 HD
ATOM     49  C   UNL A   1      38.776  31.645  30.205  1.00  0.00     0.037 A 
ATOM     50  C   UNL A   1      45.167  27.787  29.164  1.00  0.00     0.037 A 
ATOM     51  C   UNL A   1      40.114  31.915  30.729  1.00  0.00     0.049 A 
ATOM     52  C   UNL A   1      45.138  29.298  29.076  1.00  0.00     0.074 A 
ATOM     53  C   UNL A   1      40.761  31.458  31.863  1.00  0.00     0.029 A 
ATOM     54  N   UNL A   1      41.095  32.345  29.849  1.00  0.00    -0.354 N 
ATOM     55  N   UNL A   1      44.063  30.019  29.263  1.00  0.00    -0.248 NA
ATOM     56  C   UNL A   1      46.339  30.112  28.906  1.00  0.00     0.031 C 
ATOM     57  C   UNL A   1      42.159  31.531  31.612  1.00  0.00     0.029 A 
ATOM     58  C   UNL A   1      42.348  32.022  30.329  1.00  0.00     0.049 A 
ATOM     59  H   UNL A   1      40.922  32.816  29.001  1.00  0.00     0.167 HD
ATOM     60  C   UNL A   1      44.408  31.342  29.293  1.00  0.00     0.074 A 
ATOM     61  C   UNL A   1      45.839  31.350  29.051  1.00  0.00     0.031 C 
ATOM     62  C   UNL A   1      43.526  32.354  29.549  1.00  0.00     0.037 A 
BRANCH  49  63
ATOM     63  C   UNL A   1      37.531  32.261  30.807  1.00  0.00     0.058 A 
ATOM     64  C   UNL A   1      36.888  33.308  30.104  1.00  0.00     0.135 A 
ATOM     65  C   UNL A   1      36.929  31.931  32.038  1.00  0.00     0.135 A 
ATOM     66  F   UNL A   1      37.317  33.718  28.902  1.00  0.00    -0.206 F 
ATOM     67  C   UNL A   1      35.779  33.993  30.590  1.00  0.00     0.059 A 
ATOM     68  C   UNL A   1      35.813  32.610  32.550  1.00  0.00     0.059 A 
ATOM     69  F   UNL A   1      37.372  30.925  32.798  1.00  0.00    -0.206 F 
ATOM     70  C   UNL A   1      35.247  33.645  31.819  1.00  0.00     0.060 A 
BRANCH  70  71
ATOM     71  S   UNL A   1      33.807  34.551  32.405  1.00  0.00     0.124 S 
ATOM     72  O   UNL A   1      34.421  35.668  33.117  1.00  0.00    -0.237 OA
ATOM     73  O   UNL A   1      33.129  34.888  31.158  1.00  0.00    -0.237 OA
ATOM     74  O   UNL A   1      33.114  33.582  33.250  1.00  0.00    -0.744 OA
ENDBRANCH  70  71
ENDBRANCH  49  63
BRANCH  50  75
ATOM     75  C   UNL A   1      45.373  26.814  28.040  1.00  0.00     0.058 A 
ATOM     76  C   UNL A   1      44.998  27.256  26.752  1.00  0.00     0.135 A 
ATOM     77  C   UNL A   1      46.346  25.806  28.109  1.00  0.00     0.135 A 
ATOM     78  F   UNL A   1      44.041  28.191  26.619  1.00  0.00    -0.206 F 
ATOM     79  C   UNL A   1      45.702  26.885  25.609  1.00  0.00     0.059 A 
ATOM     80  C   UNL A   1      47.051  25.403  26.968  1.00  0.00     0.059 A 
ATOM     81  F   UNL A   1      46.738  25.321  29.295  1.00  0.00    -0.206 F 
ATOM     82  C   UNL A   1      46.775  26.007  25.740  1.00  0.00     0.060 A 
BRANCH  82  83
ATOM     83  S   UNL A   1      47.883  25.793  24.327  1.00  0.00     0.124 S 
ATOM     84  O   UNL A   1      49.196  25.831  24.961  1.00  0.00    -0.237 OA
ATOM     85  O   UNL A   1      47.467  24.492  23.801  1.00  0.00    -0.237 OA
ATOM     86  O   UNL A   1      47.561  26.927  23.471  1.00  0.00    -0.744 OA
ENDBRANCH  82  83
ENDBRANCH  50  75
BRANCH  62  87
ATOM     87  C   UNL A   1      43.751  33.790  29.155  1.00  0.00     0.058 A 
ATOM     88  C   UNL A   1      43.952  34.817  30.092  1.00  0.00     0.135 A 
ATOM     89  C   UNL A   1      43.939  34.153  27.798  1.00  0.00     0.135 A 
ATOM     90  F   UNL A   1      43.963  34.577  31.411  1.00  0.00    -0.206 F 
ATOM     91  C   UNL A   1      44.185  36.132  29.709  1.00  0.00     0.059 A 
ATOM     92  C   UNL A   1      44.268  35.441  27.400  1.00  0.00     0.059 A 
ATOM     93  F   UNL A   1      43.822  33.265  26.799  1.00  0.00    -0.206 F 
ATOM     94  C   UNL A   1      44.331  36.434  28.361  1.00  0.00     0.060 A 
BRANCH  94  95
ATOM     95  S   UNL A   1      44.592  38.141  27.876  1.00  0.00     0.124 S 
ATOM     96  O   UNL A   1      43.383  38.399  27.099  1.00  0.00    -0.237 OA
ATOM     97  O   UNL A   1      44.676  38.824  29.162  1.00  0.00    -0.237 OA
ATOM     98  O   UNL A   1      45.835  38.093  27.114  1.00  0.00    -0.744 OA
ENDBRANCH  94  95
ENDBRANCH  62  87
ENDBRANCH  36  37
ENDBRANCH  28  31
ENDBRANCH  26  27
ENDBRANCH  25  26
ENDBRANCH  24  25
ENDBRANCH   1  24
TORSDOF 19
ENDMDL
