MODEL 1
REMARK VINA RESULT:     -10.7      0.000      0.000
REMARK SMILES CCC[C@@H](C)[C@H](NS(=O)(=O)c1ccc(C)c(C)c1)C(=O)NCCCCCCNC(=O)c1ccc(-c2c3nc(c(-c4c(F)cc(S(=O)(=O)[O-])cc4F)c4ccc([nH]4)c(-c4c(F)cc(S(=O)(=O)[O-])cc4F)c4nc(c(-c5c(F)cc(S(=O)(=O)[O-])cc5F)c5ccc2[nH]5)C=C4)C=C3)cc1
REMARK SMILES IDX 24 1 23 2 22 3 21 4 19 5 20 6 6 8 4 9 5 10 3 11 2 12 1 13
REMARK SMILES IDX 7 14 8 16 9 17 10 18 11 19 12 20 18 21 13 22 16 23 14 24
REMARK SMILES IDX 17 25 15 26 25 27 26 28 27 29 28 30 29 31 30 33 31 34 32 35
REMARK SMILES IDX 96 36 33 37 95 38 34 39 35 40 36 41 89 42 37 43 94 44 88 45
REMARK SMILES IDX 90 46 38 47 93 48 87 49 86 50 39 52 73 53 52 54 72 55 53 56
REMARK SMILES IDX 56 57 71 58 91 59 54 60 55 61 70 63 92 64 57 65 40 66 41 67
REMARK SMILES IDX 50 68 42 69 43 70 49 71 51 72 44 73 45 74 46 75 47 76 48 77
REMARK SMILES IDX 74 78 75 79 84 80 76 81 77 82 83 83 85 84 78 85 79 86 80 87
REMARK SMILES IDX 81 88 82 89 58 90 59 91 68 92 60 93 61 94 67 95 69 96 62 97
REMARK SMILES IDX 63 98 64 99 65 100 66 101
REMARK H PARENT 21 7 7 15 28 32 90 51 56 62
REMARK Flexibility Score: inf
ROOT
ATOM      1  C   UNL A   1      33.604  28.785  27.009  1.00  0.00     0.002 C 
ENDROOT
BRANCH   1   2
ATOM      2  C   UNL A   1      32.709  29.727  26.204  1.00  0.00     0.021 C 
BRANCH   2   3
ATOM      3  C   UNL A   1      32.860  29.584  24.701  1.00  0.00     0.116 C 
BRANCH   3   4
ATOM      4  N   UNL A   1      31.602  29.404  23.995  1.00  0.00    -0.355 N 
ATOM      5  C   UNL A   1      30.848  28.269  23.851  1.00  0.00     0.238 C 
ATOM      6  O   UNL A   1      29.679  28.377  23.472  1.00  0.00    -0.273 OA
ATOM      7  H   UNL A   1      31.242  30.210  23.560  1.00  0.00     0.163 HD
BRANCH   5   8
ATOM      8  C   UNL A   1      31.441  26.905  24.203  1.00  0.00     0.161 C 
BRANCH   8   9
ATOM      9  C   UNL A   1      32.357  26.421  23.018  1.00  0.00     0.013 C 
ATOM     10  C   UNL A   1      31.638  25.898  21.755  1.00  0.00     0.010 C 
BRANCH   9  11
ATOM     11  C   UNL A   1      33.507  25.474  23.418  1.00  0.00     0.005 C 
BRANCH  11  12
ATOM     12  C   UNL A   1      34.133  25.750  24.800  1.00  0.00    -0.003 C 
ATOM     13  C   UNL A   1      35.111  24.688  25.286  1.00  0.00     0.004 C 
ENDBRANCH  11  12
ENDBRANCH   9  11
ENDBRANCH   8   9
BRANCH   8  14
ATOM     14  N   UNL A   1      30.371  25.987  24.682  1.00  0.00    -0.198 NA
ATOM     15  H   UNL A   1      30.281  25.252  23.981  1.00  0.00     0.142 HD
BRANCH  14  16
ATOM     16  S   UNL A   1      30.510  25.207  26.190  1.00  0.00     0.241 S 
ATOM     17  O   UNL A   1      31.366  26.069  26.971  1.00  0.00    -0.207 OA
ATOM     18  O   UNL A   1      29.173  24.880  26.647  1.00  0.00    -0.207 OA
BRANCH  16  19
ATOM     19  C   UNL A   1      31.393  23.677  25.935  1.00  0.00     0.082 A 
ATOM     20  C   UNL A   1      32.147  23.094  26.954  1.00  0.00     0.022 A 
ATOM     21  C   UNL A   1      31.317  23.045  24.694  1.00  0.00     0.025 A 
ATOM     22  C   UNL A   1      32.936  21.967  26.672  1.00  0.00     0.005 A 
ATOM     23  C   UNL A   1      32.171  21.974  24.373  1.00  0.00    -0.047 A 
ATOM     24  C   UNL A   1      32.995  21.429  25.374  1.00  0.00    -0.048 A 
ATOM     25  C   UNL A   1      32.283  21.588  22.922  1.00  0.00     0.044 C 
ATOM     26  C   UNL A   1      33.985  20.336  25.071  1.00  0.00     0.044 C 
ENDBRANCH  16  19
ENDBRANCH  14  16
ENDBRANCH   8  14
ENDBRANCH   5   8
ENDBRANCH   3   4
ENDBRANCH   2   3
ENDBRANCH   1   2
BRANCH   1  27
ATOM     27  C   UNL A   1      34.920  29.408  27.481  1.00  0.00     0.002 C 
BRANCH  27  28
ATOM     28  C   UNL A   1      34.864  30.915  27.727  1.00  0.00     0.021 C 
BRANCH  28  29
ATOM     29  C   UNL A   1      35.938  31.436  28.670  1.00  0.00     0.116 C 
BRANCH  29  30
ATOM     30  N   UNL A   1      35.795  30.893  30.009  1.00  0.00    -0.352 N 
ATOM     31  C   UNL A   1      36.710  30.165  30.730  1.00  0.00     0.251 C 
ATOM     32  H   UNL A   1      34.937  31.069  30.457  1.00  0.00     0.163 HD
ATOM     33  O   UNL A   1      36.385  29.615  31.775  1.00  0.00    -0.269 OA
BRANCH  31  34
ATOM     34  C   UNL A   1      38.082  30.037  30.202  1.00  0.00     0.039 A 
ATOM     35  C   UNL A   1      39.145  29.904  31.096  1.00  0.00     0.014 A 
ATOM     36  C   UNL A   1      38.301  29.988  28.822  1.00  0.00     0.014 A 
ATOM     37  C   UNL A   1      40.428  29.661  30.603  1.00  0.00     0.010 A 
ATOM     38  C   UNL A   1      39.563  29.668  28.338  1.00  0.00     0.010 A 
ATOM     39  C   UNL A   1      40.641  29.508  29.224  1.00  0.00    -0.014 A 
BRANCH  39  40
ATOM     40  C   UNL A   1      41.983  29.197  28.671  1.00  0.00     0.031 A 
ATOM     41  C   UNL A   1      42.291  27.794  28.222  1.00  0.00     0.074 A 
ATOM     42  C   UNL A   1      42.940  30.145  28.649  1.00  0.00     0.049 A 
ATOM     43  N   UNL A   1      43.430  27.283  27.832  1.00  0.00    -0.248 NA
ATOM     44  C   UNL A   1      41.177  26.833  28.241  1.00  0.00     0.031 C 
ATOM     45  C   UNL A   1      42.770  31.532  29.088  1.00  0.00     0.029 A 
ATOM     46  N   UNL A   1      44.254  30.083  28.257  1.00  0.00    -0.354 N 
ATOM     47  C   UNL A   1      43.173  25.941  27.578  1.00  0.00     0.074 A 
ATOM     48  C   UNL A   1      41.786  25.704  27.912  1.00  0.00     0.031 C 
ATOM     49  C   UNL A   1      43.929  32.190  28.926  1.00  0.00     0.029 A 
ATOM     50  C   UNL A   1      44.936  31.265  28.417  1.00  0.00     0.049 A 
ATOM     51  H   UNL A   1      44.668  29.267  27.894  1.00  0.00     0.167 HD
ATOM     52  C   UNL A   1      44.011  24.997  27.089  1.00  0.00     0.037 A 
ATOM     53  C   UNL A   1      46.232  31.564  28.197  1.00  0.00     0.037 A 
ATOM     54  C   UNL A   1      45.384  25.249  26.737  1.00  0.00     0.049 A 
ATOM     55  C   UNL A   1      47.153  30.492  27.678  1.00  0.00     0.074 A 
ATOM     56  C   UNL A   1      46.305  24.373  26.193  1.00  0.00     0.029 A 
ATOM     57  N   UNL A   1      46.032  26.466  26.896  1.00  0.00    -0.354 N 
ATOM     58  N   UNL A   1      46.882  29.239  27.397  1.00  0.00    -0.248 NA
ATOM     59  C   UNL A   1      48.553  30.871  27.442  1.00  0.00     0.031 C 
ATOM     60  C   UNL A   1      47.524  25.047  26.065  1.00  0.00     0.029 A 
ATOM     61  C   UNL A   1      47.347  26.359  26.477  1.00  0.00     0.049 A 
ATOM     62  H   UNL A   1      45.618  27.284  27.254  1.00  0.00     0.167 HD
ATOM     63  C   UNL A   1      48.067  28.691  26.916  1.00  0.00     0.074 A 
ATOM     64  C   UNL A   1      49.056  29.749  26.942  1.00  0.00     0.031 C 
ATOM     65  C   UNL A   1      48.313  27.429  26.488  1.00  0.00     0.037 A 
BRANCH  52  66
ATOM     66  C   UNL A   1      43.467  23.608  26.903  1.00  0.00     0.058 A 
ATOM     67  C   UNL A   1      43.120  23.116  25.633  1.00  0.00     0.135 A 
ATOM     68  C   UNL A   1      43.322  22.743  28.000  1.00  0.00     0.135 A 
ATOM     69  F   UNL A   1      43.223  23.904  24.551  1.00  0.00    -0.206 F 
ATOM     70  C   UNL A   1      42.621  21.830  25.463  1.00  0.00     0.059 A 
ATOM     71  C   UNL A   1      42.855  21.441  27.848  1.00  0.00     0.059 A 
ATOM     72  F   UNL A   1      43.638  23.161  29.236  1.00  0.00    -0.206 F 
ATOM     73  C   UNL A   1      42.492  20.998  26.577  1.00  0.00     0.060 A 
BRANCH  73  74
ATOM     74  S   UNL A   1      41.849  19.330  26.335  1.00  0.00     0.124 S 
ATOM     75  O   UNL A   1      42.314  18.661  27.546  1.00  0.00    -0.237 OA
ATOM     76  O   UNL A   1      40.410  19.561  26.254  1.00  0.00    -0.237 OA
ATOM     77  O   UNL A   1      42.484  18.896  25.096  1.00  0.00    -0.744 OA
ENDBRANCH  73  74
ENDBRANCH  52  66
BRANCH  53  78
ATOM     78  C   UNL A   1      46.735  32.942  28.454  1.00  0.00     0.058 A 
ATOM     79  C   UNL A   1      47.218  33.309  29.718  1.00  0.00     0.135 A 
ATOM     80  C   UNL A   1      46.746  33.916  27.444  1.00  0.00     0.135 A 
ATOM     81  F   UNL A   1      47.223  32.416  30.719  1.00  0.00    -0.206 F 
ATOM     82  C   UNL A   1      47.675  34.596  29.980  1.00  0.00     0.059 A 
ATOM     83  C   UNL A   1      47.224  35.203  27.673  1.00  0.00     0.059 A 
ATOM     84  F   UNL A   1      46.311  33.613  26.211  1.00  0.00    -0.206 F 
ATOM     85  C   UNL A   1      47.676  35.537  28.949  1.00  0.00     0.060 A 
BRANCH  85  86
ATOM     86  S   UNL A   1      48.306  37.195  29.290  1.00  0.00     0.124 S 
ATOM     87  O   UNL A   1      48.121  37.288  30.733  1.00  0.00    -0.237 OA
ATOM     88  O   UNL A   1      49.686  37.097  28.826  1.00  0.00    -0.237 OA
ATOM     89  O   UNL A   1      47.442  38.053  28.485  1.00  0.00    -0.744 OA
ENDBRANCH  85  86
ENDBRANCH  53  78
BRANCH  65  90
ATOM     90  C   UNL A   1      49.686  27.122  25.958  1.00  0.00     0.058 A 
ATOM     91  C   UNL A   1      50.014  27.297  24.605  1.00  0.00     0.135 A 
ATOM     92  C   UNL A   1      50.709  26.733  26.838  1.00  0.00     0.135 A 
ATOM     93  F   UNL A   1      49.071  27.660  23.722  1.00  0.00    -0.206 F 
ATOM     94  C   UNL A   1      51.310  27.093  24.142  1.00  0.00     0.059 A 
ATOM     95  C   UNL A   1      52.018  26.550  26.402  1.00  0.00     0.059 A 
ATOM     96  F   UNL A   1      50.449  26.559  28.143  1.00  0.00    -0.206 F 
ATOM     97  C   UNL A   1      52.307  26.728  25.050  1.00  0.00     0.060 A 
BRANCH  97  98
ATOM     98  S   UNL A   1      53.996  26.534  24.446  1.00  0.00     0.124 S 
ATOM     99  O   UNL A   1      54.231  25.113  24.678  1.00  0.00    -0.237 OA
ATOM    100  O   UNL A   1      53.876  26.937  23.048  1.00  0.00    -0.237 OA
ATOM    101  O   UNL A   1      54.767  27.444  25.289  1.00  0.00    -0.744 OA
ENDBRANCH  97  98
ENDBRANCH  65  90
ENDBRANCH  39  40
ENDBRANCH  31  34
ENDBRANCH  29  30
ENDBRANCH  28  29
ENDBRANCH  27  28
ENDBRANCH   1  27
TORSDOF 22
ENDMDL
MODEL 2
REMARK VINA RESULT:     -10.6      1.614      8.447
REMARK SMILES CCC[C@@H](C)[C@H](NS(=O)(=O)c1ccc(C)c(C)c1)C(=O)NCCCCCCNC(=O)c1ccc(-c2c3nc(c(-c4c(F)cc(S(=O)(=O)[O-])cc4F)c4ccc([nH]4)c(-c4c(F)cc(S(=O)(=O)[O-])cc4F)c4nc(c(-c5c(F)cc(S(=O)(=O)[O-])cc5F)c5ccc2[nH]5)C=C4)C=C3)cc1
REMARK SMILES IDX 24 1 23 2 22 3 21 4 19 5 20 6 6 8 4 9 5 10 3 11 2 12 1 13
REMARK SMILES IDX 7 14 8 16 9 17 10 18 11 19 12 20 18 21 13 22 16 23 14 24
REMARK SMILES IDX 17 25 15 26 25 27 26 28 27 29 28 30 29 31 30 33 31 34 32 35
REMARK SMILES IDX 96 36 33 37 95 38 34 39 35 40 36 41 89 42 37 43 94 44 88 45
REMARK SMILES IDX 90 46 38 47 93 48 87 49 86 50 39 52 73 53 52 54 72 55 53 56
REMARK SMILES IDX 56 57 71 58 91 59 54 60 55 61 70 63 92 64 57 65 40 66 41 67
REMARK SMILES IDX 50 68 42 69 43 70 49 71 51 72 44 73 45 74 46 75 47 76 48 77
REMARK SMILES IDX 74 78 75 79 84 80 76 81 77 82 83 83 85 84 78 85 79 86 80 87
REMARK SMILES IDX 81 88 82 89 58 90 59 91 68 92 60 93 61 94 67 95 69 96 62 97
REMARK SMILES IDX 63 98 64 99 65 100 66 101
REMARK H PARENT 21 7 7 15 28 32 90 51 56 62
REMARK Flexibility Score: inf
ROOT
ATOM      1  C   UNL A   1      31.832  29.982  26.907  1.00  0.00     0.002 C 
ENDROOT
BRANCH   1   2
ATOM      2  C   UNL A   1      31.774  28.582  27.518  1.00  0.00     0.021 C 
BRANCH   2   3
ATOM      3  C   UNL A   1      31.775  27.463  26.493  1.00  0.00     0.116 C 
BRANCH   3   4
ATOM      4  N   UNL A   1      31.258  26.201  26.997  1.00  0.00    -0.355 N 
ATOM      5  C   UNL A   1      31.396  24.942  26.476  1.00  0.00     0.238 C 
ATOM      6  O   UNL A   1      31.139  23.971  27.192  1.00  0.00    -0.273 OA
ATOM      7  H   UNL A   1      30.735  26.261  27.829  1.00  0.00     0.163 HD
BRANCH   5   8
ATOM      8  C   UNL A   1      31.906  24.756  25.046  1.00  0.00     0.161 C 
BRANCH   8   9
ATOM      9  C   UNL A   1      30.683  24.779  24.057  1.00  0.00     0.013 C 
ATOM     10  C   UNL A   1      30.506  23.547  23.144  1.00  0.00     0.010 C 
BRANCH   9  11
ATOM     11  C   UNL A   1      30.514  26.082  23.247  1.00  0.00     0.005 C 
BRANCH  11  12
ATOM     12  C   UNL A   1      29.627  27.155  23.911  1.00  0.00    -0.003 C 
ATOM     13  C   UNL A   1      29.156  28.265  22.979  1.00  0.00     0.004 C 
ENDBRANCH  11  12
ENDBRANCH   9  11
ENDBRANCH   8   9
BRANCH   8  14
ATOM     14  N   UNL A   1      32.840  23.598  24.980  1.00  0.00    -0.198 NA
ATOM     15  H   UNL A   1      32.271  22.775  24.779  1.00  0.00     0.142 HD
BRANCH  14  16
ATOM     16  S   UNL A   1      34.126  23.585  23.864  1.00  0.00     0.241 S 
ATOM     17  O   UNL A   1      33.802  22.521  22.943  1.00  0.00    -0.207 OA
ATOM     18  O   UNL A   1      34.318  24.942  23.390  1.00  0.00    -0.207 OA
BRANCH  16  19
ATOM     19  C   UNL A   1      35.603  23.095  24.738  1.00  0.00     0.082 A 
ATOM     20  C   UNL A   1      36.378  24.022  25.435  1.00  0.00     0.022 A 
ATOM     21  C   UNL A   1      35.982  21.753  24.735  1.00  0.00     0.025 A 
ATOM     22  C   UNL A   1      37.603  23.621  25.992  1.00  0.00     0.005 A 
ATOM     23  C   UNL A   1      37.247  21.357  25.206  1.00  0.00    -0.047 A 
ATOM     24  C   UNL A   1      38.072  22.304  25.841  1.00  0.00    -0.048 A 
ATOM     25  C   UNL A   1      37.721  19.974  24.843  1.00  0.00     0.044 C 
ATOM     26  C   UNL A   1      39.465  21.958  26.294  1.00  0.00     0.044 C 
ENDBRANCH  16  19
ENDBRANCH  14  16
ENDBRANCH   8  14
ENDBRANCH   5   8
ENDBRANCH   3   4
ENDBRANCH   2   3
ENDBRANCH   1   2
BRANCH   1  27
ATOM     27  C   UNL A   1      33.130  30.744  27.185  1.00  0.00     0.002 C 
BRANCH  27  28
ATOM     28  C   UNL A   1      34.382  29.872  27.257  1.00  0.00     0.021 C 
BRANCH  28  29
ATOM     29  C   UNL A   1      35.577  30.545  27.913  1.00  0.00     0.116 C 
BRANCH  29  30
ATOM     30  N   UNL A   1      35.430  30.627  29.356  1.00  0.00    -0.352 N 
ATOM     31  C   UNL A   1      36.274  30.142  30.323  1.00  0.00     0.251 C 
ATOM     32  H   UNL A   1      34.624  31.090  29.681  1.00  0.00     0.163 HD
ATOM     33  O   UNL A   1      35.931  30.122  31.499  1.00  0.00    -0.269 OA
BRANCH  31  34
ATOM     34  C   UNL A   1      37.592  29.619  29.911  1.00  0.00     0.039 A 
ATOM     35  C   UNL A   1      38.002  29.777  28.587  1.00  0.00     0.014 A 
ATOM     36  C   UNL A   1      38.438  29.030  30.855  1.00  0.00     0.014 A 
ATOM     37  C   UNL A   1      39.293  29.394  28.220  1.00  0.00     0.010 A 
ATOM     38  C   UNL A   1      39.747  28.723  30.506  1.00  0.00     0.010 A 
ATOM     39  C   UNL A   1      40.186  28.896  29.183  1.00  0.00    -0.014 A 
BRANCH  39  40
ATOM     40  C   UNL A   1      41.583  28.530  28.837  1.00  0.00     0.031 A 
ATOM     41  C   UNL A   1      42.643  29.597  28.811  1.00  0.00     0.074 A 
ATOM     42  C   UNL A   1      41.877  27.267  28.472  1.00  0.00     0.049 A 
ATOM     43  N   UNL A   1      43.886  29.516  28.413  1.00  0.00    -0.248 NA
ATOM     44  C   UNL A   1      42.243  30.939  29.264  1.00  0.00     0.031 C 
ATOM     45  C   UNL A   1      40.927  26.153  28.427  1.00  0.00     0.029 A 
ATOM     46  N   UNL A   1      43.059  26.709  28.050  1.00  0.00    -0.354 N 
ATOM     47  C   UNL A   1      44.409  30.797  28.552  1.00  0.00     0.074 A 
ATOM     48  C   UNL A   1      43.335  31.646  29.015  1.00  0.00     0.031 C 
ATOM     49  C   UNL A   1      41.567  25.045  28.018  1.00  0.00     0.029 A 
ATOM     50  C   UNL A   1      42.957  25.377  27.725  1.00  0.00     0.049 A 
ATOM     51  H   UNL A   1      43.900  27.216  27.986  1.00  0.00     0.167 HD
ATOM     52  C   UNL A   1      45.677  31.220  28.335  1.00  0.00     0.037 A 
ATOM     53  C   UNL A   1      43.877  24.525  27.230  1.00  0.00     0.037 A 
ATOM     54  C   UNL A   1      46.745  30.361  27.897  1.00  0.00     0.049 A 
ATOM     55  C   UNL A   1      45.274  25.025  26.971  1.00  0.00     0.074 A 
ATOM     56  C   UNL A   1      48.075  30.681  27.690  1.00  0.00     0.029 A 
ATOM     57  N   UNL A   1      46.606  29.013  27.598  1.00  0.00    -0.354 N 
ATOM     58  N   UNL A   1      45.765  26.228  27.154  1.00  0.00    -0.248 NA
ATOM     59  C   UNL A   1      46.243  24.054  26.443  1.00  0.00     0.031 C 
ATOM     60  C   UNL A   1      48.730  29.539  27.222  1.00  0.00     0.029 A 
ATOM     61  C   UNL A   1      47.822  28.492  27.190  1.00  0.00     0.049 A 
ATOM     62  H   UNL A   1      45.767  28.503  27.666  1.00  0.00     0.167 HD
ATOM     63  C   UNL A   1      47.108  26.149  26.799  1.00  0.00     0.074 A 
ATOM     64  C   UNL A   1      47.352  24.780  26.394  1.00  0.00     0.031 C 
ATOM     65  C   UNL A   1      48.053  27.120  26.812  1.00  0.00     0.037 A 
BRANCH  52  66
ATOM     66  C   UNL A   1      45.978  32.674  28.571  1.00  0.00     0.058 A 
ATOM     67  C   UNL A   1      46.407  33.145  29.823  1.00  0.00     0.135 A 
ATOM     68  C   UNL A   1      45.870  33.606  27.526  1.00  0.00     0.135 A 
ATOM     69  F   UNL A   1      46.512  32.302  30.863  1.00  0.00    -0.206 F 
ATOM     70  C   UNL A   1      46.688  34.489  30.038  1.00  0.00     0.059 A 
ATOM     71  C   UNL A   1      46.177  34.951  27.709  1.00  0.00     0.059 A 
ATOM     72  F   UNL A   1      45.463  33.213  26.308  1.00  0.00    -0.206 F 
ATOM     73  C   UNL A   1      46.571  35.386  28.974  1.00  0.00     0.060 A 
BRANCH  73  74
ATOM     74  S   UNL A   1      46.947  37.125  29.270  1.00  0.00     0.124 S 
ATOM     75  O   UNL A   1      45.667  37.756  28.960  1.00  0.00    -0.237 OA
ATOM     76  O   UNL A   1      47.327  37.126  30.679  1.00  0.00    -0.237 OA
ATOM     77  O   UNL A   1      48.027  37.406  28.331  1.00  0.00    -0.744 OA
ENDBRANCH  73  74
ENDBRANCH  52  66
BRANCH  53  78
ATOM     78  C   UNL A   1      43.512  23.108  26.958  1.00  0.00     0.058 A 
ATOM     79  C   UNL A   1      43.396  22.633  25.643  1.00  0.00     0.135 A 
ATOM     80  C   UNL A   1      43.275  22.200  28.002  1.00  0.00     0.135 A 
ATOM     81  F   UNL A   1      43.606  23.462  24.610  1.00  0.00    -0.206 F 
ATOM     82  C   UNL A   1      43.039  21.317  25.371  1.00  0.00     0.059 A 
ATOM     83  C   UNL A   1      42.943  20.871  27.755  1.00  0.00     0.059 A 
ATOM     84  F   UNL A   1      43.388  22.598  29.279  1.00  0.00    -0.206 F 
ATOM     85  C   UNL A   1      42.816  20.442  26.436  1.00  0.00     0.060 A 
BRANCH  85  86
ATOM     86  S   UNL A   1      42.390  18.725  26.071  1.00  0.00     0.124 S 
ATOM     87  O   UNL A   1      40.987  18.845  25.691  1.00  0.00    -0.237 OA
ATOM     88  O   UNL A   1      43.319  18.402  24.993  1.00  0.00    -0.237 OA
ATOM     89  O   UNL A   1      42.646  18.040  27.335  1.00  0.00    -0.744 OA
ENDBRANCH  85  86
ENDBRANCH  53  78
BRANCH  65  90
ATOM     90  C   UNL A   1      49.457  26.739  26.431  1.00  0.00     0.058 A 
ATOM     91  C   UNL A   1      49.946  26.918  25.128  1.00  0.00     0.135 A 
ATOM     92  C   UNL A   1      50.350  26.273  27.411  1.00  0.00     0.135 A 
ATOM     93  F   UNL A   1      49.131  27.352  24.155  1.00  0.00    -0.206 F 
ATOM     94  C   UNL A   1      51.271  26.643  24.808  1.00  0.00     0.059 A 
ATOM     95  C   UNL A   1      51.686  26.019  27.119  1.00  0.00     0.059 A 
ATOM     96  F   UNL A   1      49.934  26.092  28.674  1.00  0.00    -0.206 F 
ATOM     97  C   UNL A   1      52.137  26.203  25.813  1.00  0.00     0.060 A 
BRANCH  97  98
ATOM     98  S   UNL A   1      53.869  25.917  25.397  1.00  0.00     0.124 S 
ATOM     99  O   UNL A   1      53.769  24.792  24.473  1.00  0.00    -0.237 OA
ATOM    100  O   UNL A   1      54.261  27.192  24.803  1.00  0.00    -0.237 OA
ATOM    101  O   UNL A   1      54.485  25.617  26.687  1.00  0.00    -0.744 OA
ENDBRANCH  97  98
ENDBRANCH  65  90
ENDBRANCH  39  40
ENDBRANCH  31  34
ENDBRANCH  29  30
ENDBRANCH  28  29
ENDBRANCH  27  28
ENDBRANCH   1  27
TORSDOF 22
ENDMDL
MODEL 3
REMARK VINA RESULT:     -10.5      2.593      8.888
REMARK SMILES CCC[C@@H](C)[C@H](NS(=O)(=O)c1ccc(C)c(C)c1)C(=O)NCCCCCCNC(=O)c1ccc(-c2c3nc(c(-c4c(F)cc(S(=O)(=O)[O-])cc4F)c4ccc([nH]4)c(-c4c(F)cc(S(=O)(=O)[O-])cc4F)c4nc(c(-c5c(F)cc(S(=O)(=O)[O-])cc5F)c5ccc2[nH]5)C=C4)C=C3)cc1
REMARK SMILES IDX 24 1 23 2 22 3 21 4 19 5 20 6 6 8 4 9 5 10 3 11 2 12 1 13
REMARK SMILES IDX 7 14 8 16 9 17 10 18 11 19 12 20 18 21 13 22 16 23 14 24
REMARK SMILES IDX 17 25 15 26 25 27 26 28 27 29 28 30 29 31 30 33 31 34 32 35
REMARK SMILES IDX 96 36 33 37 95 38 34 39 35 40 36 41 89 42 37 43 94 44 88 45
REMARK SMILES IDX 90 46 38 47 93 48 87 49 86 50 39 52 73 53 52 54 72 55 53 56
REMARK SMILES IDX 56 57 71 58 91 59 54 60 55 61 70 63 92 64 57 65 40 66 41 67
REMARK SMILES IDX 50 68 42 69 43 70 49 71 51 72 44 73 45 74 46 75 47 76 48 77
REMARK SMILES IDX 74 78 75 79 84 80 76 81 77 82 83 83 85 84 78 85 79 86 80 87
REMARK SMILES IDX 81 88 82 89 58 90 59 91 68 92 60 93 61 94 67 95 69 96 62 97
REMARK SMILES IDX 63 98 64 99 65 100 66 101
REMARK H PARENT 21 7 7 15 28 32 90 51 56 62
REMARK Flexibility Score: inf
ROOT
ATOM      1  C   UNL A   1      39.245  23.196  26.659  1.00  0.00     0.002 C 
ENDROOT
BRANCH   1   2
ATOM      2  C   UNL A   1      38.193  22.552  25.757  1.00  0.00     0.021 C 
BRANCH   2   3
ATOM      3  C   UNL A   1      36.769  22.965  26.079  1.00  0.00     0.116 C 
BRANCH   3   4
ATOM      4  N   UNL A   1      35.872  21.849  26.331  1.00  0.00    -0.355 N 
ATOM      5  C   UNL A   1      34.585  21.661  25.902  1.00  0.00     0.238 C 
ATOM      6  O   UNL A   1      34.095  20.532  25.972  1.00  0.00    -0.273 OA
ATOM      7  H   UNL A   1      36.243  21.127  26.888  1.00  0.00     0.163 HD
BRANCH   5   8
ATOM      8  C   UNL A   1      33.798  22.828  25.305  1.00  0.00     0.161 C 
BRANCH   8   9
ATOM      9  C   UNL A   1      33.122  23.642  26.470  1.00  0.00     0.013 C 
ATOM     10  C   UNL A   1      31.870  23.012  27.120  1.00  0.00     0.010 C 
BRANCH   9  11
ATOM     11  C   UNL A   1      32.886  25.138  26.179  1.00  0.00     0.005 C 
BRANCH  11  12
ATOM     12  C   UNL A   1      33.989  25.825  25.347  1.00  0.00    -0.003 C 
ATOM     13  C   UNL A   1      33.698  27.271  24.964  1.00  0.00     0.004 C 
ENDBRANCH  11  12
ENDBRANCH   9  11
ENDBRANCH   8   9
BRANCH   8  14
ATOM     14  N   UNL A   1      32.935  22.350  24.191  1.00  0.00    -0.198 NA
ATOM     15  H   UNL A   1      31.970  22.514  24.477  1.00  0.00     0.142 HD
BRANCH  14  16
ATOM     16  S   UNL A   1      33.097  23.005  22.627  1.00  0.00     0.241 S 
ATOM     17  O   UNL A   1      34.487  23.385  22.531  1.00  0.00    -0.207 OA
ATOM     18  O   UNL A   1      32.521  22.062  21.687  1.00  0.00    -0.207 OA
BRANCH  16  19
ATOM     19  C   UNL A   1      32.133  24.505  22.560  1.00  0.00     0.082 A 
ATOM     20  C   UNL A   1      32.493  25.565  21.727  1.00  0.00     0.022 A 
ATOM     21  C   UNL A   1      30.988  24.615  23.348  1.00  0.00     0.025 A 
ATOM     22  C   UNL A   1      31.789  26.777  21.806  1.00  0.00     0.005 A 
ATOM     23  C   UNL A   1      30.332  25.849  23.505  1.00  0.00    -0.047 A 
ATOM     24  C   UNL A   1      30.740  26.948  22.726  1.00  0.00    -0.048 A 
ATOM     25  C   UNL A   1      29.342  25.970  24.633  1.00  0.00     0.044 C 
ATOM     26  C   UNL A   1      30.129  28.312  22.907  1.00  0.00     0.044 C 
ENDBRANCH  16  19
ENDBRANCH  14  16
ENDBRANCH   8  14
ENDBRANCH   5   8
ENDBRANCH   3   4
ENDBRANCH   2   3
ENDBRANCH   1   2
BRANCH   1  27
ATOM     27  C   UNL A   1      40.395  22.269  27.058  1.00  0.00     0.002 C 
BRANCH  27  28
ATOM     28  C   UNL A   1      40.290  20.847  26.510  1.00  0.00     0.021 C 
BRANCH  28  29
ATOM     29  C   UNL A   1      41.170  19.834  27.226  1.00  0.00     0.116 C 
BRANCH  29  30
ATOM     30  N   UNL A   1      41.988  19.072  26.298  1.00  0.00    -0.352 N 
ATOM     31  C   UNL A   1      43.009  19.525  25.500  1.00  0.00     0.251 C 
ATOM     32  H   UNL A   1      41.785  18.111  26.234  1.00  0.00     0.163 HD
ATOM     33  O   UNL A   1      43.488  18.806  24.631  1.00  0.00    -0.269 OA
BRANCH  31  34
ATOM     34  C   UNL A   1      43.495  20.905  25.693  1.00  0.00     0.039 A 
ATOM     35  C   UNL A   1      43.414  21.809  24.632  1.00  0.00     0.014 A 
ATOM     36  C   UNL A   1      43.971  21.313  26.943  1.00  0.00     0.014 A 
ATOM     37  C   UNL A   1      43.760  23.145  24.844  1.00  0.00     0.010 A 
ATOM     38  C   UNL A   1      44.237  22.657  27.170  1.00  0.00     0.010 A 
ATOM     39  C   UNL A   1      44.140  23.586  26.121  1.00  0.00    -0.014 A 
BRANCH  39  40
ATOM     40  C   UNL A   1      44.462  25.009  26.392  1.00  0.00     0.031 A 
ATOM     41  C   UNL A   1      45.882  25.486  26.252  1.00  0.00     0.074 A 
ATOM     42  C   UNL A   1      43.503  25.844  26.838  1.00  0.00     0.049 A 
ATOM     43  N   UNL A   1      46.398  26.647  26.562  1.00  0.00    -0.248 NA
ATOM     44  C   UNL A   1      46.856  24.520  25.720  1.00  0.00     0.031 C 
ATOM     45  C   UNL A   1      42.097  25.489  27.044  1.00  0.00     0.029 A 
ATOM     46  N   UNL A   1      43.569  27.162  27.217  1.00  0.00    -0.354 N 
ATOM     47  C   UNL A   1      47.755  26.544  26.280  1.00  0.00     0.074 A 
ATOM     48  C   UNL A   1      47.992  25.191  25.828  1.00  0.00     0.031 C 
ATOM     49  C   UNL A   1      41.433  26.565  27.496  1.00  0.00     0.029 A 
ATOM     50  C   UNL A   1      42.370  27.672  27.657  1.00  0.00     0.049 A 
ATOM     51  H   UNL A   1      44.397  27.693  27.176  1.00  0.00     0.167 HD
ATOM     52  C   UNL A   1      48.712  27.498  26.367  1.00  0.00     0.037 A 
ATOM     53  C   UNL A   1      42.066  28.888  28.152  1.00  0.00     0.037 A 
ATOM     54  C   UNL A   1      48.460  28.849  26.795  1.00  0.00     0.049 A 
ATOM     55  C   UNL A   1      43.152  29.926  28.264  1.00  0.00     0.074 A 
ATOM     56  C   UNL A   1      49.351  29.904  26.876  1.00  0.00     0.029 A 
ATOM     57  N   UNL A   1      47.228  29.331  27.213  1.00  0.00    -0.354 N 
ATOM     58  N   UNL A   1      44.421  29.827  27.947  1.00  0.00    -0.248 NA
ATOM     59  C   UNL A   1      42.767  31.240  28.798  1.00  0.00     0.031 C 
ATOM     60  C   UNL A   1      48.669  31.011  27.387  1.00  0.00     0.029 A 
ATOM     61  C   UNL A   1      47.340  30.663  27.572  1.00  0.00     0.049 A 
ATOM     62  H   UNL A   1      46.398  28.804  27.250  1.00  0.00     0.167 HD
ATOM     63  C   UNL A   1      44.978  31.075  28.207  1.00  0.00     0.074 A 
ATOM     64  C   UNL A   1      43.906  31.913  28.705  1.00  0.00     0.031 C 
ATOM     65  C   UNL A   1      46.257  31.490  28.044  1.00  0.00     0.037 A 
BRANCH  52  66
ATOM     66  C   UNL A   1      50.116  27.116  25.990  1.00  0.00     0.058 A 
ATOM     67  C   UNL A   1      51.025  26.616  26.938  1.00  0.00     0.135 A 
ATOM     68  C   UNL A   1      50.552  27.218  24.658  1.00  0.00     0.135 A 
ATOM     69  F   UNL A   1      50.667  26.513  28.228  1.00  0.00    -0.206 F 
ATOM     70  C   UNL A   1      52.322  26.260  26.585  1.00  0.00     0.059 A 
ATOM     71  C   UNL A   1      51.835  26.837  24.278  1.00  0.00     0.059 A 
ATOM     72  F   UNL A   1      49.727  27.690  23.711  1.00  0.00    -0.206 F 
ATOM     73  C   UNL A   1      52.719  26.373  25.252  1.00  0.00     0.060 A 
BRANCH  73  74
ATOM     74  S   UNL A   1      54.403  25.901  24.813  1.00  0.00     0.124 S 
ATOM     75  O   UNL A   1      54.356  24.453  24.994  1.00  0.00    -0.237 OA
ATOM     76  O   UNL A   1      54.507  26.363  23.433  1.00  0.00    -0.237 OA
ATOM     77  O   UNL A   1      55.223  26.626  25.779  1.00  0.00    -0.744 OA
ENDBRANCH  73  74
ENDBRANCH  52  66
BRANCH  53  78
ATOM     78  C   UNL A   1      40.670  29.198  28.566  1.00  0.00     0.058 A 
ATOM     79  C   UNL A   1      40.325  29.293  29.922  1.00  0.00     0.135 A 
ATOM     80  C   UNL A   1      39.656  29.408  27.619  1.00  0.00     0.135 A 
ATOM     81  F   UNL A   1      41.257  29.095  30.866  1.00  0.00    -0.206 F 
ATOM     82  C   UNL A   1      39.023  29.564  30.327  1.00  0.00     0.059 A 
ATOM     83  C   UNL A   1      38.350  29.708  27.999  1.00  0.00     0.059 A 
ATOM     84  F   UNL A   1      39.934  29.345  26.308  1.00  0.00    -0.206 F 
ATOM     85  C   UNL A   1      38.042  29.773  29.356  1.00  0.00     0.060 A 
BRANCH  85  86
ATOM     86  S   UNL A   1      36.361  30.161  29.893  1.00  0.00     0.124 S 
ATOM     87  O   UNL A   1      35.571  29.645  28.782  1.00  0.00    -0.237 OA
ATOM     88  O   UNL A   1      36.263  29.421  31.147  1.00  0.00    -0.237 OA
ATOM     89  O   UNL A   1      36.382  31.615  30.033  1.00  0.00    -0.744 OA
ENDBRANCH  85  86
ENDBRANCH  53  78
BRANCH  65  90
ATOM     90  C   UNL A   1      46.573  32.928  28.351  1.00  0.00     0.058 A 
ATOM     91  C   UNL A   1      46.971  33.343  29.631  1.00  0.00     0.135 A 
ATOM     92  C   UNL A   1      46.564  33.885  27.323  1.00  0.00     0.135 A 
ATOM     93  F   UNL A   1      46.989  32.469  30.649  1.00  0.00    -0.206 F 
ATOM     94  C   UNL A   1      47.345  34.659  29.882  1.00  0.00     0.059 A 
ATOM     95  C   UNL A   1      46.961  35.200  27.545  1.00  0.00     0.059 A 
ATOM     96  F   UNL A   1      46.198  33.538  26.079  1.00  0.00    -0.206 F 
ATOM     97  C   UNL A   1      47.345  35.579  28.830  1.00  0.00     0.060 A 
BRANCH  97  98
ATOM     98  S   UNL A   1      47.898  37.265  29.157  1.00  0.00     0.124 S 
ATOM     99  O   UNL A   1      46.913  37.714  30.135  1.00  0.00    -0.237 OA
ATOM    100  O   UNL A   1      49.249  37.056  29.669  1.00  0.00    -0.237 OA
ATOM    101  O   UNL A   1      47.823  37.909  27.849  1.00  0.00    -0.744 OA
ENDBRANCH  97  98
ENDBRANCH  65  90
ENDBRANCH  39  40
ENDBRANCH  31  34
ENDBRANCH  29  30
ENDBRANCH  28  29
ENDBRANCH  27  28
ENDBRANCH   1  27
TORSDOF 22
ENDMDL
