MODEL 1
REMARK VINA RESULT:     -11.4      0.000      0.000
REMARK SMILES C[C@@H](Sc1nc2ccccc2c(=O)n1N)C(=O)NCCCCCCNC(=O)c1ccc(-c2c3nc(c(-c4c(F)cc(S(=O)(=O)[O-])cc4F)c4ccc([nH]4)c(-c4c(F)cc(S(=O)(=O)[O-])cc4F)c4nc(c(-c5c(F)cc(S(=O)(=O)[O-])cc5F)c5ccc2[nH]5)C=C4)C=C3)cc1
REMARK SMILES IDX 21 1 20 2 19 3 18 4 16 5 17 6 2 8 1 9 3 10 4 11 5 12 14 13
REMARK SMILES IDX 6 14 12 15 7 16 11 17 13 18 8 19 10 20 9 21 15 22 22 25
REMARK SMILES IDX 23 26 24 27 25 28 26 29 27 31 28 32 29 33 93 34 30 35 92 36
REMARK SMILES IDX 31 37 32 38 33 39 86 40 34 41 91 42 85 43 87 44 35 45 90 46
REMARK SMILES IDX 84 47 83 48 36 50 70 51 49 52 69 53 50 54 53 55 68 56 88 57
REMARK SMILES IDX 51 58 52 59 67 61 89 62 54 63 37 64 38 65 47 66 39 67 40 68
REMARK SMILES IDX 46 69 48 70 41 71 42 72 43 73 44 74 45 75 71 76 72 77 81 78
REMARK SMILES IDX 73 79 74 80 80 81 82 82 75 83 76 84 77 85 78 86 79 87 55 88
REMARK SMILES IDX 56 89 65 90 57 91 58 92 64 93 66 94 59 95 60 96 61 97 62 98
REMARK SMILES IDX 63 99
REMARK H PARENT 18 7 15 23 15 24 25 30 87 49 53 60
REMARK Flexibility Score: inf
ROOT
ATOM      1  C   UNL A   1      34.954  24.677  24.925  1.00  0.00     0.002 C 
ENDROOT
BRANCH   1   2
ATOM      2  C   UNL A   1      34.037  25.552  25.788  1.00  0.00     0.021 C 
BRANCH   2   3
ATOM      3  C   UNL A   1      33.864  26.969  25.249  1.00  0.00     0.116 C 
BRANCH   3   4
ATOM      4  N   UNL A   1      33.558  26.939  23.831  1.00  0.00    -0.355 N 
ATOM      5  C   UNL A   1      32.363  27.022  23.181  1.00  0.00     0.233 C 
ATOM      6  O   UNL A   1      32.382  26.944  21.948  1.00  0.00    -0.274 OA
ATOM      7  H   UNL A   1      34.341  26.844  23.242  1.00  0.00     0.163 HD
BRANCH   5   8
ATOM      8  C   UNL A   1      31.042  27.217  23.930  1.00  0.00     0.141 C 
ATOM      9  C   UNL A   1      30.490  28.632  23.800  1.00  0.00     0.030 C 
BRANCH   8  10
ATOM     10  S   UNL A   1      29.927  25.844  23.460  1.00  0.00    -0.073 SA
BRANCH  10  11
ATOM     11  C   UNL A   1      30.649  24.486  24.280  1.00  0.00     0.191 A 
ATOM     12  N   UNL A   1      31.414  23.717  23.578  1.00  0.00    -0.222 NA
ATOM     13  N   UNL A   1      30.445  24.346  25.649  1.00  0.00    -0.202 N 
ATOM     14  C   UNL A   1      32.108  22.694  24.239  1.00  0.00     0.079 A 
ATOM     15  C   UNL A   1      31.106  23.361  26.384  1.00  0.00     0.280 A 
ATOM     16  C   UNL A   1      32.978  21.888  23.501  1.00  0.00     0.029 A 
ATOM     17  C   UNL A   1      32.002  22.479  25.615  1.00  0.00     0.068 A 
ATOM     18  O   UNL A   1      30.993  23.237  27.604  1.00  0.00    -0.267 OA
ATOM     19  C   UNL A   1      33.728  20.888  24.128  1.00  0.00     0.002 A 
ATOM     20  C   UNL A   1      32.744  21.478  26.252  1.00  0.00     0.016 A 
ATOM     21  C   UNL A   1      33.610  20.683  25.503  1.00  0.00     0.001 A 
BRANCH  13  22
ATOM     22  N   UNL A   1      29.573  25.218  26.379  1.00  0.00    -0.334 N 
ATOM     23  H   UNL A   1      28.710  24.882  26.715  1.00  0.00     0.178 HD
ATOM     24  H   UNL A   1      29.834  26.152  26.544  1.00  0.00     0.178 HD
ENDBRANCH  13  22
ENDBRANCH  10  11
ENDBRANCH   8  10
ENDBRANCH   5   8
ENDBRANCH   3   4
ENDBRANCH   2   3
ENDBRANCH   1   2
BRANCH   1  25
ATOM     25  C   UNL A   1      35.808  23.673  25.709  1.00  0.00     0.002 C 
BRANCH  25  26
ATOM     26  C   UNL A   1      37.301  23.699  25.375  1.00  0.00     0.021 C 
BRANCH  26  27
ATOM     27  C   UNL A   1      38.195  24.155  26.523  1.00  0.00     0.116 C 
BRANCH  27  28
ATOM     28  N   UNL A   1      39.603  23.935  26.234  1.00  0.00    -0.352 N 
ATOM     29  C   UNL A   1      40.691  24.680  26.609  1.00  0.00     0.251 C 
ATOM     30  H   UNL A   1      39.804  23.138  25.693  1.00  0.00     0.163 HD
ATOM     31  O   UNL A   1      41.788  24.466  26.094  1.00  0.00    -0.269 OA
BRANCH  29  32
ATOM     32  C   UNL A   1      40.538  25.752  27.615  1.00  0.00     0.039 A 
ATOM     33  C   UNL A   1      39.562  25.616  28.605  1.00  0.00     0.014 A 
ATOM     34  C   UNL A   1      41.354  26.887  27.581  1.00  0.00     0.014 A 
ATOM     35  C   UNL A   1      39.444  26.594  29.594  1.00  0.00     0.010 A 
ATOM     36  C   UNL A   1      41.285  27.821  28.612  1.00  0.00     0.010 A 
ATOM     37  C   UNL A   1      40.327  27.686  29.626  1.00  0.00    -0.014 A 
BRANCH  37  38
ATOM     38  C   UNL A   1      40.269  28.685  30.725  1.00  0.00     0.031 A 
ATOM     39  C   UNL A   1      41.166  28.550  31.925  1.00  0.00     0.074 A 
ATOM     40  C   UNL A   1      39.365  29.684  30.664  1.00  0.00     0.049 A 
ATOM     41  N   UNL A   1      41.229  29.299  32.997  1.00  0.00    -0.248 NA
ATOM     42  C   UNL A   1      42.096  27.409  31.937  1.00  0.00     0.031 C 
ATOM     43  C   UNL A   1      38.407  29.890  29.576  1.00  0.00     0.029 A 
ATOM     44  N   UNL A   1      39.101  30.709  31.536  1.00  0.00    -0.354 N 
ATOM     45  C   UNL A   1      42.196  28.719  33.810  1.00  0.00     0.074 A 
ATOM     46  C   UNL A   1      42.650  27.522  33.134  1.00  0.00     0.031 C 
ATOM     47  C   UNL A   1      37.681  30.990  29.832  1.00  0.00     0.029 A 
ATOM     48  C   UNL A   1      38.089  31.542  31.119  1.00  0.00     0.049 A 
ATOM     49  H   UNL A   1      39.589  30.837  32.382  1.00  0.00     0.167 HD
ATOM     50  C   UNL A   1      42.677  29.155  34.999  1.00  0.00     0.037 A 
ATOM     51  C   UNL A   1      37.547  32.626  31.709  1.00  0.00     0.037 A 
ATOM     52  C   UNL A   1      42.228  30.356  35.656  1.00  0.00     0.049 A 
ATOM     53  C   UNL A   1      38.090  33.086  33.034  1.00  0.00     0.074 A 
ATOM     54  C   UNL A   1      42.690  30.916  36.834  1.00  0.00     0.029 A 
ATOM     55  N   UNL A   1      41.206  31.177  35.199  1.00  0.00    -0.354 N 
ATOM     56  N   UNL A   1      39.054  32.564  33.756  1.00  0.00    -0.248 NA
ATOM     57  C   UNL A   1      37.477  34.284  33.623  1.00  0.00     0.031 C 
ATOM     58  C   UNL A   1      41.914  32.044  37.117  1.00  0.00     0.029 A 
ATOM     59  C   UNL A   1      41.005  32.224  36.086  1.00  0.00     0.049 A 
ATOM     60  H   UNL A   1      40.698  31.037  34.367  1.00  0.00     0.167 HD
ATOM     61  C   UNL A   1      39.180  33.386  34.871  1.00  0.00     0.074 A 
ATOM     62  C   UNL A   1      38.204  34.446  34.719  1.00  0.00     0.031 C 
ATOM     63  C   UNL A   1      40.028  33.273  35.923  1.00  0.00     0.037 A 
BRANCH  50  64
ATOM     64  C   UNL A   1      43.742  28.328  35.667  1.00  0.00     0.058 A 
ATOM     65  C   UNL A   1      45.107  28.515  35.389  1.00  0.00     0.135 A 
ATOM     66  C   UNL A   1      43.400  27.357  36.622  1.00  0.00     0.135 A 
ATOM     67  F   UNL A   1      45.495  29.420  34.475  1.00  0.00    -0.206 F 
ATOM     68  C   UNL A   1      46.089  27.744  36.004  1.00  0.00     0.059 A 
ATOM     69  C   UNL A   1      44.367  26.598  37.275  1.00  0.00     0.059 A 
ATOM     70  F   UNL A   1      42.112  27.136  36.930  1.00  0.00    -0.206 F 
ATOM     71  C   UNL A   1      45.709  26.787  36.946  1.00  0.00     0.060 A 
BRANCH  71  72
ATOM     72  S   UNL A   1      46.995  25.795  37.733  1.00  0.00     0.124 S 
ATOM     73  O   UNL A   1      48.190  26.574  37.427  1.00  0.00    -0.237 OA
ATOM     74  O   UNL A   1      46.578  25.797  39.132  1.00  0.00    -0.237 OA
ATOM     75  O   UNL A   1      46.896  24.507  37.054  1.00  0.00    -0.744 OA
ENDBRANCH  71  72
ENDBRANCH  50  64
BRANCH  51  76
ATOM     76  C   UNL A   1      36.444  33.361  31.033  1.00  0.00     0.058 A 
ATOM     77  C   UNL A   1      35.121  33.256  31.488  1.00  0.00     0.135 A 
ATOM     78  C   UNL A   1      36.692  34.201  29.936  1.00  0.00     0.135 A 
ATOM     79  F   UNL A   1      34.832  32.461  32.530  1.00  0.00    -0.206 F 
ATOM     80  C   UNL A   1      34.082  33.947  30.874  1.00  0.00     0.059 A 
ATOM     81  C   UNL A   1      35.673  34.923  29.322  1.00  0.00     0.059 A 
ATOM     82  F   UNL A   1      37.943  34.348  29.471  1.00  0.00    -0.206 F 
ATOM     83  C   UNL A   1      34.370  34.782  29.793  1.00  0.00     0.060 A 
BRANCH  83  84
ATOM     84  S   UNL A   1      33.021  35.717  29.040  1.00  0.00     0.124 S 
ATOM     85  O   UNL A   1      32.370  34.694  28.231  1.00  0.00    -0.237 OA
ATOM     86  O   UNL A   1      32.277  36.177  30.209  1.00  0.00    -0.237 OA
ATOM     87  O   UNL A   1      33.714  36.765  28.296  1.00  0.00    -0.744 OA
ENDBRANCH  83  84
ENDBRANCH  51  76
BRANCH  63  88
ATOM     88  C   UNL A   1      39.963  34.339  36.984  1.00  0.00     0.058 A 
ATOM     89  C   UNL A   1      40.710  35.523  36.891  1.00  0.00     0.135 A 
ATOM     90  C   UNL A   1      39.104  34.191  38.086  1.00  0.00     0.135 A 
ATOM     91  F   UNL A   1      41.551  35.712  35.862  1.00  0.00    -0.206 F 
ATOM     92  C   UNL A   1      40.628  36.512  37.865  1.00  0.00     0.059 A 
ATOM     93  C   UNL A   1      38.983  35.181  39.057  1.00  0.00     0.059 A 
ATOM     94  F   UNL A   1      38.359  33.082  38.221  1.00  0.00    -0.206 F 
ATOM     95  C   UNL A   1      39.760  36.334  38.944  1.00  0.00     0.060 A 
BRANCH  95  96
ATOM     96  S   UNL A   1      39.641  37.638  40.185  1.00  0.00     0.124 S 
ATOM     97  O   UNL A   1      38.258  38.073  40.023  1.00  0.00    -0.237 OA
ATOM     98  O   UNL A   1      39.939  36.921  41.421  1.00  0.00    -0.237 OA
ATOM     99  O   UNL A   1      40.655  38.602  39.767  1.00  0.00    -0.744 OA
ENDBRANCH  95  96
ENDBRANCH  63  88
ENDBRANCH  37  38
ENDBRANCH  29  32
ENDBRANCH  27  28
ENDBRANCH  26  27
ENDBRANCH  25  26
ENDBRANCH   1  25
TORSDOF 19
ENDMDL
MODEL 2
REMARK VINA RESULT:     -11.1      6.565     11.759
REMARK SMILES C[C@@H](Sc1nc2ccccc2c(=O)n1N)C(=O)NCCCCCCNC(=O)c1ccc(-c2c3nc(c(-c4c(F)cc(S(=O)(=O)[O-])cc4F)c4ccc([nH]4)c(-c4c(F)cc(S(=O)(=O)[O-])cc4F)c4nc(c(-c5c(F)cc(S(=O)(=O)[O-])cc5F)c5ccc2[nH]5)C=C4)C=C3)cc1
REMARK SMILES IDX 21 1 20 2 19 3 18 4 16 5 17 6 2 8 1 9 3 10 4 11 5 12 14 13
REMARK SMILES IDX 6 14 12 15 7 16 11 17 13 18 8 19 10 20 9 21 15 22 22 25
REMARK SMILES IDX 23 26 24 27 25 28 26 29 27 31 28 32 29 33 93 34 30 35 92 36
REMARK SMILES IDX 31 37 32 38 33 39 86 40 34 41 91 42 85 43 87 44 35 45 90 46
REMARK SMILES IDX 84 47 83 48 36 50 70 51 49 52 69 53 50 54 53 55 68 56 88 57
REMARK SMILES IDX 51 58 52 59 67 61 89 62 54 63 37 64 38 65 47 66 39 67 40 68
REMARK SMILES IDX 46 69 48 70 41 71 42 72 43 73 44 74 45 75 71 76 72 77 81 78
REMARK SMILES IDX 73 79 74 80 80 81 82 82 75 83 76 84 77 85 78 86 79 87 55 88
REMARK SMILES IDX 56 89 65 90 57 91 58 92 64 93 66 94 59 95 60 96 61 97 62 98
REMARK SMILES IDX 63 99
REMARK H PARENT 18 7 15 23 15 24 25 30 87 49 53 60
REMARK Flexibility Score: inf
ROOT
ATOM      1  C   UNL A   1      32.917  27.968  26.040  1.00  0.00     0.002 C 
ENDROOT
BRANCH   1   2
ATOM      2  C   UNL A   1      33.707  28.020  24.727  1.00  0.00     0.021 C 
BRANCH   2   3
ATOM      3  C   UNL A   1      33.104  28.964  23.691  1.00  0.00     0.116 C 
BRANCH   3   4
ATOM      4  N   UNL A   1      32.533  28.211  22.589  1.00  0.00    -0.355 N 
ATOM      5  C   UNL A   1      31.301  27.649  22.444  1.00  0.00     0.233 C 
ATOM      6  O   UNL A   1      31.078  27.031  21.398  1.00  0.00    -0.274 OA
ATOM      7  H   UNL A   1      33.136  28.086  21.820  1.00  0.00     0.163 HD
BRANCH   5   8
ATOM      8  C   UNL A   1      30.217  27.779  23.519  1.00  0.00     0.141 C 
ATOM      9  C   UNL A   1      29.259  28.937  23.258  1.00  0.00     0.030 C 
BRANCH   8  10
ATOM     10  S   UNL A   1      29.474  26.125  23.764  1.00  0.00    -0.073 SA
BRANCH  10  11
ATOM     11  C   UNL A   1      30.776  25.245  24.518  1.00  0.00     0.191 A 
ATOM     12  N   UNL A   1      31.883  25.155  23.856  1.00  0.00    -0.222 NA
ATOM     13  N   UNL A   1      30.600  24.768  25.812  1.00  0.00    -0.202 N 
ATOM     14  C   UNL A   1      32.985  24.564  24.489  1.00  0.00     0.079 A 
ATOM     15  C   UNL A   1      31.650  24.178  26.518  1.00  0.00     0.280 A 
ATOM     16  C   UNL A   1      34.200  24.506  23.803  1.00  0.00     0.029 A 
ATOM     17  C   UNL A   1      32.931  24.076  25.796  1.00  0.00     0.068 A 
ATOM     18  O   UNL A   1      31.549  23.789  27.681  1.00  0.00    -0.267 OA
ATOM     19  C   UNL A   1      35.339  23.971  24.414  1.00  0.00     0.002 A 
ATOM     20  C   UNL A   1      34.063  23.534  26.416  1.00  0.00     0.016 A 
ATOM     21  C   UNL A   1      35.269  23.486  25.720  1.00  0.00     0.001 A 
BRANCH  13  22
ATOM     22  N   UNL A   1      29.346  24.880  26.498  1.00  0.00    -0.334 N 
ATOM     23  H   UNL A   1      28.846  25.728  26.471  1.00  0.00     0.178 HD
ATOM     24  H   UNL A   1      28.986  24.112  26.996  1.00  0.00     0.178 HD
ENDBRANCH  13  22
ENDBRANCH  10  11
ENDBRANCH   8  10
ENDBRANCH   5   8
ENDBRANCH   3   4
ENDBRANCH   2   3
ENDBRANCH   1   2
BRANCH   1  25
ATOM     25  C   UNL A   1      33.430  28.909  27.136  1.00  0.00     0.002 C 
BRANCH  25  26
ATOM     26  C   UNL A   1      34.954  28.983  27.261  1.00  0.00     0.021 C 
BRANCH  26  27
ATOM     27  C   UNL A   1      35.479  30.317  27.780  1.00  0.00     0.116 C 
BRANCH  27  28
ATOM     28  N   UNL A   1      35.358  30.422  29.225  1.00  0.00    -0.352 N 
ATOM     29  C   UNL A   1      36.286  30.141  30.195  1.00  0.00     0.251 C 
ATOM     30  H   UNL A   1      34.487  30.739  29.554  1.00  0.00     0.163 HD
ATOM     31  O   UNL A   1      35.942  30.081  31.374  1.00  0.00    -0.269 OA
BRANCH  29  32
ATOM     32  C   UNL A   1      37.693  29.893  29.817  1.00  0.00     0.039 A 
ATOM     33  C   UNL A   1      38.603  29.516  30.807  1.00  0.00     0.014 A 
ATOM     34  C   UNL A   1      38.113  30.032  28.491  1.00  0.00     0.014 A 
ATOM     35  C   UNL A   1      39.922  29.223  30.455  1.00  0.00     0.010 A 
ATOM     36  C   UNL A   1      39.408  29.666  28.131  1.00  0.00     0.010 A 
ATOM     37  C   UNL A   1      40.326  29.262  29.110  1.00  0.00    -0.014 A 
BRANCH  37  38
ATOM     38  C   UNL A   1      41.703  28.867  28.714  1.00  0.00     0.031 A 
ATOM     39  C   UNL A   1      42.805  29.890  28.668  1.00  0.00     0.074 A 
ATOM     40  C   UNL A   1      41.945  27.594  28.339  1.00  0.00     0.049 A 
ATOM     41  N   UNL A   1      44.055  29.741  28.310  1.00  0.00    -0.248 NA
ATOM     42  C   UNL A   1      42.452  31.266  29.051  1.00  0.00     0.031 C 
ATOM     43  C   UNL A   1      40.946  26.524  28.292  1.00  0.00     0.029 A 
ATOM     44  N   UNL A   1      43.102  26.985  27.924  1.00  0.00    -0.354 N 
ATOM     45  C   UNL A   1      44.634  31.000  28.416  1.00  0.00     0.074 A 
ATOM     46  C   UNL A   1      43.584  31.913  28.816  1.00  0.00     0.031 C 
ATOM     47  C   UNL A   1      41.539  25.385  27.900  1.00  0.00     0.029 A 
ATOM     48  C   UNL A   1      42.947  25.651  27.626  1.00  0.00     0.049 A 
ATOM     49  H   UNL A   1      43.961  27.459  27.845  1.00  0.00     0.167 HD
ATOM     50  C   UNL A   1      45.926  31.359  28.221  1.00  0.00     0.037 A 
ATOM     51  C   UNL A   1      43.838  24.746  27.177  1.00  0.00     0.037 A 
ATOM     52  C   UNL A   1      46.967  30.439  27.838  1.00  0.00     0.049 A 
ATOM     53  C   UNL A   1      45.265  25.169  26.956  1.00  0.00     0.074 A 
ATOM     54  C   UNL A   1      48.317  30.690  27.670  1.00  0.00     0.029 A 
ATOM     55  N   UNL A   1      46.773  29.095  27.552  1.00  0.00    -0.354 N 
ATOM     56  N   UNL A   1      45.810  26.350  27.130  1.00  0.00    -0.248 NA
ATOM     57  C   UNL A   1      46.199  24.137  26.486  1.00  0.00     0.031 C 
ATOM     58  C   UNL A   1      48.930  29.513  27.231  1.00  0.00     0.029 A 
ATOM     59  C   UNL A   1      47.974  28.510  27.182  1.00  0.00     0.049 A 
ATOM     60  H   UNL A   1      45.909  28.624  27.604  1.00  0.00     0.167 HD
ATOM     61  C   UNL A   1      47.156  26.196  26.814  1.00  0.00     0.074 A 
ATOM     62  C   UNL A   1      47.343  24.806  26.455  1.00  0.00     0.031 C 
ATOM     63  C   UNL A   1      48.147  27.123  26.825  1.00  0.00     0.037 A 
BRANCH  50  64
ATOM     64  C   UNL A   1      46.286  32.807  28.417  1.00  0.00     0.058 A 
ATOM     65  C   UNL A   1      46.722  33.300  29.659  1.00  0.00     0.135 A 
ATOM     66  C   UNL A   1      46.225  33.710  27.343  1.00  0.00     0.135 A 
ATOM     67  F   UNL A   1      46.788  32.486  30.725  1.00  0.00    -0.206 F 
ATOM     68  C   UNL A   1      47.048  34.641  29.838  1.00  0.00     0.059 A 
ATOM     69  C   UNL A   1      46.579  35.049  27.491  1.00  0.00     0.059 A 
ATOM     70  F   UNL A   1      45.817  33.296  26.133  1.00  0.00    -0.206 F 
ATOM     71  C   UNL A   1      46.972  35.508  28.747  1.00  0.00     0.060 A 
BRANCH  71  72
ATOM     72  S   UNL A   1      47.397  37.245  28.996  1.00  0.00     0.124 S 
ATOM     73  O   UNL A   1      47.494  37.314  30.451  1.00  0.00    -0.237 OA
ATOM     74  O   UNL A   1      48.658  37.365  28.271  1.00  0.00    -0.237 OA
ATOM     75  O   UNL A   1      46.268  37.959  28.410  1.00  0.00    -0.744 OA
ENDBRANCH  71  72
ENDBRANCH  50  64
BRANCH  51  76
ATOM     76  C   UNL A   1      43.406  23.344  26.930  1.00  0.00     0.058 A 
ATOM     77  C   UNL A   1      43.254  22.853  25.624  1.00  0.00     0.135 A 
ATOM     78  C   UNL A   1      43.160  22.459  27.992  1.00  0.00     0.135 A 
ATOM     79  F   UNL A   1      43.471  23.662  24.575  1.00  0.00    -0.206 F 
ATOM     80  C   UNL A   1      42.862  21.541  25.379  1.00  0.00     0.059 A 
ATOM     81  C   UNL A   1      42.794  21.135  27.772  1.00  0.00     0.059 A 
ATOM     82  F   UNL A   1      43.306  22.873  29.260  1.00  0.00    -0.206 F 
ATOM     83  C   UNL A   1      42.639  20.688  26.461  1.00  0.00     0.060 A 
BRANCH  83  84
ATOM     84  S   UNL A   1      42.186  18.971  26.129  1.00  0.00     0.124 S 
ATOM     85  O   UNL A   1      42.462  18.341  27.415  1.00  0.00    -0.237 OA
ATOM     86  O   UNL A   1      40.778  19.092  25.764  1.00  0.00    -0.237 OA
ATOM     87  O   UNL A   1      43.079  18.594  25.037  1.00  0.00    -0.744 OA
ENDBRANCH  83  84
ENDBRANCH  51  76
BRANCH  63  88
ATOM     88  C   UNL A   1      49.533  26.660  26.463  1.00  0.00     0.058 A 
ATOM     89  C   UNL A   1      50.373  26.039  27.400  1.00  0.00     0.135 A 
ATOM     90  C   UNL A   1      50.007  26.800  25.148  1.00  0.00     0.135 A 
ATOM     91  F   UNL A   1      49.972  25.886  28.672  1.00  0.00    -0.206 F 
ATOM     92  C   UNL A   1      51.645  25.596  27.053  1.00  0.00     0.059 A 
ATOM     93  C   UNL A   1      51.264  26.335  24.772  1.00  0.00     0.059 A 
ATOM     94  F   UNL A   1      49.241  27.378  24.210  1.00  0.00    -0.206 F 
ATOM     95  C   UNL A   1      52.081  25.746  25.735  1.00  0.00     0.060 A 
BRANCH  95  96
ATOM     96  S   UNL A   1      53.722  25.139  25.291  1.00  0.00     0.124 S 
ATOM     97  O   UNL A   1      54.551  25.753  26.322  1.00  0.00    -0.237 OA
ATOM     98  O   UNL A   1      53.556  23.692  25.391  1.00  0.00    -0.237 OA
ATOM     99  O   UNL A   1      53.921  25.649  23.938  1.00  0.00    -0.744 OA
ENDBRANCH  95  96
ENDBRANCH  63  88
ENDBRANCH  37  38
ENDBRANCH  29  32
ENDBRANCH  27  28
ENDBRANCH  26  27
ENDBRANCH  25  26
ENDBRANCH   1  25
TORSDOF 19
ENDMDL
MODEL 3
REMARK VINA RESULT:     -11.1      1.800      2.969
REMARK SMILES C[C@@H](Sc1nc2ccccc2c(=O)n1N)C(=O)NCCCCCCNC(=O)c1ccc(-c2c3nc(c(-c4c(F)cc(S(=O)(=O)[O-])cc4F)c4ccc([nH]4)c(-c4c(F)cc(S(=O)(=O)[O-])cc4F)c4nc(c(-c5c(F)cc(S(=O)(=O)[O-])cc5F)c5ccc2[nH]5)C=C4)C=C3)cc1
REMARK SMILES IDX 21 1 20 2 19 3 18 4 16 5 17 6 2 8 1 9 3 10 4 11 5 12 14 13
REMARK SMILES IDX 6 14 12 15 7 16 11 17 13 18 8 19 10 20 9 21 15 22 22 25
REMARK SMILES IDX 23 26 24 27 25 28 26 29 27 31 28 32 29 33 93 34 30 35 92 36
REMARK SMILES IDX 31 37 32 38 33 39 86 40 34 41 91 42 85 43 87 44 35 45 90 46
REMARK SMILES IDX 84 47 83 48 36 50 70 51 49 52 69 53 50 54 53 55 68 56 88 57
REMARK SMILES IDX 51 58 52 59 67 61 89 62 54 63 37 64 38 65 47 66 39 67 40 68
REMARK SMILES IDX 46 69 48 70 41 71 42 72 43 73 44 74 45 75 71 76 72 77 81 78
REMARK SMILES IDX 73 79 74 80 80 81 82 82 75 83 76 84 77 85 78 86 79 87 55 88
REMARK SMILES IDX 56 89 65 90 57 91 58 92 64 93 66 94 59 95 60 96 61 97 62 98
REMARK SMILES IDX 63 99
REMARK H PARENT 18 7 15 23 15 24 25 30 87 49 53 60
REMARK Flexibility Score: inf
ROOT
ATOM      1  C   UNL A   1      38.011  23.473  26.148  1.00  0.00     0.002 C 
ENDROOT
BRANCH   1   2
ATOM      2  C   UNL A   1      36.798  23.712  25.241  1.00  0.00     0.021 C 
BRANCH   2   3
ATOM      3  C   UNL A   1      36.272  22.441  24.580  1.00  0.00     0.116 C 
BRANCH   3   4
ATOM      4  N   UNL A   1      35.504  22.767  23.393  1.00  0.00    -0.355 N 
ATOM      5  C   UNL A   1      34.196  23.122  23.254  1.00  0.00     0.233 C 
ATOM      6  O   UNL A   1      33.782  23.324  22.107  1.00  0.00    -0.274 OA
ATOM      7  H   UNL A   1      36.011  22.725  22.549  1.00  0.00     0.163 HD
BRANCH   5   8
ATOM      8  C   UNL A   1      33.265  23.281  24.459  1.00  0.00     0.141 C 
ATOM      9  C   UNL A   1      33.198  24.715  24.972  1.00  0.00     0.030 C 
BRANCH   8  10
ATOM     10  S   UNL A   1      31.676  22.472  24.047  1.00  0.00    -0.073 SA
BRANCH  10  11
ATOM     11  C   UNL A   1      32.154  20.809  23.834  1.00  0.00     0.191 A 
ATOM     12  N   UNL A   1      32.455  20.145  24.902  1.00  0.00    -0.222 NA
ATOM     13  N   UNL A   1      32.104  20.255  22.560  1.00  0.00    -0.202 N 
ATOM     14  C   UNL A   1      32.720  18.775  24.775  1.00  0.00     0.079 A 
ATOM     15  C   UNL A   1      32.342  18.897  22.348  1.00  0.00     0.280 A 
ATOM     16  C   UNL A   1      32.996  18.036  25.928  1.00  0.00     0.029 A 
ATOM     17  C   UNL A   1      32.670  18.108  23.550  1.00  0.00     0.068 A 
ATOM     18  O   UNL A   1      32.257  18.359  21.244  1.00  0.00    -0.267 OA
ATOM     19  C   UNL A   1      33.216  16.657  25.855  1.00  0.00     0.002 A 
ATOM     20  C   UNL A   1      32.894  16.729  23.464  1.00  0.00     0.016 A 
ATOM     21  C   UNL A   1      33.165  16.004  24.623  1.00  0.00     0.001 A 
BRANCH  13  22
ATOM     22  N   UNL A   1      31.779  21.039  21.405  1.00  0.00    -0.334 N 
ATOM     23  H   UNL A   1      32.394  21.745  21.100  1.00  0.00     0.178 HD
ATOM     24  H   UNL A   1      30.940  20.874  20.917  1.00  0.00     0.178 HD
ENDBRANCH  13  22
ENDBRANCH  10  11
ENDBRANCH   8  10
ENDBRANCH   5   8
ENDBRANCH   3   4
ENDBRANCH   2   3
ENDBRANCH   1   2
BRANCH   1  25
ATOM     25  C   UNL A   1      38.700  22.117  25.956  1.00  0.00     0.002 C 
BRANCH  25  26
ATOM     26  C   UNL A   1      39.999  21.937  26.745  1.00  0.00     0.021 C 
BRANCH  26  27
ATOM     27  C   UNL A   1      40.627  23.239  27.229  1.00  0.00     0.116 C 
BRANCH  27  28
ATOM     28  N   UNL A   1      41.423  23.876  26.192  1.00  0.00    -0.352 N 
ATOM     29  C   UNL A   1      41.736  25.201  26.031  1.00  0.00     0.251 C 
ATOM     30  H   UNL A   1      41.790  23.270  25.510  1.00  0.00     0.163 HD
ATOM     31  O   UNL A   1      42.240  25.589  24.978  1.00  0.00    -0.269 OA
BRANCH  29  32
ATOM     32  C   UNL A   1      41.447  26.163  27.116  1.00  0.00     0.039 A 
ATOM     33  C   UNL A   1      40.435  25.866  28.032  1.00  0.00     0.014 A 
ATOM     34  C   UNL A   1      42.171  27.353  27.229  1.00  0.00     0.014 A 
ATOM     35  C   UNL A   1      40.190  26.737  29.094  1.00  0.00     0.010 A 
ATOM     36  C   UNL A   1      41.977  28.182  28.331  1.00  0.00     0.010 A 
ATOM     37  C   UNL A   1      40.982  27.884  29.272  1.00  0.00    -0.014 A 
BRANCH  37  38
ATOM     38  C   UNL A   1      40.788  28.772  30.449  1.00  0.00     0.031 A 
ATOM     39  C   UNL A   1      41.620  28.585  31.688  1.00  0.00     0.074 A 
ATOM     40  C   UNL A   1      39.822  29.712  30.417  1.00  0.00     0.049 A 
ATOM     41  N   UNL A   1      41.567  29.234  32.823  1.00  0.00    -0.248 NA
ATOM     42  C   UNL A   1      42.625  27.511  31.660  1.00  0.00     0.031 C 
ATOM     43  C   UNL A   1      38.918  29.955  29.291  1.00  0.00     0.029 A 
ATOM     44  N   UNL A   1      39.436  30.634  31.357  1.00  0.00    -0.354 N 
ATOM     45  C   UNL A   1      42.522  28.645  33.644  1.00  0.00     0.074 A 
ATOM     46  C   UNL A   1      43.098  27.548  32.897  1.00  0.00     0.031 C 
ATOM     47  C   UNL A   1      38.102  30.978  29.594  1.00  0.00     0.029 A 
ATOM     48  C   UNL A   1      38.395  31.435  30.949  1.00  0.00     0.049 A 
ATOM     49  H   UNL A   1      39.863  30.714  32.240  1.00  0.00     0.167 HD
ATOM     50  C   UNL A   1      42.900  29.001  34.895  1.00  0.00     0.037 A 
ATOM     51  C   UNL A   1      37.744  32.422  31.595  1.00  0.00     0.037 A 
ATOM     52  C   UNL A   1      42.330  30.104  35.625  1.00  0.00     0.049 A 
ATOM     53  C   UNL A   1      38.173  32.792  32.988  1.00  0.00     0.074 A 
ATOM     54  C   UNL A   1      42.681  30.582  36.875  1.00  0.00     0.029 A 
ATOM     55  N   UNL A   1      41.282  30.897  35.176  1.00  0.00    -0.354 N 
ATOM     56  N   UNL A   1      39.127  32.269  33.723  1.00  0.00    -0.248 NA
ATOM     57  C   UNL A   1      37.444  33.888  33.639  1.00  0.00     0.031 C 
ATOM     58  C   UNL A   1      41.812  31.627  37.205  1.00  0.00     0.029 A 
ATOM     59  C   UNL A   1      40.956  31.842  36.136  1.00  0.00     0.049 A 
ATOM     60  H   UNL A   1      40.835  30.801  34.303  1.00  0.00     0.167 HD
ATOM     61  C   UNL A   1      39.128  32.991  34.912  1.00  0.00     0.074 A 
ATOM     62  C   UNL A   1      38.092  33.995  34.791  1.00  0.00     0.031 C 
ATOM     63  C   UNL A   1      39.919  32.836  36.003  1.00  0.00     0.037 A 
BRANCH  50  64
ATOM     64  C   UNL A   1      43.979  28.186  35.556  1.00  0.00     0.058 A 
ATOM     65  C   UNL A   1      43.678  27.097  36.392  1.00  0.00     0.135 A 
ATOM     66  C   UNL A   1      45.335  28.476  35.328  1.00  0.00     0.135 A 
ATOM     67  F   UNL A   1      42.400  26.780  36.657  1.00  0.00    -0.206 F 
ATOM     68  C   UNL A   1      44.679  26.349  37.005  1.00  0.00     0.059 A 
ATOM     69  C   UNL A   1      46.352  27.721  35.905  1.00  0.00     0.059 A 
ATOM     70  F   UNL A   1      45.683  29.503  34.538  1.00  0.00    -0.206 F 
ATOM     71  C   UNL A   1      46.014  26.670  36.756  1.00  0.00     0.060 A 
BRANCH  71  72
ATOM     72  S   UNL A   1      47.299  25.692  37.562  1.00  0.00     0.124 S 
ATOM     73  O   UNL A   1      48.498  26.450  37.220  1.00  0.00    -0.237 OA
ATOM     74  O   UNL A   1      46.897  25.743  38.964  1.00  0.00    -0.237 OA
ATOM     75  O   UNL A   1      47.182  24.384  36.925  1.00  0.00    -0.744 OA
ENDBRANCH  71  72
ENDBRANCH  50  64
BRANCH  51  76
ATOM     76  C   UNL A   1      36.634  33.143  30.916  1.00  0.00     0.058 A 
ATOM     77  C   UNL A   1      36.889  34.038  29.866  1.00  0.00     0.135 A 
ATOM     78  C   UNL A   1      35.296  32.937  31.287  1.00  0.00     0.135 A 
ATOM     79  F   UNL A   1      38.152  34.274  29.478  1.00  0.00    -0.206 F 
ATOM     80  C   UNL A   1      35.860  34.710  29.214  1.00  0.00     0.059 A 
ATOM     81  C   UNL A   1      34.248  33.577  30.633  1.00  0.00     0.059 A 
ATOM     82  F   UNL A   1      34.997  32.080  32.276  1.00  0.00    -0.206 F 
ATOM     83  C   UNL A   1      34.541  34.469  29.603  1.00  0.00     0.060 A 
BRANCH  83  84
ATOM     84  S   UNL A   1      33.211  35.304  28.712  1.00  0.00     0.124 S 
ATOM     85  O   UNL A   1      33.957  36.236  27.875  1.00  0.00    -0.237 OA
ATOM     86  O   UNL A   1      32.565  34.195  28.016  1.00  0.00    -0.237 OA
ATOM     87  O   UNL A   1      32.420  35.909  29.781  1.00  0.00    -0.744 OA
ENDBRANCH  83  84
ENDBRANCH  51  76
BRANCH  63  88
ATOM     88  C   UNL A   1      39.716  33.793  37.147  1.00  0.00     0.058 A 
ATOM     89  C   UNL A   1      38.867  33.490  38.223  1.00  0.00     0.135 A 
ATOM     90  C   UNL A   1      40.417  35.010  37.188  1.00  0.00     0.135 A 
ATOM     91  F   UNL A   1      38.168  32.344  38.232  1.00  0.00    -0.206 F 
ATOM     92  C   UNL A   1      38.701  34.371  39.287  1.00  0.00     0.059 A 
ATOM     93  C   UNL A   1      40.289  35.891  38.257  1.00  0.00     0.059 A 
ATOM     94  F   UNL A   1      41.250  35.345  36.190  1.00  0.00    -0.206 F 
ATOM     95  C   UNL A   1      39.418  35.569  39.296  1.00  0.00     0.060 A 
BRANCH  95  96
ATOM     96  S   UNL A   1      39.215  36.689  40.697  1.00  0.00     0.124 S 
ATOM     97  O   UNL A   1      40.565  36.714  41.251  1.00  0.00    -0.237 OA
ATOM     98  O   UNL A   1      38.773  37.920  40.050  1.00  0.00    -0.237 OA
ATOM     99  O   UNL A   1      38.211  36.025  41.523  1.00  0.00    -0.744 OA
ENDBRANCH  95  96
ENDBRANCH  63  88
ENDBRANCH  37  38
ENDBRANCH  29  32
ENDBRANCH  27  28
ENDBRANCH  26  27
ENDBRANCH  25  26
ENDBRANCH   1  25
TORSDOF 19
ENDMDL
