MODEL 1
REMARK VINA RESULT:     -11.8      0.000      0.000
REMARK SMILES C[NH+]1CCC(NC(=O)N[C@H]2C=C[C@H](C(=O)NCCCCCCNC(=O)c3ccc(-c4c5nc(c(-c6c(F)cc(S(=O)(=O)[O-])cc6F)c6ccc([nH]6)c(-c6c(F)cc(S(=O)(=O)[O-])cc6F)c6nc(c(-c7c(F)cc(S(=O)(=O)[O-])cc7F)c7ccc4[nH]7)C=C6)C=C5)cc3)C2)CC1
REMARK SMILES IDX 20 1 19 2 18 3 17 4 16 5 14 6 15 7 13 9 10 10 11 11 92 12
REMARK SMILES IDX 12 13 9 14 6 15 7 16 8 18 5 20 1 21 2 22 3 23 94 24 4 26
REMARK SMILES IDX 93 27 21 28 22 29 23 30 24 31 25 33 26 34 27 35 91 36 28 37
REMARK SMILES IDX 90 38 29 39 30 40 31 41 84 42 32 43 89 44 83 45 85 46 33 47
REMARK SMILES IDX 88 48 82 49 81 50 34 52 68 53 47 54 67 55 48 56 51 57 66 58
REMARK SMILES IDX 86 59 49 60 50 61 65 63 87 64 52 65 35 66 36 67 45 68 37 69
REMARK SMILES IDX 38 70 44 71 46 72 39 73 40 74 41 75 42 76 43 77 69 78 70 79
REMARK SMILES IDX 79 80 71 81 72 82 78 83 80 84 73 85 74 86 75 87 76 88 77 89
REMARK SMILES IDX 53 90 54 91 63 92 55 93 56 94 62 95 64 96 57 97 58 98 59 99
REMARK SMILES IDX 60 100 61 101
REMARK H PARENT 16 8 6 17 9 19 2 25 23 32 85 51 51 62
REMARK Flexibility Score: inf
ROOT
ATOM      1  C   UNL A   1      35.675  32.832  28.002  1.00  0.00     0.002 C 
ENDROOT
BRANCH   1   2
ATOM      2  C   UNL A   1      34.947  31.480  28.058  1.00  0.00     0.002 C 
BRANCH   2   3
ATOM      3  C   UNL A   1      33.515  31.494  27.509  1.00  0.00     0.021 C 
BRANCH   3   4
ATOM      4  C   UNL A   1      32.993  30.106  27.122  1.00  0.00     0.116 C 
BRANCH   4   5
ATOM      5  N   UNL A   1      33.388  29.682  25.787  1.00  0.00    -0.356 N 
ATOM      6  C   UNL A   1      32.732  28.854  24.909  1.00  0.00     0.227 C 
ATOM      7  O   UNL A   1      33.104  28.826  23.735  1.00  0.00    -0.274 OA
ATOM      8  H   UNL A   1      34.247  30.040  25.469  1.00  0.00     0.163 HD
BRANCH   6   9
ATOM      9  C   UNL A   1      31.581  27.987  25.421  1.00  0.00     0.103 C 
ATOM     10  C   UNL A   1      31.299  25.548  25.528  1.00  0.00     0.107 C 
ATOM     11  C   UNL A   1      30.461  26.146  24.456  1.00  0.00    -0.006 C 
ATOM     12  C   UNL A   1      32.053  26.719  26.164  1.00  0.00     0.047 C 
ATOM     13  C   UNL A   1      30.673  27.463  24.342  1.00  0.00    -0.016 C 
BRANCH  10  14
ATOM     14  N   UNL A   1      30.574  24.632  26.397  1.00  0.00    -0.332 N 
ATOM     15  N   UNL A   1      31.582  22.504  26.764  1.00  0.00    -0.335 N 
ATOM     16  C   UNL A   1      30.612  23.404  26.915  1.00  0.00     0.315 C 
ATOM     17  H   UNL A   1      31.369  21.631  27.166  1.00  0.00     0.165 HD
ATOM     18  O   UNL A   1      29.640  23.071  27.602  1.00  0.00    -0.249 OA
ATOM     19  H   UNL A   1      29.762  25.083  26.720  1.00  0.00     0.165 HD
BRANCH  15  20
ATOM     20  C   UNL A   1      32.878  22.539  26.132  1.00  0.00     0.095 C 
ATOM     21  C   UNL A   1      36.577  21.955  24.175  1.00  0.00     0.332 C 
ATOM     22  N   UNL A   1      35.255  21.647  24.724  1.00  0.00    -0.337 N 
ATOM     23  C   UNL A   1      34.196  22.367  24.010  1.00  0.00     0.264 C 
ATOM     24  C   UNL A   1      35.260  21.853  26.178  1.00  0.00     0.264 C 
ATOM     25  H   UNL A   1      35.039  20.663  24.574  1.00  0.00     0.347 HD
ATOM     26  C   UNL A   1      32.813  22.206  24.645  1.00  0.00     0.086 C 
ATOM     27  C   UNL A   1      33.887  21.619  26.807  1.00  0.00     0.086 C 
ENDBRANCH  15  20
ENDBRANCH  10  14
ENDBRANCH   6   9
ENDBRANCH   4   5
ENDBRANCH   3   4
ENDBRANCH   2   3
ENDBRANCH   1   2
BRANCH   1  28
ATOM     28  C   UNL A   1      35.697  33.635  29.307  1.00  0.00     0.021 C 
BRANCH  28  29
ATOM     29  C   UNL A   1      36.720  33.178  30.344  1.00  0.00     0.116 C 
BRANCH  29  30
ATOM     30  N   UNL A   1      36.264  32.023  31.103  1.00  0.00    -0.352 N 
ATOM     31  C   UNL A   1      36.794  30.762  31.199  1.00  0.00     0.251 C 
ATOM     32  H   UNL A   1      35.445  32.170  31.629  1.00  0.00     0.163 HD
ATOM     33  O   UNL A   1      36.136  29.869  31.739  1.00  0.00    -0.269 OA
BRANCH  31  34
ATOM     34  C   UNL A   1      38.135  30.462  30.653  1.00  0.00     0.039 A 
ATOM     35  C   UNL A   1      39.202  30.288  31.539  1.00  0.00     0.014 A 
ATOM     36  C   UNL A   1      38.351  30.379  29.276  1.00  0.00     0.014 A 
ATOM     37  C   UNL A   1      40.469  29.966  31.045  1.00  0.00     0.010 A 
ATOM     38  C   UNL A   1      39.594  29.983  28.789  1.00  0.00     0.010 A 
ATOM     39  C   UNL A   1      40.667  29.773  29.667  1.00  0.00    -0.014 A 
BRANCH  39  40
ATOM     40  C   UNL A   1      41.985  29.341  29.132  1.00  0.00     0.031 A 
ATOM     41  C   UNL A   1      43.108  30.333  28.982  1.00  0.00     0.074 A 
ATOM     42  C   UNL A   1      42.149  28.067  28.722  1.00  0.00     0.049 A 
ATOM     43  N   UNL A   1      44.302  30.157  28.477  1.00  0.00    -0.248 NA
ATOM     44  C   UNL A   1      42.845  31.708  29.435  1.00  0.00     0.031 C 
ATOM     45  C   UNL A   1      41.120  27.024  28.773  1.00  0.00     0.029 A 
ATOM     46  N   UNL A   1      43.235  27.432  28.173  1.00  0.00    -0.354 N 
ATOM     47  C   UNL A   1      44.929  31.397  28.544  1.00  0.00     0.074 A 
ATOM     48  C   UNL A   1      43.963  32.328  29.084  1.00  0.00     0.031 C 
ATOM     49  C   UNL A   1      41.633  25.877  28.300  1.00  0.00     0.029 A 
ATOM     50  C   UNL A   1      43.007  26.109  27.871  1.00  0.00     0.049 A 
ATOM     51  H   UNL A   1      44.096  27.881  28.011  1.00  0.00     0.167 HD
ATOM     52  C   UNL A   1      46.200  31.723  28.207  1.00  0.00     0.037 A 
ATOM     53  C   UNL A   1      43.811  25.189  27.303  1.00  0.00     0.037 A 
ATOM     54  C   UNL A   1      47.160  30.784  27.684  1.00  0.00     0.049 A 
ATOM     55  C   UNL A   1      45.214  25.581  26.920  1.00  0.00     0.074 A 
ATOM     56  C   UNL A   1      48.489  31.002  27.363  1.00  0.00     0.029 A 
ATOM     57  N   UNL A   1      46.895  29.452  27.399  1.00  0.00    -0.354 N 
ATOM     58  N   UNL A   1      45.810  26.741  27.052  1.00  0.00    -0.248 NA
ATOM     59  C   UNL A   1      46.054  24.537  26.317  1.00  0.00     0.031 C 
ATOM     60  C   UNL A   1      49.011  29.817  26.834  1.00  0.00     0.029 A 
ATOM     61  C   UNL A   1      48.026  28.843  26.882  1.00  0.00     0.049 A 
ATOM     62  H   UNL A   1      46.030  29.004  27.545  1.00  0.00     0.167 HD
ATOM     63  C   UNL A   1      47.104  26.561  26.572  1.00  0.00     0.074 A 
ATOM     64  C   UNL A   1      47.206  25.175  26.163  1.00  0.00     0.031 C 
ATOM     65  C   UNL A   1      48.114  27.460  26.480  1.00  0.00     0.037 A 
BRANCH  52  66
ATOM     66  C   UNL A   1      46.629  33.153  28.396  1.00  0.00     0.058 A 
ATOM     67  C   UNL A   1      47.301  33.576  29.556  1.00  0.00     0.135 A 
ATOM     68  C   UNL A   1      46.405  34.106  27.389  1.00  0.00     0.135 A 
ATOM     69  F   UNL A   1      47.531  32.713  30.557  1.00  0.00    -0.206 F 
ATOM     70  C   UNL A   1      47.705  34.897  29.722  1.00  0.00     0.059 A 
ATOM     71  C   UNL A   1      46.830  35.425  27.521  1.00  0.00     0.059 A 
ATOM     72  F   UNL A   1      45.770  33.759  26.259  1.00  0.00    -0.206 F 
ATOM     73  C   UNL A   1      47.466  35.815  28.699  1.00  0.00     0.060 A 
BRANCH  73  74
ATOM     74  S   UNL A   1      48.003  37.522  28.932  1.00  0.00     0.124 S 
ATOM     75  O   UNL A   1      48.380  37.897  27.572  1.00  0.00    -0.237 OA
ATOM     76  O   UNL A   1      46.797  38.159  29.454  1.00  0.00    -0.237 OA
ATOM     77  O   UNL A   1      49.108  37.406  29.880  1.00  0.00    -0.744 OA
ENDBRANCH  73  74
ENDBRANCH  52  66
BRANCH  53  78
ATOM     78  C   UNL A   1      43.315  23.805  27.077  1.00  0.00     0.058 A 
ATOM     79  C   UNL A   1      42.971  23.361  25.792  1.00  0.00     0.135 A 
ATOM     80  C   UNL A   1      43.187  22.893  28.137  1.00  0.00     0.135 A 
ATOM     81  F   UNL A   1      43.070  24.195  24.746  1.00  0.00    -0.206 F 
ATOM     82  C   UNL A   1      42.501  22.071  25.566  1.00  0.00     0.059 A 
ATOM     83  C   UNL A   1      42.747  21.590  27.934  1.00  0.00     0.059 A 
ATOM     84  F   UNL A   1      43.519  23.261  29.385  1.00  0.00    -0.206 F 
ATOM     85  C   UNL A   1      42.396  21.190  26.645  1.00  0.00     0.060 A 
BRANCH  85  86
ATOM     86  S   UNL A   1      41.831  19.504  26.333  1.00  0.00     0.124 S 
ATOM     87  O   UNL A   1      42.540  19.179  25.101  1.00  0.00    -0.237 OA
ATOM     88  O   UNL A   1      42.281  18.805  27.533  1.00  0.00    -0.237 OA
ATOM     89  O   UNL A   1      40.384  19.653  26.210  1.00  0.00    -0.744 OA
ENDBRANCH  85  86
ENDBRANCH  53  78
BRANCH  65  90
ATOM     90  C   UNL A   1      49.432  26.970  25.945  1.00  0.00     0.058 A 
ATOM     91  C   UNL A   1      49.767  27.082  24.586  1.00  0.00     0.135 A 
ATOM     92  C   UNL A   1      50.394  26.427  26.813  1.00  0.00     0.135 A 
ATOM     93  F   UNL A   1      48.882  27.587  23.712  1.00  0.00    -0.206 F 
ATOM     94  C   UNL A   1      50.999  26.652  24.103  1.00  0.00     0.059 A 
ATOM     95  C   UNL A   1      51.644  26.020  26.357  1.00  0.00     0.059 A 
ATOM     96  F   UNL A   1      50.130  26.305  28.124  1.00  0.00    -0.206 F 
ATOM     97  C   UNL A   1      51.932  26.126  24.998  1.00  0.00     0.060 A 
BRANCH  97  98
ATOM     98  S   UNL A   1      53.540  25.606  24.362  1.00  0.00     0.124 S 
ATOM     99  O   UNL A   1      53.537  24.183  24.684  1.00  0.00    -0.237 OA
ATOM    100  O   UNL A   1      53.435  25.936  22.944  1.00  0.00    -0.237 OA
ATOM    101  O   UNL A   1      54.486  26.420  25.120  1.00  0.00    -0.744 OA
ENDBRANCH  97  98
ENDBRANCH  65  90
ENDBRANCH  39  40
ENDBRANCH  31  34
ENDBRANCH  29  30
ENDBRANCH  28  29
ENDBRANCH   1  28
TORSDOF 18
ENDMDL
MODEL 2
REMARK VINA RESULT:     -11.6      0.755      8.206
REMARK SMILES C[NH+]1CCC(NC(=O)N[C@H]2C=C[C@H](C(=O)NCCCCCCNC(=O)c3ccc(-c4c5nc(c(-c6c(F)cc(S(=O)(=O)[O-])cc6F)c6ccc([nH]6)c(-c6c(F)cc(S(=O)(=O)[O-])cc6F)c6nc(c(-c7c(F)cc(S(=O)(=O)[O-])cc7F)c7ccc4[nH]7)C=C6)C=C5)cc3)C2)CC1
REMARK SMILES IDX 20 1 19 2 18 3 17 4 16 5 14 6 15 7 13 9 10 10 11 11 92 12
REMARK SMILES IDX 12 13 9 14 6 15 7 16 8 18 5 20 1 21 2 22 3 23 94 24 4 26
REMARK SMILES IDX 93 27 21 28 22 29 23 30 24 31 25 33 26 34 27 35 91 36 28 37
REMARK SMILES IDX 90 38 29 39 30 40 31 41 84 42 32 43 89 44 83 45 85 46 33 47
REMARK SMILES IDX 88 48 82 49 81 50 34 52 68 53 47 54 67 55 48 56 51 57 66 58
REMARK SMILES IDX 86 59 49 60 50 61 65 63 87 64 52 65 35 66 36 67 45 68 37 69
REMARK SMILES IDX 38 70 44 71 46 72 39 73 40 74 41 75 42 76 43 77 69 78 70 79
REMARK SMILES IDX 79 80 71 81 72 82 78 83 80 84 73 85 74 86 75 87 76 88 77 89
REMARK SMILES IDX 53 90 54 91 63 92 55 93 56 94 62 95 64 96 57 97 58 98 59 99
REMARK SMILES IDX 60 100 61 101
REMARK H PARENT 16 8 6 17 9 19 2 25 23 32 85 51 51 62
REMARK Flexibility Score: inf
ROOT
ATOM      1  C   UNL A   1      34.997  29.672  27.547  1.00  0.00     0.002 C 
ENDROOT
BRANCH   1   2
ATOM      2  C   UNL A   1      33.701  29.046  27.008  1.00  0.00     0.002 C 
BRANCH   2   3
ATOM      3  C   UNL A   1      32.452  29.924  27.152  1.00  0.00     0.021 C 
BRANCH   3   4
ATOM      4  C   UNL A   1      31.837  30.340  25.811  1.00  0.00     0.116 C 
BRANCH   4   5
ATOM      5  N   UNL A   1      32.398  29.638  24.666  1.00  0.00    -0.356 N 
ATOM      6  C   UNL A   1      31.937  28.515  24.024  1.00  0.00     0.227 C 
ATOM      7  O   UNL A   1      32.408  28.230  22.923  1.00  0.00    -0.274 OA
ATOM      8  H   UNL A   1      33.226  30.024  24.301  1.00  0.00     0.163 HD
BRANCH   6   9
ATOM      9  C   UNL A   1      30.871  27.653  24.703  1.00  0.00     0.103 C 
ATOM     10  C   UNL A   1      30.784  25.244  25.182  1.00  0.00     0.107 C 
ATOM     11  C   UNL A   1      29.873  25.610  24.067  1.00  0.00    -0.006 C 
ATOM     12  C   UNL A   1      31.461  26.550  25.608  1.00  0.00     0.047 C 
ATOM     13  C   UNL A   1      29.978  26.907  23.750  1.00  0.00    -0.016 C 
BRANCH  10  14
ATOM     14  N   UNL A   1      30.157  24.420  26.205  1.00  0.00    -0.332 N 
ATOM     15  N   UNL A   1      31.354  22.468  26.868  1.00  0.00    -0.335 N 
ATOM     16  C   UNL A   1      30.312  23.297  26.907  1.00  0.00     0.315 C 
ATOM     17  H   UNL A   1      31.225  21.655  27.408  1.00  0.00     0.165 HD
ATOM     18  O   UNL A   1      29.384  22.995  27.667  1.00  0.00    -0.249 OA
ATOM     19  H   UNL A   1      29.314  24.846  26.478  1.00  0.00     0.165 HD
BRANCH  15  20
ATOM     20  C   UNL A   1      32.632  22.512  26.199  1.00  0.00     0.095 C 
ATOM     21  C   UNL A   1      36.323  21.940  24.225  1.00  0.00     0.332 C 
ATOM     22  N   UNL A   1      35.038  21.614  24.847  1.00  0.00    -0.337 N 
ATOM     23  C   UNL A   1      33.915  22.161  24.079  1.00  0.00     0.264 C 
ATOM     24  C   UNL A   1      35.057  22.005  26.263  1.00  0.00     0.264 C 
ATOM     25  H   UNL A   1      34.892  20.606  24.830  1.00  0.00     0.347 HD
ATOM     26  C   UNL A   1      32.560  21.986  24.769  1.00  0.00     0.086 C 
ATOM     27  C   UNL A   1      33.718  21.759  26.956  1.00  0.00     0.086 C 
ENDBRANCH  15  20
ENDBRANCH  10  14
ENDBRANCH   6   9
ENDBRANCH   4   5
ENDBRANCH   3   4
ENDBRANCH   2   3
ENDBRANCH   1   2
BRANCH   1  28
ATOM     28  C   UNL A   1      34.896  31.131  28.004  1.00  0.00     0.021 C 
BRANCH  28  29
ATOM     29  C   UNL A   1      36.034  31.624  28.895  1.00  0.00     0.116 C 
BRANCH  29  30
ATOM     30  N   UNL A   1      35.933  31.118  30.256  1.00  0.00    -0.352 N 
ATOM     31  C   UNL A   1      36.733  30.235  30.934  1.00  0.00     0.251 C 
ATOM     32  H   UNL A   1      35.168  31.465  30.771  1.00  0.00     0.163 HD
ATOM     33  O   UNL A   1      36.353  29.784  32.017  1.00  0.00    -0.269 OA
BRANCH  31  34
ATOM     34  C   UNL A   1      38.034  29.811  30.374  1.00  0.00     0.039 A 
ATOM     35  C   UNL A   1      38.203  29.802  28.987  1.00  0.00     0.014 A 
ATOM     36  C   UNL A   1      39.076  29.395  31.206  1.00  0.00     0.014 A 
ATOM     37  C   UNL A   1      39.437  29.442  28.440  1.00  0.00     0.010 A 
ATOM     38  C   UNL A   1      40.328  29.110  30.665  1.00  0.00     0.010 A 
ATOM     39  C   UNL A   1      40.522  29.129  29.276  1.00  0.00    -0.014 A 
BRANCH  39  40
ATOM     40  C   UNL A   1      41.866  28.832  28.715  1.00  0.00     0.031 A 
ATOM     41  C   UNL A   1      42.208  27.441  28.253  1.00  0.00     0.074 A 
ATOM     42  C   UNL A   1      42.800  29.804  28.682  1.00  0.00     0.049 A 
ATOM     43  N   UNL A   1      43.343  26.978  27.797  1.00  0.00    -0.248 NA
ATOM     44  C   UNL A   1      41.140  26.431  28.337  1.00  0.00     0.031 C 
ATOM     45  C   UNL A   1      42.604  31.181  29.145  1.00  0.00     0.029 A 
ATOM     46  N   UNL A   1      44.103  29.784  28.250  1.00  0.00    -0.354 N 
ATOM     47  C   UNL A   1      43.131  25.627  27.549  1.00  0.00     0.074 A 
ATOM     48  C   UNL A   1      41.776  25.331  27.959  1.00  0.00     0.031 C 
ATOM     49  C   UNL A   1      43.735  31.877  28.948  1.00  0.00     0.029 A 
ATOM     50  C   UNL A   1      44.750  30.991  28.389  1.00  0.00     0.049 A 
ATOM     51  H   UNL A   1      44.534  28.983  27.874  1.00  0.00     0.167 HD
ATOM     52  C   UNL A   1      43.980  24.720  27.007  1.00  0.00     0.037 A 
ATOM     53  C   UNL A   1      46.020  31.341  28.107  1.00  0.00     0.037 A 
ATOM     54  C   UNL A   1      45.323  25.028  26.586  1.00  0.00     0.049 A 
ATOM     55  C   UNL A   1      46.950  30.312  27.524  1.00  0.00     0.074 A 
ATOM     56  C   UNL A   1      46.246  24.195  25.976  1.00  0.00     0.029 A 
ATOM     57  N   UNL A   1      45.940  26.262  26.736  1.00  0.00    -0.354 N 
ATOM     58  N   UNL A   1      46.711  29.055  27.235  1.00  0.00    -0.248 NA
ATOM     59  C   UNL A   1      48.320  30.749  27.222  1.00  0.00     0.031 C 
ATOM     60  C   UNL A   1      47.436  24.909  25.807  1.00  0.00     0.029 A 
ATOM     61  C   UNL A   1      47.238  26.206  26.256  1.00  0.00     0.049 A 
ATOM     62  H   UNL A   1      45.517  27.061  27.126  1.00  0.00     0.167 HD
ATOM     63  C   UNL A   1      47.893  28.558  26.693  1.00  0.00     0.074 A 
ATOM     64  C   UNL A   1      48.838  29.656  26.681  1.00  0.00     0.031 C 
ATOM     65  C   UNL A   1      48.168  27.308  26.247  1.00  0.00     0.037 A 
BRANCH  52  66
ATOM     66  C   UNL A   1      43.483  23.310  26.835  1.00  0.00     0.058 A 
ATOM     67  C   UNL A   1      43.152  22.792  25.571  1.00  0.00     0.135 A 
ATOM     68  C   UNL A   1      43.375  22.450  27.940  1.00  0.00     0.135 A 
ATOM     69  F   UNL A   1      43.223  23.572  24.481  1.00  0.00    -0.206 F 
ATOM     70  C   UNL A   1      42.702  21.485  25.414  1.00  0.00     0.059 A 
ATOM     71  C   UNL A   1      42.957  21.129  27.802  1.00  0.00     0.059 A 
ATOM     72  F   UNL A   1      43.678  22.889  29.172  1.00  0.00    -0.206 F 
ATOM     73  C   UNL A   1      42.609  20.660  26.536  1.00  0.00     0.060 A 
BRANCH  73  74
ATOM     74  S   UNL A   1      42.029  18.965  26.312  1.00  0.00     0.124 S 
ATOM     75  O   UNL A   1      42.137  18.439  27.669  1.00  0.00    -0.237 OA
ATOM     76  O   UNL A   1      40.670  19.165  25.816  1.00  0.00    -0.237 OA
ATOM     77  O   UNL A   1      42.971  18.407  25.346  1.00  0.00    -0.744 OA
ENDBRANCH  73  74
ENDBRANCH  52  66
BRANCH  53  78
ATOM     78  C   UNL A   1      46.481  32.734  28.359  1.00  0.00     0.058 A 
ATOM     79  C   UNL A   1      46.398  33.714  27.359  1.00  0.00     0.135 A 
ATOM     80  C   UNL A   1      47.001  33.117  29.605  1.00  0.00     0.135 A 
ATOM     81  F   UNL A   1      45.914  33.397  26.148  1.00  0.00    -0.206 F 
ATOM     82  C   UNL A   1      46.829  35.019  27.577  1.00  0.00     0.059 A 
ATOM     83  C   UNL A   1      47.411  34.422  29.858  1.00  0.00     0.059 A 
ATOM     84  F   UNL A   1      47.086  32.223  30.602  1.00  0.00    -0.206 F 
ATOM     85  C   UNL A   1      47.331  35.364  28.833  1.00  0.00     0.060 A 
BRANCH  85  86
ATOM     86  S   UNL A   1      47.843  37.072  29.120  1.00  0.00     0.124 S 
ATOM     87  O   UNL A   1      46.644  37.807  28.735  1.00  0.00    -0.237 OA
ATOM     88  O   UNL A   1      48.155  37.060  30.546  1.00  0.00    -0.237 OA
ATOM     89  O   UNL A   1      48.994  37.229  28.237  1.00  0.00    -0.744 OA
ENDBRANCH  85  86
ENDBRANCH  53  78
BRANCH  65  90
ATOM     90  C   UNL A   1      49.539  27.062  25.676  1.00  0.00     0.058 A 
ATOM     91  C   UNL A   1      49.823  27.273  24.318  1.00  0.00     0.135 A 
ATOM     92  C   UNL A   1      50.594  26.659  26.510  1.00  0.00     0.135 A 
ATOM     93  F   UNL A   1      48.850  27.652  23.474  1.00  0.00    -0.206 F 
ATOM     94  C   UNL A   1      51.100  27.071  23.802  1.00  0.00     0.059 A 
ATOM     95  C   UNL A   1      51.885  26.481  26.024  1.00  0.00     0.059 A 
ATOM     96  F   UNL A   1      50.380  26.451  27.820  1.00  0.00    -0.206 F 
ATOM     97  C   UNL A   1      52.125  26.679  24.664  1.00  0.00     0.060 A 
BRANCH  97  98
ATOM     98  S   UNL A   1      53.784  26.455  23.988  1.00  0.00     0.124 S 
ATOM     99  O   UNL A   1      54.382  27.763  24.238  1.00  0.00    -0.237 OA
ATOM    100  O   UNL A   1      54.304  25.356  24.796  1.00  0.00    -0.237 OA
ATOM    101  O   UNL A   1      53.540  26.134  22.585  1.00  0.00    -0.744 OA
ENDBRANCH  97  98
ENDBRANCH  65  90
ENDBRANCH  39  40
ENDBRANCH  31  34
ENDBRANCH  29  30
ENDBRANCH  28  29
ENDBRANCH   1  28
TORSDOF 18
ENDMDL
MODEL 3
REMARK VINA RESULT:     -11.6      1.254      1.968
REMARK SMILES C[NH+]1CCC(NC(=O)N[C@H]2C=C[C@H](C(=O)NCCCCCCNC(=O)c3ccc(-c4c5nc(c(-c6c(F)cc(S(=O)(=O)[O-])cc6F)c6ccc([nH]6)c(-c6c(F)cc(S(=O)(=O)[O-])cc6F)c6nc(c(-c7c(F)cc(S(=O)(=O)[O-])cc7F)c7ccc4[nH]7)C=C6)C=C5)cc3)C2)CC1
REMARK SMILES IDX 20 1 19 2 18 3 17 4 16 5 14 6 15 7 13 9 10 10 11 11 92 12
REMARK SMILES IDX 12 13 9 14 6 15 7 16 8 18 5 20 1 21 2 22 3 23 94 24 4 26
REMARK SMILES IDX 93 27 21 28 22 29 23 30 24 31 25 33 26 34 27 35 91 36 28 37
REMARK SMILES IDX 90 38 29 39 30 40 31 41 84 42 32 43 89 44 83 45 85 46 33 47
REMARK SMILES IDX 88 48 82 49 81 50 34 52 68 53 47 54 67 55 48 56 51 57 66 58
REMARK SMILES IDX 86 59 49 60 50 61 65 63 87 64 52 65 35 66 36 67 45 68 37 69
REMARK SMILES IDX 38 70 44 71 46 72 39 73 40 74 41 75 42 76 43 77 69 78 70 79
REMARK SMILES IDX 79 80 71 81 72 82 78 83 80 84 73 85 74 86 75 87 76 88 77 89
REMARK SMILES IDX 53 90 54 91 63 92 55 93 56 94 62 95 64 96 57 97 58 98 59 99
REMARK SMILES IDX 60 100 61 101
REMARK H PARENT 16 8 6 17 9 19 2 25 23 32 85 51 51 62
REMARK Flexibility Score: inf
ROOT
ATOM      1  C   UNL A   1      33.128  28.319  26.879  1.00  0.00     0.002 C 
ENDROOT
BRANCH   1   2
ATOM      2  C   UNL A   1      33.811  27.439  25.819  1.00  0.00     0.002 C 
BRANCH   2   3
ATOM      3  C   UNL A   1      33.829  28.031  24.404  1.00  0.00     0.021 C 
BRANCH   3   4
ATOM      4  C   UNL A   1      33.161  27.134  23.357  1.00  0.00     0.116 C 
BRANCH   4   5
ATOM      5  N   UNL A   1      32.153  27.816  22.558  1.00  0.00    -0.356 N 
ATOM      6  C   UNL A   1      30.787  27.669  22.573  1.00  0.00     0.227 C 
ATOM      7  O   UNL A   1      30.097  28.518  22.008  1.00  0.00    -0.274 OA
ATOM      8  H   UNL A   1      32.500  28.476  21.917  1.00  0.00     0.163 HD
BRANCH   6   9
ATOM      9  C   UNL A   1      30.176  26.452  23.270  1.00  0.00     0.103 C 
ATOM     10  C   UNL A   1      30.976  25.074  25.142  1.00  0.00     0.107 C 
ATOM     11  C   UNL A   1      31.095  24.355  23.847  1.00  0.00    -0.006 C 
ATOM     12  C   UNL A   1      30.396  26.448  24.798  1.00  0.00     0.047 C 
ATOM     13  C   UNL A   1      30.737  25.132  22.817  1.00  0.00    -0.016 C 
BRANCH  10  14
ATOM     14  N   UNL A   1      30.338  24.291  26.190  1.00  0.00    -0.332 N 
ATOM     15  N   UNL A   1      31.527  22.368  26.943  1.00  0.00    -0.335 N 
ATOM     16  C   UNL A   1      30.484  23.197  26.938  1.00  0.00     0.315 C 
ATOM     17  H   UNL A   1      31.392  21.577  27.514  1.00  0.00     0.165 HD
ATOM     18  O   UNL A   1      29.549  22.927  27.700  1.00  0.00    -0.249 OA
ATOM     19  H   UNL A   1      29.492  24.728  26.438  1.00  0.00     0.165 HD
BRANCH  15  20
ATOM     20  C   UNL A   1      32.811  22.385  26.286  1.00  0.00     0.095 C 
ATOM     21  C   UNL A   1      36.839  22.366  25.009  1.00  0.00     0.332 C 
ATOM     22  N   UNL A   1      35.688  22.293  25.912  1.00  0.00    -0.337 N 
ATOM     23  C   UNL A   1      34.866  21.110  25.639  1.00  0.00     0.264 C 
ATOM     24  C   UNL A   1      34.955  23.565  25.889  1.00  0.00     0.264 C 
ATOM     25  H   UNL A   1      36.009  22.164  26.871  1.00  0.00     0.347 HD
ATOM     26  C   UNL A   1      33.567  21.069  26.446  1.00  0.00     0.086 C 
ATOM     27  C   UNL A   1      33.697  23.531  26.756  1.00  0.00     0.086 C 
ENDBRANCH  15  20
ENDBRANCH  10  14
ENDBRANCH   6   9
ENDBRANCH   4   5
ENDBRANCH   3   4
ENDBRANCH   2   3
ENDBRANCH   1   2
BRANCH   1  28
ATOM     28  C   UNL A   1      33.810  29.658  27.178  1.00  0.00     0.021 C 
BRANCH  28  29
ATOM     29  C   UNL A   1      35.199  29.565  27.803  1.00  0.00     0.116 C 
BRANCH  29  30
ATOM     30  N   UNL A   1      35.313  30.352  29.023  1.00  0.00    -0.352 N 
ATOM     31  C   UNL A   1      36.364  30.490  29.892  1.00  0.00     0.251 C 
ATOM     32  H   UNL A   1      34.507  30.864  29.262  1.00  0.00     0.163 HD
ATOM     33  O   UNL A   1      36.182  31.048  30.977  1.00  0.00    -0.269 OA
BRANCH  31  34
ATOM     34  C   UNL A   1      37.704  29.969  29.547  1.00  0.00     0.039 A 
ATOM     35  C   UNL A   1      38.077  29.901  28.202  1.00  0.00     0.014 A 
ATOM     36  C   UNL A   1      38.580  29.520  30.538  1.00  0.00     0.014 A 
ATOM     37  C   UNL A   1      39.353  29.447  27.858  1.00  0.00     0.010 A 
ATOM     38  C   UNL A   1      39.877  29.141  30.201  1.00  0.00     0.010 A 
ATOM     39  C   UNL A   1      40.278  29.099  28.857  1.00  0.00    -0.014 A 
BRANCH  39  40
ATOM     40  C   UNL A   1      41.669  28.701  28.514  1.00  0.00     0.031 A 
ATOM     41  C   UNL A   1      42.766  29.731  28.472  1.00  0.00     0.074 A 
ATOM     42  C   UNL A   1      41.930  27.422  28.180  1.00  0.00     0.049 A 
ATOM     43  N   UNL A   1      44.021  29.587  28.134  1.00  0.00    -0.248 NA
ATOM     44  C   UNL A   1      42.398  31.110  28.833  1.00  0.00     0.031 C 
ATOM     45  C   UNL A   1      40.941  26.341  28.138  1.00  0.00     0.029 A 
ATOM     46  N   UNL A   1      43.100  26.812  27.801  1.00  0.00    -0.354 N 
ATOM     47  C   UNL A   1      44.590  30.852  28.232  1.00  0.00     0.074 A 
ATOM     48  C   UNL A   1      43.530  31.762  28.605  1.00  0.00     0.031 C 
ATOM     49  C   UNL A   1      41.550  25.199  27.782  1.00  0.00     0.029 A 
ATOM     50  C   UNL A   1      42.960  25.472  27.525  1.00  0.00     0.049 A 
ATOM     51  H   UNL A   1      43.958  27.289  27.735  1.00  0.00     0.167 HD
ATOM     52  C   UNL A   1      45.883  31.217  28.050  1.00  0.00     0.037 A 
ATOM     53  C   UNL A   1      43.864  24.565  27.102  1.00  0.00     0.037 A 
ATOM     54  C   UNL A   1      46.935  30.300  27.693  1.00  0.00     0.049 A 
ATOM     55  C   UNL A   1      45.289  24.999  26.889  1.00  0.00     0.074 A 
ATOM     56  C   UNL A   1      48.286  30.559  27.538  1.00  0.00     0.029 A 
ATOM     57  N   UNL A   1      46.756  28.949  27.429  1.00  0.00    -0.354 N 
ATOM     58  N   UNL A   1      45.822  26.187  27.051  1.00  0.00    -0.248 NA
ATOM     59  C   UNL A   1      46.237  23.969  26.441  1.00  0.00     0.031 C 
ATOM     60  C   UNL A   1      48.914  29.378  27.128  1.00  0.00     0.029 A 
ATOM     61  C   UNL A   1      47.966  28.368  27.086  1.00  0.00     0.049 A 
ATOM     62  H   UNL A   1      45.896  28.472  27.479  1.00  0.00     0.167 HD
ATOM     63  C   UNL A   1      47.173  26.042  26.751  1.00  0.00     0.074 A 
ATOM     64  C   UNL A   1      47.376  24.647  26.413  1.00  0.00     0.031 C 
ATOM     65  C   UNL A   1      48.154  26.977  26.755  1.00  0.00     0.037 A 
BRANCH  52  66
ATOM     66  C   UNL A   1      46.233  32.669  28.236  1.00  0.00     0.058 A 
ATOM     67  C   UNL A   1      46.685  33.167  29.469  1.00  0.00     0.135 A 
ATOM     68  C   UNL A   1      46.156  33.567  27.159  1.00  0.00     0.135 A 
ATOM     69  F   UNL A   1      46.766  32.358  30.538  1.00  0.00    -0.206 F 
ATOM     70  C   UNL A   1      47.018  34.508  29.635  1.00  0.00     0.059 A 
ATOM     71  C   UNL A   1      46.514  34.905  27.295  1.00  0.00     0.059 A 
ATOM     72  F   UNL A   1      45.731  33.147  25.957  1.00  0.00    -0.206 F 
ATOM     73  C   UNL A   1      46.929  35.370  28.541  1.00  0.00     0.060 A 
BRANCH  73  74
ATOM     74  S   UNL A   1      47.371  37.104  28.775  1.00  0.00     0.124 S 
ATOM     75  O   UNL A   1      47.320  37.224  30.229  1.00  0.00    -0.237 OA
ATOM     76  O   UNL A   1      48.702  37.170  28.180  1.00  0.00    -0.237 OA
ATOM     77  O   UNL A   1      46.326  37.823  28.051  1.00  0.00    -0.744 OA
ENDBRANCH  73  74
ENDBRANCH  52  66
BRANCH  53  78
ATOM     78  C   UNL A   1      43.450  23.155  26.869  1.00  0.00     0.058 A 
ATOM     79  C   UNL A   1      43.323  22.645  25.569  1.00  0.00     0.135 A 
ATOM     80  C   UNL A   1      43.186  22.285  27.939  1.00  0.00     0.135 A 
ATOM     81  F   UNL A   1      43.558  23.437  24.512  1.00  0.00    -0.206 F 
ATOM     82  C   UNL A   1      42.933  21.330  25.335  1.00  0.00     0.059 A 
ATOM     83  C   UNL A   1      42.823  20.959  27.732  1.00  0.00     0.059 A 
ATOM     84  F   UNL A   1      43.310  22.718  29.204  1.00  0.00    -0.206 F 
ATOM     85  C   UNL A   1      42.688  20.492  26.426  1.00  0.00     0.060 A 
BRANCH  85  86
ATOM     86  S   UNL A   1      42.230  18.775  26.111  1.00  0.00     0.124 S 
ATOM     87  O   UNL A   1      40.834  18.911  25.713  1.00  0.00    -0.237 OA
ATOM     88  O   UNL A   1      43.162  18.399  25.053  1.00  0.00    -0.237 OA
ATOM     89  O   UNL A   1      42.461  18.125  27.398  1.00  0.00    -0.744 OA
ENDBRANCH  85  86
ENDBRANCH  53  78
BRANCH  65  90
ATOM     90  C   UNL A   1      49.547  26.522  26.414  1.00  0.00     0.058 A 
ATOM     91  C   UNL A   1      50.089  26.692  25.130  1.00  0.00     0.135 A 
ATOM     92  C   UNL A   1      50.371  25.954  27.400  1.00  0.00     0.135 A 
ATOM     93  F   UNL A   1      49.343  27.223  24.148  1.00  0.00    -0.206 F 
ATOM     94  C   UNL A   1      51.388  26.294  24.830  1.00  0.00     0.059 A 
ATOM     95  C   UNL A   1      51.683  25.578  27.132  1.00  0.00     0.059 A 
ATOM     96  F   UNL A   1      49.907  25.776  28.648  1.00  0.00    -0.206 F 
ATOM     97  C   UNL A   1      52.178  25.741  25.839  1.00  0.00     0.060 A 
BRANCH  97  98
ATOM     98  S   UNL A   1      53.874  25.263  25.444  1.00  0.00     0.124 S 
ATOM     99  O   UNL A   1      54.629  26.000  26.451  1.00  0.00    -0.237 OA
ATOM    100  O   UNL A   1      53.836  23.814  25.614  1.00  0.00    -0.237 OA
ATOM    101  O   UNL A   1      54.046  25.722  24.069  1.00  0.00    -0.744 OA
ENDBRANCH  97  98
ENDBRANCH  65  90
ENDBRANCH  39  40
ENDBRANCH  31  34
ENDBRANCH  29  30
ENDBRANCH  28  29
ENDBRANCH   1  28
TORSDOF 18
ENDMDL
