MODEL 1
REMARK VINA RESULT:     -10.8      0.000      0.000
REMARK SMILES CSc1ncccc1C(=O)N1CSC[C@H]1C(=O)NCCCCCCNC(=O)c1ccc(-c2c3nc(c(-c4c(F)cc(S(=O)(=O)[O-])cc4F)c4ccc([nH]4)c(-c4c(F)cc(S(=O)(=O)[O-])cc4F)c4nc(c(-c5c(F)cc(S(=O)(=O)[O-])cc5F)c5ccc2[nH]5)C=C4)C=C3)cc1
REMARK SMILES IDX 21 1 20 2 19 3 18 4 16 5 17 6 15 8 11 9 12 10 13 11 14 12
REMARK SMILES IDX 9 13 10 14 8 15 3 16 4 17 5 18 7 19 6 20 2 21 1 22 22 23
REMARK SMILES IDX 23 24 24 25 25 26 26 27 27 29 28 30 29 31 93 32 30 33 92 34
REMARK SMILES IDX 31 35 32 36 33 37 86 38 34 39 91 40 85 41 87 42 35 43 90 44
REMARK SMILES IDX 84 45 83 46 36 48 70 49 49 50 69 51 50 52 53 53 68 54 88 55
REMARK SMILES IDX 51 56 52 57 67 59 89 60 54 61 37 62 38 63 47 64 39 65 40 66
REMARK SMILES IDX 46 67 48 68 41 69 42 70 43 71 44 72 45 73 71 74 72 75 81 76
REMARK SMILES IDX 73 77 74 78 80 79 82 80 75 81 76 82 77 83 78 84 79 85 55 86
REMARK SMILES IDX 56 87 65 88 57 89 58 90 64 91 66 92 59 93 60 94 61 95 62 96
REMARK SMILES IDX 63 97
REMARK H PARENT 18 7 25 28 87 47 53 58
REMARK Flexibility Score: inf
ROOT
ATOM      1  C   UNL A   1      40.400  20.944  26.542  1.00  0.00     0.002 C 
ENDROOT
BRANCH   1   2
ATOM      2  C   UNL A   1      39.584  22.226  26.343  1.00  0.00     0.021 C 
BRANCH   2   3
ATOM      3  C   UNL A   1      38.115  21.980  26.021  1.00  0.00     0.116 C 
BRANCH   3   4
ATOM      4  N   UNL A   1      37.816  22.231  24.629  1.00  0.00    -0.354 N 
ATOM      5  C   UNL A   1      36.636  22.448  23.987  1.00  0.00     0.243 C 
ATOM      6  O   UNL A   1      36.717  22.829  22.813  1.00  0.00    -0.273 OA
ATOM      7  H   UNL A   1      38.606  22.248  24.042  1.00  0.00     0.163 HD
BRANCH   5   8
ATOM      8  C   UNL A   1      35.260  22.329  24.677  1.00  0.00     0.185 C 
ATOM      9  N   UNL A   1      34.148  23.109  24.104  1.00  0.00    -0.316 N 
ATOM     10  C   UNL A   1      33.129  22.320  23.445  1.00  0.00     0.190 C 
ATOM     11  S   UNL A   1      33.121  20.726  24.291  1.00  0.00    -0.138 SA
ATOM     12  C   UNL A   1      34.830  20.877  24.894  1.00  0.00     0.106 C 
BRANCH   9  13
ATOM     13  C   UNL A   1      34.046  24.449  24.469  1.00  0.00     0.257 C 
ATOM     14  O   UNL A   1      34.559  24.883  25.498  1.00  0.00    -0.269 OA
BRANCH  13  15
ATOM     15  C   UNL A   1      33.111  25.337  23.751  1.00  0.00     0.072 A 
ATOM     16  C   UNL A   1      31.827  25.702  24.162  1.00  0.00     0.108 A 
ATOM     17  N   UNL A   1      31.028  26.432  23.322  1.00  0.00    -0.249 NA
ATOM     18  C   UNL A   1      31.476  26.794  22.102  1.00  0.00     0.112 A 
ATOM     19  C   UNL A   1      33.535  25.708  22.455  1.00  0.00     0.018 A 
ATOM     20  C   UNL A   1      32.723  26.468  21.628  1.00  0.00     0.021 A 
BRANCH  16  21
ATOM     21  S   UNL A   1      30.974  25.507  25.713  1.00  0.00    -0.109 SA
ATOM     22  C   UNL A   1      30.746  23.743  26.000  1.00  0.00     0.092 C 
ENDBRANCH  16  21
ENDBRANCH  13  15
ENDBRANCH   9  13
ENDBRANCH   5   8
ENDBRANCH   3   4
ENDBRANCH   2   3
ENDBRANCH   1   2
BRANCH   1  23
ATOM     23  C   UNL A   1      41.894  21.154  26.820  1.00  0.00     0.002 C 
BRANCH  23  24
ATOM     24  C   UNL A   1      42.222  22.096  27.983  1.00  0.00     0.021 C 
BRANCH  24  25
ATOM     25  C   UNL A   1      43.215  23.207  27.651  1.00  0.00     0.116 C 
BRANCH  25  26
ATOM     26  N   UNL A   1      42.883  23.877  26.407  1.00  0.00    -0.352 N 
ATOM     27  C   UNL A   1      42.238  25.068  26.198  1.00  0.00     0.251 C 
ATOM     28  H   UNL A   1      43.164  23.405  25.590  1.00  0.00     0.163 HD
ATOM     29  O   UNL A   1      41.861  25.359  25.062  1.00  0.00    -0.269 OA
BRANCH  27  30
ATOM     30  C   UNL A   1      41.981  25.995  27.322  1.00  0.00     0.039 A 
ATOM     31  C   UNL A   1      40.881  25.756  28.150  1.00  0.00     0.014 A 
ATOM     32  C   UNL A   1      42.783  27.121  27.534  1.00  0.00     0.014 A 
ATOM     33  C   UNL A   1      40.610  26.621  29.213  1.00  0.00     0.010 A 
ATOM     34  C   UNL A   1      42.548  27.949  28.632  1.00  0.00     0.010 A 
ATOM     35  C   UNL A   1      41.453  27.714  29.475  1.00  0.00    -0.014 A 
BRANCH  35  36
ATOM     36  C   UNL A   1      41.191  28.615  30.626  1.00  0.00     0.031 A 
ATOM     37  C   UNL A   1      42.015  28.509  31.880  1.00  0.00     0.074 A 
ATOM     38  C   UNL A   1      40.184  29.507  30.552  1.00  0.00     0.049 A 
ATOM     39  N   UNL A   1      41.923  29.198  32.989  1.00  0.00    -0.248 NA
ATOM     40  C   UNL A   1      43.066  27.479  31.901  1.00  0.00     0.031 C 
ATOM     41  C   UNL A   1      39.279  29.668  29.411  1.00  0.00     0.029 A 
ATOM     42  N   UNL A   1      39.745  30.442  31.455  1.00  0.00    -0.354 N 
ATOM     43  C   UNL A   1      42.891  28.681  33.841  1.00  0.00     0.074 A 
ATOM     44  C   UNL A   1      43.528  27.586  33.139  1.00  0.00     0.031 C 
ATOM     45  C   UNL A   1      38.412  30.659  29.673  1.00  0.00     0.029 A 
ATOM     46  C   UNL A   1      38.680  31.186  31.007  1.00  0.00     0.049 A 
ATOM     47  H   UNL A   1      40.157  30.569  32.341  1.00  0.00     0.167 HD
ATOM     48  C   UNL A   1      43.237  29.095  35.084  1.00  0.00     0.037 A 
ATOM     49  C   UNL A   1      37.996  32.182  31.604  1.00  0.00     0.037 A 
ATOM     50  C   UNL A   1      42.619  30.202  35.767  1.00  0.00     0.049 A 
ATOM     51  C   UNL A   1      38.412  32.638  32.975  1.00  0.00     0.074 A 
ATOM     52  C   UNL A   1      42.935  30.737  37.004  1.00  0.00     0.029 A 
ATOM     53  N   UNL A   1      41.559  30.948  35.270  1.00  0.00    -0.354 N 
ATOM     54  N   UNL A   1      39.374  32.178  33.739  1.00  0.00    -0.248 NA
ATOM     55  C   UNL A   1      37.659  33.756  33.559  1.00  0.00     0.031 C 
ATOM     56  C   UNL A   1      42.044  31.783  37.270  1.00  0.00     0.029 A 
ATOM     57  C   UNL A   1      41.199  31.927  36.181  1.00  0.00     0.049 A 
ATOM     58  H   UNL A   1      41.126  30.801  34.398  1.00  0.00     0.167 HD
ATOM     59  C   UNL A   1      39.357  32.966  34.885  1.00  0.00     0.074 A 
ATOM     60  C   UNL A   1      38.299  33.940  34.706  1.00  0.00     0.031 C 
ATOM     61  C   UNL A   1      40.144  32.889  35.987  1.00  0.00     0.037 A 
BRANCH  48  62
ATOM     62  C   UNL A   1      44.342  28.352  35.784  1.00  0.00     0.058 A 
ATOM     63  C   UNL A   1      45.688  28.722  35.633  1.00  0.00     0.135 A 
ATOM     64  C   UNL A   1      44.051  27.279  36.642  1.00  0.00     0.135 A 
ATOM     65  F   UNL A   1      46.023  29.730  34.812  1.00  0.00    -0.206 F 
ATOM     66  C   UNL A   1      46.709  28.037  36.283  1.00  0.00     0.059 A 
ATOM     67  C   UNL A   1      45.055  26.596  37.325  1.00  0.00     0.059 A 
ATOM     68  F   UNL A   1      42.781  26.883  36.824  1.00  0.00    -0.206 F 
ATOM     69  C   UNL A   1      46.382  26.973  37.127  1.00  0.00     0.060 A 
BRANCH  69  70
ATOM     70  S   UNL A   1      47.718  26.096  37.966  1.00  0.00     0.124 S 
ATOM     71  O   UNL A   1      48.862  26.438  37.127  1.00  0.00    -0.237 OA
ATOM     72  O   UNL A   1      47.704  26.702  39.294  1.00  0.00    -0.237 OA
ATOM     73  O   UNL A   1      47.294  24.701  37.912  1.00  0.00    -0.744 OA
ENDBRANCH  69  70
ENDBRANCH  48  62
BRANCH  49  74
ATOM     74  C   UNL A   1      36.867  32.836  30.891  1.00  0.00     0.058 A 
ATOM     75  C   UNL A   1      35.537  32.564  31.244  1.00  0.00     0.135 A 
ATOM     76  C   UNL A   1      37.095  33.755  29.855  1.00  0.00     0.135 A 
ATOM     77  F   UNL A   1      35.270  31.690  32.226  1.00  0.00    -0.206 F 
ATOM     78  C   UNL A   1      34.471  33.168  30.586  1.00  0.00     0.059 A 
ATOM     79  C   UNL A   1      36.046  34.388  29.198  1.00  0.00     0.059 A 
ATOM     80  F   UNL A   1      38.351  34.062  29.493  1.00  0.00    -0.206 F 
ATOM     81  C   UNL A   1      34.736  34.081  29.563  1.00  0.00     0.060 A 
BRANCH  81  82
ATOM     82  S   UNL A   1      33.348  34.899  28.748  1.00  0.00     0.124 S 
ATOM     83  O   UNL A   1      32.931  33.883  27.789  1.00  0.00    -0.237 OA
ATOM     84  O   UNL A   1      32.435  35.140  29.862  1.00  0.00    -0.237 OA
ATOM     85  O   UNL A   1      33.956  36.097  28.178  1.00  0.00    -0.744 OA
ENDBRANCH  81  82
ENDBRANCH  49  74
BRANCH  61  86
ATOM     86  C   UNL A   1      39.908  33.902  37.071  1.00  0.00     0.058 A 
ATOM     87  C   UNL A   1      39.109  33.613  38.187  1.00  0.00     0.135 A 
ATOM     88  C   UNL A   1      40.515  35.167  37.007  1.00  0.00     0.135 A 
ATOM     89  F   UNL A   1      38.501  32.420  38.292  1.00  0.00    -0.206 F 
ATOM     90  C   UNL A   1      38.893  34.552  39.189  1.00  0.00     0.059 A 
ATOM     91  C   UNL A   1      40.334  36.113  38.010  1.00  0.00     0.059 A 
ATOM     92  F   UNL A   1      41.297  35.490  35.966  1.00  0.00    -0.206 F 
ATOM     93  C   UNL A   1      39.509  35.802  39.091  1.00  0.00     0.060 A 
BRANCH  93  94
ATOM     94  S   UNL A   1      39.237  37.009  40.405  1.00  0.00     0.124 S 
ATOM     95  O   UNL A   1      38.473  36.225  41.370  1.00  0.00    -0.237 OA
ATOM     96  O   UNL A   1      40.599  37.351  40.805  1.00  0.00    -0.237 OA
ATOM     97  O   UNL A   1      38.500  38.077  39.738  1.00  0.00    -0.744 OA
ENDBRANCH  93  94
ENDBRANCH  61  86
ENDBRANCH  35  36
ENDBRANCH  27  30
ENDBRANCH  25  26
ENDBRANCH  24  25
ENDBRANCH  23  24
ENDBRANCH   1  23
TORSDOF 19
ENDMDL
MODEL 2
REMARK VINA RESULT:     -10.7      6.323     11.969
REMARK SMILES CSc1ncccc1C(=O)N1CSC[C@H]1C(=O)NCCCCCCNC(=O)c1ccc(-c2c3nc(c(-c4c(F)cc(S(=O)(=O)[O-])cc4F)c4ccc([nH]4)c(-c4c(F)cc(S(=O)(=O)[O-])cc4F)c4nc(c(-c5c(F)cc(S(=O)(=O)[O-])cc5F)c5ccc2[nH]5)C=C4)C=C3)cc1
REMARK SMILES IDX 21 1 20 2 19 3 18 4 16 5 17 6 15 8 11 9 12 10 13 11 14 12
REMARK SMILES IDX 9 13 10 14 8 15 3 16 4 17 5 18 7 19 6 20 2 21 1 22 22 23
REMARK SMILES IDX 23 24 24 25 25 26 26 27 27 29 28 30 29 31 93 32 30 33 92 34
REMARK SMILES IDX 31 35 32 36 33 37 86 38 34 39 91 40 85 41 87 42 35 43 90 44
REMARK SMILES IDX 84 45 83 46 36 48 70 49 49 50 69 51 50 52 53 53 68 54 88 55
REMARK SMILES IDX 51 56 52 57 67 59 89 60 54 61 37 62 38 63 47 64 39 65 40 66
REMARK SMILES IDX 46 67 48 68 41 69 42 70 43 71 44 72 45 73 71 74 72 75 81 76
REMARK SMILES IDX 73 77 74 78 80 79 82 80 75 81 76 82 77 83 78 84 79 85 55 86
REMARK SMILES IDX 56 87 65 88 57 89 58 90 64 91 66 92 59 93 60 94 61 95 62 96
REMARK SMILES IDX 63 97
REMARK H PARENT 18 7 25 28 87 47 53 58
REMARK Flexibility Score: inf
ROOT
ATOM      1  C   UNL A   1      32.645  29.679  25.734  1.00  0.00     0.002 C 
ENDROOT
BRANCH   1   2
ATOM      2  C   UNL A   1      32.104  29.272  24.359  1.00  0.00     0.021 C 
BRANCH   2   3
ATOM      3  C   UNL A   1      33.109  28.514  23.499  1.00  0.00     0.116 C 
BRANCH   3   4
ATOM      4  N   UNL A   1      32.472  27.838  22.391  1.00  0.00    -0.354 N 
ATOM      5  C   UNL A   1      31.938  26.591  22.286  1.00  0.00     0.243 C 
ATOM      6  O   UNL A   1      31.285  26.363  21.261  1.00  0.00    -0.273 OA
ATOM      7  H   UNL A   1      32.414  28.374  21.568  1.00  0.00     0.163 HD
BRANCH   5   8
ATOM      8  C   UNL A   1      32.039  25.527  23.401  1.00  0.00     0.185 C 
ATOM      9  N   UNL A   1      33.385  25.034  23.746  1.00  0.00    -0.316 N 
ATOM     10  C   UNL A   1      33.874  25.459  25.041  1.00  0.00     0.190 C 
ATOM     11  S   UNL A   1      32.407  25.665  26.073  1.00  0.00    -0.138 SA
ATOM     12  C   UNL A   1      31.281  25.926  24.669  1.00  0.00     0.106 C 
BRANCH   9  13
ATOM     13  C   UNL A   1      33.928  24.031  22.948  1.00  0.00     0.257 C 
ATOM     14  O   UNL A   1      33.639  23.919  21.758  1.00  0.00    -0.269 OA
BRANCH  13  15
ATOM     15  C   UNL A   1      34.679  22.923  23.569  1.00  0.00     0.072 A 
ATOM     16  C   UNL A   1      34.140  21.808  24.213  1.00  0.00     0.108 A 
ATOM     17  N   UNL A   1      34.970  20.928  24.856  1.00  0.00    -0.249 NA
ATOM     18  C   UNL A   1      36.303  21.138  24.872  1.00  0.00     0.112 A 
ATOM     19  C   UNL A   1      36.076  23.128  23.632  1.00  0.00     0.018 A 
ATOM     20  C   UNL A   1      36.904  22.214  24.265  1.00  0.00     0.021 A 
BRANCH  16  21
ATOM     21  S   UNL A   1      32.480  21.166  24.290  1.00  0.00    -0.109 SA
ATOM     22  C   UNL A   1      31.549  22.180  25.453  1.00  0.00     0.092 C 
ENDBRANCH  16  21
ENDBRANCH  13  15
ENDBRANCH   9  13
ENDBRANCH   5   8
ENDBRANCH   3   4
ENDBRANCH   2   3
ENDBRANCH   1   2
BRANCH   1  23
ATOM     23  C   UNL A   1      34.018  29.097  26.097  1.00  0.00     0.002 C 
BRANCH  23  24
ATOM     24  C   UNL A   1      34.419  29.222  27.570  1.00  0.00     0.021 C 
BRANCH  24  25
ATOM     25  C   UNL A   1      35.415  30.339  27.874  1.00  0.00     0.116 C 
BRANCH  25  26
ATOM     26  N   UNL A   1      35.418  30.693  29.283  1.00  0.00    -0.352 N 
ATOM     27  C   UNL A   1      36.388  30.505  30.232  1.00  0.00     0.251 C 
ATOM     28  H   UNL A   1      34.599  31.136  29.604  1.00  0.00     0.163 HD
ATOM     29  O   UNL A   1      36.115  30.682  31.419  1.00  0.00    -0.269 OA
BRANCH  27  30
ATOM     30  C   UNL A   1      37.752  30.082  29.843  1.00  0.00     0.039 A 
ATOM     31  C   UNL A   1      38.083  30.049  28.486  1.00  0.00     0.014 A 
ATOM     32  C   UNL A   1      38.687  29.673  30.800  1.00  0.00     0.014 A 
ATOM     33  C   UNL A   1      39.360  29.645  28.091  1.00  0.00     0.010 A 
ATOM     34  C   UNL A   1      39.981  29.329  30.410  1.00  0.00     0.010 A 
ATOM     35  C   UNL A   1      40.327  29.301  29.051  1.00  0.00    -0.014 A 
BRANCH  35  36
ATOM     36  C   UNL A   1      41.698  28.905  28.639  1.00  0.00     0.031 A 
ATOM     37  C   UNL A   1      42.807  29.922  28.609  1.00  0.00     0.074 A 
ATOM     38  C   UNL A   1      41.934  27.635  28.257  1.00  0.00     0.049 A 
ATOM     39  N   UNL A   1      44.060  29.766  28.262  1.00  0.00    -0.248 NA
ATOM     40  C   UNL A   1      42.459  31.298  28.994  1.00  0.00     0.031 C 
ATOM     41  C   UNL A   1      40.929  26.571  28.192  1.00  0.00     0.029 A 
ATOM     42  N   UNL A   1      43.091  27.022  27.846  1.00  0.00    -0.354 N 
ATOM     43  C   UNL A   1      44.646  31.021  28.378  1.00  0.00     0.074 A 
ATOM     44  C   UNL A   1      43.600  31.938  28.778  1.00  0.00     0.031 C 
ATOM     45  C   UNL A   1      41.518  25.433  27.792  1.00  0.00     0.029 A 
ATOM     46  C   UNL A   1      42.933  25.690  27.546  1.00  0.00     0.049 A 
ATOM     47  H   UNL A   1      43.953  27.492  27.774  1.00  0.00     0.167 HD
ATOM     48  C   UNL A   1      45.941  31.373  28.193  1.00  0.00     0.037 A 
ATOM     49  C   UNL A   1      43.830  24.777  27.122  1.00  0.00     0.037 A 
ATOM     50  C   UNL A   1      46.983  30.451  27.821  1.00  0.00     0.049 A 
ATOM     51  C   UNL A   1      45.266  25.187  26.945  1.00  0.00     0.074 A 
ATOM     52  C   UNL A   1      48.337  30.697  27.665  1.00  0.00     0.029 A 
ATOM     53  N   UNL A   1      46.789  29.104  27.551  1.00  0.00    -0.354 N 
ATOM     54  N   UNL A   1      45.813  26.365  27.122  1.00  0.00    -0.248 NA
ATOM     55  C   UNL A   1      46.206  24.141  26.523  1.00  0.00     0.031 C 
ATOM     56  C   UNL A   1      48.955  29.506  27.266  1.00  0.00     0.029 A 
ATOM     57  C   UNL A   1      47.994  28.509  27.214  1.00  0.00     0.049 A 
ATOM     58  H   UNL A   1      45.922  28.639  27.592  1.00  0.00     0.167 HD
ATOM     59  C   UNL A   1      47.168  26.198  26.855  1.00  0.00     0.074 A 
ATOM     60  C   UNL A   1      47.357  24.801  26.519  1.00  0.00     0.031 C 
ATOM     61  C   UNL A   1      48.165  27.117  26.884  1.00  0.00     0.037 A 
BRANCH  48  62
ATOM     62  C   UNL A   1      46.307  32.818  28.398  1.00  0.00     0.058 A 
ATOM     63  C   UNL A   1      46.354  33.724  27.326  1.00  0.00     0.135 A 
ATOM     64  C   UNL A   1      46.581  33.311  29.684  1.00  0.00     0.135 A 
ATOM     65  F   UNL A   1      46.116  33.303  26.074  1.00  0.00    -0.206 F 
ATOM     66  C   UNL A   1      46.687  35.061  27.517  1.00  0.00     0.059 A 
ATOM     67  C   UNL A   1      46.891  34.651  29.902  1.00  0.00     0.059 A 
ATOM     68  F   UNL A   1      46.550  32.488  30.745  1.00  0.00    -0.206 F 
ATOM     69  C   UNL A   1      46.957  35.515  28.810  1.00  0.00     0.060 A 
BRANCH  69  70
ATOM     70  S   UNL A   1      47.386  37.253  29.043  1.00  0.00     0.124 S 
ATOM     71  O   UNL A   1      48.843  37.187  29.091  1.00  0.00    -0.237 OA
ATOM     72  O   UNL A   1      46.819  37.877  27.851  1.00  0.00    -0.237 OA
ATOM     73  O   UNL A   1      46.731  37.598  30.300  1.00  0.00    -0.744 OA
ENDBRANCH  69  70
ENDBRANCH  48  62
BRANCH  49  74
ATOM     74  C   UNL A   1      43.397  23.377  26.869  1.00  0.00     0.058 A 
ATOM     75  C   UNL A   1      43.265  22.889  25.560  1.00  0.00     0.135 A 
ATOM     76  C   UNL A   1      43.125  22.497  27.928  1.00  0.00     0.135 A 
ATOM     77  F   UNL A   1      43.511  23.695  24.517  1.00  0.00    -0.206 F 
ATOM     78  C   UNL A   1      42.862  21.583  25.309  1.00  0.00     0.059 A 
ATOM     79  C   UNL A   1      42.742  21.180  27.700  1.00  0.00     0.059 A 
ATOM     80  F   UNL A   1      43.255  22.912  29.197  1.00  0.00    -0.206 F 
ATOM     81  C   UNL A   1      42.603  20.734  26.387  1.00  0.00     0.060 A 
BRANCH  81  82
ATOM     82  S   UNL A   1      42.129  19.024  26.051  1.00  0.00     0.124 S 
ATOM     83  O   UNL A   1      42.512  18.365  27.294  1.00  0.00    -0.237 OA
ATOM     84  O   UNL A   1      40.694  19.144  25.806  1.00  0.00    -0.237 OA
ATOM     85  O   UNL A   1      42.929  18.680  24.879  1.00  0.00    -0.744 OA
ENDBRANCH  81  82
ENDBRANCH  49  74
BRANCH  61  86
ATOM     86  C   UNL A   1      49.552  26.634  26.569  1.00  0.00     0.058 A 
ATOM     87  C   UNL A   1      50.407  26.149  27.570  1.00  0.00     0.135 A 
ATOM     88  C   UNL A   1      50.020  26.626  25.245  1.00  0.00     0.135 A 
ATOM     89  F   UNL A   1      50.010  26.142  28.853  1.00  0.00    -0.206 F 
ATOM     90  C   UNL A   1      51.690  25.701  27.275  1.00  0.00     0.059 A 
ATOM     91  C   UNL A   1      51.289  26.158  24.923  1.00  0.00     0.059 A 
ATOM     92  F   UNL A   1      49.237  27.068  24.249  1.00  0.00    -0.206 F 
ATOM     93  C   UNL A   1      52.124  25.712  25.948  1.00  0.00     0.060 A 
BRANCH  93  94
ATOM     94  S   UNL A   1      53.784  25.112  25.572  1.00  0.00     0.124 S 
ATOM     95  O   UNL A   1      53.543  23.687  25.372  1.00  0.00    -0.237 OA
ATOM     96  O   UNL A   1      54.130  25.870  24.374  1.00  0.00    -0.237 OA
ATOM     97  O   UNL A   1      54.548  25.458  26.767  1.00  0.00    -0.744 OA
ENDBRANCH  93  94
ENDBRANCH  61  86
ENDBRANCH  35  36
ENDBRANCH  27  30
ENDBRANCH  25  26
ENDBRANCH  24  25
ENDBRANCH  23  24
ENDBRANCH   1  23
TORSDOF 19
ENDMDL
MODEL 3
REMARK VINA RESULT:     -10.5      6.158      8.426
REMARK SMILES CSc1ncccc1C(=O)N1CSC[C@H]1C(=O)NCCCCCCNC(=O)c1ccc(-c2c3nc(c(-c4c(F)cc(S(=O)(=O)[O-])cc4F)c4ccc([nH]4)c(-c4c(F)cc(S(=O)(=O)[O-])cc4F)c4nc(c(-c5c(F)cc(S(=O)(=O)[O-])cc5F)c5ccc2[nH]5)C=C4)C=C3)cc1
REMARK SMILES IDX 21 1 20 2 19 3 18 4 16 5 17 6 15 8 11 9 12 10 13 11 14 12
REMARK SMILES IDX 9 13 10 14 8 15 3 16 4 17 5 18 7 19 6 20 2 21 1 22 22 23
REMARK SMILES IDX 23 24 24 25 25 26 26 27 27 29 28 30 29 31 93 32 30 33 92 34
REMARK SMILES IDX 31 35 32 36 33 37 86 38 34 39 91 40 85 41 87 42 35 43 90 44
REMARK SMILES IDX 84 45 83 46 36 48 70 49 49 50 69 51 50 52 53 53 68 54 88 55
REMARK SMILES IDX 51 56 52 57 67 59 89 60 54 61 37 62 38 63 47 64 39 65 40 66
REMARK SMILES IDX 46 67 48 68 41 69 42 70 43 71 44 72 45 73 71 74 72 75 81 76
REMARK SMILES IDX 73 77 74 78 80 79 82 80 75 81 76 82 77 83 78 84 79 85 55 86
REMARK SMILES IDX 56 87 65 88 57 89 58 90 64 91 66 92 59 93 60 94 61 95 62 96
REMARK SMILES IDX 63 97
REMARK H PARENT 18 7 25 28 87 47 53 58
REMARK Flexibility Score: inf
ROOT
ATOM      1  C   UNL A   1      39.726  22.649  26.344  1.00  0.00     0.002 C 
ENDROOT
BRANCH   1   2
ATOM      2  C   UNL A   1      38.804  23.854  26.566  1.00  0.00     0.021 C 
BRANCH   2   3
ATOM      3  C   UNL A   1      37.389  23.655  26.036  1.00  0.00     0.116 C 
BRANCH   3   4
ATOM      4  N   UNL A   1      37.381  23.293  24.637  1.00  0.00    -0.354 N 
ATOM      5  C   UNL A   1      36.355  23.037  23.780  1.00  0.00     0.243 C 
ATOM      6  O   UNL A   1      36.656  22.942  22.584  1.00  0.00    -0.273 OA
ATOM      7  H   UNL A   1      38.275  23.218  24.232  1.00  0.00     0.163 HD
BRANCH   5   8
ATOM      8  C   UNL A   1      34.878  22.957  24.223  1.00  0.00     0.185 C 
ATOM      9  N   UNL A   1      33.860  23.428  23.267  1.00  0.00    -0.316 N 
ATOM     10  C   UNL A   1      33.038  22.384  22.692  1.00  0.00     0.190 C 
ATOM     11  S   UNL A   1      32.953  21.085  23.941  1.00  0.00    -0.138 SA
ATOM     12  C   UNL A   1      34.497  21.578  24.765  1.00  0.00     0.106 C 
BRANCH   9  13
ATOM     13  C   UNL A   1      33.612  24.797  23.212  1.00  0.00     0.257 C 
ATOM     14  O   UNL A   1      33.909  25.472  22.228  1.00  0.00    -0.269 OA
BRANCH  13  15
ATOM     15  C   UNL A   1      33.205  25.520  24.432  1.00  0.00     0.072 A 
ATOM     16  C   UNL A   1      32.043  25.310  25.177  1.00  0.00     0.108 A 
ATOM     17  N   UNL A   1      31.740  26.151  26.215  1.00  0.00    -0.249 NA
ATOM     18  C   UNL A   1      32.558  27.182  26.515  1.00  0.00     0.112 A 
ATOM     19  C   UNL A   1      34.022  26.627  24.756  1.00  0.00     0.018 A 
ATOM     20  C   UNL A   1      33.714  27.453  25.826  1.00  0.00     0.021 A 
BRANCH  16  21
ATOM     21  S   UNL A   1      30.826  24.010  25.140  1.00  0.00    -0.109 SA
ATOM     22  C   UNL A   1      30.916  23.125  26.707  1.00  0.00     0.092 C 
ENDBRANCH  16  21
ENDBRANCH  13  15
ENDBRANCH   9  13
ENDBRANCH   5   8
ENDBRANCH   3   4
ENDBRANCH   2   3
ENDBRANCH   1   2
BRANCH   1  23
ATOM     23  C   UNL A   1      40.401  22.098  27.606  1.00  0.00     0.002 C 
BRANCH  23  24
ATOM     24  C   UNL A   1      40.761  20.609  27.566  1.00  0.00     0.021 C 
BRANCH  24  25
ATOM     25  C   UNL A   1      40.476  19.913  26.238  1.00  0.00     0.116 C 
BRANCH  25  26
ATOM     26  N   UNL A   1      41.634  19.187  25.747  1.00  0.00    -0.352 N 
ATOM     27  C   UNL A   1      42.877  19.648  25.406  1.00  0.00     0.251 C 
ATOM     28  H   UNL A   1      41.505  18.216  25.644  1.00  0.00     0.163 HD
ATOM     29  O   UNL A   1      43.654  18.905  24.807  1.00  0.00    -0.269 OA
BRANCH  27  30
ATOM     30  C   UNL A   1      43.288  21.031  25.739  1.00  0.00     0.039 A 
ATOM     31  C   UNL A   1      43.060  22.043  24.803  1.00  0.00     0.014 A 
ATOM     32  C   UNL A   1      43.937  21.326  26.942  1.00  0.00     0.014 A 
ATOM     33  C   UNL A   1      43.445  23.354  25.088  1.00  0.00     0.010 A 
ATOM     34  C   UNL A   1      44.266  22.646  27.252  1.00  0.00     0.010 A 
ATOM     35  C   UNL A   1      44.034  23.671  26.324  1.00  0.00    -0.014 A 
BRANCH  35  36
ATOM     36  C   UNL A   1      44.412  25.070  26.648  1.00  0.00     0.031 A 
ATOM     37  C   UNL A   1      45.830  25.537  26.462  1.00  0.00     0.074 A 
ATOM     38  C   UNL A   1      43.483  25.909  27.145  1.00  0.00     0.049 A 
ATOM     39  N   UNL A   1      46.350  26.714  26.705  1.00  0.00    -0.248 NA
ATOM     40  C   UNL A   1      46.797  24.548  25.960  1.00  0.00     0.031 C 
ATOM     41  C   UNL A   1      42.088  25.558  27.420  1.00  0.00     0.029 A 
ATOM     42  N   UNL A   1      43.570  27.229  27.512  1.00  0.00    -0.354 N 
ATOM     43  C   UNL A   1      47.700  26.605  26.396  1.00  0.00     0.074 A 
ATOM     44  C   UNL A   1      47.931  25.233  25.997  1.00  0.00     0.031 C 
ATOM     45  C   UNL A   1      41.445  26.641  27.888  1.00  0.00     0.029 A 
ATOM     46  C   UNL A   1      42.386  27.753  27.970  1.00  0.00     0.049 A 
ATOM     47  H   UNL A   1      44.403  27.751  27.450  1.00  0.00     0.167 HD
ATOM     48  C   UNL A   1      48.656  27.566  26.420  1.00  0.00     0.037 A 
ATOM     49  C   UNL A   1      42.090  28.993  28.407  1.00  0.00     0.037 A 
ATOM     50  C   UNL A   1      48.415  28.936  26.792  1.00  0.00     0.049 A 
ATOM     51  C   UNL A   1      43.162  30.048  28.403  1.00  0.00     0.074 A 
ATOM     52  C   UNL A   1      49.303  29.998  26.793  1.00  0.00     0.029 A 
ATOM     53  N   UNL A   1      47.196  29.436  27.227  1.00  0.00    -0.354 N 
ATOM     54  N   UNL A   1      44.420  29.942  28.047  1.00  0.00    -0.248 NA
ATOM     55  C   UNL A   1      42.773  31.392  28.849  1.00  0.00     0.031 C 
ATOM     56  C   UNL A   1      48.630  31.132  27.263  1.00  0.00     0.029 A 
ATOM     57  C   UNL A   1      47.312  30.786  27.514  1.00  0.00     0.049 A 
ATOM     58  H   UNL A   1      46.370  28.907  27.319  1.00  0.00     0.167 HD
ATOM     59  C   UNL A   1      44.966  31.211  28.203  1.00  0.00     0.074 A 
ATOM     60  C   UNL A   1      43.898  32.070  28.672  1.00  0.00     0.031 C 
ATOM     61  C   UNL A   1      46.238  31.627  27.979  1.00  0.00     0.037 A 
BRANCH  48  62
ATOM     62  C   UNL A   1      50.052  27.169  26.022  1.00  0.00     0.058 A 
ATOM     63  C   UNL A   1      50.468  27.189  24.682  1.00  0.00     0.135 A 
ATOM     64  C   UNL A   1      50.995  26.797  26.995  1.00  0.00     0.135 A 
ATOM     65  F   UNL A   1      49.603  27.522  23.710  1.00  0.00    -0.206 F 
ATOM     66  C   UNL A   1      51.760  26.827  24.315  1.00  0.00     0.059 A 
ATOM     67  C   UNL A   1      52.301  26.456  26.653  1.00  0.00     0.059 A 
ATOM     68  F   UNL A   1      50.650  26.761  28.292  1.00  0.00    -0.206 F 
ATOM     69  C   UNL A   1      52.670  26.459  25.308  1.00  0.00     0.060 A 
BRANCH  69  70
ATOM     70  S   UNL A   1      54.343  25.994  24.817  1.00  0.00     0.124 S 
ATOM     71  O   UNL A   1      54.328  26.319  23.394  1.00  0.00    -0.237 OA
ATOM     72  O   UNL A   1      55.167  26.859  25.656  1.00  0.00    -0.237 OA
ATOM     73  O   UNL A   1      54.407  24.572  25.136  1.00  0.00    -0.744 OA
ENDBRANCH  69  70
ENDBRANCH  48  62
BRANCH  49  74
ATOM     74  C   UNL A   1      40.707  29.311  28.853  1.00  0.00     0.058 A 
ATOM     75  C   UNL A   1      40.389  29.383  30.218  1.00  0.00     0.135 A 
ATOM     76  C   UNL A   1      39.684  29.564  27.927  1.00  0.00     0.135 A 
ATOM     77  F   UNL A   1      41.333  29.145  31.140  1.00  0.00    -0.206 F 
ATOM     78  C   UNL A   1      39.101  29.679  30.649  1.00  0.00     0.059 A 
ATOM     79  C   UNL A   1      38.394  29.885  28.335  1.00  0.00     0.059 A 
ATOM     80  F   UNL A   1      39.944  29.526  26.611  1.00  0.00    -0.206 F 
ATOM     81  C   UNL A   1      38.108  29.930  29.699  1.00  0.00     0.060 A 
BRANCH  81  82
ATOM     82  S   UNL A   1      36.450  30.363  30.269  1.00  0.00     0.124 S 
ATOM     83  O   UNL A   1      35.623  29.828  29.194  1.00  0.00    -0.237 OA
ATOM     84  O   UNL A   1      36.370  29.662  31.547  1.00  0.00    -0.237 OA
ATOM     85  O   UNL A   1      36.501  31.819  30.365  1.00  0.00    -0.744 OA
ENDBRANCH  81  82
ENDBRANCH  49  74
BRANCH  61  86
ATOM     86  C   UNL A   1      46.535  33.081  28.214  1.00  0.00     0.058 A 
ATOM     87  C   UNL A   1      46.992  33.547  29.456  1.00  0.00     0.135 A 
ATOM     88  C   UNL A   1      46.391  34.014  27.175  1.00  0.00     0.135 A 
ATOM     89  F   UNL A   1      47.140  32.697  30.485  1.00  0.00    -0.206 F 
ATOM     90  C   UNL A   1      47.267  34.893  29.670  1.00  0.00     0.059 A 
ATOM     91  C   UNL A   1      46.685  35.360  27.358  1.00  0.00     0.059 A 
ATOM     92  F   UNL A   1      45.968  33.617  25.965  1.00  0.00    -0.206 F 
ATOM     93  C   UNL A   1      47.108  35.794  28.614  1.00  0.00     0.060 A 
BRANCH  93  94
ATOM     94  S   UNL A   1      47.485  37.536  28.896  1.00  0.00     0.124 S 
ATOM     95  O   UNL A   1      48.841  37.461  29.431  1.00  0.00    -0.237 OA
ATOM     96  O   UNL A   1      47.362  38.106  27.558  1.00  0.00    -0.237 OA
ATOM     97  O   UNL A   1      46.458  37.956  29.845  1.00  0.00    -0.744 OA
ENDBRANCH  93  94
ENDBRANCH  61  86
ENDBRANCH  35  36
ENDBRANCH  27  30
ENDBRANCH  25  26
ENDBRANCH  24  25
ENDBRANCH  23  24
ENDBRANCH   1  23
TORSDOF 19
ENDMDL
