MODEL 1
REMARK VINA RESULT:     -11.4      0.000      0.000
REMARK SMILES O=C(C[C@H]1C[C@H]2CC[C@@H](C1)[N@H+]2C[C@@H]1CNC(=O)O1)NCCCCCCNC(=O)c1ccc(-c2c3nc(c(-c4c(F)cc(S(=O)(=O)[O-])cc4F)c4ccc([nH]4)c(-c4c(F)cc(S(=O)(=O)[O-])cc4F)c4nc(c(-c5c(F)cc(S(=O)(=O)[O-])cc5F)c5ccc2[nH]5)C=C4)C=C3)cc1
REMARK SMILES IDX 22 1 21 2 20 3 19 4 1 5 2 6 3 8 4 9 5 10 10 11 6 12 9 13
REMARK SMILES IDX 7 14 11 15 8 16 12 18 13 19 14 20 18 21 15 22 16 23 17 25
REMARK SMILES IDX 23 26 24 27 25 28 26 29 27 30 28 32 29 33 30 34 94 35 31 36
REMARK SMILES IDX 93 37 32 38 33 39 34 40 87 41 35 42 92 43 86 44 88 45 36 46
REMARK SMILES IDX 91 47 85 48 84 49 37 51 71 52 50 53 70 54 51 55 54 56 69 57
REMARK SMILES IDX 89 58 52 59 53 60 68 62 90 63 55 64 38 65 39 66 48 67 40 68
REMARK SMILES IDX 41 69 47 70 49 71 42 72 43 73 44 74 45 75 46 76 72 77 73 78
REMARK SMILES IDX 82 79 74 80 75 81 81 82 83 83 76 84 77 85 78 86 79 87 80 88
REMARK SMILES IDX 56 89 57 90 66 91 58 92 59 93 65 94 67 95 60 96 61 97 62 98
REMARK SMILES IDX 63 99 64 100
REMARK H PARENT 19 7 11 17 15 24 26 31 88 50 54 61
REMARK Flexibility Score: inf
ROOT
ATOM      1  C   UNL A   1      34.114  22.765  23.606  1.00  0.00     0.002 C 
ENDROOT
BRANCH   1   2
ATOM      2  C   UNL A   1      33.477  21.864  24.673  1.00  0.00     0.021 C 
BRANCH   2   3
ATOM      3  C   UNL A   1      32.652  22.617  25.711  1.00  0.00     0.116 C 
BRANCH   3   4
ATOM      4  N   UNL A   1      32.745  24.043  25.494  1.00  0.00    -0.356 N 
ATOM      5  O   UNL A   1      31.081  24.623  26.966  1.00  0.00    -0.275 OA
ATOM      6  C   UNL A   1      31.945  24.943  26.154  1.00  0.00     0.220 C 
ATOM      7  H   UNL A   1      33.408  24.381  24.850  1.00  0.00     0.163 HD
BRANCH   6   8
ATOM      8  C   UNL A   1      32.153  26.397  25.774  1.00  0.00     0.104 C 
BRANCH   8   9
ATOM      9  C   UNL A   1      30.892  27.130  25.297  1.00  0.00     0.010 C 
ATOM     10  C   UNL A   1      31.154  28.651  25.181  1.00  0.00     0.069 C 
ATOM     11  C   UNL A   1      30.235  26.460  24.060  1.00  0.00     0.069 C 
ATOM     12  C   UNL A   1      31.049  29.228  23.770  1.00  0.00     0.184 C 
ATOM     13  C   UNL A   1      30.274  27.287  22.782  1.00  0.00     0.184 C 
ATOM     14  C   UNL A   1      32.224  28.722  22.916  1.00  0.00     0.071 C 
ATOM     15  N   UNL A   1      29.935  28.676  23.034  1.00  0.00    -0.327 N 
ATOM     16  C   UNL A   1      31.727  27.412  22.303  1.00  0.00     0.071 C 
ATOM     17  H   UNL A   1      29.822  29.222  22.179  1.00  0.00     0.348 HD
BRANCH  15  18
ATOM     18  C   UNL A   1      28.556  29.117  23.159  1.00  0.00     0.310 C 
BRANCH  18  19
ATOM     19  C   UNL A   1      27.832  30.300  22.458  1.00  0.00     0.252 C 
ATOM     20  C   UNL A   1      28.255  30.679  21.056  1.00  0.00     0.170 C 
ATOM     21  O   UNL A   1      27.847  31.522  23.212  1.00  0.00    -0.438 OA
ATOM     22  N   UNL A   1      28.665  32.032  21.197  1.00  0.00    -0.318 N 
ATOM     23  C   UNL A   1      28.381  32.510  22.440  1.00  0.00     0.407 C 
ATOM     24  H   UNL A   1      29.100  32.557  20.487  1.00  0.00     0.167 HD
ATOM     25  O   UNL A   1      28.623  33.645  22.820  1.00  0.00    -0.225 OA
ENDBRANCH  18  19
ENDBRANCH  15  18
ENDBRANCH   8   9
ENDBRANCH   6   8
ENDBRANCH   3   4
ENDBRANCH   2   3
ENDBRANCH   1   2
BRANCH   1  26
ATOM     26  C   UNL A   1      35.643  22.710  23.526  1.00  0.00     0.002 C 
BRANCH  26  27
ATOM     27  C   UNL A   1      36.377  23.727  24.402  1.00  0.00     0.021 C 
BRANCH  27  28
ATOM     28  C   UNL A   1      36.520  23.321  25.864  1.00  0.00     0.116 C 
BRANCH  28  29
ATOM     29  N   UNL A   1      37.553  22.314  26.061  1.00  0.00    -0.352 N 
ATOM     30  C   UNL A   1      38.870  22.490  26.406  1.00  0.00     0.251 C 
ATOM     31  H   UNL A   1      37.267  21.381  25.930  1.00  0.00     0.163 HD
ATOM     32  O   UNL A   1      39.653  21.546  26.364  1.00  0.00    -0.269 OA
BRANCH  30  33
ATOM     33  C   UNL A   1      39.344  23.834  26.804  1.00  0.00     0.039 A 
ATOM     34  C   UNL A   1      39.284  24.208  28.149  1.00  0.00     0.014 A 
ATOM     35  C   UNL A   1      39.870  24.713  25.853  1.00  0.00     0.014 A 
ATOM     36  C   UNL A   1      39.810  25.439  28.549  1.00  0.00     0.010 A 
ATOM     37  C   UNL A   1      40.463  25.903  26.265  1.00  0.00     0.010 A 
ATOM     38  C   UNL A   1      40.437  26.282  27.617  1.00  0.00    -0.014 A 
BRANCH  38  39
ATOM     39  C   UNL A   1      41.060  27.570  28.022  1.00  0.00     0.031 A 
ATOM     40  C   UNL A   1      42.555  27.735  27.942  1.00  0.00     0.074 A 
ATOM     41  C   UNL A   1      40.295  28.558  28.530  1.00  0.00     0.049 A 
ATOM     42  N   UNL A   1      43.300  28.729  28.353  1.00  0.00    -0.248 NA
ATOM     43  C   UNL A   1      43.318  26.624  27.346  1.00  0.00     0.031 C 
ATOM     44  C   UNL A   1      38.840  28.507  28.693  1.00  0.00     0.029 A 
ATOM     45  N   UNL A   1      40.636  29.795  29.023  1.00  0.00    -0.354 N 
ATOM     46  C   UNL A   1      44.612  28.356  28.087  1.00  0.00     0.074 A 
ATOM     47  C   UNL A   1      44.568  27.026  27.520  1.00  0.00     0.031 C 
ATOM     48  C   UNL A   1      38.414  29.660  29.234  1.00  0.00     0.029 A 
ATOM     49  C   UNL A   1      39.566  30.516  29.503  1.00  0.00     0.049 A 
ATOM     50  H   UNL A   1      41.560  30.134  29.033  1.00  0.00     0.167 HD
ATOM     51  C   UNL A   1      45.748  29.064  28.282  1.00  0.00     0.037 A 
ATOM     52  C   UNL A   1      39.520  31.720  30.107  1.00  0.00     0.037 A 
ATOM     53  C   UNL A   1      45.781  30.403  28.812  1.00  0.00     0.049 A 
ATOM     54  C   UNL A   1      40.804  32.481  30.324  1.00  0.00     0.074 A 
ATOM     55  C   UNL A   1      46.876  31.230  28.983  1.00  0.00     0.029 A 
ATOM     56  N   UNL A   1      44.673  31.109  29.258  1.00  0.00    -0.354 N 
ATOM     57  N   UNL A   1      42.030  32.139  30.002  1.00  0.00    -0.248 NA
ATOM     58  C   UNL A   1      40.702  33.794  30.978  1.00  0.00     0.031 C 
ATOM     59  C   UNL A   1      46.442  32.412  29.586  1.00  0.00     0.029 A 
ATOM     60  C   UNL A   1      45.065  32.351  29.726  1.00  0.00     0.049 A 
ATOM     61  H   UNL A   1      43.747  30.775  29.242  1.00  0.00     0.167 HD
ATOM     62  C   UNL A   1      42.833  33.213  30.373  1.00  0.00     0.074 A 
ATOM     63  C   UNL A   1      41.957  34.216  30.940  1.00  0.00     0.031 C 
ATOM     64  C   UNL A   1      44.176  33.355  30.255  1.00  0.00     0.037 A 
BRANCH  51  65
ATOM     65  C   UNL A   1      47.060  28.424  27.920  1.00  0.00     0.058 A 
ATOM     66  C   UNL A   1      47.776  27.636  28.833  1.00  0.00     0.135 A 
ATOM     67  C   UNL A   1      47.560  28.526  26.611  1.00  0.00     0.135 A 
ATOM     68  F   UNL A   1      47.355  27.518  30.102  1.00  0.00    -0.206 F 
ATOM     69  C   UNL A   1      48.944  26.976  28.464  1.00  0.00     0.059 A 
ATOM     70  C   UNL A   1      48.709  27.850  26.211  1.00  0.00     0.059 A 
ATOM     71  F   UNL A   1      46.916  29.271  25.697  1.00  0.00    -0.206 F 
ATOM     72  C   UNL A   1      49.397  27.080  27.147  1.00  0.00     0.060 A 
BRANCH  72  73
ATOM     73  S   UNL A   1      50.882  26.171  26.675  1.00  0.00     0.124 S 
ATOM     74  O   UNL A   1      50.819  26.244  25.219  1.00  0.00    -0.237 OA
ATOM     75  O   UNL A   1      51.939  26.956  27.303  1.00  0.00    -0.237 OA
ATOM     76  O   UNL A   1      50.666  24.844  27.246  1.00  0.00    -0.744 OA
ENDBRANCH  72  73
ENDBRANCH  51  65
BRANCH  52  77
ATOM     77  C   UNL A   1      38.221  32.291  30.564  1.00  0.00     0.058 A 
ATOM     78  C   UNL A   1      37.466  33.132  29.730  1.00  0.00     0.135 A 
ATOM     79  C   UNL A   1      37.728  32.044  31.855  1.00  0.00     0.135 A 
ATOM     80  F   UNL A   1      37.895  33.404  28.488  1.00  0.00    -0.206 F 
ATOM     81  C   UNL A   1      36.296  33.740  30.172  1.00  0.00     0.059 A 
ATOM     82  C   UNL A   1      36.541  32.614  32.308  1.00  0.00     0.059 A 
ATOM     83  F   UNL A   1      38.397  31.233  32.688  1.00  0.00    -0.206 F 
ATOM     84  C   UNL A   1      35.844  33.479  31.467  1.00  0.00     0.060 A 
BRANCH  84  85
ATOM     85  S   UNL A   1      34.327  34.279  32.032  1.00  0.00     0.124 S 
ATOM     86  O   UNL A   1      33.618  34.485  30.774  1.00  0.00    -0.237 OA
ATOM     87  O   UNL A   1      33.764  33.272  32.926  1.00  0.00    -0.237 OA
ATOM     88  O   UNL A   1      34.811  35.489  32.689  1.00  0.00    -0.744 OA
ENDBRANCH  84  85
ENDBRANCH  52  77
BRANCH  64  89
ATOM     89  C   UNL A   1      44.785  34.665  30.673  1.00  0.00     0.058 A 
ATOM     90  C   UNL A   1      45.281  34.878  31.968  1.00  0.00     0.135 A 
ATOM     91  C   UNL A   1      44.946  35.697  29.732  1.00  0.00     0.135 A 
ATOM     92  F   UNL A   1      45.148  33.929  32.908  1.00  0.00    -0.206 F 
ATOM     93  C   UNL A   1      45.901  36.074  32.321  1.00  0.00     0.059 A 
ATOM     94  C   UNL A   1      45.592  36.886  30.053  1.00  0.00     0.059 A 
ATOM     95  F   UNL A   1      44.499  35.542  28.476  1.00  0.00    -0.206 F 
ATOM     96  C   UNL A   1      46.059  37.069  31.353  1.00  0.00     0.060 A 
BRANCH  96  97
ATOM     97  S   UNL A   1      46.915  38.590  31.810  1.00  0.00     0.124 S 
ATOM     98  O   UNL A   1      47.625  38.180  33.016  1.00  0.00    -0.237 OA
ATOM     99  O   UNL A   1      47.748  38.843  30.638  1.00  0.00    -0.237 OA
ATOM    100  O   UNL A   1      45.829  39.545  32.015  1.00  0.00    -0.744 OA
ENDBRANCH  96  97
ENDBRANCH  64  89
ENDBRANCH  38  39
ENDBRANCH  30  33
ENDBRANCH  28  29
ENDBRANCH  27  28
ENDBRANCH  26  27
ENDBRANCH   1  26
TORSDOF 19
ENDMDL
MODEL 2
REMARK VINA RESULT:     -11.4      3.348      9.403
REMARK SMILES O=C(C[C@H]1C[C@H]2CC[C@@H](C1)[N@H+]2C[C@@H]1CNC(=O)O1)NCCCCCCNC(=O)c1ccc(-c2c3nc(c(-c4c(F)cc(S(=O)(=O)[O-])cc4F)c4ccc([nH]4)c(-c4c(F)cc(S(=O)(=O)[O-])cc4F)c4nc(c(-c5c(F)cc(S(=O)(=O)[O-])cc5F)c5ccc2[nH]5)C=C4)C=C3)cc1
REMARK SMILES IDX 22 1 21 2 20 3 19 4 1 5 2 6 3 8 4 9 5 10 10 11 6 12 9 13
REMARK SMILES IDX 7 14 11 15 8 16 12 18 13 19 14 20 18 21 15 22 16 23 17 25
REMARK SMILES IDX 23 26 24 27 25 28 26 29 27 30 28 32 29 33 30 34 94 35 31 36
REMARK SMILES IDX 93 37 32 38 33 39 34 40 87 41 35 42 92 43 86 44 88 45 36 46
REMARK SMILES IDX 91 47 85 48 84 49 37 51 71 52 50 53 70 54 51 55 54 56 69 57
REMARK SMILES IDX 89 58 52 59 53 60 68 62 90 63 55 64 38 65 39 66 48 67 40 68
REMARK SMILES IDX 41 69 47 70 49 71 42 72 43 73 44 74 45 75 46 76 72 77 73 78
REMARK SMILES IDX 82 79 74 80 75 81 81 82 83 83 76 84 77 85 78 86 79 87 80 88
REMARK SMILES IDX 56 89 57 90 66 91 58 92 59 93 65 94 67 95 60 96 61 97 62 98
REMARK SMILES IDX 63 99 64 100
REMARK H PARENT 19 7 11 17 15 24 26 31 88 50 54 61
REMARK Flexibility Score: inf
ROOT
ATOM      1  C   UNL A   1      33.920  34.064  28.763  1.00  0.00     0.002 C 
ENDROOT
BRANCH   1   2
ATOM      2  C   UNL A   1      33.495  32.821  27.970  1.00  0.00     0.021 C 
BRANCH   2   3
ATOM      3  C   UNL A   1      34.611  31.802  27.765  1.00  0.00     0.116 C 
BRANCH   3   4
ATOM      4  N   UNL A   1      34.228  30.823  26.773  1.00  0.00    -0.356 N 
ATOM      5  O   UNL A   1      34.951  28.988  27.948  1.00  0.00    -0.275 OA
ATOM      6  C   UNL A   1      34.427  29.477  26.951  1.00  0.00     0.220 C 
ATOM      7  H   UNL A   1      33.809  31.136  25.939  1.00  0.00     0.163 HD
BRANCH   6   8
ATOM      8  C   UNL A   1      33.999  28.598  25.790  1.00  0.00     0.104 C 
BRANCH   8   9
ATOM      9  C   UNL A   1      33.060  29.270  24.779  1.00  0.00     0.010 C 
ATOM     10  C   UNL A   1      33.356  28.774  23.343  1.00  0.00     0.069 C 
ATOM     11  C   UNL A   1      31.571  29.226  25.216  1.00  0.00     0.069 C 
ATOM     12  C   UNL A   1      32.222  28.003  22.669  1.00  0.00     0.184 C 
ATOM     13  C   UNL A   1      30.665  28.374  24.337  1.00  0.00     0.184 C 
ATOM     14  C   UNL A   1      32.046  26.638  23.356  1.00  0.00     0.071 C 
ATOM     15  N   UNL A   1      30.929  28.594  22.927  1.00  0.00    -0.327 N 
ATOM     16  C   UNL A   1      31.053  26.896  24.491  1.00  0.00     0.071 C 
ATOM     17  H   UNL A   1      30.249  28.140  22.316  1.00  0.00     0.348 HD
BRANCH  15  18
ATOM     18  C   UNL A   1      30.380  29.736  22.214  1.00  0.00     0.310 C 
BRANCH  18  19
ATOM     19  C   UNL A   1      28.999  30.429  22.376  1.00  0.00     0.252 C 
ATOM     20  C   UNL A   1      28.233  30.815  21.130  1.00  0.00     0.170 C 
ATOM     21  O   UNL A   1      29.031  31.609  23.194  1.00  0.00    -0.438 OA
ATOM     22  N   UNL A   1      28.082  32.222  21.267  1.00  0.00    -0.318 N 
ATOM     23  C   UNL A   1      28.513  32.651  22.485  1.00  0.00     0.407 C 
ATOM     24  H   UNL A   1      27.714  32.810  20.569  1.00  0.00     0.167 HD
ATOM     25  O   UNL A   1      28.488  33.813  22.861  1.00  0.00    -0.225 OA
ENDBRANCH  18  19
ENDBRANCH  15  18
ENDBRANCH   8   9
ENDBRANCH   6   8
ENDBRANCH   3   4
ENDBRANCH   2   3
ENDBRANCH   1   2
BRANCH   1  26
ATOM     26  C   UNL A   1      34.431  33.794  30.183  1.00  0.00     0.002 C 
BRANCH  26  27
ATOM     27  C   UNL A   1      35.885  34.196  30.438  1.00  0.00     0.021 C 
BRANCH  27  28
ATOM     28  C   UNL A   1      36.824  33.033  30.733  1.00  0.00     0.116 C 
BRANCH  28  29
ATOM     29  N   UNL A   1      36.105  31.805  31.043  1.00  0.00    -0.352 N 
ATOM     30  C   UNL A   1      36.504  30.505  30.856  1.00  0.00     0.251 C 
ATOM     31  H   UNL A   1      35.213  31.924  31.443  1.00  0.00     0.163 HD
ATOM     32  O   UNL A   1      35.708  29.584  31.012  1.00  0.00    -0.269 OA
BRANCH  30  33
ATOM     33  C   UNL A   1      37.895  30.224  30.437  1.00  0.00     0.039 A 
ATOM     34  C   UNL A   1      38.863  29.968  31.412  1.00  0.00     0.014 A 
ATOM     35  C   UNL A   1      38.237  30.191  29.082  1.00  0.00     0.014 A 
ATOM     36  C   UNL A   1      40.158  29.614  31.025  1.00  0.00     0.010 A 
ATOM     37  C   UNL A   1      39.505  29.762  28.699  1.00  0.00     0.010 A 
ATOM     38  C   UNL A   1      40.481  29.473  29.666  1.00  0.00    -0.014 A 
BRANCH  38  39
ATOM     39  C   UNL A   1      41.834  29.039  29.224  1.00  0.00     0.031 A 
ATOM     40  C   UNL A   1      42.956  30.041  29.160  1.00  0.00     0.074 A 
ATOM     41  C   UNL A   1      42.034  27.771  28.811  1.00  0.00     0.049 A 
ATOM     42  N   UNL A   1      44.170  29.894  28.697  1.00  0.00    -0.248 NA
ATOM     43  C   UNL A   1      42.668  31.398  29.659  1.00  0.00     0.031 C 
ATOM     44  C   UNL A   1      41.018  26.715  28.791  1.00  0.00     0.029 A 
ATOM     45  N   UNL A   1      43.155  27.156  28.309  1.00  0.00    -0.354 N 
ATOM     46  C   UNL A   1      44.780  31.137  28.826  1.00  0.00     0.074 A 
ATOM     47  C   UNL A   1      43.791  32.040  29.371  1.00  0.00     0.031 C 
ATOM     48  C   UNL A   1      41.564  25.584  28.315  1.00  0.00     0.029 A 
ATOM     49  C   UNL A   1      42.954  25.842  27.950  1.00  0.00     0.049 A 
ATOM     50  H   UNL A   1      44.022  27.612  28.216  1.00  0.00     0.167 HD
ATOM     51  C   UNL A   1      46.054  31.487  28.533  1.00  0.00     0.037 A 
ATOM     52  C   UNL A   1      43.788  24.953  27.374  1.00  0.00     0.037 A 
ATOM     53  C   UNL A   1      47.044  30.572  28.026  1.00  0.00     0.049 A 
ATOM     54  C   UNL A   1      45.198  25.376  27.047  1.00  0.00     0.074 A 
ATOM     55  C   UNL A   1      48.381  30.816  27.764  1.00  0.00     0.029 A 
ATOM     56  N   UNL A   1      46.809  29.244  27.704  1.00  0.00    -0.354 N 
ATOM     57  N   UNL A   1      45.776  26.538  27.240  1.00  0.00    -0.248 NA
ATOM     58  C   UNL A   1      46.073  24.368  26.429  1.00  0.00     0.031 C 
ATOM     59  C   UNL A   1      48.939  29.655  27.228  1.00  0.00     0.029 A 
ATOM     60  C   UNL A   1      47.969  28.665  27.221  1.00  0.00     0.049 A 
ATOM     61  H   UNL A   1      45.945  28.783  27.804  1.00  0.00     0.167 HD
ATOM     62  C   UNL A   1      47.091  26.384  26.811  1.00  0.00     0.074 A 
ATOM     63  C   UNL A   1      47.225  25.018  26.352  1.00  0.00     0.031 C 
ATOM     64  C   UNL A   1      48.098  27.293  26.801  1.00  0.00     0.037 A 
BRANCH  51  65
ATOM     65  C   UNL A   1      46.470  32.916  28.754  1.00  0.00     0.058 A 
ATOM     66  C   UNL A   1      46.339  33.888  27.751  1.00  0.00     0.135 A 
ATOM     67  C   UNL A   1      46.920  33.335  30.017  1.00  0.00     0.135 A 
ATOM     68  F   UNL A   1      45.931  33.541  26.520  1.00  0.00    -0.206 F 
ATOM     69  C   UNL A   1      46.644  35.224  27.990  1.00  0.00     0.059 A 
ATOM     70  C   UNL A   1      47.201  34.671  30.287  1.00  0.00     0.059 A 
ATOM     71  F   UNL A   1      47.068  32.445  31.012  1.00  0.00    -0.206 F 
ATOM     72  C   UNL A   1      47.064  35.608  29.265  1.00  0.00     0.060 A 
BRANCH  72  73
ATOM     73  S   UNL A   1      47.400  37.354  29.570  1.00  0.00     0.124 S 
ATOM     74  O   UNL A   1      46.295  37.993  28.862  1.00  0.00    -0.237 OA
ATOM     75  O   UNL A   1      47.348  37.431  31.026  1.00  0.00    -0.237 OA
ATOM     76  O   UNL A   1      48.721  37.556  28.981  1.00  0.00    -0.744 OA
ENDBRANCH  72  73
ENDBRANCH  51  65
BRANCH  52  77
ATOM     77  C   UNL A   1      43.324  23.572  27.058  1.00  0.00     0.058 A 
ATOM     78  C   UNL A   1      43.106  22.629  28.075  1.00  0.00     0.135 A 
ATOM     79  C   UNL A   1      43.130  23.153  25.732  1.00  0.00     0.135 A 
ATOM     80  F   UNL A   1      43.281  22.977  29.360  1.00  0.00    -0.206 F 
ATOM     81  C   UNL A   1      42.756  21.314  27.790  1.00  0.00     0.059 A 
ATOM     82  C   UNL A   1      42.747  21.850  25.423  1.00  0.00     0.059 A 
ATOM     83  F   UNL A   1      43.306  24.016  24.720  1.00  0.00    -0.206 F 
ATOM     84  C   UNL A   1      42.584  20.932  26.458  1.00  0.00     0.060 A 
BRANCH  84  85
ATOM     85  S   UNL A   1      42.136  19.220  26.100  1.00  0.00     0.124 S 
ATOM     86  O   UNL A   1      42.519  18.551  27.338  1.00  0.00    -0.237 OA
ATOM     87  O   UNL A   1      40.702  19.324  25.847  1.00  0.00    -0.237 OA
ATOM     88  O   UNL A   1      42.949  18.898  24.930  1.00  0.00    -0.744 OA
ENDBRANCH  84  85
ENDBRANCH  52  77
BRANCH  64  89
ATOM     89  C   UNL A   1      49.456  26.833  26.348  1.00  0.00     0.058 A 
ATOM     90  C   UNL A   1      50.326  26.128  27.193  1.00  0.00     0.135 A 
ATOM     91  C   UNL A   1      49.856  27.032  25.015  1.00  0.00     0.135 A 
ATOM     92  F   UNL A   1      49.997  25.915  28.477  1.00  0.00    -0.206 F 
ATOM     93  C   UNL A   1      51.553  25.652  26.738  1.00  0.00     0.059 A 
ATOM     94  C   UNL A   1      51.062  26.537  24.530  1.00  0.00     0.059 A 
ATOM     95  F   UNL A   1      49.057  27.691  24.160  1.00  0.00    -0.206 F 
ATOM     96  C   UNL A   1      51.908  25.854  25.402  1.00  0.00     0.060 A 
BRANCH  96  97
ATOM     97  S   UNL A   1      53.475  25.182  24.813  1.00  0.00     0.124 S 
ATOM     98  O   UNL A   1      53.377  25.414  23.377  1.00  0.00    -0.237 OA
ATOM     99  O   UNL A   1      54.453  26.003  25.523  1.00  0.00    -0.237 OA
ATOM    100  O   UNL A   1      53.424  23.783  25.228  1.00  0.00    -0.744 OA
ENDBRANCH  96  97
ENDBRANCH  64  89
ENDBRANCH  38  39
ENDBRANCH  30  33
ENDBRANCH  28  29
ENDBRANCH  27  28
ENDBRANCH  26  27
ENDBRANCH   1  26
TORSDOF 19
ENDMDL
MODEL 3
REMARK VINA RESULT:     -11.4      2.693      3.277
REMARK SMILES O=C(C[C@H]1C[C@H]2CC[C@@H](C1)[N@H+]2C[C@@H]1CNC(=O)O1)NCCCCCCNC(=O)c1ccc(-c2c3nc(c(-c4c(F)cc(S(=O)(=O)[O-])cc4F)c4ccc([nH]4)c(-c4c(F)cc(S(=O)(=O)[O-])cc4F)c4nc(c(-c5c(F)cc(S(=O)(=O)[O-])cc5F)c5ccc2[nH]5)C=C4)C=C3)cc1
REMARK SMILES IDX 22 1 21 2 20 3 19 4 1 5 2 6 3 8 4 9 5 10 10 11 6 12 9 13
REMARK SMILES IDX 7 14 11 15 8 16 12 18 13 19 14 20 18 21 15 22 16 23 17 25
REMARK SMILES IDX 23 26 24 27 25 28 26 29 27 30 28 32 29 33 30 34 94 35 31 36
REMARK SMILES IDX 93 37 32 38 33 39 34 40 87 41 35 42 92 43 86 44 88 45 36 46
REMARK SMILES IDX 91 47 85 48 84 49 37 51 71 52 50 53 70 54 51 55 54 56 69 57
REMARK SMILES IDX 89 58 52 59 53 60 68 62 90 63 55 64 38 65 39 66 48 67 40 68
REMARK SMILES IDX 41 69 47 70 49 71 42 72 43 73 44 74 45 75 46 76 72 77 73 78
REMARK SMILES IDX 82 79 74 80 75 81 81 82 83 83 76 84 77 85 78 86 79 87 80 88
REMARK SMILES IDX 56 89 57 90 66 91 58 92 59 93 65 94 67 95 60 96 61 97 62 98
REMARK SMILES IDX 63 99 64 100
REMARK H PARENT 19 7 11 17 15 24 26 31 88 50 54 61
REMARK Flexibility Score: inf
ROOT
ATOM      1  C   UNL A   1      34.229  21.608  25.376  1.00  0.00     0.002 C 
ENDROOT
BRANCH   1   2
ATOM      2  C   UNL A   1      32.912  21.420  24.611  1.00  0.00     0.021 C 
BRANCH   2   3
ATOM      3  C   UNL A   1      31.868  22.496  24.895  1.00  0.00     0.116 C 
BRANCH   3   4
ATOM      4  N   UNL A   1      32.505  23.774  25.112  1.00  0.00    -0.356 N 
ATOM      5  O   UNL A   1      31.544  24.183  27.157  1.00  0.00    -0.275 OA
ATOM      6  C   UNL A   1      32.293  24.522  26.244  1.00  0.00     0.220 C 
ATOM      7  H   UNL A   1      33.115  24.122  24.421  1.00  0.00     0.163 HD
BRANCH   6   8
ATOM      8  C   UNL A   1      33.013  25.856  26.286  1.00  0.00     0.104 C 
BRANCH   8   9
ATOM      9  C   UNL A   1      32.134  27.078  25.987  1.00  0.00     0.010 C 
ATOM     10  C   UNL A   1      32.994  28.258  25.473  1.00  0.00     0.069 C 
ATOM     11  C   UNL A   1      30.884  26.730  25.136  1.00  0.00     0.069 C 
ATOM     12  C   UNL A   1      32.704  28.704  24.041  1.00  0.00     0.184 C 
ATOM     13  C   UNL A   1      30.869  27.332  23.737  1.00  0.00     0.184 C 
ATOM     14  C   UNL A   1      33.178  27.622  23.056  1.00  0.00     0.071 C 
ATOM     15  N   UNL A   1      31.289  28.721  23.748  1.00  0.00    -0.327 N 
ATOM     16  C   UNL A   1      31.979  26.686  22.895  1.00  0.00     0.071 C 
ATOM     17  H   UNL A   1      31.160  29.186  22.849  1.00  0.00     0.348 HD
BRANCH  15  18
ATOM     18  C   UNL A   1      30.378  29.794  24.112  1.00  0.00     0.310 C 
BRANCH  18  19
ATOM     19  C   UNL A   1      29.197  30.401  23.304  1.00  0.00     0.252 C 
ATOM     20  C   UNL A   1      29.353  30.565  21.808  1.00  0.00     0.170 C 
ATOM     21  O   UNL A   1      28.752  31.676  23.791  1.00  0.00    -0.438 OA
ATOM     22  N   UNL A   1      29.181  31.963  21.618  1.00  0.00    -0.318 N 
ATOM     23  C   UNL A   1      28.793  32.577  22.769  1.00  0.00     0.407 C 
ATOM     24  H   UNL A   1      29.324  32.428  20.762  1.00  0.00     0.167 HD
ATOM     25  O   UNL A   1      28.570  33.773  22.879  1.00  0.00    -0.225 OA
ENDBRANCH  18  19
ENDBRANCH  15  18
ENDBRANCH   8   9
ENDBRANCH   6   8
ENDBRANCH   3   4
ENDBRANCH   2   3
ENDBRANCH   1   2
BRANCH   1  26
ATOM     26  C   UNL A   1      35.463  21.869  24.506  1.00  0.00     0.002 C 
BRANCH  26  27
ATOM     27  C   UNL A   1      35.816  23.344  24.304  1.00  0.00     0.021 C 
BRANCH  27  28
ATOM     28  C   UNL A   1      36.920  23.864  25.217  1.00  0.00     0.116 C 
BRANCH  28  29
ATOM     29  N   UNL A   1      37.980  22.887  25.418  1.00  0.00    -0.352 N 
ATOM     30  C   UNL A   1      39.193  23.051  26.040  1.00  0.00     0.251 C 
ATOM     31  H   UNL A   1      37.803  21.987  25.060  1.00  0.00     0.163 HD
ATOM     32  O   UNL A   1      40.048  22.172  25.973  1.00  0.00    -0.269 OA
BRANCH  30  33
ATOM     33  C   UNL A   1      39.472  24.307  26.770  1.00  0.00     0.039 A 
ATOM     34  C   UNL A   1      38.958  24.477  28.058  1.00  0.00     0.014 A 
ATOM     35  C   UNL A   1      40.261  25.305  26.191  1.00  0.00     0.014 A 
ATOM     36  C   UNL A   1      39.289  25.620  28.790  1.00  0.00     0.010 A 
ATOM     37  C   UNL A   1      40.653  26.405  26.950  1.00  0.00     0.010 A 
ATOM     38  C   UNL A   1      40.168  26.577  28.257  1.00  0.00    -0.014 A 
BRANCH  38  39
ATOM     39  C   UNL A   1      40.587  27.774  29.035  1.00  0.00     0.031 A 
ATOM     40  C   UNL A   1      41.891  27.757  29.788  1.00  0.00     0.074 A 
ATOM     41  C   UNL A   1      39.765  28.840  29.126  1.00  0.00     0.049 A 
ATOM     42  N   UNL A   1      42.381  28.646  30.612  1.00  0.00    -0.248 NA
ATOM     43  C   UNL A   1      42.747  26.571  29.612  1.00  0.00     0.031 C 
ATOM     44  C   UNL A   1      38.459  28.963  28.473  1.00  0.00     0.029 A 
ATOM     45  N   UNL A   1      39.896  30.018  29.821  1.00  0.00    -0.354 N 
ATOM     46  C   UNL A   1      43.584  28.121  31.068  1.00  0.00     0.074 A 
ATOM     47  C   UNL A   1      43.732  26.816  30.464  1.00  0.00     0.031 C 
ATOM     48  C   UNL A   1      37.917  30.151  28.787  1.00  0.00     0.029 A 
ATOM     49  C   UNL A   1      38.810  30.857  29.702  1.00  0.00     0.049 A 
ATOM     50  H   UNL A   1      40.692  30.242  30.354  1.00  0.00     0.167 HD
ATOM     51  C   UNL A   1      44.490  28.683  31.901  1.00  0.00     0.037 A 
ATOM     52  C   UNL A   1      38.555  32.048  30.279  1.00  0.00     0.037 A 
ATOM     53  C   UNL A   1      44.353  29.999  32.468  1.00  0.00     0.049 A 
ATOM     54  C   UNL A   1      39.578  32.644  31.213  1.00  0.00     0.074 A 
ATOM     55  C   UNL A   1      45.251  30.685  33.268  1.00  0.00     0.029 A 
ATOM     56  N   UNL A   1      43.254  30.828  32.300  1.00  0.00    -0.354 N 
ATOM     57  N   UNL A   1      40.742  32.160  31.578  1.00  0.00    -0.248 NA
ATOM     58  C   UNL A   1      39.259  33.949  31.810  1.00  0.00     0.031 C 
ATOM     59  C   UNL A   1      44.671  31.901  33.632  1.00  0.00     0.029 A 
ATOM     60  C   UNL A   1      43.441  32.006  33.002  1.00  0.00     0.049 A 
ATOM     61  H   UNL A   1      42.459  30.610  31.760  1.00  0.00     0.167 HD
ATOM     62  C   UNL A   1      41.310  33.122  32.408  1.00  0.00     0.074 A 
ATOM     63  C   UNL A   1      40.365  34.216  32.489  1.00  0.00     0.031 C 
ATOM     64  C   UNL A   1      42.507  33.102  33.045  1.00  0.00     0.037 A 
BRANCH  51  65
ATOM     65  C   UNL A   1      45.721  27.894  32.254  1.00  0.00     0.058 A 
ATOM     66  C   UNL A   1      45.696  26.878  33.222  1.00  0.00     0.135 A 
ATOM     67  C   UNL A   1      46.918  28.095  31.548  1.00  0.00     0.135 A 
ATOM     68  F   UNL A   1      44.584  26.654  33.940  1.00  0.00    -0.206 F 
ATOM     69  C   UNL A   1      46.815  26.094  33.482  1.00  0.00     0.059 A 
ATOM     70  C   UNL A   1      48.041  27.303  31.770  1.00  0.00     0.059 A 
ATOM     71  F   UNL A   1      46.999  29.057  30.614  1.00  0.00    -0.206 F 
ATOM     72  C   UNL A   1      47.980  26.307  32.743  1.00  0.00     0.060 A 
BRANCH  72  73
ATOM     73  S   UNL A   1      49.403  25.242  33.055  1.00  0.00     0.124 S 
ATOM     74  O   UNL A   1      49.801  24.880  31.699  1.00  0.00    -0.237 OA
ATOM     75  O   UNL A   1      50.311  26.138  33.764  1.00  0.00    -0.237 OA
ATOM     76  O   UNL A   1      48.846  24.155  33.856  1.00  0.00    -0.744 OA
ENDBRANCH  72  73
ENDBRANCH  51  65
BRANCH  52  77
ATOM     77  C   UNL A   1      37.278  32.765  30.005  1.00  0.00     0.058 A 
ATOM     78  C   UNL A   1      36.097  32.430  30.687  1.00  0.00     0.135 A 
ATOM     79  C   UNL A   1      37.200  33.771  29.028  1.00  0.00     0.135 A 
ATOM     80  F   UNL A   1      36.115  31.472  31.627  1.00  0.00    -0.206 F 
ATOM     81  C   UNL A   1      34.880  33.031  30.381  1.00  0.00     0.059 A 
ATOM     82  C   UNL A   1      36.000  34.412  28.729  1.00  0.00     0.059 A 
ATOM     83  F   UNL A   1      38.301  34.146  28.359  1.00  0.00    -0.206 F 
ATOM     84  C   UNL A   1      34.842  34.019  29.395  1.00  0.00     0.060 A 
BRANCH  84  85
ATOM     85  S   UNL A   1      33.256  34.789  29.004  1.00  0.00     0.124 S 
ATOM     86  O   UNL A   1      32.623  34.841  30.316  1.00  0.00    -0.237 OA
ATOM     87  O   UNL A   1      33.668  36.071  28.441  1.00  0.00    -0.237 OA
ATOM     88  O   UNL A   1      32.658  33.858  28.051  1.00  0.00    -0.744 OA
ENDBRANCH  84  85
ENDBRANCH  52  77
BRANCH  64  89
ATOM     89  C   UNL A   1      42.908  34.322  33.828  1.00  0.00     0.058 A 
ATOM     90  C   UNL A   1      42.654  34.444  35.202  1.00  0.00     0.135 A 
ATOM     91  C   UNL A   1      43.634  35.351  33.202  1.00  0.00     0.135 A 
ATOM     92  F   UNL A   1      41.960  33.494  35.849  1.00  0.00    -0.206 F 
ATOM     93  C   UNL A   1      43.090  35.551  35.925  1.00  0.00     0.059 A 
ATOM     94  C   UNL A   1      44.108  36.449  33.911  1.00  0.00     0.059 A 
ATOM     95  F   UNL A   1      43.913  35.279  31.890  1.00  0.00    -0.206 F 
ATOM     96  C   UNL A   1      43.824  36.544  35.272  1.00  0.00     0.060 A 
BRANCH  96  97
ATOM     97  S   UNL A   1      44.431  37.944  36.234  1.00  0.00     0.124 S 
ATOM     98  O   UNL A   1      45.844  37.611  36.384  1.00  0.00    -0.237 OA
ATOM     99  O   UNL A   1      44.135  39.076  35.359  1.00  0.00    -0.237 OA
ATOM    100  O   UNL A   1      43.640  37.885  37.460  1.00  0.00    -0.744 OA
ENDBRANCH  96  97
ENDBRANCH  64  89
ENDBRANCH  38  39
ENDBRANCH  30  33
ENDBRANCH  28  29
ENDBRANCH  27  28
ENDBRANCH  26  27
ENDBRANCH   1  26
TORSDOF 19
ENDMDL
