MODEL 1
REMARK VINA RESULT:     -10.4      0.000      0.000
REMARK SMILES CCOc1cc(OCC)cc(-c2ccc([C@@H](C)C(=O)NCCCCCCNC(=O)c3ccc(-c4c5nc(c(-c6c(F)cc(S(=O)(=O)[O-])cc6F)c6ccc([nH]6)c(-c6c(F)cc(S(=O)(=O)[O-])cc6F)c6nc(c(-c7c(F)cc(S(=O)(=O)[O-])cc7F)c7ccc4[nH]7)C=C6)C=C5)cc3)cc2F)c1
REMARK SMILES IDX 23 1 22 2 21 3 20 4 18 5 19 6 16 8 17 9 15 10 12 11 13 12
REMARK SMILES IDX 97 13 14 14 96 15 98 16 11 17 4 18 5 19 99 20 6 21 10 22
REMARK SMILES IDX 3 23 2 24 1 25 7 26 8 27 9 28 24 29 25 30 26 31 27 32 28 33
REMARK SMILES IDX 29 35 30 36 31 37 95 38 32 39 94 40 33 41 34 42 35 43 88 44
REMARK SMILES IDX 36 45 93 46 87 47 89 48 37 49 92 50 86 51 85 52 38 54 72 55
REMARK SMILES IDX 51 56 71 57 52 58 55 59 70 60 90 61 53 62 54 63 69 65 91 66
REMARK SMILES IDX 56 67 39 68 40 69 49 70 41 71 42 72 48 73 50 74 43 75 44 76
REMARK SMILES IDX 45 77 46 78 47 79 73 80 74 81 83 82 75 83 76 84 82 85 84 86
REMARK SMILES IDX 77 87 78 88 79 89 80 90 81 91 57 92 58 93 67 94 59 95 60 96
REMARK SMILES IDX 66 97 68 98 61 99 62 100 63 101 64 102 65 103
REMARK H PARENT 20 7 27 34 89 53 55 64
REMARK Flexibility Score: inf
ROOT
ATOM      1  C   UNL A   1      34.982  31.929  28.081  1.00  0.00     0.002 C 
ENDROOT
BRANCH   1   2
ATOM      2  C   UNL A   1      34.274  30.987  27.100  1.00  0.00     0.021 C 
BRANCH   2   3
ATOM      3  C   UNL A   1      34.389  29.507  27.470  1.00  0.00     0.116 C 
BRANCH   3   4
ATOM      4  N   UNL A   1      33.119  28.960  27.902  1.00  0.00    -0.356 N 
ATOM      5  C   UNL A   1      32.150  28.278  27.233  1.00  0.00     0.227 C 
ATOM      6  O   UNL A   1      31.125  28.009  27.873  1.00  0.00    -0.274 OA
ATOM      7  H   UNL A   1      32.920  29.110  28.854  1.00  0.00     0.163 HD
BRANCH   5   8
ATOM      8  C   UNL A   1      32.269  27.837  25.766  1.00  0.00     0.105 C 
ATOM      9  C   UNL A   1      31.059  28.189  24.900  1.00  0.00     0.023 C 
BRANCH   8  10
ATOM     10  C   UNL A   1      32.806  26.427  25.602  1.00  0.00    -0.033 A 
ATOM     11  C   UNL A   1      33.986  23.838  25.315  1.00  0.00     0.018 A 
ATOM     12  C   UNL A   1      33.141  24.154  26.393  1.00  0.00     0.012 A 
ATOM     13  C   UNL A   1      34.199  24.851  24.371  1.00  0.00     0.131 A 
ATOM     14  C   UNL A   1      32.533  25.404  26.511  1.00  0.00     0.005 A 
ATOM     15  C   UNL A   1      33.641  26.125  24.517  1.00  0.00     0.044 A 
ATOM     16  F   UNL A   1      34.954  24.628  23.284  1.00  0.00    -0.206 F 
BRANCH  11  17
ATOM     17  C   UNL A   1      34.620  22.505  25.238  1.00  0.00    -0.008 A 
ATOM     18  C   UNL A   1      34.528  20.126  24.732  1.00  0.00     0.123 A 
ATOM     19  C   UNL A   1      35.904  20.014  24.924  1.00  0.00     0.092 A 
ATOM     20  C   UNL A   1      33.893  21.356  24.904  1.00  0.00     0.055 A 
ATOM     21  C   UNL A   1      36.653  21.133  25.289  1.00  0.00     0.123 A 
ATOM     22  C   UNL A   1      36.003  22.357  25.456  1.00  0.00     0.055 A 
BRANCH  18  23
ATOM     23  O   UNL A   1      33.807  18.986  24.497  1.00  0.00    -0.494 OA
BRANCH  23  24
ATOM     24  C   UNL A   1      34.612  17.816  24.303  1.00  0.00     0.226 C 
ATOM     25  C   UNL A   1      34.057  16.903  23.218  1.00  0.00     0.049 C 
ENDBRANCH  23  24
ENDBRANCH  18  23
BRANCH  21  26
ATOM     26  O   UNL A   1      38.000  20.933  25.429  1.00  0.00    -0.494 OA
BRANCH  26  27
ATOM     27  C   UNL A   1      38.803  22.022  25.896  1.00  0.00     0.226 C 
ATOM     28  C   UNL A   1      40.051  21.539  26.620  1.00  0.00     0.049 C 
ENDBRANCH  26  27
ENDBRANCH  21  26
ENDBRANCH  11  17
ENDBRANCH   8  10
ENDBRANCH   5   8
ENDBRANCH   3   4
ENDBRANCH   2   3
ENDBRANCH   1   2
BRANCH   1  29
ATOM     29  C   UNL A   1      34.060  32.644  29.076  1.00  0.00     0.002 C 
BRANCH  29  30
ATOM     30  C   UNL A   1      33.252  33.814  28.505  1.00  0.00     0.021 C 
BRANCH  30  31
ATOM     31  C   UNL A   1      33.581  35.175  29.115  1.00  0.00     0.116 C 
BRANCH  31  32
ATOM     32  N   UNL A   1      32.783  35.439  30.302  1.00  0.00    -0.352 N 
ATOM     33  C   UNL A   1      32.961  35.008  31.593  1.00  0.00     0.251 C 
ATOM     34  H   UNL A   1      31.996  36.013  30.157  1.00  0.00     0.163 HD
ATOM     35  O   UNL A   1      32.048  35.129  32.404  1.00  0.00    -0.269 OA
BRANCH  33  36
ATOM     36  C   UNL A   1      34.244  34.400  32.007  1.00  0.00     0.039 A 
ATOM     37  C   UNL A   1      35.417  35.150  31.888  1.00  0.00     0.014 A 
ATOM     38  C   UNL A   1      34.300  33.081  32.468  1.00  0.00     0.014 A 
ATOM     39  C   UNL A   1      36.639  34.592  32.273  1.00  0.00     0.010 A 
ATOM     40  C   UNL A   1      35.508  32.550  32.914  1.00  0.00     0.010 A 
ATOM     41  C   UNL A   1      36.692  33.296  32.811  1.00  0.00    -0.014 A 
BRANCH  41  42
ATOM     42  C   UNL A   1      37.977  32.702  33.260  1.00  0.00     0.031 A 
ATOM     43  C   UNL A   1      38.499  32.979  34.643  1.00  0.00     0.074 A 
ATOM     44  C   UNL A   1      38.702  31.960  32.399  1.00  0.00     0.049 A 
ATOM     45  N   UNL A   1      39.622  32.597  35.195  1.00  0.00    -0.248 NA
ATOM     46  C   UNL A   1      37.662  33.822  35.513  1.00  0.00     0.031 C 
ATOM     47  C   UNL A   1      38.328  31.665  31.015  1.00  0.00     0.029 A 
ATOM     48  N   UNL A   1      39.910  31.328  32.557  1.00  0.00    -0.354 N 
ATOM     49  C   UNL A   1      39.634  33.162  36.465  1.00  0.00     0.074 A 
ATOM     50  C   UNL A   1      38.430  33.955  36.584  1.00  0.00     0.031 C 
ATOM     51  C   UNL A   1      39.276  30.896  30.456  1.00  0.00     0.029 A 
ATOM     52  C   UNL A   1      40.340  30.669  31.430  1.00  0.00     0.049 A 
ATOM     53  H   UNL A   1      40.421  31.345  33.398  1.00  0.00     0.167 HD
ATOM     54  C   UNL A   1      40.553  33.015  37.450  1.00  0.00     0.037 A 
ATOM     55  C   UNL A   1      41.467  29.966  31.202  1.00  0.00     0.037 A 
ATOM     56  C   UNL A   1      41.734  32.199  37.334  1.00  0.00     0.049 A 
ATOM     57  C   UNL A   1      42.463  29.800  32.318  1.00  0.00     0.074 A 
ATOM     58  C   UNL A   1      42.692  31.930  38.296  1.00  0.00     0.029 A 
ATOM     59  N   UNL A   1      42.119  31.522  36.186  1.00  0.00    -0.354 N 
ATOM     60  N   UNL A   1      42.425  30.286  33.536  1.00  0.00    -0.248 NA
ATOM     61  C   UNL A   1      43.651  28.984  32.032  1.00  0.00     0.031 C 
ATOM     62  C   UNL A   1      43.679  31.125  37.717  1.00  0.00     0.029 A 
ATOM     63  C   UNL A   1      43.311  30.850  36.409  1.00  0.00     0.049 A 
ATOM     64  H   UNL A   1      41.619  31.517  35.338  1.00  0.00     0.167 HD
ATOM     65  C   UNL A   1      43.569  29.813  34.169  1.00  0.00     0.074 A 
ATOM     66  C   UNL A   1      44.272  28.994  33.203  1.00  0.00     0.031 C 
ATOM     67  C   UNL A   1      43.998  30.037  35.437  1.00  0.00     0.037 A 
BRANCH  54  68
ATOM     68  C   UNL A   1      40.315  33.750  38.741  1.00  0.00     0.058 A 
ATOM     69  C   UNL A   1      41.006  34.933  39.055  1.00  0.00     0.135 A 
ATOM     70  C   UNL A   1      39.365  33.284  39.664  1.00  0.00     0.135 A 
ATOM     71  F   UNL A   1      41.935  35.416  38.215  1.00  0.00    -0.206 F 
ATOM     72  C   UNL A   1      40.787  35.608  40.251  1.00  0.00     0.059 A 
ATOM     73  C   UNL A   1      39.108  33.960  40.854  1.00  0.00     0.059 A 
ATOM     74  F   UNL A   1      38.675  32.161  39.416  1.00  0.00    -0.206 F 
ATOM     75  C   UNL A   1      39.837  35.113  41.146  1.00  0.00     0.060 A 
BRANCH  75  76
ATOM     76  S   UNL A   1      39.566  36.001  42.694  1.00  0.00     0.124 S 
ATOM     77  O   UNL A   1      40.693  35.538  43.496  1.00  0.00    -0.237 OA
ATOM     78  O   UNL A   1      39.621  37.396  42.268  1.00  0.00    -0.237 OA
ATOM     79  O   UNL A   1      38.253  35.533  43.129  1.00  0.00    -0.744 OA
ENDBRANCH  75  76
ENDBRANCH  54  68
BRANCH  55  80
ATOM     80  C   UNL A   1      41.695  29.346  29.871  1.00  0.00     0.058 A 
ATOM     81  C   UNL A   1      42.470  29.991  28.897  1.00  0.00     0.135 A 
ATOM     82  C   UNL A   1      41.164  28.085  29.555  1.00  0.00     0.135 A 
ATOM     83  F   UNL A   1      42.996  31.200  29.151  1.00  0.00    -0.206 F 
ATOM     84  C   UNL A   1      42.704  29.415  27.652  1.00  0.00     0.059 A 
ATOM     85  C   UNL A   1      41.403  27.479  28.326  1.00  0.00     0.059 A 
ATOM     86  F   UNL A   1      40.430  27.418  30.460  1.00  0.00    -0.206 F 
ATOM     87  C   UNL A   1      42.168  28.156  27.378  1.00  0.00     0.060 A 
BRANCH  87  88
ATOM     88  S   UNL A   1      42.526  27.390  25.781  1.00  0.00     0.124 S 
ATOM     89  O   UNL A   1      42.160  28.457  24.856  1.00  0.00    -0.237 OA
ATOM     90  O   UNL A   1      43.952  27.102  25.892  1.00  0.00    -0.237 OA
ATOM     91  O   UNL A   1      41.655  26.218  25.771  1.00  0.00    -0.744 OA
ENDBRANCH  87  88
ENDBRANCH  55  80
BRANCH  67  92
ATOM     92  C   UNL A   1      45.272  29.363  35.864  1.00  0.00     0.058 A 
ATOM     93  C   UNL A   1      46.519  29.989  35.725  1.00  0.00     0.135 A 
ATOM     94  C   UNL A   1      45.237  28.094  36.463  1.00  0.00     0.135 A 
ATOM     95  F   UNL A   1      46.609  31.200  35.152  1.00  0.00    -0.206 F 
ATOM     96  C   UNL A   1      47.694  29.370  36.143  1.00  0.00     0.059 A 
ATOM     97  C   UNL A   1      46.395  27.468  36.914  1.00  0.00     0.059 A 
ATOM     98  F   UNL A   1      44.068  27.456  36.630  1.00  0.00    -0.206 F 
ATOM     99  C   UNL A   1      47.620  28.109  36.738  1.00  0.00     0.060 A 
BRANCH  99 100
ATOM    100  S   UNL A   1      49.147  27.328  37.303  1.00  0.00     0.124 S 
ATOM    101  O   UNL A   1      49.399  26.369  36.233  1.00  0.00    -0.237 OA
ATOM    102  O   UNL A   1      50.069  28.458  37.373  1.00  0.00    -0.237 OA
ATOM    103  O   UNL A   1      48.776  26.750  38.591  1.00  0.00    -0.744 OA
ENDBRANCH  99 100
ENDBRANCH  67  92
ENDBRANCH  41  42
ENDBRANCH  33  36
ENDBRANCH  31  32
ENDBRANCH  30  31
ENDBRANCH  29  30
ENDBRANCH   1  29
TORSDOF 22
ENDMDL
MODEL 2
REMARK VINA RESULT:     -10.0      0.742      7.982
REMARK SMILES CCOc1cc(OCC)cc(-c2ccc([C@@H](C)C(=O)NCCCCCCNC(=O)c3ccc(-c4c5nc(c(-c6c(F)cc(S(=O)(=O)[O-])cc6F)c6ccc([nH]6)c(-c6c(F)cc(S(=O)(=O)[O-])cc6F)c6nc(c(-c7c(F)cc(S(=O)(=O)[O-])cc7F)c7ccc4[nH]7)C=C6)C=C5)cc3)cc2F)c1
REMARK SMILES IDX 23 1 22 2 21 3 20 4 18 5 19 6 16 8 17 9 15 10 12 11 13 12
REMARK SMILES IDX 97 13 14 14 96 15 98 16 11 17 4 18 5 19 99 20 6 21 10 22
REMARK SMILES IDX 3 23 2 24 1 25 7 26 8 27 9 28 24 29 25 30 26 31 27 32 28 33
REMARK SMILES IDX 29 35 30 36 31 37 95 38 32 39 94 40 33 41 34 42 35 43 88 44
REMARK SMILES IDX 36 45 93 46 87 47 89 48 37 49 92 50 86 51 85 52 38 54 72 55
REMARK SMILES IDX 51 56 71 57 52 58 55 59 70 60 90 61 53 62 54 63 69 65 91 66
REMARK SMILES IDX 56 67 39 68 40 69 49 70 41 71 42 72 48 73 50 74 43 75 44 76
REMARK SMILES IDX 45 77 46 78 47 79 73 80 74 81 83 82 75 83 76 84 82 85 84 86
REMARK SMILES IDX 77 87 78 88 79 89 80 90 81 91 57 92 58 93 67 94 59 95 60 96
REMARK SMILES IDX 66 97 68 98 61 99 62 100 63 101 64 102 65 103
REMARK H PARENT 20 7 27 34 89 53 55 64
REMARK Flexibility Score: inf
ROOT
ATOM      1  C   UNL A   1      35.423  31.774  28.522  1.00  0.00     0.002 C 
ENDROOT
BRANCH   1   2
ATOM      2  C   UNL A   1      35.598  30.817  27.338  1.00  0.00     0.021 C 
BRANCH   2   3
ATOM      3  C   UNL A   1      35.107  29.394  27.615  1.00  0.00     0.116 C 
BRANCH   3   4
ATOM      4  N   UNL A   1      33.682  29.357  27.870  1.00  0.00    -0.356 N 
ATOM      5  C   UNL A   1      32.622  29.077  27.063  1.00  0.00     0.227 C 
ATOM      6  O   UNL A   1      31.499  29.209  27.565  1.00  0.00    -0.274 OA
ATOM      7  H   UNL A   1      33.433  29.574  28.796  1.00  0.00     0.163 HD
BRANCH   5   8
ATOM      8  C   UNL A   1      32.754  28.616  25.603  1.00  0.00     0.105 C 
ATOM      9  C   UNL A   1      31.761  29.269  24.642  1.00  0.00     0.023 C 
BRANCH   8  10
ATOM     10  C   UNL A   1      32.917  27.114  25.458  1.00  0.00    -0.033 A 
ATOM     11  C   UNL A   1      33.406  24.308  25.205  1.00  0.00     0.018 A 
ATOM     12  C   UNL A   1      32.679  24.840  26.283  1.00  0.00     0.012 A 
ATOM     13  C   UNL A   1      33.857  25.221  24.243  1.00  0.00     0.131 A 
ATOM     14  C   UNL A   1      32.406  26.205  26.385  1.00  0.00     0.005 A 
ATOM     15  C   UNL A   1      33.639  26.597  24.372  1.00  0.00     0.044 A 
ATOM     16  F   UNL A   1      34.519  24.801  23.155  1.00  0.00    -0.206 F 
BRANCH  11  17
ATOM     17  C   UNL A   1      33.683  22.857  25.145  1.00  0.00    -0.008 A 
ATOM     18  C   UNL A   1      32.969  20.564  24.751  1.00  0.00     0.123 A 
ATOM     19  C   UNL A   1      34.286  20.117  24.856  1.00  0.00     0.092 A 
ATOM     20  C   UNL A   1      32.672  21.917  24.910  1.00  0.00     0.055 A 
ATOM     21  C   UNL A   1      35.313  21.024  25.120  1.00  0.00     0.123 A 
ATOM     22  C   UNL A   1      35.000  22.375  25.276  1.00  0.00     0.055 A 
BRANCH  18  23
ATOM     23  O   UNL A   1      31.974  19.634  24.614  1.00  0.00    -0.494 OA
BRANCH  23  24
ATOM     24  C   UNL A   1      32.447  18.306  24.356  1.00  0.00     0.226 C 
ATOM     25  C   UNL A   1      32.530  17.999  22.868  1.00  0.00     0.049 C 
ENDBRANCH  23  24
ENDBRANCH  18  23
BRANCH  21  26
ATOM     26  O   UNL A   1      36.575  20.497  25.181  1.00  0.00    -0.494 OA
BRANCH  26  27
ATOM     27  C   UNL A   1      37.673  21.318  24.768  1.00  0.00     0.226 C 
ATOM     28  C   UNL A   1      38.807  21.304  25.783  1.00  0.00     0.049 C 
ENDBRANCH  26  27
ENDBRANCH  21  26
ENDBRANCH  11  17
ENDBRANCH   8  10
ENDBRANCH   5   8
ENDBRANCH   3   4
ENDBRANCH   2   3
ENDBRANCH   1   2
BRANCH   1  29
ATOM     29  C   UNL A   1      33.979  32.217  28.792  1.00  0.00     0.002 C 
BRANCH  29  30
ATOM     30  C   UNL A   1      33.478  33.389  27.941  1.00  0.00     0.021 C 
BRANCH  30  31
ATOM     31  C   UNL A   1      33.887  34.769  28.451  1.00  0.00     0.116 C 
BRANCH  31  32
ATOM     32  N   UNL A   1      33.026  35.219  29.533  1.00  0.00    -0.352 N 
ATOM     33  C   UNL A   1      33.131  35.008  30.885  1.00  0.00     0.251 C 
ATOM     34  H   UNL A   1      32.250  35.758  29.253  1.00  0.00     0.163 HD
ATOM     35  O   UNL A   1      32.176  35.255  31.614  1.00  0.00    -0.269 OA
BRANCH  33  36
ATOM     36  C   UNL A   1      34.388  34.483  31.462  1.00  0.00     0.039 A 
ATOM     37  C   UNL A   1      34.409  33.178  31.963  1.00  0.00     0.014 A 
ATOM     38  C   UNL A   1      35.529  35.286  31.553  1.00  0.00     0.014 A 
ATOM     39  C   UNL A   1      35.586  32.665  32.514  1.00  0.00     0.010 A 
ATOM     40  C   UNL A   1      36.720  34.751  32.039  1.00  0.00     0.010 A 
ATOM     41  C   UNL A   1      36.758  33.438  32.534  1.00  0.00    -0.014 A 
BRANCH  41  42
ATOM     42  C   UNL A   1      38.028  32.895  33.082  1.00  0.00     0.031 A 
ATOM     43  C   UNL A   1      38.916  32.035  32.224  1.00  0.00     0.074 A 
ATOM     44  C   UNL A   1      38.351  33.130  34.369  1.00  0.00     0.049 A 
ATOM     45  N   UNL A   1      40.031  31.428  32.540  1.00  0.00    -0.248 NA
ATOM     46  C   UNL A   1      38.480  31.802  30.838  1.00  0.00     0.031 C 
ATOM     47  C   UNL A   1      37.544  33.904  35.315  1.00  0.00     0.029 A 
ATOM     48  N   UNL A   1      39.436  32.731  35.108  1.00  0.00    -0.354 N 
ATOM     49  C   UNL A   1      40.420  30.731  31.401  1.00  0.00     0.074 A 
ATOM     50  C   UNL A   1      39.396  30.950  30.404  1.00  0.00     0.031 C 
ATOM     51  C   UNL A   1      38.170  33.938  36.502  1.00  0.00     0.029 A 
ATOM     52  C   UNL A   1      39.405  33.165  36.412  1.00  0.00     0.049 A 
ATOM     53  H   UNL A   1      40.167  32.186  34.740  1.00  0.00     0.167 HD
ATOM     54  C   UNL A   1      41.540  29.995  31.198  1.00  0.00     0.037 A 
ATOM     55  C   UNL A   1      40.270  32.958  37.425  1.00  0.00     0.037 A 
ATOM     56  C   UNL A   1      42.570  29.807  32.187  1.00  0.00     0.049 A 
ATOM     57  C   UNL A   1      41.516  32.154  37.170  1.00  0.00     0.074 A 
ATOM     58  C   UNL A   1      43.774  29.136  32.059  1.00  0.00     0.029 A 
ATOM     59  N   UNL A   1      42.517  30.289  33.487  1.00  0.00    -0.354 N 
ATOM     60  N   UNL A   1      41.902  31.560  36.066  1.00  0.00    -0.248 NA
ATOM     61  C   UNL A   1      42.449  32.000  38.294  1.00  0.00     0.031 C 
ATOM     62  C   UNL A   1      44.430  29.176  33.294  1.00  0.00     0.029 A 
ATOM     63  C   UNL A   1      43.658  29.914  34.178  1.00  0.00     0.049 A 
ATOM     64  H   UNL A   1      41.779  30.819  33.863  1.00  0.00     0.167 HD
ATOM     65  C   UNL A   1      43.133  30.984  36.355  1.00  0.00     0.074 A 
ATOM     66  C   UNL A   1      43.433  31.311  37.734  1.00  0.00     0.031 C 
ATOM     67  C   UNL A   1      43.943  30.250  35.551  1.00  0.00     0.037 A 
BRANCH  54  68
ATOM     68  C   UNL A   1      41.711  29.341  29.854  1.00  0.00     0.058 A 
ATOM     69  C   UNL A   1      42.480  29.932  28.837  1.00  0.00     0.135 A 
ATOM     70  C   UNL A   1      41.122  28.094  29.587  1.00  0.00     0.135 A 
ATOM     71  F   UNL A   1      43.053  31.129  29.034  1.00  0.00    -0.206 F 
ATOM     72  C   UNL A   1      42.632  29.326  27.595  1.00  0.00     0.059 A 
ATOM     73  C   UNL A   1      41.285  27.456  28.360  1.00  0.00     0.059 A 
ATOM     74  F   UNL A   1      40.378  27.483  30.521  1.00  0.00    -0.206 F 
ATOM     75  C   UNL A   1      42.029  28.089  27.364  1.00  0.00     0.060 A 
BRANCH  75  76
ATOM     76  S   UNL A   1      42.236  27.317  25.745  1.00  0.00     0.124 S 
ATOM     77  O   UNL A   1      43.531  26.663  25.898  1.00  0.00    -0.237 OA
ATOM     78  O   UNL A   1      41.081  26.428  25.672  1.00  0.00    -0.237 OA
ATOM     79  O   UNL A   1      42.210  28.450  24.824  1.00  0.00    -0.744 OA
ENDBRANCH  75  76
ENDBRANCH  54  68
BRANCH  55  80
ATOM     80  C   UNL A   1      39.996  33.547  38.762  1.00  0.00     0.058 A 
ATOM     81  C   UNL A   1      40.672  34.696  39.197  1.00  0.00     0.135 A 
ATOM     82  C   UNL A   1      39.037  32.988  39.620  1.00  0.00     0.135 A 
ATOM     83  F   UNL A   1      41.602  35.264  38.413  1.00  0.00    -0.206 F 
ATOM     84  C   UNL A   1      40.416  35.266  40.441  1.00  0.00     0.059 A 
ATOM     85  C   UNL A   1      38.746  33.553  40.858  1.00  0.00     0.059 A 
ATOM     86  F   UNL A   1      38.350  31.899  39.243  1.00  0.00    -0.206 F 
ATOM     87  C   UNL A   1      39.447  34.688  41.263  1.00  0.00     0.060 A 
BRANCH  87  88
ATOM     88  S   UNL A   1      39.079  35.469  42.849  1.00  0.00     0.124 S 
ATOM     89  O   UNL A   1      37.632  35.297  42.931  1.00  0.00    -0.237 OA
ATOM     90  O   UNL A   1      39.871  34.666  43.777  1.00  0.00    -0.237 OA
ATOM     91  O   UNL A   1      39.544  36.840  42.663  1.00  0.00    -0.744 OA
ENDBRANCH  87  88
ENDBRANCH  55  80
BRANCH  67  92
ATOM     92  C   UNL A   1      45.246  29.776  36.131  1.00  0.00     0.058 A 
ATOM     93  C   UNL A   1      45.355  28.541  36.789  1.00  0.00     0.135 A 
ATOM     94  C   UNL A   1      46.411  30.546  35.984  1.00  0.00     0.135 A 
ATOM     95  F   UNL A   1      44.270  27.769  36.962  1.00  0.00    -0.206 F 
ATOM     96  C   UNL A   1      46.568  28.096  37.304  1.00  0.00     0.059 A 
ATOM     97  C   UNL A   1      47.641  30.108  36.466  1.00  0.00     0.059 A 
ATOM     98  F   UNL A   1      46.365  31.729  35.353  1.00  0.00    -0.206 F 
ATOM     99  C   UNL A   1      47.707  28.888  37.137  1.00  0.00     0.060 A 
BRANCH  99 100
ATOM    100  S   UNL A   1      49.281  28.287  37.783  1.00  0.00     0.124 S 
ATOM    101  O   UNL A   1      49.856  29.508  38.337  1.00  0.00    -0.237 OA
ATOM    102  O   UNL A   1      48.859  27.285  38.757  1.00  0.00    -0.237 OA
ATOM    103  O   UNL A   1      49.954  27.757  36.601  1.00  0.00    -0.744 OA
ENDBRANCH  99 100
ENDBRANCH  67  92
ENDBRANCH  41  42
ENDBRANCH  33  36
ENDBRANCH  31  32
ENDBRANCH  30  31
ENDBRANCH  29  30
ENDBRANCH   1  29
TORSDOF 22
ENDMDL
MODEL 3
REMARK VINA RESULT:      -9.5      6.224     13.865
REMARK SMILES CCOc1cc(OCC)cc(-c2ccc([C@@H](C)C(=O)NCCCCCCNC(=O)c3ccc(-c4c5nc(c(-c6c(F)cc(S(=O)(=O)[O-])cc6F)c6ccc([nH]6)c(-c6c(F)cc(S(=O)(=O)[O-])cc6F)c6nc(c(-c7c(F)cc(S(=O)(=O)[O-])cc7F)c7ccc4[nH]7)C=C6)C=C5)cc3)cc2F)c1
REMARK SMILES IDX 23 1 22 2 21 3 20 4 18 5 19 6 16 8 17 9 15 10 12 11 13 12
REMARK SMILES IDX 97 13 14 14 96 15 98 16 11 17 4 18 5 19 99 20 6 21 10 22
REMARK SMILES IDX 3 23 2 24 1 25 7 26 8 27 9 28 24 29 25 30 26 31 27 32 28 33
REMARK SMILES IDX 29 35 30 36 31 37 95 38 32 39 94 40 33 41 34 42 35 43 88 44
REMARK SMILES IDX 36 45 93 46 87 47 89 48 37 49 92 50 86 51 85 52 38 54 72 55
REMARK SMILES IDX 51 56 71 57 52 58 55 59 70 60 90 61 53 62 54 63 69 65 91 66
REMARK SMILES IDX 56 67 39 68 40 69 49 70 41 71 42 72 48 73 50 74 43 75 44 76
REMARK SMILES IDX 45 77 46 78 47 79 73 80 74 81 83 82 75 83 76 84 82 85 84 86
REMARK SMILES IDX 77 87 78 88 79 89 80 90 81 91 57 92 58 93 67 94 59 95 60 96
REMARK SMILES IDX 66 97 68 98 61 99 62 100 63 101 64 102 65 103
REMARK H PARENT 20 7 27 34 89 53 55 64
REMARK Flexibility Score: inf
ROOT
ATOM      1  C   UNL A   1      44.010  39.115  29.270  1.00  0.00     0.002 C 
ENDROOT
BRANCH   1   2
ATOM      2  C   UNL A   1      42.792  39.325  28.364  1.00  0.00     0.021 C 
BRANCH   2   3
ATOM      3  C   UNL A   1      43.051  39.000  26.892  1.00  0.00     0.116 C 
BRANCH   3   4
ATOM      4  N   UNL A   1      42.401  37.769  26.490  1.00  0.00    -0.356 N 
ATOM      5  C   UNL A   1      42.626  36.471  26.830  1.00  0.00     0.227 C 
ATOM      6  O   UNL A   1      41.941  35.623  26.246  1.00  0.00    -0.274 OA
ATOM      7  H   UNL A   1      41.662  37.895  25.854  1.00  0.00     0.163 HD
BRANCH   5   8
ATOM      8  C   UNL A   1      43.660  36.025  27.876  1.00  0.00     0.105 C 
ATOM      9  C   UNL A   1      44.765  35.122  27.329  1.00  0.00     0.023 C 
BRANCH   8  10
ATOM     10  C   UNL A   1      43.037  35.580  29.187  1.00  0.00    -0.033 A 
ATOM     11  C   UNL A   1      41.877  34.567  31.596  1.00  0.00     0.018 A 
ATOM     12  C   UNL A   1      43.113  35.237  31.592  1.00  0.00     0.012 A 
ATOM     13  C   UNL A   1      41.227  34.445  30.361  1.00  0.00     0.131 A 
ATOM     14  C   UNL A   1      43.659  35.767  30.421  1.00  0.00     0.005 A 
ATOM     15  C   UNL A   1      41.799  34.920  29.177  1.00  0.00     0.044 A 
ATOM     16  F   UNL A   1      40.022  33.862  30.275  1.00  0.00    -0.206 F 
BRANCH  11  17
ATOM     17  C   UNL A   1      41.343  34.011  32.857  1.00  0.00    -0.008 A 
ATOM     18  C   UNL A   1      39.676  33.961  34.630  1.00  0.00     0.123 A 
ATOM     19  C   UNL A   1      40.249  32.806  35.161  1.00  0.00     0.092 A 
ATOM     20  C   UNL A   1      40.229  34.564  33.500  1.00  0.00     0.055 A 
ATOM     21  C   UNL A   1      41.379  32.247  34.563  1.00  0.00     0.123 A 
ATOM     22  C   UNL A   1      41.920  32.861  33.432  1.00  0.00     0.055 A 
BRANCH  18  23
ATOM     23  O   UNL A   1      38.646  34.551  35.312  1.00  0.00    -0.494 OA
BRANCH  23  24
ATOM     24  C   UNL A   1      37.651  33.631  35.777  1.00  0.00     0.226 C 
ATOM     25  C   UNL A   1      36.339  33.762  35.017  1.00  0.00     0.049 C 
ENDBRANCH  23  24
ENDBRANCH  18  23
BRANCH  21  26
ATOM     26  O   UNL A   1      41.855  31.100  35.138  1.00  0.00    -0.494 OA
BRANCH  26  27
ATOM     27  C   UNL A   1      40.913  30.101  35.541  1.00  0.00     0.226 C 
ATOM     28  C   UNL A   1      41.530  28.710  35.556  1.00  0.00     0.049 C 
ENDBRANCH  26  27
ENDBRANCH  21  26
ENDBRANCH  11  17
ENDBRANCH   8  10
ENDBRANCH   5   8
ENDBRANCH   3   4
ENDBRANCH   2   3
ENDBRANCH   1   2
BRANCH   1  29
ATOM     29  C   UNL A   1      45.358  39.499  28.647  1.00  0.00     0.002 C 
BRANCH  29  30
ATOM     30  C   UNL A   1      46.419  38.393  28.637  1.00  0.00     0.021 C 
BRANCH  30  31
ATOM     31  C   UNL A   1      46.767  37.829  30.013  1.00  0.00     0.116 C 
BRANCH  31  32
ATOM     32  N   UNL A   1      48.204  37.701  30.193  1.00  0.00    -0.352 N 
ATOM     33  C   UNL A   1      48.976  36.573  30.322  1.00  0.00     0.251 C 
ATOM     34  H   UNL A   1      48.699  38.552  30.227  1.00  0.00     0.163 HD
ATOM     35  O   UNL A   1      50.134  36.672  30.715  1.00  0.00    -0.269 OA
BRANCH  33  36
ATOM     36  C   UNL A   1      48.417  35.245  29.992  1.00  0.00     0.039 A 
ATOM     37  C   UNL A   1      48.265  34.302  31.012  1.00  0.00     0.014 A 
ATOM     38  C   UNL A   1      48.084  34.910  28.675  1.00  0.00     0.014 A 
ATOM     39  C   UNL A   1      47.739  33.041  30.720  1.00  0.00     0.010 A 
ATOM     40  C   UNL A   1      47.497  33.678  28.396  1.00  0.00     0.010 A 
ATOM     41  C   UNL A   1      47.329  32.726  29.414  1.00  0.00    -0.014 A 
BRANCH  41  42
ATOM     42  C   UNL A   1      46.733  31.404  29.093  1.00  0.00     0.031 A 
ATOM     43  C   UNL A   1      47.548  30.357  28.384  1.00  0.00     0.074 A 
ATOM     44  C   UNL A   1      45.439  31.168  29.391  1.00  0.00     0.049 A 
ATOM     45  N   UNL A   1      47.188  29.168  27.973  1.00  0.00    -0.248 NA
ATOM     46  C   UNL A   1      48.944  30.701  28.069  1.00  0.00     0.031 C 
ATOM     47  C   UNL A   1      44.532  32.123  30.029  1.00  0.00     0.029 A 
ATOM     48  N   UNL A   1      44.660  30.058  29.184  1.00  0.00    -0.354 N 
ATOM     49  C   UNL A   1      48.303  28.631  27.340  1.00  0.00     0.074 A 
ATOM     50  C   UNL A   1      49.336  29.643  27.376  1.00  0.00     0.031 C 
ATOM     51  C   UNL A   1      43.326  31.552  30.179  1.00  0.00     0.029 A 
ATOM     52  C   UNL A   1      43.364  30.204  29.620  1.00  0.00     0.049 A 
ATOM     53  H   UNL A   1      44.996  29.234  28.764  1.00  0.00     0.167 HD
ATOM     54  C   UNL A   1      48.459  27.399  26.797  1.00  0.00     0.037 A 
ATOM     55  C   UNL A   1      42.322  29.352  29.569  1.00  0.00     0.037 A 
ATOM     56  C   UNL A   1      47.435  26.386  26.792  1.00  0.00     0.049 A 
ATOM     57  C   UNL A   1      42.524  27.983  28.980  1.00  0.00     0.074 A 
ATOM     58  C   UNL A   1      47.514  25.085  26.328  1.00  0.00     0.029 A 
ATOM     59  N   UNL A   1      46.144  26.562  27.271  1.00  0.00    -0.354 N 
ATOM     60  N   UNL A   1      43.606  27.467  28.447  1.00  0.00    -0.248 NA
ATOM     61  C   UNL A   1      41.369  27.075  28.993  1.00  0.00     0.031 C 
ATOM     62  C   UNL A   1      46.259  24.487  26.488  1.00  0.00     0.029 A 
ATOM     63  C   UNL A   1      45.412  25.399  27.096  1.00  0.00     0.049 A 
ATOM     64  H   UNL A   1      45.800  27.390  27.675  1.00  0.00     0.167 HD
ATOM     65  C   UNL A   1      43.269  26.167  28.085  1.00  0.00     0.074 A 
ATOM     66  C   UNL A   1      41.887  25.973  28.471  1.00  0.00     0.031 C 
ATOM     67  C   UNL A   1      44.036  25.221  27.488  1.00  0.00     0.037 A 
BRANCH  54  68
ATOM     68  C   UNL A   1      49.787  27.077  26.167  1.00  0.00     0.058 A 
ATOM     69  C   UNL A   1      50.860  26.575  26.923  1.00  0.00     0.135 A 
ATOM     70  C   UNL A   1      49.982  27.244  24.786  1.00  0.00     0.135 A 
ATOM     71  F   UNL A   1      50.734  26.408  28.248  1.00  0.00    -0.206 F 
ATOM     72  C   UNL A   1      52.088  26.283  26.338  1.00  0.00     0.059 A 
ATOM     73  C   UNL A   1      51.193  26.930  24.175  1.00  0.00     0.059 A 
ATOM     74  F   UNL A   1      48.992  27.719  24.016  1.00  0.00    -0.206 F 
ATOM     75  C   UNL A   1      52.246  26.466  24.963  1.00  0.00     0.060 A 
BRANCH  75  76
ATOM     76  S   UNL A   1      53.846  26.082  24.221  1.00  0.00     0.124 S 
ATOM     77  O   UNL A   1      54.109  24.755  24.768  1.00  0.00    -0.237 OA
ATOM     78  O   UNL A   1      53.549  26.131  22.793  1.00  0.00    -0.237 OA
ATOM     79  O   UNL A   1      54.713  27.147  24.715  1.00  0.00    -0.744 OA
ENDBRANCH  75  76
ENDBRANCH  54  68
BRANCH  55  80
ATOM     80  C   UNL A   1      41.003  29.764  30.117  1.00  0.00     0.058 A 
ATOM     81  C   UNL A   1      40.783  29.825  31.500  1.00  0.00     0.135 A 
ATOM     82  C   UNL A   1      39.946  30.131  29.270  1.00  0.00     0.135 A 
ATOM     83  F   UNL A   1      41.762  29.480  32.351  1.00  0.00    -0.206 F 
ATOM     84  C   UNL A   1      39.558  30.222  32.028  1.00  0.00     0.059 A 
ATOM     85  C   UNL A   1      38.719  30.554  29.773  1.00  0.00     0.059 A 
ATOM     86  F   UNL A   1      40.111  30.107  27.938  1.00  0.00    -0.206 F 
ATOM     87  C   UNL A   1      38.533  30.589  31.154  1.00  0.00     0.060 A 
BRANCH  87  88
ATOM     88  S   UNL A   1      36.966  31.161  31.847  1.00  0.00     0.124 S 
ATOM     89  O   UNL A   1      37.051  32.599  31.617  1.00  0.00    -0.237 OA
ATOM     90  O   UNL A   1      35.990  30.441  31.034  1.00  0.00    -0.237 OA
ATOM     91  O   UNL A   1      37.043  30.737  33.242  1.00  0.00    -0.744 OA
ENDBRANCH  87  88
ENDBRANCH  55  80
BRANCH  67  92
ATOM     92  C   UNL A   1      43.407  23.877  27.242  1.00  0.00     0.058 A 
ATOM     93  C   UNL A   1      42.907  23.517  25.981  1.00  0.00     0.135 A 
ATOM     94  C   UNL A   1      43.349  22.922  28.268  1.00  0.00     0.135 A 
ATOM     95  F   UNL A   1      42.933  24.397  24.967  1.00  0.00    -0.206 F 
ATOM     96  C   UNL A   1      42.347  22.264  25.752  1.00  0.00     0.059 A 
ATOM     97  C   UNL A   1      42.819  21.653  28.055  1.00  0.00     0.059 A 
ATOM     98  F   UNL A   1      43.823  23.211  29.490  1.00  0.00    -0.206 F 
ATOM     99  C   UNL A   1      42.308  21.338  26.797  1.00  0.00     0.060 A 
BRANCH  99 100
ATOM    100  S   UNL A   1      41.606  19.705  26.480  1.00  0.00     0.124 S 
ATOM    101  O   UNL A   1      40.179  20.005  26.428  1.00  0.00    -0.237 OA
ATOM    102  O   UNL A   1      42.225  19.339  25.210  1.00  0.00    -0.237 OA
ATOM    103  O   UNL A   1      42.042  18.920  27.631  1.00  0.00    -0.744 OA
ENDBRANCH  99 100
ENDBRANCH  67  92
ENDBRANCH  41  42
ENDBRANCH  33  36
ENDBRANCH  31  32
ENDBRANCH  30  31
ENDBRANCH  29  30
ENDBRANCH   1  29
TORSDOF 22
ENDMDL
