MODEL 1
REMARK VINA RESULT:     -11.7      0.000      0.000
REMARK SMILES CCn1ccc(NC(=O)[C@H]2[C@@H](C(=O)NCCCCCCNC(=O)c3ccc(-c4c5nc(c(-c6c(F)cc(S(=O)(=O)[O-])cc6F)c6ccc([nH]6)c(-c6c(F)cc(S(=O)(=O)[O-])cc6F)c6nc(c(-c7c(F)cc(S(=O)(=O)[O-])cc7F)c7ccc4[nH]7)C=C6)C=C5)cc3)[C@H]3C=C[C@@H]2C3)n1
REMARK SMILES IDX 17 1 16 2 15 3 14 4 12 5 13 6 11 8 10 9 93 10 90 11 92 12
REMARK SMILES IDX 94 13 91 14 8 15 7 16 9 18 6 19 3 20 4 21 95 22 5 23 2 24
REMARK SMILES IDX 1 25 18 26 19 27 20 28 21 29 22 30 23 32 24 33 25 34 89 35
REMARK SMILES IDX 26 36 88 37 27 38 28 39 29 40 82 41 30 42 87 43 81 44 83 45
REMARK SMILES IDX 31 46 86 47 80 48 79 49 32 51 66 52 45 53 65 54 46 55 49 56
REMARK SMILES IDX 64 57 84 58 47 59 48 60 63 62 85 63 50 64 33 65 34 66 43 67
REMARK SMILES IDX 35 68 36 69 42 70 44 71 37 72 38 73 39 74 40 75 41 76 67 77
REMARK SMILES IDX 68 78 77 79 69 80 70 81 76 82 78 83 71 84 72 85 73 86 74 87
REMARK SMILES IDX 75 88 51 89 52 90 61 91 53 92 54 93 60 94 62 95 55 96 56 97
REMARK SMILES IDX 57 98 58 99 59 100
REMARK H PARENT 14 7 7 17 21 31 83 50 49 61
REMARK Flexibility Score: inf
ROOT
ATOM      1  C   UNL A   1      38.971  22.097  26.103  1.00  0.00     0.002 C 
ENDROOT
BRANCH   1   2
ATOM      2  C   UNL A   1      38.552  23.542  26.393  1.00  0.00     0.021 C 
BRANCH   2   3
ATOM      3  C   UNL A   1      37.091  23.872  26.088  1.00  0.00     0.116 C 
BRANCH   3   4
ATOM      4  N   UNL A   1      36.224  22.718  26.235  1.00  0.00    -0.356 N 
ATOM      5  C   UNL A   1      35.170  22.297  25.474  1.00  0.00     0.224 C 
ATOM      6  O   UNL A   1      34.709  21.178  25.700  1.00  0.00    -0.275 OA
ATOM      7  H   UNL A   1      36.429  22.143  27.009  1.00  0.00     0.163 HD
BRANCH   5   8
ATOM      8  C   UNL A   1      34.727  23.147  24.297  1.00  0.00     0.098 C 
ATOM      9  C   UNL A   1      33.788  24.372  24.543  1.00  0.00     0.099 C 
ATOM     10  C   UNL A   1      32.630  24.131  23.540  1.00  0.00     0.025 C 
ATOM     11  C   UNL A   1      33.978  22.383  23.171  1.00  0.00     0.025 C 
ATOM     12  C   UNL A   1      31.865  22.884  23.918  1.00  0.00    -0.027 C 
ATOM     13  C   UNL A   1      33.412  23.558  22.354  1.00  0.00     0.017 C 
ATOM     14  C   UNL A   1      32.673  21.839  23.695  1.00  0.00    -0.027 C 
BRANCH   9  15
ATOM     15  C   UNL A   1      33.270  24.656  25.942  1.00  0.00     0.230 C 
ATOM     16  N   UNL A   1      32.854  25.914  26.270  1.00  0.00    -0.309 N 
ATOM     17  H   UNL A   1      32.571  26.008  27.208  1.00  0.00     0.171 HD
ATOM     18  O   UNL A   1      33.257  23.786  26.817  1.00  0.00    -0.274 OA
BRANCH  16  19
ATOM     19  C   UNL A   1      32.756  27.075  25.542  1.00  0.00     0.154 A 
ATOM     20  N   UNL A   1      31.745  28.605  24.462  1.00  0.00    -0.271 N 
ATOM     21  C   UNL A   1      33.047  29.002  24.482  1.00  0.00     0.111 A 
ATOM     22  N   UNL A   1      31.543  27.453  25.135  1.00  0.00    -0.155 NA
ATOM     23  C   UNL A   1      33.735  27.999  25.119  1.00  0.00     0.068 A 
BRANCH  20  24
ATOM     24  C   UNL A   1      30.614  29.259  23.825  1.00  0.00     0.141 C 
ATOM     25  C   UNL A   1      30.408  28.918  22.355  1.00  0.00     0.029 C 
ENDBRANCH  20  24
ENDBRANCH  16  19
ENDBRANCH   9  15
ENDBRANCH   5   8
ENDBRANCH   3   4
ENDBRANCH   2   3
ENDBRANCH   1   2
BRANCH   1  26
ATOM     26  C   UNL A   1      40.173  21.571  26.896  1.00  0.00     0.002 C 
BRANCH  26  27
ATOM     27  C   UNL A   1      40.723  20.203  26.475  1.00  0.00     0.021 C 
BRANCH  27  28
ATOM     28  C   UNL A   1      42.080  19.869  27.072  1.00  0.00     0.116 C 
BRANCH  28  29
ATOM     29  N   UNL A   1      43.104  19.600  26.064  1.00  0.00    -0.352 N 
ATOM     30  C   UNL A   1      43.771  20.517  25.264  1.00  0.00     0.251 C 
ATOM     31  H   UNL A   1      43.351  18.655  25.938  1.00  0.00     0.163 HD
ATOM     32  O   UNL A   1      44.348  20.169  24.251  1.00  0.00    -0.269 OA
BRANCH  30  33
ATOM     33  C   UNL A   1      43.747  21.934  25.680  1.00  0.00     0.039 A 
ATOM     34  C   UNL A   1      42.898  22.864  25.077  1.00  0.00     0.014 A 
ATOM     35  C   UNL A   1      44.547  22.294  26.756  1.00  0.00     0.014 A 
ATOM     36  C   UNL A   1      42.802  24.143  25.630  1.00  0.00     0.010 A 
ATOM     37  C   UNL A   1      44.304  23.476  27.407  1.00  0.00     0.010 A 
ATOM     38  C   UNL A   1      43.496  24.440  26.813  1.00  0.00    -0.014 A 
BRANCH  38  39
ATOM     39  C   UNL A   1      43.359  25.741  27.470  1.00  0.00     0.031 A 
ATOM     40  C   UNL A   1      44.381  26.775  27.125  1.00  0.00     0.074 A 
ATOM     41  C   UNL A   1      42.258  26.076  28.179  1.00  0.00     0.049 A 
ATOM     42  N   UNL A   1      45.228  27.355  27.912  1.00  0.00    -0.248 NA
ATOM     43  C   UNL A   1      44.535  27.157  25.712  1.00  0.00     0.031 C 
ATOM     44  C   UNL A   1      41.015  25.313  28.375  1.00  0.00     0.029 A 
ATOM     45  N   UNL A   1      41.972  27.256  28.790  1.00  0.00    -0.354 N 
ATOM     46  C   UNL A   1      45.898  28.306  27.143  1.00  0.00     0.074 A 
ATOM     47  C   UNL A   1      45.529  28.047  25.775  1.00  0.00     0.031 C 
ATOM     48  C   UNL A   1      40.038  26.136  28.808  1.00  0.00     0.029 A 
ATOM     49  C   UNL A   1      40.635  27.419  29.123  1.00  0.00     0.049 A 
ATOM     50  H   UNL A   1      42.655  27.938  28.980  1.00  0.00     0.167 HD
ATOM     51  C   UNL A   1      46.565  29.355  27.706  1.00  0.00     0.037 A 
ATOM     52  C   UNL A   1      40.042  28.537  29.603  1.00  0.00     0.037 A 
ATOM     53  C   UNL A   1      46.779  29.150  29.115  1.00  0.00     0.049 A 
ATOM     54  C   UNL A   1      41.118  29.368  30.199  1.00  0.00     0.074 A 
ATOM     55  C   UNL A   1      47.453  28.208  29.867  1.00  0.00     0.029 A 
ATOM     56  N   UNL A   1      45.940  29.793  29.994  1.00  0.00    -0.354 N 
ATOM     57  N   UNL A   1      41.823  29.007  31.238  1.00  0.00    -0.248 NA
ATOM     58  C   UNL A   1      41.725  30.391  29.361  1.00  0.00     0.031 C 
ATOM     59  C   UNL A   1      46.624  27.990  31.007  1.00  0.00     0.029 A 
ATOM     60  C   UNL A   1      45.532  28.856  30.910  1.00  0.00     0.049 A 
ATOM     61  H   UNL A   1      45.681  30.742  29.971  1.00  0.00     0.167 HD
ATOM     62  C   UNL A   1      43.114  29.437  30.964  1.00  0.00     0.074 A 
ATOM     63  C   UNL A   1      42.972  30.360  29.840  1.00  0.00     0.031 C 
ATOM     64  C   UNL A   1      44.206  28.806  31.489  1.00  0.00     0.037 A 
BRANCH  51  65
ATOM     65  C   UNL A   1      46.754  30.707  27.064  1.00  0.00     0.058 A 
ATOM     66  C   UNL A   1      48.032  31.306  27.045  1.00  0.00     0.135 A 
ATOM     67  C   UNL A   1      45.678  31.557  26.725  1.00  0.00     0.135 A 
ATOM     68  F   UNL A   1      49.126  30.591  27.358  1.00  0.00    -0.206 F 
ATOM     69  C   UNL A   1      48.220  32.663  26.781  1.00  0.00     0.059 A 
ATOM     70  C   UNL A   1      45.848  32.900  26.406  1.00  0.00     0.059 A 
ATOM     71  F   UNL A   1      44.405  31.148  26.786  1.00  0.00    -0.206 F 
ATOM     72  C   UNL A   1      47.115  33.457  26.483  1.00  0.00     0.060 A 
BRANCH  72  73
ATOM     73  S   UNL A   1      47.331  35.234  26.276  1.00  0.00     0.124 S 
ATOM     74  O   UNL A   1      47.802  35.624  27.600  1.00  0.00    -0.237 OA
ATOM     75  O   UNL A   1      48.314  35.300  25.200  1.00  0.00    -0.237 OA
ATOM     76  O   UNL A   1      45.990  35.693  25.923  1.00  0.00    -0.744 OA
ENDBRANCH  72  73
ENDBRANCH  51  65
BRANCH  52  77
ATOM     77  C   UNL A   1      38.706  29.056  29.218  1.00  0.00     0.058 A 
ATOM     78  C   UNL A   1      37.743  29.392  30.181  1.00  0.00     0.135 A 
ATOM     79  C   UNL A   1      38.445  29.479  27.897  1.00  0.00     0.135 A 
ATOM     80  F   UNL A   1      37.927  29.049  31.464  1.00  0.00    -0.206 F 
ATOM     81  C   UNL A   1      36.604  30.139  29.861  1.00  0.00     0.059 A 
ATOM     82  C   UNL A   1      37.314  30.217  27.552  1.00  0.00     0.059 A 
ATOM     83  F   UNL A   1      39.338  29.270  26.917  1.00  0.00    -0.206 F 
ATOM     84  C   UNL A   1      36.408  30.564  28.545  1.00  0.00     0.060 A 
BRANCH  84  85
ATOM     85  S   UNL A   1      35.037  31.681  28.166  1.00  0.00     0.124 S 
ATOM     86  O   UNL A   1      35.732  32.823  27.582  1.00  0.00    -0.237 OA
ATOM     87  O   UNL A   1      34.237  30.882  27.244  1.00  0.00    -0.237 OA
ATOM     88  O   UNL A   1      34.423  31.920  29.469  1.00  0.00    -0.744 OA
ENDBRANCH  84  85
ENDBRANCH  52  77
BRANCH  64  89
ATOM     89  C   UNL A   1      44.001  27.792  32.588  1.00  0.00     0.058 A 
ATOM     90  C   UNL A   1      43.868  26.408  32.372  1.00  0.00     0.135 A 
ATOM     91  C   UNL A   1      44.151  28.218  33.916  1.00  0.00     0.135 A 
ATOM     92  F   UNL A   1      43.818  25.905  31.133  1.00  0.00    -0.206 F 
ATOM     93  C   UNL A   1      43.864  25.494  33.429  1.00  0.00     0.059 A 
ATOM     94  C   UNL A   1      44.178  27.323  34.982  1.00  0.00     0.059 A 
ATOM     95  F   UNL A   1      44.344  29.520  34.184  1.00  0.00    -0.206 F 
ATOM     96  C   UNL A   1      44.028  25.960  34.733  1.00  0.00     0.060 A 
BRANCH  96  97
ATOM     97  S   UNL A   1      44.137  24.770  36.088  1.00  0.00     0.124 S 
ATOM     98  O   UNL A   1      43.336  23.660  35.585  1.00  0.00    -0.237 OA
ATOM     99  O   UNL A   1      45.573  24.525  36.182  1.00  0.00    -0.237 OA
ATOM    100  O   UNL A   1      43.562  25.491  37.221  1.00  0.00    -0.744 OA
ENDBRANCH  96  97
ENDBRANCH  64  89
ENDBRANCH  38  39
ENDBRANCH  30  33
ENDBRANCH  28  29
ENDBRANCH  27  28
ENDBRANCH  26  27
ENDBRANCH   1  26
TORSDOF 19
ENDMDL
MODEL 2
REMARK VINA RESULT:     -11.4      2.544      3.922
REMARK SMILES CCn1ccc(NC(=O)[C@H]2[C@@H](C(=O)NCCCCCCNC(=O)c3ccc(-c4c5nc(c(-c6c(F)cc(S(=O)(=O)[O-])cc6F)c6ccc([nH]6)c(-c6c(F)cc(S(=O)(=O)[O-])cc6F)c6nc(c(-c7c(F)cc(S(=O)(=O)[O-])cc7F)c7ccc4[nH]7)C=C6)C=C5)cc3)[C@H]3C=C[C@@H]2C3)n1
REMARK SMILES IDX 17 1 16 2 15 3 14 4 12 5 13 6 11 8 10 9 93 10 90 11 92 12
REMARK SMILES IDX 94 13 91 14 8 15 7 16 9 18 6 19 3 20 4 21 95 22 5 23 2 24
REMARK SMILES IDX 1 25 18 26 19 27 20 28 21 29 22 30 23 32 24 33 25 34 89 35
REMARK SMILES IDX 26 36 88 37 27 38 28 39 29 40 82 41 30 42 87 43 81 44 83 45
REMARK SMILES IDX 31 46 86 47 80 48 79 49 32 51 66 52 45 53 65 54 46 55 49 56
REMARK SMILES IDX 64 57 84 58 47 59 48 60 63 62 85 63 50 64 33 65 34 66 43 67
REMARK SMILES IDX 35 68 36 69 42 70 44 71 37 72 38 73 39 74 40 75 41 76 67 77
REMARK SMILES IDX 68 78 77 79 69 80 70 81 76 82 78 83 71 84 72 85 73 86 74 87
REMARK SMILES IDX 75 88 51 89 52 90 61 91 53 92 54 93 60 94 62 95 55 96 56 97
REMARK SMILES IDX 57 98 58 99 59 100
REMARK H PARENT 14 7 7 17 21 31 83 50 49 61
REMARK Flexibility Score: inf
ROOT
ATOM      1  C   UNL A   1      36.349  22.229  24.196  1.00  0.00     0.002 C 
ENDROOT
BRANCH   1   2
ATOM      2  C   UNL A   1      35.667  23.214  23.241  1.00  0.00     0.021 C 
BRANCH   2   3
ATOM      3  C   UNL A   1      34.476  23.972  23.826  1.00  0.00     0.116 C 
BRANCH   3   4
ATOM      4  N   UNL A   1      33.631  24.550  22.797  1.00  0.00    -0.356 N 
ATOM      5  C   UNL A   1      32.969  25.744  22.759  1.00  0.00     0.224 C 
ATOM      6  O   UNL A   1      32.466  26.089  21.689  1.00  0.00    -0.275 OA
ATOM      7  H   UNL A   1      33.518  23.990  21.994  1.00  0.00     0.163 HD
BRANCH   5   8
ATOM      8  C   UNL A   1      33.021  26.653  23.974  1.00  0.00     0.098 C 
ATOM      9  C   UNL A   1      31.707  26.955  24.765  1.00  0.00     0.099 C 
ATOM     10  C   UNL A   1      31.689  28.504  24.833  1.00  0.00     0.025 C 
ATOM     11  C   UNL A   1      33.580  28.078  23.714  1.00  0.00     0.025 C 
ATOM     12  C   UNL A   1      31.533  29.084  23.446  1.00  0.00    -0.027 C 
ATOM     13  C   UNL A   1      33.184  28.786  25.021  1.00  0.00     0.017 C 
ATOM     14  C   UNL A   1      32.667  28.830  22.779  1.00  0.00    -0.027 C 
BRANCH   9  15
ATOM     15  C   UNL A   1      30.384  26.399  24.270  1.00  0.00     0.230 C 
ATOM     16  N   UNL A   1      30.062  25.095  24.513  1.00  0.00    -0.309 N 
ATOM     17  H   UNL A   1      29.202  24.817  24.121  1.00  0.00     0.171 HD
ATOM     18  O   UNL A   1      29.602  27.083  23.605  1.00  0.00    -0.274 OA
BRANCH  16  19
ATOM     19  C   UNL A   1      30.707  24.094  25.199  1.00  0.00     0.154 A 
ATOM     20  N   UNL A   1      31.679  22.214  25.423  1.00  0.00    -0.271 N 
ATOM     21  C   UNL A   1      31.759  22.792  26.654  1.00  0.00     0.111 A 
ATOM     22  N   UNL A   1      31.075  23.009  24.515  1.00  0.00    -0.155 NA
ATOM     23  C   UNL A   1      31.082  23.982  26.554  1.00  0.00     0.068 A 
BRANCH  20  24
ATOM     24  C   UNL A   1      32.151  20.903  25.012  1.00  0.00     0.141 C 
ATOM     25  C   UNL A   1      33.555  20.541  25.477  1.00  0.00     0.029 C 
ENDBRANCH  20  24
ENDBRANCH  16  19
ENDBRANCH   9  15
ENDBRANCH   5   8
ENDBRANCH   3   4
ENDBRANCH   2   3
ENDBRANCH   1   2
BRANCH   1  26
ATOM     26  C   UNL A   1      37.277  22.844  25.250  1.00  0.00     0.002 C 
BRANCH  26  27
ATOM     27  C   UNL A   1      38.369  21.928  25.817  1.00  0.00     0.021 C 
BRANCH  27  28
ATOM     28  C   UNL A   1      39.499  22.668  26.512  1.00  0.00     0.116 C 
BRANCH  28  29
ATOM     29  N   UNL A   1      40.827  22.211  26.099  1.00  0.00    -0.352 N 
ATOM     30  C   UNL A   1      41.952  22.985  25.855  1.00  0.00     0.251 C 
ATOM     31  H   UNL A   1      40.934  21.240  25.981  1.00  0.00     0.163 HD
ATOM     32  O   UNL A   1      42.889  22.551  25.211  1.00  0.00    -0.269 OA
BRANCH  30  33
ATOM     33  C   UNL A   1      41.970  24.359  26.396  1.00  0.00     0.039 A 
ATOM     34  C   UNL A   1      41.320  25.413  25.750  1.00  0.00     0.014 A 
ATOM     35  C   UNL A   1      42.593  24.552  27.621  1.00  0.00     0.014 A 
ATOM     36  C   UNL A   1      41.232  26.646  26.399  1.00  0.00     0.010 A 
ATOM     37  C   UNL A   1      42.335  25.696  28.332  1.00  0.00     0.010 A 
ATOM     38  C   UNL A   1      41.725  26.779  27.706  1.00  0.00    -0.014 A 
BRANCH  38  39
ATOM     39  C   UNL A   1      41.580  28.029  28.451  1.00  0.00     0.031 A 
ATOM     40  C   UNL A   1      42.660  29.046  28.269  1.00  0.00     0.074 A 
ATOM     41  C   UNL A   1      40.439  28.352  29.099  1.00  0.00     0.049 A 
ATOM     42  N   UNL A   1      43.461  29.530  29.163  1.00  0.00    -0.248 NA
ATOM     43  C   UNL A   1      42.938  29.530  26.908  1.00  0.00     0.031 C 
ATOM     44  C   UNL A   1      39.160  27.626  29.138  1.00  0.00     0.029 A 
ATOM     45  N   UNL A   1      40.144  29.492  29.779  1.00  0.00    -0.354 N 
ATOM     46  C   UNL A   1      44.221  30.510  28.526  1.00  0.00     0.074 A 
ATOM     47  C   UNL A   1      43.953  30.372  27.117  1.00  0.00     0.031 C 
ATOM     48  C   UNL A   1      38.179  28.450  29.560  1.00  0.00     0.029 A 
ATOM     49  C   UNL A   1      38.791  29.680  30.020  1.00  0.00     0.049 A 
ATOM     50  H   UNL A   1      40.832  30.130  30.075  1.00  0.00     0.167 HD
ATOM     51  C   UNL A   1      44.876  31.486  29.221  1.00  0.00     0.037 A 
ATOM     52  C   UNL A   1      38.200  30.781  30.542  1.00  0.00     0.037 A 
ATOM     53  C   UNL A   1      44.970  31.165  30.620  1.00  0.00     0.049 A 
ATOM     54  C   UNL A   1      39.252  31.521  31.283  1.00  0.00     0.074 A 
ATOM     55  C   UNL A   1      45.551  30.141  31.344  1.00  0.00     0.029 A 
ATOM     56  N   UNL A   1      44.086  31.770  31.481  1.00  0.00    -0.354 N 
ATOM     57  N   UNL A   1      39.860  31.053  32.341  1.00  0.00    -0.248 NA
ATOM     58  C   UNL A   1      39.957  32.580  30.578  1.00  0.00     0.031 C 
ATOM     59  C   UNL A   1      44.628  29.869  32.396  1.00  0.00     0.029 A 
ATOM     60  C   UNL A   1      43.576  30.782  32.286  1.00  0.00     0.049 A 
ATOM     61  H   UNL A   1      43.861  32.728  31.515  1.00  0.00     0.167 HD
ATOM     62  C   UNL A   1      41.182  31.452  32.201  1.00  0.00     0.074 A 
ATOM     63  C   UNL A   1      41.160  32.463  31.146  1.00  0.00     0.031 C 
ATOM     64  C   UNL A   1      42.208  30.740  32.756  1.00  0.00     0.037 A 
BRANCH  51  65
ATOM     65  C   UNL A   1      45.159  32.875  28.704  1.00  0.00     0.058 A 
ATOM     66  C   UNL A   1      46.485  33.359  28.678  1.00  0.00     0.135 A 
ATOM     67  C   UNL A   1      44.153  33.845  28.506  1.00  0.00     0.135 A 
ATOM     68  F   UNL A   1      47.521  32.524  28.863  1.00  0.00    -0.206 F 
ATOM     69  C   UNL A   1      46.785  34.715  28.539  1.00  0.00     0.059 A 
ATOM     70  C   UNL A   1      44.431  35.194  28.312  1.00  0.00     0.059 A 
ATOM     71  F   UNL A   1      42.851  33.543  28.593  1.00  0.00    -0.206 F 
ATOM     72  C   UNL A   1      45.746  35.627  28.377  1.00  0.00     0.060 A 
BRANCH  72  73
ATOM     73  S   UNL A   1      46.114  37.392  28.334  1.00  0.00     0.124 S 
ATOM     74  O   UNL A   1      44.862  37.935  27.817  1.00  0.00    -0.237 OA
ATOM     75  O   UNL A   1      46.407  37.678  29.734  1.00  0.00    -0.237 OA
ATOM     76  O   UNL A   1      47.257  37.472  27.430  1.00  0.00    -0.744 OA
ENDBRANCH  72  73
ENDBRANCH  51  65
BRANCH  52  77
ATOM     77  C   UNL A   1      36.916  31.379  30.098  1.00  0.00     0.058 A 
ATOM     78  C   UNL A   1      36.023  31.961  31.010  1.00  0.00     0.135 A 
ATOM     79  C   UNL A   1      36.663  31.625  28.731  1.00  0.00     0.135 A 
ATOM     80  F   UNL A   1      36.207  31.799  32.329  1.00  0.00    -0.206 F 
ATOM     81  C   UNL A   1      34.962  32.774  30.594  1.00  0.00     0.059 A 
ATOM     82  C   UNL A   1      35.608  32.422  28.292  1.00  0.00     0.059 A 
ATOM     83  F   UNL A   1      37.500  31.173  27.784  1.00  0.00    -0.206 F 
ATOM     84  C   UNL A   1      34.775  33.014  29.231  1.00  0.00     0.060 A 
BRANCH  84  85
ATOM     85  S   UNL A   1      33.521  34.205  28.702  1.00  0.00     0.124 S 
ATOM     86  O   UNL A   1      32.913  34.587  29.972  1.00  0.00    -0.237 OA
ATOM     87  O   UNL A   1      34.328  35.229  28.047  1.00  0.00    -0.237 OA
ATOM     88  O   UNL A   1      32.668  33.425  27.807  1.00  0.00    -0.744 OA
ENDBRANCH  84  85
ENDBRANCH  52  77
BRANCH  64  89
ATOM     89  C   UNL A   1      41.883  29.653  33.751  1.00  0.00     0.058 A 
ATOM     90  C   UNL A   1      41.673  28.305  33.410  1.00  0.00     0.135 A 
ATOM     91  C   UNL A   1      41.991  29.955  35.117  1.00  0.00     0.135 A 
ATOM     92  F   UNL A   1      41.654  27.912  32.130  1.00  0.00    -0.206 F 
ATOM     93  C   UNL A   1      41.557  27.307  34.381  1.00  0.00     0.059 A 
ATOM     94  C   UNL A   1      41.906  28.972  36.101  1.00  0.00     0.059 A 
ATOM     95  F   UNL A   1      42.253  31.213  35.507  1.00  0.00    -0.206 F 
ATOM     96  C   UNL A   1      41.683  27.649  35.726  1.00  0.00     0.060 A 
BRANCH  96  97
ATOM     97  S   UNL A   1      41.647  26.344  36.975  1.00  0.00     0.124 S 
ATOM     98  O   UNL A   1      42.871  26.604  37.725  1.00  0.00    -0.237 OA
ATOM     99  O   UNL A   1      40.399  26.616  37.683  1.00  0.00    -0.237 OA
ATOM    100  O   UNL A   1      41.648  25.116  36.185  1.00  0.00    -0.744 OA
ENDBRANCH  96  97
ENDBRANCH  64  89
ENDBRANCH  38  39
ENDBRANCH  30  33
ENDBRANCH  28  29
ENDBRANCH  27  28
ENDBRANCH  26  27
ENDBRANCH   1  26
TORSDOF 19
ENDMDL
MODEL 3
REMARK VINA RESULT:     -11.3      2.494      8.806
REMARK SMILES CCn1ccc(NC(=O)[C@H]2[C@@H](C(=O)NCCCCCCNC(=O)c3ccc(-c4c5nc(c(-c6c(F)cc(S(=O)(=O)[O-])cc6F)c6ccc([nH]6)c(-c6c(F)cc(S(=O)(=O)[O-])cc6F)c6nc(c(-c7c(F)cc(S(=O)(=O)[O-])cc7F)c7ccc4[nH]7)C=C6)C=C5)cc3)[C@H]3C=C[C@@H]2C3)n1
REMARK SMILES IDX 17 1 16 2 15 3 14 4 12 5 13 6 11 8 10 9 93 10 90 11 92 12
REMARK SMILES IDX 94 13 91 14 8 15 7 16 9 18 6 19 3 20 4 21 95 22 5 23 2 24
REMARK SMILES IDX 1 25 18 26 19 27 20 28 21 29 22 30 23 32 24 33 25 34 89 35
REMARK SMILES IDX 26 36 88 37 27 38 28 39 29 40 82 41 30 42 87 43 81 44 83 45
REMARK SMILES IDX 31 46 86 47 80 48 79 49 32 51 66 52 45 53 65 54 46 55 49 56
REMARK SMILES IDX 64 57 84 58 47 59 48 60 63 62 85 63 50 64 33 65 34 66 43 67
REMARK SMILES IDX 35 68 36 69 42 70 44 71 37 72 38 73 39 74 40 75 41 76 67 77
REMARK SMILES IDX 68 78 77 79 69 80 70 81 76 82 78 83 71 84 72 85 73 86 74 87
REMARK SMILES IDX 75 88 51 89 52 90 61 91 53 92 54 93 60 94 62 95 55 96 56 97
REMARK SMILES IDX 57 98 58 99 59 100
REMARK H PARENT 14 7 7 17 21 31 83 50 49 61
REMARK Flexibility Score: inf
ROOT
ATOM      1  C   UNL A   1      34.064  28.503  26.954  1.00  0.00     0.002 C 
ENDROOT
BRANCH   1   2
ATOM      2  C   UNL A   1      33.566  28.510  25.506  1.00  0.00     0.021 C 
BRANCH   2   3
ATOM      3  C   UNL A   1      33.704  27.181  24.762  1.00  0.00     0.116 C 
BRANCH   3   4
ATOM      4  N   UNL A   1      33.157  26.069  25.517  1.00  0.00    -0.356 N 
ATOM      5  C   UNL A   1      33.598  24.782  25.645  1.00  0.00     0.224 C 
ATOM      6  O   UNL A   1      33.062  24.073  26.497  1.00  0.00    -0.275 OA
ATOM      7  H   UNL A   1      32.336  26.275  26.020  1.00  0.00     0.163 HD
BRANCH   5   8
ATOM      8  C   UNL A   1      34.818  24.340  24.857  1.00  0.00     0.098 C 
ATOM      9  C   UNL A   1      34.677  23.202  23.795  1.00  0.00     0.099 C 
ATOM     10  C   UNL A   1      35.797  22.208  24.197  1.00  0.00     0.025 C 
ATOM     11  C   UNL A   1      36.016  23.842  25.711  1.00  0.00     0.025 C 
ATOM     12  C   UNL A   1      35.501  21.610  25.553  1.00  0.00    -0.027 C 
ATOM     13  C   UNL A   1      36.892  23.191  24.627  1.00  0.00     0.017 C 
ATOM     14  C   UNL A   1      35.634  22.589  26.458  1.00  0.00    -0.027 C 
BRANCH   9  15
ATOM     15  C   UNL A   1      33.342  22.500  23.615  1.00  0.00     0.230 C 
ATOM     16  N   UNL A   1      32.319  23.139  22.977  1.00  0.00    -0.309 N 
ATOM     17  H   UNL A   1      31.484  22.619  22.941  1.00  0.00     0.171 HD
ATOM     18  O   UNL A   1      33.135  21.374  24.075  1.00  0.00    -0.274 OA
BRANCH  16  19
ATOM     19  C   UNL A   1      32.231  24.371  22.373  1.00  0.00     0.154 A 
ATOM     20  N   UNL A   1      31.504  26.355  22.116  1.00  0.00    -0.271 N 
ATOM     21  C   UNL A   1      32.460  26.212  21.157  1.00  0.00     0.111 A 
ATOM     22  N   UNL A   1      31.378  25.257  22.891  1.00  0.00    -0.155 NA
ATOM     23  C   UNL A   1      32.902  24.916  21.259  1.00  0.00     0.068 A 
BRANCH  20  24
ATOM     24  C   UNL A   1      30.654  27.505  22.376  1.00  0.00     0.141 C 
ATOM     25  C   UNL A   1      29.728  27.371  23.577  1.00  0.00     0.029 C 
ENDBRANCH  20  24
ENDBRANCH  16  19
ENDBRANCH   9  15
ENDBRANCH   5   8
ENDBRANCH   3   4
ENDBRANCH   2   3
ENDBRANCH   1   2
BRANCH   1  26
ATOM     26  C   UNL A   1      34.921  29.702  27.378  1.00  0.00     0.002 C 
BRANCH  26  27
ATOM     27  C   UNL A   1      34.178  31.022  27.620  1.00  0.00     0.021 C 
BRANCH  27  28
ATOM     28  C   UNL A   1      35.064  32.150  28.119  1.00  0.00     0.116 C 
BRANCH  28  29
ATOM     29  N   UNL A   1      34.611  32.723  29.386  1.00  0.00    -0.352 N 
ATOM     30  C   UNL A   1      34.955  32.323  30.670  1.00  0.00     0.251 C 
ATOM     31  H   UNL A   1      33.988  33.482  29.321  1.00  0.00     0.163 HD
ATOM     32  O   UNL A   1      34.282  32.641  31.631  1.00  0.00    -0.269 OA
BRANCH  30  33
ATOM     33  C   UNL A   1      36.163  31.488  30.826  1.00  0.00     0.039 A 
ATOM     34  C   UNL A   1      36.090  30.097  30.916  1.00  0.00     0.014 A 
ATOM     35  C   UNL A   1      37.391  32.136  30.802  1.00  0.00     0.014 A 
ATOM     36  C   UNL A   1      37.276  29.359  30.891  1.00  0.00     0.010 A 
ATOM     37  C   UNL A   1      38.530  31.405  30.581  1.00  0.00     0.010 A 
ATOM     38  C   UNL A   1      38.499  30.020  30.703  1.00  0.00    -0.014 A 
BRANCH  38  39
ATOM     39  C   UNL A   1      39.755  29.278  30.590  1.00  0.00     0.031 A 
ATOM     40  C   UNL A   1      40.526  29.071  31.853  1.00  0.00     0.074 A 
ATOM     41  C   UNL A   1      40.105  28.623  29.460  1.00  0.00     0.049 A 
ATOM     42  N   UNL A   1      41.717  29.487  32.140  1.00  0.00    -0.248 NA
ATOM     43  C   UNL A   1      39.860  28.382  32.970  1.00  0.00     0.031 C 
ATOM     44  C   UNL A   1      39.339  28.450  28.216  1.00  0.00     0.029 A 
ATOM     45  N   UNL A   1      41.203  27.855  29.232  1.00  0.00    -0.354 N 
ATOM     46  C   UNL A   1      42.031  28.963  33.393  1.00  0.00     0.074 A 
ATOM     47  C   UNL A   1      40.806  28.408  33.912  1.00  0.00     0.031 C 
ATOM     48  C   UNL A   1      39.859  27.434  27.497  1.00  0.00     0.029 A 
ATOM     49  C   UNL A   1      41.106  27.034  28.117  1.00  0.00     0.049 A 
ATOM     50  H   UNL A   1      42.000  27.878  29.809  1.00  0.00     0.167 HD
ATOM     51  C   UNL A   1      43.317  28.860  33.836  1.00  0.00     0.037 A 
ATOM     52  C   UNL A   1      41.976  26.071  27.734  1.00  0.00     0.037 A 
ATOM     53  C   UNL A   1      44.215  29.654  33.038  1.00  0.00     0.049 A 
ATOM     54  C   UNL A   1      43.274  26.384  28.381  1.00  0.00     0.074 A 
ATOM     55  C   UNL A   1      44.329  31.002  32.757  1.00  0.00     0.029 A 
ATOM     56  N   UNL A   1      44.966  29.012  32.083  1.00  0.00    -0.354 N 
ATOM     57  N   UNL A   1      43.975  27.455  28.120  1.00  0.00    -0.248 NA
ATOM     58  C   UNL A   1      43.567  25.746  29.656  1.00  0.00     0.031 C 
ATOM     59  C   UNL A   1      44.699  31.058  31.382  1.00  0.00     0.029 A 
ATOM     60  C   UNL A   1      44.848  29.744  30.928  1.00  0.00     0.049 A 
ATOM     61  H   UNL A   1      45.489  28.187  32.203  1.00  0.00     0.167 HD
ATOM     62  C   UNL A   1      44.486  27.860  29.345  1.00  0.00     0.074 A 
ATOM     63  C   UNL A   1      44.275  26.719  30.235  1.00  0.00     0.031 C 
ATOM     64  C   UNL A   1      44.783  29.169  29.601  1.00  0.00     0.037 A 
BRANCH  51  65
ATOM     65  C   UNL A   1      43.824  27.806  34.789  1.00  0.00     0.058 A 
ATOM     66  C   UNL A   1      44.497  28.190  35.970  1.00  0.00     0.135 A 
ATOM     67  C   UNL A   1      43.927  26.441  34.446  1.00  0.00     0.135 A 
ATOM     68  F   UNL A   1      44.472  29.466  36.386  1.00  0.00    -0.206 F 
ATOM     69  C   UNL A   1      45.273  27.298  36.712  1.00  0.00     0.059 A 
ATOM     70  C   UNL A   1      44.651  25.524  35.201  1.00  0.00     0.059 A 
ATOM     71  F   UNL A   1      43.413  25.955  33.308  1.00  0.00    -0.206 F 
ATOM     72  C   UNL A   1      45.359  25.970  36.305  1.00  0.00     0.060 A 
BRANCH  72  73
ATOM     73  S   UNL A   1      46.467  24.846  37.177  1.00  0.00     0.124 S 
ATOM     74  O   UNL A   1      47.770  25.411  36.848  1.00  0.00    -0.237 OA
ATOM     75  O   UNL A   1      46.031  25.000  38.561  1.00  0.00    -0.237 OA
ATOM     76  O   UNL A   1      46.170  23.550  36.572  1.00  0.00    -0.744 OA
ENDBRANCH  72  73
ENDBRANCH  51  65
BRANCH  52  77
ATOM     77  C   UNL A   1      41.621  24.739  27.182  1.00  0.00     0.058 A 
ATOM     78  C   UNL A   1      42.436  24.094  26.241  1.00  0.00     0.135 A 
ATOM     79  C   UNL A   1      40.602  23.957  27.768  1.00  0.00     0.135 A 
ATOM     80  F   UNL A   1      43.444  24.758  25.656  1.00  0.00    -0.206 F 
ATOM     81  C   UNL A   1      42.277  22.739  25.927  1.00  0.00     0.059 A 
ATOM     82  C   UNL A   1      40.418  22.610  27.465  1.00  0.00     0.059 A 
ATOM     83  F   UNL A   1      39.815  24.461  28.732  1.00  0.00    -0.206 F 
ATOM     84  C   UNL A   1      41.276  22.000  26.560  1.00  0.00     0.060 A 
BRANCH  84  85
ATOM     85  S   UNL A   1      41.186  20.213  26.294  1.00  0.00     0.124 S 
ATOM     86  O   UNL A   1      39.850  20.060  25.728  1.00  0.00    -0.237 OA
ATOM     87  O   UNL A   1      42.297  19.983  25.377  1.00  0.00    -0.237 OA
ATOM     88  O   UNL A   1      41.366  19.661  27.634  1.00  0.00    -0.744 OA
ENDBRANCH  84  85
ENDBRANCH  52  77
BRANCH  64  89
ATOM     89  C   UNL A   1      44.804  30.147  28.453  1.00  0.00     0.058 A 
ATOM     90  C   UNL A   1      43.675  30.845  27.988  1.00  0.00     0.135 A 
ATOM     91  C   UNL A   1      46.051  30.540  27.943  1.00  0.00     0.135 A 
ATOM     92  F   UNL A   1      42.459  30.604  28.492  1.00  0.00    -0.206 F 
ATOM     93  C   UNL A   1      43.779  31.873  27.046  1.00  0.00     0.059 A 
ATOM     94  C   UNL A   1      46.181  31.579  27.025  1.00  0.00     0.059 A 
ATOM     95  F   UNL A   1      47.173  29.954  28.392  1.00  0.00    -0.206 F 
ATOM     96  C   UNL A   1      45.039  32.239  26.575  1.00  0.00     0.060 A 
BRANCH  96  97
ATOM     97  S   UNL A   1      45.185  33.641  25.445  1.00  0.00     0.124 S 
ATOM     98  O   UNL A   1      46.629  33.831  25.378  1.00  0.00    -0.237 OA
ATOM     99  O   UNL A   1      44.554  33.137  24.229  1.00  0.00    -0.237 OA
ATOM    100  O   UNL A   1      44.446  34.704  26.123  1.00  0.00    -0.744 OA
ENDBRANCH  96  97
ENDBRANCH  64  89
ENDBRANCH  38  39
ENDBRANCH  30  33
ENDBRANCH  28  29
ENDBRANCH  27  28
ENDBRANCH  26  27
ENDBRANCH   1  26
TORSDOF 19
ENDMDL
