MODEL 1
REMARK VINA RESULT:     -11.2      0.000      0.000
REMARK SMILES CC(C)C[C@H](NC(=O)[C@@H](NC(=O)N1CC(NCCCCCCNC(=O)c2ccc(-c3c4nc(c(-c5c(F)cc(S(=O)(=O)[O-])cc5F)c5ccc([nH]5)c(-c5c(F)cc(S(=O)(=O)[O-])cc5F)c5nc(c(-c6c(F)cc(S(=O)(=O)[O-])cc6F)c6ccc3[nH]6)C=C5)C=C4)cc2)=[NH+]c2ccccc21)C(C)C)C(=O)[O-]
REMARK SMILES IDX 18 1 17 2 16 3 13 4 14 5 98 6 15 7 93 8 97 9 92 10 94 11
REMARK SMILES IDX 96 12 95 15 11 16 10 17 12 19 9 20 7 21 6 22 8 24 5 25 4 26
REMARK SMILES IDX 2 27 1 28 3 29 102 30 103 31 104 32 99 33 100 34 101 35
REMARK SMILES IDX 19 36 20 37 21 38 22 39 23 40 24 41 25 43 26 44 27 45 91 46
REMARK SMILES IDX 28 47 90 48 29 49 30 50 31 51 84 52 32 53 89 54 83 55 85 56
REMARK SMILES IDX 33 57 88 58 82 59 81 60 34 62 68 63 47 64 67 65 48 66 51 67
REMARK SMILES IDX 66 68 86 69 49 70 50 71 65 73 87 74 52 75 35 76 36 77 45 78
REMARK SMILES IDX 37 79 38 80 44 81 46 82 39 83 40 84 41 85 42 86 43 87 69 88
REMARK SMILES IDX 70 89 79 90 71 91 72 92 78 93 80 94 73 95 74 96 75 97 76 98
REMARK SMILES IDX 77 99 53 100 54 101 63 102 55 103 56 104 62 105 64 106
REMARK SMILES IDX 57 107 58 108 59 109 60 110 61 111
REMARK H PARENT 16 13 92 14 10 18 6 23 23 42 85 61 51 72
REMARK Flexibility Score: inf
ROOT
ATOM      1  C   UNL A   1      34.199  30.463  27.616  1.00  0.00     0.046 C 
ENDROOT
BRANCH   1   2
ATOM      2  C   UNL A   1      34.539  29.160  26.884  1.00  0.00     0.233 C 
BRANCH   2   3
ATOM      3  N   UNL A   1      33.999  29.154  25.542  1.00  0.00    -0.277 N 
ATOM      4  N   UNL A   1      30.959  27.342  25.117  1.00  0.00    -0.278 N 
ATOM      5  C   UNL A   1      31.646  28.280  26.008  1.00  0.00     0.255 C 
ATOM      6  C   UNL A   1      30.301  28.054  24.087  1.00  0.00     0.093 A 
ATOM      7  C   UNL A   1      32.701  28.966  25.128  1.00  0.00     0.268 C 
ATOM      8  C   UNL A   1      31.051  29.100  23.498  1.00  0.00     0.148 A 
ATOM      9  C   UNL A   1      28.997  27.776  23.679  1.00  0.00     0.031 A 
ATOM     10  N   UNL A   1      32.375  29.386  23.928  1.00  0.00    -0.241 N 
ATOM     11  C   UNL A   1      30.513  29.773  22.407  1.00  0.00     0.054 A 
ATOM     12  C   UNL A   1      28.455  28.498  22.617  1.00  0.00     0.002 A 
ATOM     13  H   UNL A   1      34.653  29.306  24.823  1.00  0.00     0.304 HD
ATOM     14  H   UNL A   1      33.012  29.872  23.357  1.00  0.00     0.312 HD
ATOM     15  C   UNL A   1      29.221  29.470  21.963  1.00  0.00     0.005 A 
BRANCH   4  16
ATOM     16  C   UNL A   1      30.689  26.067  25.495  1.00  0.00     0.323 C 
ATOM     17  N   UNL A   1      31.384  25.011  24.997  1.00  0.00    -0.326 N 
ATOM     18  H   UNL A   1      31.080  24.182  25.433  1.00  0.00     0.166 HD
ATOM     19  O   UNL A   1      29.883  25.818  26.396  1.00  0.00    -0.248 OA
BRANCH  17  20
ATOM     20  C   UNL A   1      32.459  24.690  24.008  1.00  0.00     0.175 C 
BRANCH  20  21
ATOM     21  C   UNL A   1      33.858  25.325  24.223  1.00  0.00     0.243 C 
ATOM     22  N   UNL A   1      34.911  24.673  24.760  1.00  0.00    -0.346 N 
ATOM     23  H   UNL A   1      35.678  25.253  24.972  1.00  0.00     0.164 HD
ATOM     24  O   UNL A   1      34.011  26.541  24.042  1.00  0.00    -0.273 OA
BRANCH  22  25
ATOM     25  C   UNL A   1      35.119  23.263  25.086  1.00  0.00     0.128 C 
BRANCH  25  26
ATOM     26  C   UNL A   1      36.540  23.116  25.664  1.00  0.00     0.034 C 
BRANCH  26  27
ATOM     27  C   UNL A   1      37.484  22.063  25.045  1.00  0.00    -0.015 C 
ATOM     28  C   UNL A   1      38.780  21.880  25.804  1.00  0.00     0.007 C 
ATOM     29  C   UNL A   1      36.777  20.706  24.985  1.00  0.00     0.007 C 
ENDBRANCH  26  27
ENDBRANCH  25  26
BRANCH  25  30
ATOM     30  C   UNL A   1      33.963  22.890  26.026  1.00  0.00     0.064 C 
ATOM     31  O   UNL A   1      33.013  22.177  25.733  1.00  0.00    -0.548 OA
ATOM     32  O   UNL A   1      33.991  23.479  27.234  1.00  0.00    -0.548 OA
ENDBRANCH  25  30
ENDBRANCH  22  25
ENDBRANCH  20  21
BRANCH  20  33
ATOM     33  C   UNL A   1      32.080  24.611  22.513  1.00  0.00     0.015 C 
ATOM     34  C   UNL A   1      31.747  25.917  21.780  1.00  0.00     0.010 C 
ATOM     35  C   UNL A   1      33.231  23.939  21.751  1.00  0.00     0.010 C 
ENDBRANCH  20  33
ENDBRANCH  17  20
ENDBRANCH   4  16
ENDBRANCH   2   3
ENDBRANCH   1   2
BRANCH   1  36
ATOM     36  C   UNL A   1      35.313  31.513  27.655  1.00  0.00     0.004 C 
BRANCH  36  37
ATOM     37  C   UNL A   1      35.139  32.600  28.719  1.00  0.00     0.002 C 
BRANCH  37  38
ATOM     38  C   UNL A   1      36.411  33.375  29.073  1.00  0.00     0.021 C 
BRANCH  38  39
ATOM     39  C   UNL A   1      37.306  32.703  30.112  1.00  0.00     0.116 C 
BRANCH  39  40
ATOM     40  N   UNL A   1      36.618  31.640  30.831  1.00  0.00    -0.352 N 
ATOM     41  C   UNL A   1      36.909  30.296  30.867  1.00  0.00     0.251 C 
ATOM     42  H   UNL A   1      35.838  31.921  31.362  1.00  0.00     0.163 HD
ATOM     43  O   UNL A   1      36.113  29.504  31.368  1.00  0.00    -0.269 OA
BRANCH  41  44
ATOM     44  C   UNL A   1      38.175  29.807  30.281  1.00  0.00     0.039 A 
ATOM     45  C   UNL A   1      38.311  29.752  28.892  1.00  0.00     0.014 A 
ATOM     46  C   UNL A   1      39.237  29.430  31.108  1.00  0.00     0.014 A 
ATOM     47  C   UNL A   1      39.538  29.388  28.331  1.00  0.00     0.010 A 
ATOM     48  C   UNL A   1      40.478  29.138  30.548  1.00  0.00     0.010 A 
ATOM     49  C   UNL A   1      40.645  29.119  29.153  1.00  0.00    -0.014 A 
BRANCH  49  50
ATOM     50  C   UNL A   1      41.988  28.830  28.585  1.00  0.00     0.031 A 
ATOM     51  C   UNL A   1      42.335  27.436  28.137  1.00  0.00     0.074 A 
ATOM     52  C   UNL A   1      42.923  29.802  28.552  1.00  0.00     0.049 A 
ATOM     53  N   UNL A   1      43.480  26.964  27.716  1.00  0.00    -0.248 NA
ATOM     54  C   UNL A   1      41.259  26.433  28.196  1.00  0.00     0.031 C 
ATOM     55  C   UNL A   1      42.724  31.183  28.998  1.00  0.00     0.029 A 
ATOM     56  N   UNL A   1      44.233  29.774  28.140  1.00  0.00    -0.354 N 
ATOM     57  C   UNL A   1      43.269  25.611  27.479  1.00  0.00     0.074 A 
ATOM     58  C   UNL A   1      41.900  25.327  27.851  1.00  0.00     0.031 C 
ATOM     59  C   UNL A   1      43.864  31.871  28.822  1.00  0.00     0.029 A 
ATOM     60  C   UNL A   1      44.887  30.973  28.295  1.00  0.00     0.049 A 
ATOM     61  H   UNL A   1      44.664  28.970  27.769  1.00  0.00     0.167 HD
ATOM     62  C   UNL A   1      44.131  24.694  26.976  1.00  0.00     0.037 A 
ATOM     63  C   UNL A   1      46.171  31.312  28.056  1.00  0.00     0.037 A 
ATOM     64  C   UNL A   1      45.486  24.990  26.589  1.00  0.00     0.049 A 
ATOM     65  C   UNL A   1      47.112  30.273  27.507  1.00  0.00     0.074 A 
ATOM     66  C   UNL A   1      46.420  24.143  26.017  1.00  0.00     0.029 A 
ATOM     67  N   UNL A   1      46.104  26.223  26.737  1.00  0.00    -0.354 N 
ATOM     68  N   UNL A   1      46.879  29.012  27.231  1.00  0.00    -0.248 NA
ATOM     69  C   UNL A   1      48.491  30.702  27.232  1.00  0.00     0.031 C 
ATOM     70  C   UNL A   1      47.618  24.850  25.870  1.00  0.00     0.029 A 
ATOM     71  C   UNL A   1      47.414  26.154  26.290  1.00  0.00     0.049 A 
ATOM     72  H   UNL A   1      45.674  27.029  27.106  1.00  0.00     0.167 HD
ATOM     73  C   UNL A   1      48.069  28.508  26.717  1.00  0.00     0.074 A 
ATOM     74  C   UNL A   1      49.019  29.601  26.716  1.00  0.00     0.031 C 
ATOM     75  C   UNL A   1      48.347  27.254  26.282  1.00  0.00     0.037 A 
BRANCH  62  76
ATOM     76  C   UNL A   1      43.637  23.280  26.820  1.00  0.00     0.058 A 
ATOM     77  C   UNL A   1      43.400  22.452  27.930  1.00  0.00     0.135 A 
ATOM     78  C   UNL A   1      43.361  22.757  25.547  1.00  0.00     0.135 A 
ATOM     79  F   UNL A   1      43.659  22.893  29.172  1.00  0.00    -0.206 F 
ATOM     80  C   UNL A   1      42.940  21.148  27.781  1.00  0.00     0.059 A 
ATOM     81  C   UNL A   1      42.868  21.466  25.375  1.00  0.00     0.059 A 
ATOM     82  F   UNL A   1      43.568  23.504  24.450  1.00  0.00    -0.206 F 
ATOM     83  C   UNL A   1      42.677  20.664  26.498  1.00  0.00     0.060 A 
BRANCH  83  84
ATOM     84  S   UNL A   1      42.079  18.969  26.324  1.00  0.00     0.124 S 
ATOM     85  O   UNL A   1      42.233  18.466  27.685  1.00  0.00    -0.237 OA
ATOM     86  O   UNL A   1      40.706  19.169  25.872  1.00  0.00    -0.237 OA
ATOM     87  O   UNL A   1      42.983  18.390  25.336  1.00  0.00    -0.744 OA
ENDBRANCH  83  84
ENDBRANCH  62  76
BRANCH  63  88
ATOM     88  C   UNL A   1      46.634  32.701  28.321  1.00  0.00     0.058 A 
ATOM     89  C   UNL A   1      46.501  33.704  27.350  1.00  0.00     0.135 A 
ATOM     90  C   UNL A   1      47.205  33.057  29.553  1.00  0.00     0.135 A 
ATOM     91  F   UNL A   1      45.969  33.414  26.153  1.00  0.00    -0.206 F 
ATOM     92  C   UNL A   1      46.929  35.008  27.584  1.00  0.00     0.059 A 
ATOM     93  C   UNL A   1      47.614  34.359  29.822  1.00  0.00     0.059 A 
ATOM     94  F   UNL A   1      47.341  32.139  30.522  1.00  0.00    -0.206 F 
ATOM     95  C   UNL A   1      47.481  35.326  28.826  1.00  0.00     0.060 A 
BRANCH  95  96
ATOM     96  S   UNL A   1      47.984  37.032  29.138  1.00  0.00     0.124 S 
ATOM     97  O   UNL A   1      47.365  37.288  30.433  1.00  0.00    -0.237 OA
ATOM     98  O   UNL A   1      49.440  36.927  29.134  1.00  0.00    -0.237 OA
ATOM     99  O   UNL A   1      47.413  37.761  28.010  1.00  0.00    -0.744 OA
ENDBRANCH  95  96
ENDBRANCH  63  88
BRANCH  75 100
ATOM    100  C   UNL A   1      49.719  26.998  25.719  1.00  0.00     0.058 A 
ATOM    101  C   UNL A   1      50.015  27.191  24.361  1.00  0.00     0.135 A 
ATOM    102  C   UNL A   1      50.769  26.614  26.570  1.00  0.00     0.135 A 
ATOM    103  F   UNL A   1      49.047  27.552  23.503  1.00  0.00    -0.206 F 
ATOM    104  C   UNL A   1      51.299  26.994  23.862  1.00  0.00     0.059 A 
ATOM    105  C   UNL A   1      52.067  26.442  26.099  1.00  0.00     0.059 A 
ATOM    106  F   UNL A   1      50.544  26.425  27.880  1.00  0.00    -0.206 F 
ATOM    107  C   UNL A   1      52.319  26.625  24.741  1.00  0.00     0.060 A 
BRANCH 107 108
ATOM    108  S   UNL A   1      53.989  26.416  24.087  1.00  0.00     0.124 S 
ATOM    109  O   UNL A   1      54.429  25.212  24.783  1.00  0.00    -0.237 OA
ATOM    110  O   UNL A   1      53.747  26.268  22.655  1.00  0.00    -0.237 OA
ATOM    111  O   UNL A   1      54.665  27.649  24.478  1.00  0.00    -0.744 OA
ENDBRANCH 107 108
ENDBRANCH  75 100
ENDBRANCH  49  50
ENDBRANCH  41  44
ENDBRANCH  39  40
ENDBRANCH  38  39
ENDBRANCH  37  38
ENDBRANCH  36  37
ENDBRANCH   1  36
TORSDOF 23
ENDMDL
MODEL 2
REMARK VINA RESULT:     -11.1      6.087     11.567
REMARK SMILES CC(C)C[C@H](NC(=O)[C@@H](NC(=O)N1CC(NCCCCCCNC(=O)c2ccc(-c3c4nc(c(-c5c(F)cc(S(=O)(=O)[O-])cc5F)c5ccc([nH]5)c(-c5c(F)cc(S(=O)(=O)[O-])cc5F)c5nc(c(-c6c(F)cc(S(=O)(=O)[O-])cc6F)c6ccc3[nH]6)C=C5)C=C4)cc2)=[NH+]c2ccccc21)C(C)C)C(=O)[O-]
REMARK SMILES IDX 18 1 17 2 16 3 13 4 14 5 98 6 15 7 93 8 97 9 92 10 94 11
REMARK SMILES IDX 96 12 95 15 11 16 10 17 12 19 9 20 7 21 6 22 8 24 5 25 4 26
REMARK SMILES IDX 2 27 1 28 3 29 102 30 103 31 104 32 99 33 100 34 101 35
REMARK SMILES IDX 19 36 20 37 21 38 22 39 23 40 24 41 25 43 26 44 27 45 91 46
REMARK SMILES IDX 28 47 90 48 29 49 30 50 31 51 84 52 32 53 89 54 83 55 85 56
REMARK SMILES IDX 33 57 88 58 82 59 81 60 34 62 68 63 47 64 67 65 48 66 51 67
REMARK SMILES IDX 66 68 86 69 49 70 50 71 65 73 87 74 52 75 35 76 36 77 45 78
REMARK SMILES IDX 37 79 38 80 44 81 46 82 39 83 40 84 41 85 42 86 43 87 69 88
REMARK SMILES IDX 70 89 79 90 71 91 72 92 78 93 80 94 73 95 74 96 75 97 76 98
REMARK SMILES IDX 77 99 53 100 54 101 63 102 55 103 56 104 62 105 64 106
REMARK SMILES IDX 57 107 58 108 59 109 60 110 61 111
REMARK H PARENT 16 13 92 14 10 18 6 23 23 42 85 61 51 72
REMARK Flexibility Score: inf
ROOT
ATOM      1  C   UNL A   1      39.353  23.768  27.276  1.00  0.00     0.046 C 
ENDROOT
BRANCH   1   2
ATOM      2  C   UNL A   1      38.216  24.056  26.290  1.00  0.00     0.233 C 
BRANCH   2   3
ATOM      3  N   UNL A   1      37.010  23.347  26.657  1.00  0.00    -0.277 N 
ATOM      4  N   UNL A   1      34.426  23.333  24.201  1.00  0.00    -0.278 N 
ATOM      5  C   UNL A   1      35.872  23.181  24.378  1.00  0.00     0.255 C 
ATOM      6  C   UNL A   1      33.785  22.090  24.416  1.00  0.00     0.093 A 
ATOM      7  C   UNL A   1      36.055  22.777  25.848  1.00  0.00     0.268 C 
ATOM      8  C   UNL A   1      34.243  21.356  25.536  1.00  0.00     0.148 A 
ATOM      9  C   UNL A   1      32.784  21.594  23.582  1.00  0.00     0.031 A 
ATOM     10  N   UNL A   1      35.273  21.864  26.373  1.00  0.00    -0.241 N 
ATOM     11  C   UNL A   1      33.587  20.178  25.875  1.00  0.00     0.054 A 
ATOM     12  C   UNL A   1      32.173  20.384  23.909  1.00  0.00     0.002 A 
ATOM     13  H   UNL A   1      36.849  23.261  27.624  1.00  0.00     0.304 HD
ATOM     14  H   UNL A   1      35.394  21.547  27.298  1.00  0.00     0.312 HD
ATOM     15  C   UNL A   1      32.551  19.696  25.067  1.00  0.00     0.005 A 
BRANCH   4  16
ATOM     16  C   UNL A   1      33.895  24.394  23.543  1.00  0.00     0.323 C 
ATOM     17  N   UNL A   1      33.188  25.356  24.192  1.00  0.00    -0.326 N 
ATOM     18  H   UNL A   1      32.937  26.065  23.557  1.00  0.00     0.166 HD
ATOM     19  O   UNL A   1      34.132  24.598  22.349  1.00  0.00    -0.248 OA
BRANCH  17  20
ATOM     20  C   UNL A   1      32.665  25.697  25.552  1.00  0.00     0.175 C 
BRANCH  20  21
ATOM     21  C   UNL A   1      31.387  24.966  26.041  1.00  0.00     0.243 C 
ATOM     22  N   UNL A   1      30.169  25.109  25.476  1.00  0.00    -0.346 N 
ATOM     23  H   UNL A   1      29.436  24.701  25.992  1.00  0.00     0.164 HD
ATOM     24  O   UNL A   1      31.418  24.322  27.099  1.00  0.00    -0.273 OA
BRANCH  22  25
ATOM     25  C   UNL A   1      29.741  25.759  24.238  1.00  0.00     0.128 C 
BRANCH  25  26
ATOM     26  C   UNL A   1      30.135  27.246  24.326  1.00  0.00     0.034 C 
BRANCH  26  27
ATOM     27  C   UNL A   1      29.595  28.217  23.255  1.00  0.00    -0.015 C 
ATOM     28  C   UNL A   1      28.084  28.249  23.163  1.00  0.00     0.007 C 
ATOM     29  C   UNL A   1      30.078  29.639  23.553  1.00  0.00     0.007 C 
ENDBRANCH  26  27
ENDBRANCH  25  26
BRANCH  25  30
ATOM     30  C   UNL A   1      30.397  24.950  23.109  1.00  0.00     0.064 C 
ATOM     31  O   UNL A   1      30.444  23.729  23.046  1.00  0.00    -0.548 OA
ATOM     32  O   UNL A   1      31.030  25.678  22.173  1.00  0.00    -0.548 OA
ENDBRANCH  25  30
ENDBRANCH  22  25
ENDBRANCH  20  21
BRANCH  20  33
ATOM     33  C   UNL A   1      32.699  27.173  26.003  1.00  0.00     0.015 C 
ATOM     34  C   UNL A   1      32.050  27.536  27.344  1.00  0.00     0.010 C 
ATOM     35  C   UNL A   1      34.162  27.633  26.063  1.00  0.00     0.010 C 
ENDBRANCH  20  33
ENDBRANCH  17  20
ENDBRANCH   4  16
ENDBRANCH   2   3
ENDBRANCH   1   2
BRANCH   1  36
ATOM     36  C   UNL A   1      40.095  22.445  27.066  1.00  0.00     0.004 C 
BRANCH  36  37
ATOM     37  C   UNL A   1      41.287  22.218  28.000  1.00  0.00     0.002 C 
BRANCH  37  38
ATOM     38  C   UNL A   1      42.651  22.146  27.308  1.00  0.00     0.021 C 
BRANCH  38  39
ATOM     39  C   UNL A   1      43.389  23.478  27.201  1.00  0.00     0.116 C 
BRANCH  39  40
ATOM     40  N   UNL A   1      42.975  24.249  26.037  1.00  0.00    -0.352 N 
ATOM     41  C   UNL A   1      42.381  25.488  25.991  1.00  0.00     0.251 C 
ATOM     42  H   UNL A   1      43.144  23.825  25.164  1.00  0.00     0.163 HD
ATOM     43  O   UNL A   1      41.919  25.914  24.934  1.00  0.00    -0.269 OA
BRANCH  41  44
ATOM     44  C   UNL A   1      42.280  26.296  27.225  1.00  0.00     0.039 A 
ATOM     45  C   UNL A   1      43.140  27.383  27.404  1.00  0.00     0.014 A 
ATOM     46  C   UNL A   1      41.317  25.994  28.191  1.00  0.00     0.014 A 
ATOM     47  C   UNL A   1      42.982  28.213  28.518  1.00  0.00     0.010 A 
ATOM     48  C   UNL A   1      41.116  26.862  29.261  1.00  0.00     0.010 A 
ATOM     49  C   UNL A   1      41.943  27.984  29.434  1.00  0.00    -0.014 A 
BRANCH  49  50
ATOM     50  C   UNL A   1      41.688  28.907  30.572  1.00  0.00     0.031 A 
ATOM     51  C   UNL A   1      42.519  28.812  31.823  1.00  0.00     0.074 A 
ATOM     52  C   UNL A   1      40.655  29.773  30.512  1.00  0.00     0.049 A 
ATOM     53  N   UNL A   1      42.383  29.452  32.956  1.00  0.00    -0.248 NA
ATOM     54  C   UNL A   1      43.633  27.850  31.808  1.00  0.00     0.031 C 
ATOM     55  C   UNL A   1      39.749  29.931  29.372  1.00  0.00     0.029 A 
ATOM     56  N   UNL A   1      40.182  30.671  31.436  1.00  0.00    -0.354 N 
ATOM     57  C   UNL A   1      43.377  28.959  33.792  1.00  0.00     0.074 A 
ATOM     58  C   UNL A   1      44.077  27.930  33.053  1.00  0.00     0.031 C 
ATOM     59  C   UNL A   1      38.840  30.877  29.659  1.00  0.00     0.029 A 
ATOM     60  C   UNL A   1      39.068  31.361  31.017  1.00  0.00     0.049 A 
ATOM     61  H   UNL A   1      40.599  30.807  32.317  1.00  0.00     0.167 HD
ATOM     62  C   UNL A   1      43.693  29.343  35.053  1.00  0.00     0.037 A 
ATOM     63  C   UNL A   1      38.306  32.271  31.657  1.00  0.00     0.037 A 
ATOM     64  C   UNL A   1      43.004  30.382  35.774  1.00  0.00     0.049 A 
ATOM     65  C   UNL A   1      38.669  32.675  33.061  1.00  0.00     0.074 A 
ATOM     66  C   UNL A   1      43.284  30.884  37.033  1.00  0.00     0.029 A 
ATOM     67  N   UNL A   1      41.899  31.077  35.305  1.00  0.00    -0.354 N 
ATOM     68  N   UNL A   1      39.652  32.242  33.816  1.00  0.00    -0.248 NA
ATOM     69  C   UNL A   1      37.826  33.694  33.701  1.00  0.00     0.031 C 
ATOM     70  C   UNL A   1      42.315  31.842  37.347  1.00  0.00     0.029 A 
ATOM     71  C   UNL A   1      41.469  31.985  36.259  1.00  0.00     0.049 A 
ATOM     72  H   UNL A   1      41.480  30.943  34.424  1.00  0.00     0.167 HD
ATOM     73  C   UNL A   1      39.566  32.961  35.003  1.00  0.00     0.074 A 
ATOM     74  C   UNL A   1      38.439  33.860  34.865  1.00  0.00     0.031 C 
ATOM     75  C   UNL A   1      40.352  32.885  36.105  1.00  0.00     0.037 A 
BRANCH  62  76
ATOM     76  C   UNL A   1      44.830  28.633  35.737  1.00  0.00     0.058 A 
ATOM     77  C   UNL A   1      44.622  27.490  36.527  1.00  0.00     0.135 A 
ATOM     78  C   UNL A   1      46.152  29.079  35.573  1.00  0.00     0.135 A 
ATOM     79  F   UNL A   1      43.378  27.026  36.731  1.00  0.00    -0.206 F 
ATOM     80  C   UNL A   1      45.676  26.836  37.155  1.00  0.00     0.059 A 
ATOM     81  C   UNL A   1      47.226  28.420  36.165  1.00  0.00     0.059 A 
ATOM     82  F   UNL A   1      46.412  30.166  34.829  1.00  0.00    -0.206 F 
ATOM     83  C   UNL A   1      46.976  27.309  36.967  1.00  0.00     0.060 A 
BRANCH  83  84
ATOM     84  S   UNL A   1      48.333  26.446  37.788  1.00  0.00     0.124 S 
ATOM     85  O   UNL A   1      47.997  25.052  37.516  1.00  0.00    -0.237 OA
ATOM     86  O   UNL A   1      49.502  26.966  37.087  1.00  0.00    -0.237 OA
ATOM     87  O   UNL A   1      48.206  26.861  39.182  1.00  0.00    -0.744 OA
ENDBRANCH  83  84
ENDBRANCH  62  76
BRANCH  63  88
ATOM     88  C   UNL A   1      37.131  32.871  30.969  1.00  0.00     0.058 A 
ATOM     89  C   UNL A   1      37.291  33.908  30.038  1.00  0.00     0.135 A 
ATOM     90  C   UNL A   1      35.827  32.411  31.215  1.00  0.00     0.135 A 
ATOM     91  F   UNL A   1      38.516  34.389  29.773  1.00  0.00    -0.206 F 
ATOM     92  C   UNL A   1      36.202  34.478  29.386  1.00  0.00     0.059 A 
ATOM     93  C   UNL A   1      34.726  32.946  30.555  1.00  0.00     0.059 A 
ATOM     94  F   UNL A   1      35.620  31.410  32.084  1.00  0.00    -0.206 F 
ATOM     95  C   UNL A   1      34.922  33.987  29.649  1.00  0.00     0.060 A 
BRANCH  95  96
ATOM     96  S   UNL A   1      33.522  34.697  28.757  1.00  0.00     0.124 S 
ATOM     97  O   UNL A   1      34.130  35.872  28.143  1.00  0.00    -0.237 OA
ATOM     98  O   UNL A   1      33.159  33.614  27.847  1.00  0.00    -0.237 OA
ATOM     99  O   UNL A   1      32.553  34.967  29.815  1.00  0.00    -0.744 OA
ENDBRANCH  95  96
ENDBRANCH  63  88
BRANCH  75 100
ATOM    100  C   UNL A   1      40.060  33.831  37.238  1.00  0.00     0.058 A 
ATOM    101  C   UNL A   1      40.603  35.123  37.288  1.00  0.00     0.135 A 
ATOM    102  C   UNL A   1      39.168  33.456  38.257  1.00  0.00     0.135 A 
ATOM    103  F   UNL A   1      41.465  35.531  36.343  1.00  0.00    -0.206 F 
ATOM    104  C   UNL A   1      40.289  36.004  38.318  1.00  0.00     0.059 A 
ATOM    105  C   UNL A   1      38.815  34.330  39.280  1.00  0.00     0.059 A 
ATOM    106  F   UNL A   1      38.612  32.233  38.254  1.00  0.00    -0.206 F 
ATOM    107  C   UNL A   1      39.389  35.600  39.307  1.00  0.00     0.060 A 
BRANCH 107 108
ATOM    108  S   UNL A   1      38.956  36.769  40.614  1.00  0.00     0.124 S 
ATOM    109  O   UNL A   1      40.251  36.996  41.246  1.00  0.00    -0.237 OA
ATOM    110  O   UNL A   1      38.413  37.893  39.858  1.00  0.00    -0.237 OA
ATOM    111  O   UNL A   1      37.985  36.035  41.418  1.00  0.00    -0.744 OA
ENDBRANCH 107 108
ENDBRANCH  75 100
ENDBRANCH  49  50
ENDBRANCH  41  44
ENDBRANCH  39  40
ENDBRANCH  38  39
ENDBRANCH  37  38
ENDBRANCH  36  37
ENDBRANCH   1  36
TORSDOF 23
ENDMDL
MODEL 3
REMARK VINA RESULT:     -11.1      6.208     11.855
REMARK SMILES CC(C)C[C@H](NC(=O)[C@@H](NC(=O)N1CC(NCCCCCCNC(=O)c2ccc(-c3c4nc(c(-c5c(F)cc(S(=O)(=O)[O-])cc5F)c5ccc([nH]5)c(-c5c(F)cc(S(=O)(=O)[O-])cc5F)c5nc(c(-c6c(F)cc(S(=O)(=O)[O-])cc6F)c6ccc3[nH]6)C=C5)C=C4)cc2)=[NH+]c2ccccc21)C(C)C)C(=O)[O-]
REMARK SMILES IDX 18 1 17 2 16 3 13 4 14 5 98 6 15 7 93 8 97 9 92 10 94 11
REMARK SMILES IDX 96 12 95 15 11 16 10 17 12 19 9 20 7 21 6 22 8 24 5 25 4 26
REMARK SMILES IDX 2 27 1 28 3 29 102 30 103 31 104 32 99 33 100 34 101 35
REMARK SMILES IDX 19 36 20 37 21 38 22 39 23 40 24 41 25 43 26 44 27 45 91 46
REMARK SMILES IDX 28 47 90 48 29 49 30 50 31 51 84 52 32 53 89 54 83 55 85 56
REMARK SMILES IDX 33 57 88 58 82 59 81 60 34 62 68 63 47 64 67 65 48 66 51 67
REMARK SMILES IDX 66 68 86 69 49 70 50 71 65 73 87 74 52 75 35 76 36 77 45 78
REMARK SMILES IDX 37 79 38 80 44 81 46 82 39 83 40 84 41 85 42 86 43 87 69 88
REMARK SMILES IDX 70 89 79 90 71 91 72 92 78 93 80 94 73 95 74 96 75 97 76 98
REMARK SMILES IDX 77 99 53 100 54 101 63 102 55 103 56 104 62 105 64 106
REMARK SMILES IDX 57 107 58 108 59 109 60 110 61 111
REMARK H PARENT 16 13 92 14 10 18 6 23 23 42 85 61 51 72
REMARK Flexibility Score: inf
ROOT
ATOM      1  C   UNL A   1      38.701  23.511  26.683  1.00  0.00     0.046 C 
ENDROOT
BRANCH   1   2
ATOM      2  C   UNL A   1      37.507  23.701  25.741  1.00  0.00     0.233 C 
BRANCH   2   3
ATOM      3  N   UNL A   1      36.391  22.869  26.134  1.00  0.00    -0.277 N 
ATOM      4  N   UNL A   1      33.927  22.312  23.619  1.00  0.00    -0.278 N 
ATOM      5  C   UNL A   1      35.373  22.370  23.847  1.00  0.00     0.255 C 
ATOM      6  C   UNL A   1      33.446  21.017  23.920  1.00  0.00     0.093 A 
ATOM      7  C   UNL A   1      35.551  22.113  25.350  1.00  0.00     0.268 C 
ATOM      8  C   UNL A   1      33.953  20.443  25.110  1.00  0.00     0.148 A 
ATOM      9  C   UNL A   1      32.552  20.326  23.104  1.00  0.00     0.031 A 
ATOM     10  N   UNL A   1      34.875  21.149  25.930  1.00  0.00    -0.241 N 
ATOM     11  C   UNL A   1      33.444  19.218  25.530  1.00  0.00     0.054 A 
ATOM     12  C   UNL A   1      32.092  19.075  23.515  1.00  0.00     0.002 A 
ATOM     13  H   UNL A   1      36.205  22.840  27.100  1.00  0.00     0.304 HD
ATOM     14  H   UNL A   1      35.000  20.926  26.880  1.00  0.00     0.312 HD
ATOM     15  C   UNL A   1      32.513  18.539  24.737  1.00  0.00     0.005 A 
BRANCH   4  16
ATOM     16  C   UNL A   1      33.288  23.237  22.859  1.00  0.00     0.323 C 
ATOM     17  N   UNL A   1      32.472  24.174  23.410  1.00  0.00    -0.326 N 
ATOM     18  H   UNL A   1      32.150  24.784  22.707  1.00  0.00     0.166 HD
ATOM     19  O   UNL A   1      33.511  23.346  21.650  1.00  0.00    -0.248 OA
BRANCH  17  20
ATOM     20  C   UNL A   1      31.902  24.588  24.729  1.00  0.00     0.175 C 
BRANCH  20  21
ATOM     21  C   UNL A   1      32.892  25.010  25.847  1.00  0.00     0.243 C 
ATOM     22  N   UNL A   1      33.311  26.278  26.049  1.00  0.00    -0.346 N 
ATOM     23  H   UNL A   1      34.050  26.359  26.694  1.00  0.00     0.164 HD
ATOM     24  O   UNL A   1      33.465  24.140  26.516  1.00  0.00    -0.273 OA
BRANCH  22  25
ATOM     25  C   UNL A   1      32.866  27.551  25.483  1.00  0.00     0.128 C 
BRANCH  25  26
ATOM     26  C   UNL A   1      31.380  27.405  25.103  1.00  0.00     0.034 C 
BRANCH  26  27
ATOM     27  C   UNL A   1      30.801  28.338  24.018  1.00  0.00    -0.015 C 
ATOM     28  C   UNL A   1      31.818  28.792  22.994  1.00  0.00     0.007 C 
ATOM     29  C   UNL A   1      29.668  27.626  23.274  1.00  0.00     0.007 C 
ENDBRANCH  26  27
ENDBRANCH  25  26
BRANCH  25  30
ATOM     30  C   UNL A   1      33.193  28.605  26.551  1.00  0.00     0.064 C 
ATOM     31  O   UNL A   1      32.941  28.507  27.744  1.00  0.00    -0.548 OA
ATOM     32  O   UNL A   1      33.726  29.749  26.087  1.00  0.00    -0.548 OA
ENDBRANCH  25  30
ENDBRANCH  22  25
ENDBRANCH  20  21
BRANCH  20  33
ATOM     33  C   UNL A   1      30.697  23.801  25.287  1.00  0.00     0.015 C 
ATOM     34  C   UNL A   1      30.944  22.393  25.842  1.00  0.00     0.010 C 
ATOM     35  C   UNL A   1      30.048  24.627  26.406  1.00  0.00     0.010 C 
ENDBRANCH  20  33
ENDBRANCH  17  20
ENDBRANCH   4  16
ENDBRANCH   2   3
ENDBRANCH   1   2
BRANCH   1  36
ATOM     36  C   UNL A   1      39.499  22.218  26.491  1.00  0.00     0.004 C 
BRANCH  36  37
ATOM     37  C   UNL A   1      40.604  21.982  27.524  1.00  0.00     0.002 C 
BRANCH  37  38
ATOM     38  C   UNL A   1      42.031  22.026  26.973  1.00  0.00     0.021 C 
BRANCH  38  39
ATOM     39  C   UNL A   1      42.701  23.397  27.030  1.00  0.00     0.116 C 
BRANCH  39  40
ATOM     40  N   UNL A   1      42.279  24.266  25.940  1.00  0.00    -0.352 N 
ATOM     41  C   UNL A   1      41.703  25.512  26.005  1.00  0.00     0.251 C 
ATOM     42  H   UNL A   1      42.427  23.912  25.033  1.00  0.00     0.163 HD
ATOM     43  O   UNL A   1      41.230  26.029  24.994  1.00  0.00    -0.269 OA
BRANCH  41  44
ATOM     44  C   UNL A   1      41.636  26.219  27.302  1.00  0.00     0.039 A 
ATOM     45  C   UNL A   1      42.541  27.249  27.568  1.00  0.00     0.014 A 
ATOM     46  C   UNL A   1      40.658  25.879  28.241  1.00  0.00     0.014 A 
ATOM     47  C   UNL A   1      42.418  27.989  28.748  1.00  0.00     0.010 A 
ATOM     48  C   UNL A   1      40.494  26.663  29.381  1.00  0.00     0.010 A 
ATOM     49  C   UNL A   1      41.369  27.730  29.645  1.00  0.00    -0.014 A 
BRANCH  49  50
ATOM     50  C   UNL A   1      41.152  28.566  30.855  1.00  0.00     0.031 A 
ATOM     51  C   UNL A   1      40.064  29.605  30.871  1.00  0.00     0.074 A 
ATOM     52  C   UNL A   1      41.988  28.449  31.907  1.00  0.00     0.049 A 
ATOM     53  N   UNL A   1      39.788  30.499  31.785  1.00  0.00    -0.248 NA
ATOM     54  C   UNL A   1      39.188  29.666  29.689  1.00  0.00     0.031 C 
ATOM     55  C   UNL A   1      43.108  27.510  31.997  1.00  0.00     0.029 A 
ATOM     56  N   UNL A   1      42.038  29.135  33.096  1.00  0.00    -0.354 N 
ATOM     57  C   UNL A   1      38.723  31.238  31.284  1.00  0.00     0.074 A 
ATOM     58  C   UNL A   1      38.436  30.721  29.964  1.00  0.00     0.031 C 
ATOM     59  C   UNL A   1      43.724  27.669  33.180  1.00  0.00     0.029 A 
ATOM     60  C   UNL A   1      43.074  28.750  33.914  1.00  0.00     0.049 A 
ATOM     61  H   UNL A   1      41.393  29.838  33.338  1.00  0.00     0.167 HD
ATOM     62  C   UNL A   1      38.033  32.242  31.879  1.00  0.00     0.037 A 
ATOM     63  C   UNL A   1      43.467  29.222  35.114  1.00  0.00     0.037 A 
ATOM     64  C   UNL A   1      38.312  32.737  33.202  1.00  0.00     0.049 A 
ATOM     65  C   UNL A   1      42.692  30.345  35.751  1.00  0.00     0.074 A 
ATOM     66  C   UNL A   1      37.634  33.710  33.916  1.00  0.00     0.029 A 
ATOM     67  N   UNL A   1      39.352  32.303  34.010  1.00  0.00    -0.354 N 
ATOM     68  N   UNL A   1      41.648  30.991  35.289  1.00  0.00    -0.248 NA
ATOM     69  C   UNL A   1      43.142  30.799  37.074  1.00  0.00     0.031 C 
ATOM     70  C   UNL A   1      38.298  33.903  35.131  1.00  0.00     0.029 A 
ATOM     71  C   UNL A   1      39.351  33.005  35.204  1.00  0.00     0.049 A 
ATOM     72  H   UNL A   1      39.998  31.599  33.770  1.00  0.00     0.167 HD
ATOM     73  C   UNL A   1      41.297  31.903  36.278  1.00  0.00     0.074 A 
ATOM     74  C   UNL A   1      42.235  31.721  37.366  1.00  0.00     0.031 C 
ATOM     75  C   UNL A   1      40.284  32.805  36.286  1.00  0.00     0.037 A 
BRANCH  62  76
ATOM     76  C   UNL A   1      36.910  32.876  31.102  1.00  0.00     0.058 A 
ATOM     77  C   UNL A   1      37.153  33.783  30.057  1.00  0.00     0.135 A 
ATOM     78  C   UNL A   1      35.574  32.547  31.380  1.00  0.00     0.135 A 
ATOM     79  F   UNL A   1      38.410  34.147  29.755  1.00  0.00    -0.206 F 
ATOM     80  C   UNL A   1      36.113  34.364  29.340  1.00  0.00     0.059 A 
ATOM     81  C   UNL A   1      34.518  33.090  30.654  1.00  0.00     0.059 A 
ATOM     82  F   UNL A   1      35.281  31.685  32.368  1.00  0.00    -0.206 F 
ATOM     83  C   UNL A   1      34.797  34.011  29.646  1.00  0.00     0.060 A 
BRANCH  83  84
ATOM     84  S   UNL A   1      33.460  34.774  28.704  1.00  0.00     0.124 S 
ATOM     85  O   UNL A   1      32.520  35.122  29.765  1.00  0.00    -0.237 OA
ATOM     86  O   UNL A   1      34.133  35.897  28.060  1.00  0.00    -0.237 OA
ATOM     87  O   UNL A   1      33.025  33.708  27.806  1.00  0.00    -0.744 OA
ENDBRANCH  83  84
ENDBRANCH  62  76
BRANCH  63  88
ATOM     88  C   UNL A   1      44.647  28.624  35.797  1.00  0.00     0.058 A 
ATOM     89  C   UNL A   1      45.936  29.139  35.596  1.00  0.00     0.135 A 
ATOM     90  C   UNL A   1      44.508  27.537  36.674  1.00  0.00     0.135 A 
ATOM     91  F   UNL A   1      46.123  30.173  34.761  1.00  0.00    -0.206 F 
ATOM     92  C   UNL A   1      47.047  28.591  36.229  1.00  0.00     0.059 A 
ATOM     93  C   UNL A   1      45.599  26.989  37.340  1.00  0.00     0.059 A 
ATOM     94  F   UNL A   1      43.294  27.016  36.914  1.00  0.00    -0.206 F 
ATOM     95  C   UNL A   1      46.868  27.517  37.103  1.00  0.00     0.060 A 
BRANCH  95  96
ATOM     96  S   UNL A   1      48.310  26.848  37.959  1.00  0.00     0.124 S 
ATOM     97  O   UNL A   1      49.234  27.975  37.903  1.00  0.00    -0.237 OA
ATOM     98  O   UNL A   1      47.763  26.533  39.276  1.00  0.00    -0.237 OA
ATOM     99  O   UNL A   1      48.675  25.691  37.148  1.00  0.00    -0.744 OA
ENDBRANCH  95  96
ENDBRANCH  63  88
BRANCH  75 100
ATOM    100  C   UNL A   1      40.100  33.638  37.526  1.00  0.00     0.058 A 
ATOM    101  C   UNL A   1      40.874  34.781  37.776  1.00  0.00     0.135 A 
ATOM    102  C   UNL A   1      39.087  33.320  38.445  1.00  0.00     0.135 A 
ATOM    103  F   UNL A   1      41.861  35.128  36.934  1.00  0.00    -0.206 F 
ATOM    104  C   UNL A   1      40.664  35.569  38.904  1.00  0.00     0.059 A 
ATOM    105  C   UNL A   1      38.838  34.110  39.563  1.00  0.00     0.059 A 
ATOM    106  F   UNL A   1      38.309  32.242  38.249  1.00  0.00    -0.206 F 
ATOM    107  C   UNL A   1      39.639  35.228  39.789  1.00  0.00     0.060 A 
BRANCH 107 108
ATOM    108  S   UNL A   1      39.348  36.283  41.225  1.00  0.00     0.124 S 
ATOM    109  O   UNL A   1      38.597  35.390  42.100  1.00  0.00    -0.237 OA
ATOM    110  O   UNL A   1      40.706  36.600  41.657  1.00  0.00    -0.237 OA
ATOM    111  O   UNL A   1      38.594  37.405  40.676  1.00  0.00    -0.744 OA
ENDBRANCH 107 108
ENDBRANCH  75 100
ENDBRANCH  49  50
ENDBRANCH  41  44
ENDBRANCH  39  40
ENDBRANCH  38  39
ENDBRANCH  37  38
ENDBRANCH  36  37
ENDBRANCH   1  36
TORSDOF 23
ENDMDL
