MODEL 1
REMARK VINA RESULT:      -9.5      0.000      0.000
REMARK SMILES O=C(CCCC[C@@H]1CCSS1)NCCCCCCNC(=O)c1ccc(-c2c3nc(c(-c4c(F)cc(S(=O)(=O)[O-])cc4F)c4ccc([nH]4)c(-c4c(F)cc(S(=O)(=O)[O-])cc4F)c4nc(c(-c5c(F)cc(S(=O)(=O)[O-])cc5F)c5ccc2[nH]5)C=C4)C=C3)cc1
REMARK SMILES IDX 15 1 14 2 13 3 12 4 1 5 2 6 3 8 4 9 5 10 6 11 7 12 8 13
REMARK SMILES IDX 11 14 9 15 10 16 16 17 17 18 18 19 19 20 20 21 21 23 22 24
REMARK SMILES IDX 23 25 87 26 24 27 86 28 25 29 26 30 27 31 80 32 28 33 85 34
REMARK SMILES IDX 79 35 81 36 29 37 84 38 78 39 77 40 30 42 64 43 43 44 63 45
REMARK SMILES IDX 44 46 47 47 62 48 82 49 45 50 46 51 61 53 83 54 48 55 31 56
REMARK SMILES IDX 32 57 41 58 33 59 34 60 40 61 42 62 35 63 36 64 37 65 38 66
REMARK SMILES IDX 39 67 65 68 66 69 75 70 67 71 68 72 74 73 76 74 69 75 70 76
REMARK SMILES IDX 71 77 72 78 73 79 49 80 50 81 59 82 51 83 52 84 58 85 60 86
REMARK SMILES IDX 53 87 54 88 55 89 56 90 57 91
REMARK H PARENT 12 7 19 22 81 41 47 52
REMARK Flexibility Score: inf
ROOT
ATOM      1  C   UNL A   1      45.792  21.121  25.686  1.00  0.00     0.002 C 
ENDROOT
BRANCH   1   2
ATOM      2  C   UNL A   1      45.701  20.399  24.332  1.00  0.00     0.021 C 
BRANCH   2   3
ATOM      3  C   UNL A   1      44.742  19.209  24.299  1.00  0.00     0.116 C 
BRANCH   3   4
ATOM      4  N   UNL A   1      43.449  19.575  24.837  1.00  0.00    -0.356 N 
ATOM      5  O   UNL A   1      43.193  17.806  26.281  1.00  0.00    -0.275 OA
ATOM      6  C   UNL A   1      42.779  18.849  25.789  1.00  0.00     0.219 C 
ATOM      7  H   UNL A   1      43.024  20.395  24.498  1.00  0.00     0.163 HD
BRANCH   6   8
ATOM      8  C   UNL A   1      41.434  19.444  26.165  1.00  0.00     0.100 C 
BRANCH   8   9
ATOM      9  C   UNL A   1      41.531  20.630  27.126  1.00  0.00     0.010 C 
BRANCH   9  10
ATOM     10  C   UNL A   1      41.096  21.997  26.586  1.00  0.00     0.002 C 
BRANCH  10  11
ATOM     11  C   UNL A   1      39.701  22.506  26.979  1.00  0.00     0.015 C 
BRANCH  11  12
ATOM     12  C   UNL A   1      38.754  22.757  25.795  1.00  0.00     0.059 C 
ATOM     13  C   UNL A   1      37.644  23.771  26.103  1.00  0.00     0.027 C 
ATOM     14  S   UNL A   1      37.897  21.198  25.361  1.00  0.00    -0.091 SA
ATOM     15  C   UNL A   1      36.573  23.731  25.019  1.00  0.00     0.083 C 
ATOM     16  S   UNL A   1      36.090  22.002  24.838  1.00  0.00    -0.094 SA
ENDBRANCH  11  12
ENDBRANCH  10  11
ENDBRANCH   9  10
ENDBRANCH   8   9
ENDBRANCH   6   8
ENDBRANCH   3   4
ENDBRANCH   2   3
ENDBRANCH   1   2
BRANCH   1  17
ATOM     17  C   UNL A   1      45.145  22.508  25.735  1.00  0.00     0.002 C 
BRANCH  17  18
ATOM     18  C   UNL A   1      45.148  23.176  27.111  1.00  0.00     0.021 C 
BRANCH  18  19
ATOM     19  C   UNL A   1      44.287  24.432  27.222  1.00  0.00     0.116 C 
BRANCH  19  20
ATOM     20  N   UNL A   1      43.396  24.600  26.084  1.00  0.00    -0.352 N 
ATOM     21  C   UNL A   1      42.260  25.364  25.972  1.00  0.00     0.251 C 
ATOM     22  H   UNL A   1      43.644  24.093  25.278  1.00  0.00     0.163 HD
ATOM     23  O   UNL A   1      41.545  25.248  24.978  1.00  0.00    -0.269 OA
BRANCH  21  24
ATOM     24  C   UNL A   1      41.880  26.299  27.054  1.00  0.00     0.039 A 
ATOM     25  C   UNL A   1      40.948  25.881  28.008  1.00  0.00     0.014 A 
ATOM     26  C   UNL A   1      42.432  27.582  27.132  1.00  0.00     0.014 A 
ATOM     27  C   UNL A   1      40.624  26.721  29.075  1.00  0.00     0.010 A 
ATOM     28  C   UNL A   1      42.165  28.388  28.238  1.00  0.00     0.010 A 
ATOM     29  C   UNL A   1      41.261  27.966  29.223  1.00  0.00    -0.014 A 
BRANCH  29  30
ATOM     30  C   UNL A   1      41.010  28.811  30.421  1.00  0.00     0.031 A 
ATOM     31  C   UNL A   1      41.831  28.644  31.670  1.00  0.00     0.074 A 
ATOM     32  C   UNL A   1      40.000  29.705  30.396  1.00  0.00     0.049 A 
ATOM     33  N   UNL A   1      41.750  29.292  32.805  1.00  0.00    -0.248 NA
ATOM     34  C   UNL A   1      42.862  27.594  31.653  1.00  0.00     0.031 C 
ATOM     35  C   UNL A   1      39.095  29.924  29.265  1.00  0.00     0.029 A 
ATOM     36  N   UNL A   1      39.563  30.596  31.345  1.00  0.00    -0.354 N 
ATOM     37  C   UNL A   1      42.710  28.727  33.636  1.00  0.00     0.074 A 
ATOM     38  C   UNL A   1      43.321  27.645  32.895  1.00  0.00     0.031 C 
ATOM     39  C   UNL A   1      38.239  30.911  29.571  1.00  0.00     0.029 A 
ATOM     40  C   UNL A   1      38.503  31.368  30.931  1.00  0.00     0.049 A 
ATOM     41  H   UNL A   1      39.970  30.674  32.238  1.00  0.00     0.167 HD
ATOM     42  C   UNL A   1      43.064  29.090  34.893  1.00  0.00     0.037 A 
ATOM     43  C   UNL A   1      37.820  32.336  31.572  1.00  0.00     0.037 A 
ATOM     44  C   UNL A   1      42.455  30.175  35.622  1.00  0.00     0.049 A 
ATOM     45  C   UNL A   1      38.223  32.715  32.970  1.00  0.00     0.074 A 
ATOM     46  C   UNL A   1      42.787  30.665  36.873  1.00  0.00     0.029 A 
ATOM     47  N   UNL A   1      41.380  30.929  35.172  1.00  0.00    -0.354 N 
ATOM     48  N   UNL A   1      39.189  32.226  33.711  1.00  0.00    -0.248 NA
ATOM     49  C   UNL A   1      37.448  33.781  33.617  1.00  0.00     0.031 C 
ATOM     50  C   UNL A   1      41.875  31.673  37.205  1.00  0.00     0.029 A 
ATOM     51  C   UNL A   1      41.013  31.856  36.137  1.00  0.00     0.049 A 
ATOM     52  H   UNL A   1      40.942  30.822  34.297  1.00  0.00     0.167 HD
ATOM     53  C   UNL A   1      39.152  32.940  34.904  1.00  0.00     0.074 A 
ATOM     54  C   UNL A   1      38.080  33.907  34.776  1.00  0.00     0.031 C 
ATOM     55  C   UNL A   1      39.935  32.807  36.004  1.00  0.00     0.037 A 
BRANCH  42  56
ATOM     56  C   UNL A   1      44.155  28.296  35.567  1.00  0.00     0.058 A 
ATOM     57  C   UNL A   1      45.512  28.631  35.423  1.00  0.00     0.135 A 
ATOM     58  C   UNL A   1      43.839  27.197  36.382  1.00  0.00     0.135 A 
ATOM     59  F   UNL A   1      45.876  29.664  34.649  1.00  0.00    -0.206 F 
ATOM     60  C   UNL A   1      46.516  27.877  36.025  1.00  0.00     0.059 A 
ATOM     61  C   UNL A   1      44.824  26.451  37.021  1.00  0.00     0.059 A 
ATOM     62  F   UNL A   1      42.558  26.833  36.560  1.00  0.00    -0.206 F 
ATOM     63  C   UNL A   1      46.162  26.786  36.819  1.00  0.00     0.060 A 
BRANCH  63  64
ATOM     64  S   UNL A   1      47.477  25.809  37.578  1.00  0.00     0.124 S 
ATOM     65  O   UNL A   1      47.486  24.623  36.726  1.00  0.00    -0.237 OA
ATOM     66  O   UNL A   1      48.634  26.689  37.449  1.00  0.00    -0.237 OA
ATOM     67  O   UNL A   1      47.002  25.597  38.941  1.00  0.00    -0.744 OA
ENDBRANCH  63  64
ENDBRANCH  42  56
BRANCH  43  68
ATOM     68  C   UNL A   1      36.706  33.036  30.878  1.00  0.00     0.058 A 
ATOM     69  C   UNL A   1      35.370  32.785  31.226  1.00  0.00     0.135 A 
ATOM     70  C   UNL A   1      36.950  33.993  29.881  1.00  0.00     0.135 A 
ATOM     71  F   UNL A   1      35.083  31.873  32.167  1.00  0.00    -0.206 F 
ATOM     72  C   UNL A   1      34.318  33.451  30.609  1.00  0.00     0.059 A 
ATOM     73  C   UNL A   1      35.917  34.693  29.268  1.00  0.00     0.059 A 
ATOM     74  F   UNL A   1      38.212  34.281  29.522  1.00  0.00    -0.206 F 
ATOM     75  C   UNL A   1      34.602  34.411  29.635  1.00  0.00     0.060 A 
BRANCH  75  76
ATOM     76  S   UNL A   1      33.230  35.322  28.893  1.00  0.00     0.124 S 
ATOM     77  O   UNL A   1      33.934  36.293  28.064  1.00  0.00    -0.237 OA
ATOM     78  O   UNL A   1      32.517  34.268  28.178  1.00  0.00    -0.237 OA
ATOM     79  O   UNL A   1      32.527  35.870  30.050  1.00  0.00    -0.744 OA
ENDBRANCH  75  76
ENDBRANCH  43  68
BRANCH  55  80
ATOM     80  C   UNL A   1      39.673  33.743  37.154  1.00  0.00     0.058 A 
ATOM     81  C   UNL A   1      38.818  33.394  38.212  1.00  0.00     0.135 A 
ATOM     82  C   UNL A   1      40.308  34.995  37.213  1.00  0.00     0.135 A 
ATOM     83  F   UNL A   1      38.180  32.213  38.205  1.00  0.00    -0.206 F 
ATOM     84  C   UNL A   1      38.575  34.266  39.269  1.00  0.00     0.059 A 
ATOM     85  C   UNL A   1      40.105  35.869  38.277  1.00  0.00     0.059 A 
ATOM     86  F   UNL A   1      41.144  35.376  36.235  1.00  0.00    -0.206 F 
ATOM     87  C   UNL A   1      39.224  35.502  39.293  1.00  0.00     0.060 A 
BRANCH  87  88
ATOM     88  S   UNL A   1      38.911  36.617  40.678  1.00  0.00     0.124 S 
ATOM     89  O   UNL A   1      40.256  36.802  41.216  1.00  0.00    -0.237 OA
ATOM     90  O   UNL A   1      38.327  37.780  40.017  1.00  0.00    -0.237 OA
ATOM     91  O   UNL A   1      37.995  35.859  41.525  1.00  0.00    -0.744 OA
ENDBRANCH  87  88
ENDBRANCH  55  80
ENDBRANCH  29  30
ENDBRANCH  21  24
ENDBRANCH  19  20
ENDBRANCH  18  19
ENDBRANCH  17  18
ENDBRANCH   1  17
TORSDOF 20
ENDMDL
MODEL 2
REMARK VINA RESULT:      -9.1      6.720     13.085
REMARK SMILES O=C(CCCC[C@@H]1CCSS1)NCCCCCCNC(=O)c1ccc(-c2c3nc(c(-c4c(F)cc(S(=O)(=O)[O-])cc4F)c4ccc([nH]4)c(-c4c(F)cc(S(=O)(=O)[O-])cc4F)c4nc(c(-c5c(F)cc(S(=O)(=O)[O-])cc5F)c5ccc2[nH]5)C=C4)C=C3)cc1
REMARK SMILES IDX 15 1 14 2 13 3 12 4 1 5 2 6 3 8 4 9 5 10 6 11 7 12 8 13
REMARK SMILES IDX 11 14 9 15 10 16 16 17 17 18 18 19 19 20 20 21 21 23 22 24
REMARK SMILES IDX 23 25 87 26 24 27 86 28 25 29 26 30 27 31 80 32 28 33 85 34
REMARK SMILES IDX 79 35 81 36 29 37 84 38 78 39 77 40 30 42 64 43 43 44 63 45
REMARK SMILES IDX 44 46 47 47 62 48 82 49 45 50 46 51 61 53 83 54 48 55 31 56
REMARK SMILES IDX 32 57 41 58 33 59 34 60 40 61 42 62 35 63 36 64 37 65 38 66
REMARK SMILES IDX 39 67 65 68 66 69 75 70 67 71 68 72 74 73 76 74 69 75 70 76
REMARK SMILES IDX 71 77 72 78 73 79 49 80 50 81 59 82 51 83 52 84 58 85 60 86
REMARK SMILES IDX 53 87 54 88 55 89 56 90 57 91
REMARK H PARENT 12 7 19 22 81 41 47 52
REMARK Flexibility Score: inf
ROOT
ATOM      1  C   UNL A   1      31.976  30.124  26.927  1.00  0.00     0.002 C 
ENDROOT
BRANCH   1   2
ATOM      2  C   UNL A   1      31.669  30.311  25.432  1.00  0.00     0.021 C 
BRANCH   2   3
ATOM      3  C   UNL A   1      31.610  29.018  24.619  1.00  0.00     0.116 C 
BRANCH   3   4
ATOM      4  N   UNL A   1      31.299  27.889  25.469  1.00  0.00    -0.356 N 
ATOM      5  O   UNL A   1      30.693  26.408  23.820  1.00  0.00    -0.275 OA
ATOM      6  C   UNL A   1      30.871  26.672  25.004  1.00  0.00     0.219 C 
ATOM      7  H   UNL A   1      31.400  28.002  26.441  1.00  0.00     0.163 HD
BRANCH   6   8
ATOM      8  C   UNL A   1      30.599  25.666  26.108  1.00  0.00     0.100 C 
BRANCH   8   9
ATOM      9  C   UNL A   1      31.373  24.356  25.955  1.00  0.00     0.010 C 
BRANCH   9  10
ATOM     10  C   UNL A   1      32.902  24.450  25.961  1.00  0.00     0.002 C 
BRANCH  10  11
ATOM     11  C   UNL A   1      33.692  23.229  25.463  1.00  0.00     0.015 C 
BRANCH  11  12
ATOM     12  C   UNL A   1      35.090  23.076  26.082  1.00  0.00     0.059 C 
ATOM     13  C   UNL A   1      36.120  24.063  25.516  1.00  0.00     0.027 C 
ATOM     14  S   UNL A   1      35.742  21.406  25.706  1.00  0.00    -0.091 SA
ATOM     15  C   UNL A   1      37.530  23.652  25.926  1.00  0.00     0.083 C 
ATOM     16  S   UNL A   1      37.710  21.914  25.475  1.00  0.00    -0.094 SA
ENDBRANCH  11  12
ENDBRANCH  10  11
ENDBRANCH   9  10
ENDBRANCH   8   9
ENDBRANCH   6   8
ENDBRANCH   3   4
ENDBRANCH   2   3
ENDBRANCH   1   2
BRANCH   1  17
ATOM     17  C   UNL A   1      33.298  30.730  27.406  1.00  0.00     0.002 C 
BRANCH  17  18
ATOM     18  C   UNL A   1      34.556  30.023  26.898  1.00  0.00     0.021 C 
BRANCH  18  19
ATOM     19  C   UNL A   1      35.390  29.333  27.975  1.00  0.00     0.116 C 
BRANCH  19  20
ATOM     20  N   UNL A   1      35.338  30.030  29.252  1.00  0.00    -0.352 N 
ATOM     21  C   UNL A   1      36.359  30.343  30.116  1.00  0.00     0.251 C 
ATOM     22  H   UNL A   1      34.442  30.320  29.537  1.00  0.00     0.163 HD
ATOM     23  O   UNL A   1      36.096  30.792  31.230  1.00  0.00    -0.269 OA
BRANCH  21  24
ATOM     24  C   UNL A   1      37.767  30.114  29.723  1.00  0.00     0.039 A 
ATOM     25  C   UNL A   1      38.677  29.694  30.696  1.00  0.00     0.014 A 
ATOM     26  C   UNL A   1      38.194  30.310  28.406  1.00  0.00     0.014 A 
ATOM     27  C   UNL A   1      39.996  29.407  30.335  1.00  0.00     0.010 A 
ATOM     28  C   UNL A   1      39.489  29.951  28.033  1.00  0.00     0.010 A 
ATOM     29  C   UNL A   1      40.403  29.493  28.992  1.00  0.00    -0.014 A 
BRANCH  29  30
ATOM     30  C   UNL A   1      41.770  29.073  28.583  1.00  0.00     0.031 A 
ATOM     31  C   UNL A   1      42.899  30.066  28.530  1.00  0.00     0.074 A 
ATOM     32  C   UNL A   1      41.982  27.794  28.210  1.00  0.00     0.049 A 
ATOM     33  N   UNL A   1      44.151  29.876  28.196  1.00  0.00    -0.248 NA
ATOM     34  C   UNL A   1      42.576  31.460  28.872  1.00  0.00     0.031 C 
ATOM     35  C   UNL A   1      40.957  26.749  28.164  1.00  0.00     0.029 A 
ATOM     36  N   UNL A   1      43.125  27.154  27.800  1.00  0.00    -0.354 N 
ATOM     37  C   UNL A   1      44.761  31.121  28.280  1.00  0.00     0.074 A 
ATOM     38  C   UNL A   1      43.730  32.070  28.640  1.00  0.00     0.031 C 
ATOM     39  C   UNL A   1      41.525  25.592  27.789  1.00  0.00     0.029 A 
ATOM     40  C   UNL A   1      42.942  25.819  27.526  1.00  0.00     0.049 A 
ATOM     41  H   UNL A   1      43.994  27.609  27.710  1.00  0.00     0.167 HD
ATOM     42  C   UNL A   1      46.066  31.441  28.095  1.00  0.00     0.037 A 
ATOM     43  C   UNL A   1      43.815  24.882  27.111  1.00  0.00     0.037 A 
ATOM     44  C   UNL A   1      47.089  30.488  27.744  1.00  0.00     0.049 A 
ATOM     45  C   UNL A   1      45.255  25.262  26.902  1.00  0.00     0.074 A 
ATOM     46  C   UNL A   1      48.449  30.700  27.600  1.00  0.00     0.029 A 
ATOM     47  N   UNL A   1      46.864  29.147  27.468  1.00  0.00    -0.354 N 
ATOM     48  N   UNL A   1      45.833  26.428  27.067  1.00  0.00    -0.248 NA
ATOM     49  C   UNL A   1      46.163  24.197  26.455  1.00  0.00     0.031 C 
ATOM     50  C   UNL A   1      49.036  29.502  27.178  1.00  0.00     0.029 A 
ATOM     51  C   UNL A   1      48.055  28.527  27.119  1.00  0.00     0.049 A 
ATOM     52  H   UNL A   1      45.988  28.700  27.513  1.00  0.00     0.167 HD
ATOM     53  C   UNL A   1      47.176  26.233  26.767  1.00  0.00     0.074 A 
ATOM     54  C   UNL A   1      47.327  24.832  26.428  1.00  0.00     0.031 C 
ATOM     55  C   UNL A   1      48.192  27.132  26.771  1.00  0.00     0.037 A 
BRANCH  42  56
ATOM     56  C   UNL A   1      46.458  32.888  28.257  1.00  0.00     0.058 A 
ATOM     57  C   UNL A   1      46.905  33.402  29.486  1.00  0.00     0.135 A 
ATOM     58  C   UNL A   1      46.403  33.770  27.165  1.00  0.00     0.135 A 
ATOM     59  F   UNL A   1      46.969  32.611  30.568  1.00  0.00    -0.206 F 
ATOM     60  C   UNL A   1      47.239  34.746  29.636  1.00  0.00     0.059 A 
ATOM     61  C   UNL A   1      46.765  35.108  27.284  1.00  0.00     0.059 A 
ATOM     62  F   UNL A   1      45.988  33.335  25.964  1.00  0.00    -0.206 F 
ATOM     63  C   UNL A   1      47.162  35.592  28.529  1.00  0.00     0.060 A 
BRANCH  63  64
ATOM     64  S   UNL A   1      47.582  37.334  28.746  1.00  0.00     0.124 S 
ATOM     65  O   UNL A   1      46.949  37.628  30.028  1.00  0.00    -0.237 OA
ATOM     66  O   UNL A   1      49.041  37.306  28.753  1.00  0.00    -0.237 OA
ATOM     67  O   UNL A   1      46.975  37.978  27.586  1.00  0.00    -0.744 OA
ENDBRANCH  63  64
ENDBRANCH  42  56
BRANCH  43  68
ATOM     68  C   UNL A   1      43.352  23.483  26.900  1.00  0.00     0.058 A 
ATOM     69  C   UNL A   1      43.155  22.978  25.607  1.00  0.00     0.135 A 
ATOM     70  C   UNL A   1      43.132  22.615  27.981  1.00  0.00     0.135 A 
ATOM     71  F   UNL A   1      43.344  23.770  24.541  1.00  0.00    -0.206 F 
ATOM     72  C   UNL A   1      42.751  21.665  25.391  1.00  0.00     0.059 A 
ATOM     73  C   UNL A   1      42.755  21.290  27.790  1.00  0.00     0.059 A 
ATOM     74  F   UNL A   1      43.322  23.045  29.238  1.00  0.00    -0.206 F 
ATOM     75  C   UNL A   1      42.561  20.825  26.490  1.00  0.00     0.060 A 
BRANCH  75  76
ATOM     76  S   UNL A   1      42.107  19.103  26.193  1.00  0.00     0.124 S 
ATOM     77  O   UNL A   1      43.033  18.732  25.128  1.00  0.00    -0.237 OA
ATOM     78  O   UNL A   1      42.355  18.493  27.496  1.00  0.00    -0.237 OA
ATOM     79  O   UNL A   1      40.702  19.188  25.807  1.00  0.00    -0.744 OA
ENDBRANCH  75  76
ENDBRANCH  43  68
BRANCH  55  80
ATOM     80  C   UNL A   1      49.565  26.625  26.416  1.00  0.00     0.058 A 
ATOM     81  C   UNL A   1      50.106  26.793  25.131  1.00  0.00     0.135 A 
ATOM     82  C   UNL A   1      50.361  25.986  27.381  1.00  0.00     0.135 A 
ATOM     83  F   UNL A   1      49.387  27.390  24.167  1.00  0.00    -0.206 F 
ATOM     84  C   UNL A   1      51.372  26.316  24.807  1.00  0.00     0.059 A 
ATOM     85  C   UNL A   1      51.643  25.531  27.088  1.00  0.00     0.059 A 
ATOM     86  F   UNL A   1      49.898  25.808  28.629  1.00  0.00    -0.206 F 
ATOM     87  C   UNL A   1      52.134  25.686  25.793  1.00  0.00     0.060 A 
BRANCH  87  88
ATOM     88  S   UNL A   1      53.781  25.086  25.362  1.00  0.00     0.124 S 
ATOM     89  O   UNL A   1      53.911  25.548  23.984  1.00  0.00    -0.237 OA
ATOM     90  O   UNL A   1      54.626  25.764  26.340  1.00  0.00    -0.237 OA
ATOM     91  O   UNL A   1      53.672  23.640  25.532  1.00  0.00    -0.744 OA
ENDBRANCH  87  88
ENDBRANCH  55  80
ENDBRANCH  29  30
ENDBRANCH  21  24
ENDBRANCH  19  20
ENDBRANCH  18  19
ENDBRANCH  17  18
ENDBRANCH   1  17
TORSDOF 20
ENDMDL
MODEL 3
REMARK VINA RESULT:      -8.9      2.535      4.186
REMARK SMILES O=C(CCCC[C@@H]1CCSS1)NCCCCCCNC(=O)c1ccc(-c2c3nc(c(-c4c(F)cc(S(=O)(=O)[O-])cc4F)c4ccc([nH]4)c(-c4c(F)cc(S(=O)(=O)[O-])cc4F)c4nc(c(-c5c(F)cc(S(=O)(=O)[O-])cc5F)c5ccc2[nH]5)C=C4)C=C3)cc1
REMARK SMILES IDX 15 1 14 2 13 3 12 4 1 5 2 6 3 8 4 9 5 10 6 11 7 12 8 13
REMARK SMILES IDX 11 14 9 15 10 16 16 17 17 18 18 19 19 20 20 21 21 23 22 24
REMARK SMILES IDX 23 25 87 26 24 27 86 28 25 29 26 30 27 31 80 32 28 33 85 34
REMARK SMILES IDX 79 35 81 36 29 37 84 38 78 39 77 40 30 42 64 43 43 44 63 45
REMARK SMILES IDX 44 46 47 47 62 48 82 49 45 50 46 51 61 53 83 54 48 55 31 56
REMARK SMILES IDX 32 57 41 58 33 59 34 60 40 61 42 62 35 63 36 64 37 65 38 66
REMARK SMILES IDX 39 67 65 68 66 69 75 70 67 71 68 72 74 73 76 74 69 75 70 76
REMARK SMILES IDX 71 77 72 78 73 79 49 80 50 81 59 82 51 83 52 84 58 85 60 86
REMARK SMILES IDX 53 87 54 88 55 89 56 90 57 91
REMARK H PARENT 12 7 19 22 81 41 47 52
REMARK Flexibility Score: inf
ROOT
ATOM      1  C   UNL A   1      36.989  22.655  24.512  1.00  0.00     0.002 C 
ENDROOT
BRANCH   1   2
ATOM      2  C   UNL A   1      36.468  21.212  24.617  1.00  0.00     0.021 C 
BRANCH   2   3
ATOM      3  C   UNL A   1      35.507  20.956  25.778  1.00  0.00     0.116 C 
BRANCH   3   4
ATOM      4  N   UNL A   1      34.328  21.787  25.662  1.00  0.00    -0.356 N 
ATOM      5  O   UNL A   1      34.469  22.825  27.707  1.00  0.00    -0.275 OA
ATOM      6  C   UNL A   1      33.904  22.660  26.631  1.00  0.00     0.219 C 
ATOM      7  H   UNL A   1      33.797  21.721  24.836  1.00  0.00     0.163 HD
BRANCH   6   8
ATOM      8  C   UNL A   1      32.629  23.397  26.264  1.00  0.00     0.100 C 
BRANCH   8   9
ATOM      9  C   UNL A   1      32.843  24.873  25.928  1.00  0.00     0.010 C 
BRANCH   9  10
ATOM     10  C   UNL A   1      31.631  25.800  26.071  1.00  0.00     0.002 C 
BRANCH  10  11
ATOM     11  C   UNL A   1      31.879  27.217  26.611  1.00  0.00     0.015 C 
BRANCH  11  12
ATOM     12  C   UNL A   1      31.911  28.314  25.537  1.00  0.00     0.059 C 
ATOM     13  C   UNL A   1      30.939  28.062  24.376  1.00  0.00     0.027 C 
ATOM     14  S   UNL A   1      33.579  28.381  24.784  1.00  0.00    -0.091 SA
ATOM     15  C   UNL A   1      31.247  28.999  23.213  1.00  0.00     0.083 C 
ATOM     16  S   UNL A   1      33.011  28.830  22.871  1.00  0.00    -0.094 SA
ENDBRANCH  11  12
ENDBRANCH  10  11
ENDBRANCH   9  10
ENDBRANCH   8   9
ENDBRANCH   6   8
ENDBRANCH   3   4
ENDBRANCH   2   3
ENDBRANCH   1   2
BRANCH   1  17
ATOM     17  C   UNL A   1      37.677  23.197  25.768  1.00  0.00     0.002 C 
BRANCH  17  18
ATOM     18  C   UNL A   1      38.930  22.434  26.202  1.00  0.00     0.021 C 
BRANCH  18  19
ATOM     19  C   UNL A   1      39.942  23.252  27.000  1.00  0.00     0.116 C 
BRANCH  19  20
ATOM     20  N   UNL A   1      41.083  23.665  26.197  1.00  0.00    -0.352 N 
ATOM     21  C   UNL A   1      41.765  24.857  26.199  1.00  0.00     0.251 C 
ATOM     22  H   UNL A   1      41.415  22.992  25.560  1.00  0.00     0.163 HD
ATOM     23  O   UNL A   1      42.604  25.080  25.327  1.00  0.00    -0.269 OA
BRANCH  21  24
ATOM     24  C   UNL A   1      41.472  25.883  27.225  1.00  0.00     0.039 A 
ATOM     25  C   UNL A   1      40.460  25.633  28.156  1.00  0.00     0.014 A 
ATOM     26  C   UNL A   1      42.185  27.085  27.275  1.00  0.00     0.014 A 
ATOM     27  C   UNL A   1      40.212  26.556  29.174  1.00  0.00     0.010 A 
ATOM     28  C   UNL A   1      41.988  27.968  28.335  1.00  0.00     0.010 A 
ATOM     29  C   UNL A   1      41.001  27.713  29.297  1.00  0.00    -0.014 A 
BRANCH  29  30
ATOM     30  C   UNL A   1      40.821  28.638  30.448  1.00  0.00     0.031 A 
ATOM     31  C   UNL A   1      41.680  28.517  31.677  1.00  0.00     0.074 A 
ATOM     32  C   UNL A   1      39.840  29.563  30.403  1.00  0.00     0.049 A 
ATOM     33  N   UNL A   1      41.661  29.235  32.772  1.00  0.00    -0.248 NA
ATOM     34  C   UNL A   1      42.675  27.433  31.690  1.00  0.00     0.031 C 
ATOM     35  C   UNL A   1      38.903  29.744  29.292  1.00  0.00     0.029 A 
ATOM     36  N   UNL A   1      39.467  30.524  31.309  1.00  0.00    -0.354 N 
ATOM     37  C   UNL A   1      42.631  28.688  33.604  1.00  0.00     0.074 A 
ATOM     38  C   UNL A   1      43.179  27.542  32.911  1.00  0.00     0.031 C 
ATOM     39  C   UNL A   1      38.092  30.777  29.564  1.00  0.00     0.029 A 
ATOM     40  C   UNL A   1      38.419  31.306  30.884  1.00  0.00     0.049 A 
ATOM     41  H   UNL A   1      39.908  30.642  32.181  1.00  0.00     0.167 HD
ATOM     42  C   UNL A   1      43.041  29.114  34.824  1.00  0.00     0.037 A 
ATOM     43  C   UNL A   1      37.792  32.334  31.487  1.00  0.00     0.037 A 
ATOM     44  C   UNL A   1      42.494  30.262  35.504  1.00  0.00     0.049 A 
ATOM     45  C   UNL A   1      38.256  32.783  32.845  1.00  0.00     0.074 A 
ATOM     46  C   UNL A   1      42.887  30.814  36.711  1.00  0.00     0.029 A 
ATOM     47  N   UNL A   1      41.429  31.025  35.045  1.00  0.00    -0.354 N 
ATOM     48  N   UNL A   1      39.232  32.306  33.581  1.00  0.00    -0.248 NA
ATOM     49  C   UNL A   1      37.540  33.913  33.450  1.00  0.00     0.031 C 
ATOM     50  C   UNL A   1      42.021  31.872  37.011  1.00  0.00     0.029 A 
ATOM     51  C   UNL A   1      41.127  32.021  35.962  1.00  0.00     0.049 A 
ATOM     52  H   UNL A   1      40.957  30.880  34.194  1.00  0.00     0.167 HD
ATOM     53  C   UNL A   1      39.260  33.092  34.728  1.00  0.00     0.074 A 
ATOM     54  C   UNL A   1      38.216  34.086  34.577  1.00  0.00     0.031 C 
ATOM     55  C   UNL A   1      40.077  32.999  35.808  1.00  0.00     0.037 A 
BRANCH  42  56
ATOM     56  C   UNL A   1      44.128  28.325  35.508  1.00  0.00     0.058 A 
ATOM     57  C   UNL A   1      43.837  27.271  36.390  1.00  0.00     0.135 A 
ATOM     58  C   UNL A   1      45.481  28.615  35.265  1.00  0.00     0.135 A 
ATOM     59  F   UNL A   1      42.563  26.954  36.670  1.00  0.00    -0.206 F 
ATOM     60  C   UNL A   1      44.845  26.564  37.040  1.00  0.00     0.059 A 
ATOM     61  C   UNL A   1      46.506  27.898  35.877  1.00  0.00     0.059 A 
ATOM     62  F   UNL A   1      45.821  29.608  34.428  1.00  0.00    -0.206 F 
ATOM     63  C   UNL A   1      46.177  26.888  36.779  1.00  0.00     0.060 A 
BRANCH  63  64
ATOM     64  S   UNL A   1      47.471  25.974  37.644  1.00  0.00     0.124 S 
ATOM     65  O   UNL A   1      47.082  24.593  37.372  1.00  0.00    -0.237 OA
ATOM     66  O   UNL A   1      48.682  26.433  36.970  1.00  0.00    -0.237 OA
ATOM     67  O   UNL A   1      47.326  26.405  39.030  1.00  0.00    -0.744 OA
ENDBRANCH  63  64
ENDBRANCH  42  56
BRANCH  43  68
ATOM     68  C   UNL A   1      36.677  33.030  30.788  1.00  0.00     0.058 A 
ATOM     69  C   UNL A   1      35.344  32.819  31.173  1.00  0.00     0.135 A 
ATOM     70  C   UNL A   1      36.919  33.943  29.751  1.00  0.00     0.135 A 
ATOM     71  F   UNL A   1      35.058  31.949  32.154  1.00  0.00    -0.206 F 
ATOM     72  C   UNL A   1      34.292  33.483  30.551  1.00  0.00     0.059 A 
ATOM     73  C   UNL A   1      35.887  34.640  29.132  1.00  0.00     0.059 A 
ATOM     74  F   UNL A   1      38.178  34.192  29.356  1.00  0.00    -0.206 F 
ATOM     75  C   UNL A   1      34.575  34.399  29.536  1.00  0.00     0.060 A 
BRANCH  75  76
ATOM     76  S   UNL A   1      33.206  35.308  28.787  1.00  0.00     0.124 S 
ATOM     77  O   UNL A   1      33.911  36.348  28.047  1.00  0.00    -0.237 OA
ATOM     78  O   UNL A   1      32.560  34.276  27.981  1.00  0.00    -0.237 OA
ATOM     79  O   UNL A   1      32.435  35.764  29.940  1.00  0.00    -0.744 OA
ENDBRANCH  75  76
ENDBRANCH  43  68
BRANCH  55  80
ATOM     80  C   UNL A   1      39.887  34.012  36.906  1.00  0.00     0.058 A 
ATOM     81  C   UNL A   1      40.552  35.248  36.894  1.00  0.00     0.135 A 
ATOM     82  C   UNL A   1      39.007  33.753  37.970  1.00  0.00     0.135 A 
ATOM     83  F   UNL A   1      41.410  35.546  35.906  1.00  0.00    -0.206 F 
ATOM     84  C   UNL A   1      40.378  36.178  37.915  1.00  0.00     0.059 A 
ATOM     85  C   UNL A   1      38.793  34.682  38.984  1.00  0.00     0.059 A 
ATOM     86  F   UNL A   1      38.336  32.592  38.026  1.00  0.00    -0.206 F 
ATOM     87  C   UNL A   1      39.495  35.885  38.956  1.00  0.00     0.060 A 
BRANCH  87  88
ATOM     88  S   UNL A   1      39.268  37.107  40.266  1.00  0.00     0.124 S 
ATOM     89  O   UNL A   1      40.649  37.437  40.604  1.00  0.00    -0.237 OA
ATOM     90  O   UNL A   1      38.513  38.155  39.588  1.00  0.00    -0.237 OA
ATOM     91  O   UNL A   1      38.529  36.374  41.291  1.00  0.00    -0.744 OA
ENDBRANCH  87  88
ENDBRANCH  55  80
ENDBRANCH  29  30
ENDBRANCH  21  24
ENDBRANCH  19  20
ENDBRANCH  18  19
ENDBRANCH  17  18
ENDBRANCH   1  17
TORSDOF 20
ENDMDL
