MODEL 1
REMARK VINA RESULT:     -10.6      0.000      0.000
REMARK SMILES [NH3+][C@](CCC[P@TB4](=O)([O-])[O-])(Cc1ccccc1)C(=O)NCCCCCCNC(=O)c1ccc(-c2c3nc(c(-c4c(F)cc(S(=O)(=O)[O-])cc4F)c4ccc([nH]4)c(-c4c(F)cc(S(=O)(=O)[O-])cc4F)c4nc(c(-c5c(F)cc(S(=O)(=O)[O-])cc5F)c5ccc2[nH]5)C=C4)C=C3)cc1
REMARK SMILES IDX 22 1 21 2 20 3 19 4 17 5 18 6 2 8 1 9 10 13 11 14 12 15
REMARK SMILES IDX 16 16 13 17 15 18 14 19 3 20 4 21 5 22 6 23 7 24 8 25 9 26
REMARK SMILES IDX 23 27 24 28 25 29 26 30 27 31 28 33 29 34 30 35 94 36 31 37
REMARK SMILES IDX 93 38 32 39 33 40 34 41 87 42 35 43 92 44 86 45 88 46 36 47
REMARK SMILES IDX 91 48 85 49 84 50 37 52 71 53 50 54 70 55 51 56 54 57 69 58
REMARK SMILES IDX 89 59 52 60 53 61 68 63 90 64 55 65 38 66 39 67 48 68 40 69
REMARK SMILES IDX 41 70 47 71 49 72 42 73 43 74 44 75 45 76 46 77 72 78 73 79
REMARK SMILES IDX 82 80 74 81 75 82 81 83 83 84 76 85 77 86 78 87 79 88 80 89
REMARK SMILES IDX 56 90 57 91 66 92 58 93 59 94 65 95 67 96 60 97 61 98 62 99
REMARK SMILES IDX 63 100 64 101
REMARK H PARENT 19 7 1 10 1 11 1 12 26 32 88 51 54 62
REMARK Flexibility Score: inf
ROOT
ATOM      1  C   UNL A   1      33.094  23.210  24.840  1.00  0.00       nan C 
ENDROOT
BRANCH   1   2
ATOM      2  C   UNL A   1      31.957  22.948  23.853  1.00  0.00       nan C 
BRANCH   2   3
ATOM      3  C   UNL A   1      31.320  24.202  23.274  1.00  0.00       nan C 
BRANCH   3   4
ATOM      4  N   UNL A   1      31.877  24.566  21.986  1.00  0.00       nan N 
ATOM      5  C   UNL A   1      32.511  25.711  21.601  1.00  0.00       nan C 
ATOM      6  O   UNL A   1      33.197  25.631  20.575  1.00  0.00       nan OA
ATOM      7  H   UNL A   1      31.785  23.882  21.284  1.00  0.00       nan HD
BRANCH   5   8
ATOM      8  C   UNL A   1      32.467  27.019  22.467  1.00  0.00       nan C 
BRANCH   8   9
ATOM      9  N   UNL A   1      33.218  28.088  21.745  1.00  0.00       nan N 
ATOM     10  H   UNL A   1      34.220  27.943  21.872  1.00  0.00       nan HD
ATOM     11  H   UNL A   1      32.956  28.999  22.119  1.00  0.00       nan HD
ATOM     12  H   UNL A   1      32.992  28.050  20.752  1.00  0.00       nan HD
ENDBRANCH   8   9
BRANCH   8  13
ATOM     13  C   UNL A   1      33.205  26.840  23.829  1.00  0.00       nan C 
BRANCH  13  14
ATOM     14  C   UNL A   1      32.826  27.630  25.068  1.00  0.00       nan A 
ATOM     15  C   UNL A   1      32.039  27.130  26.112  1.00  0.00       nan A 
ATOM     16  C   UNL A   1      33.162  28.994  25.101  1.00  0.00       nan A 
ATOM     17  C   UNL A   1      31.616  27.956  27.158  1.00  0.00       nan A 
ATOM     18  C   UNL A   1      32.742  29.821  26.145  1.00  0.00       nan A 
ATOM     19  C   UNL A   1      31.966  29.301  27.173  1.00  0.00       nan A 
ENDBRANCH  13  14
ENDBRANCH   8  13
BRANCH   8  20
ATOM     20  C   UNL A   1      30.991  27.450  22.727  1.00  0.00       nan C 
BRANCH  20  21
ATOM     21  C   UNL A   1      30.570  28.876  22.406  1.00  0.00       nan C 
BRANCH  21  22
ATOM     22  C   UNL A   1      29.509  29.476  23.297  1.00  0.00       nan C 
BRANCH  22  23
ATOM     23  P   UNL A   1      28.596  31.004  22.867  1.00  0.00       nan P 
ATOM     24  O   UNL A   1      27.300  30.389  23.402  1.00  0.00       nan OA
ATOM     25  O   UNL A   1      29.173  31.808  24.171  1.00  0.00       nan OA
ATOM     26  O   UNL A   1      27.734  32.448  22.461  1.00  0.00       nan OA
ENDBRANCH  22  23
ENDBRANCH  21  22
ENDBRANCH  20  21
ENDBRANCH   8  20
ENDBRANCH   5   8
ENDBRANCH   3   4
ENDBRANCH   2   3
ENDBRANCH   1   2
BRANCH   1  27
ATOM     27  C   UNL A   1      34.506  22.952  24.303  1.00  0.00       nan C 
BRANCH  27  28
ATOM     28  C   UNL A   1      35.541  24.035  24.623  1.00  0.00       nan C 
BRANCH  28  29
ATOM     29  C   UNL A   1      36.208  23.900  25.985  1.00  0.00       inf C 
BRANCH  29  30
ATOM     30  N   UNL A   1      37.135  22.783  26.027  1.00  0.00    -0.352 N 
ATOM     31  C   UNL A   1      38.489  22.792  26.251  1.00  0.00     0.251 C 
ATOM     32  H   UNL A   1      36.736  21.896  25.874  1.00  0.00     0.163 HD
ATOM     33  O   UNL A   1      39.147  21.778  26.045  1.00  0.00    -0.269 OA
BRANCH  31  34
ATOM     34  C   UNL A   1      39.146  24.028  26.727  1.00  0.00     0.039 A 
ATOM     35  C   UNL A   1      39.098  24.335  28.089  1.00  0.00     0.014 A 
ATOM     36  C   UNL A   1      39.784  24.894  25.834  1.00  0.00     0.014 A 
ATOM     37  C   UNL A   1      39.716  25.496  28.558  1.00  0.00     0.010 A 
ATOM     38  C   UNL A   1      40.469  26.006  26.313  1.00  0.00     0.010 A 
ATOM     39  C   UNL A   1      40.421  26.333  27.676  1.00  0.00    -0.014 A 
BRANCH  39  40
ATOM     40  C   UNL A   1      41.068  27.581  28.155  1.00  0.00     0.031 A 
ATOM     41  C   UNL A   1      42.567  27.722  28.081  1.00  0.00     0.074 A 
ATOM     42  C   UNL A   1      40.319  28.567  28.687  1.00  0.00     0.049 A 
ATOM     43  N   UNL A   1      43.327  28.703  28.494  1.00  0.00    -0.248 NA
ATOM     44  C   UNL A   1      43.312  26.598  27.487  1.00  0.00     0.031 C 
ATOM     45  C   UNL A   1      38.864  28.531  28.848  1.00  0.00     0.029 A 
ATOM     46  N   UNL A   1      40.677  29.790  29.194  1.00  0.00    -0.354 N 
ATOM     47  C   UNL A   1      44.633  28.313  28.219  1.00  0.00     0.074 A 
ATOM     48  C   UNL A   1      44.568  26.979  27.667  1.00  0.00     0.031 C 
ATOM     49  C   UNL A   1      38.452  29.689  29.389  1.00  0.00     0.029 A 
ATOM     50  C   UNL A   1      39.613  30.534  29.649  1.00  0.00     0.049 A 
ATOM     51  H   UNL A   1      41.610  30.106  29.230  1.00  0.00     0.167 HD
ATOM     52  C   UNL A   1      45.780  29.013  28.383  1.00  0.00     0.037 A 
ATOM     53  C   UNL A   1      39.580  31.757  30.214  1.00  0.00     0.037 A 
ATOM     54  C   UNL A   1      45.834  30.352  28.909  1.00  0.00     0.049 A 
ATOM     55  C   UNL A   1      40.872  32.512  30.396  1.00  0.00     0.074 A 
ATOM     56  C   UNL A   1      46.940  31.165  29.083  1.00  0.00     0.029 A 
ATOM     57  N   UNL A   1      44.733  31.078  29.340  1.00  0.00    -0.354 N 
ATOM     58  N   UNL A   1      42.094  32.145  30.088  1.00  0.00    -0.248 NA
ATOM     59  C   UNL A   1      40.779  33.852  30.991  1.00  0.00     0.031 C 
ATOM     60  C   UNL A   1      46.514  32.366  29.659  1.00  0.00     0.029 A 
ATOM     61  C   UNL A   1      45.136  32.324  29.791  1.00  0.00     0.049 A 
ATOM     62  H   UNL A   1      43.803  30.755  29.328  1.00  0.00     0.167 HD
ATOM     63  C   UNL A   1      42.909  33.225  30.412  1.00  0.00     0.074 A 
ATOM     64  C   UNL A   1      42.040  34.260  30.935  1.00  0.00     0.031 C 
ATOM     65  C   UNL A   1      44.253  33.351  30.286  1.00  0.00     0.037 A 
BRANCH  52  66
ATOM     66  C   UNL A   1      47.069  28.351  27.975  1.00  0.00     0.058 A 
ATOM     67  C   UNL A   1      47.852  27.636  28.897  1.00  0.00     0.135 A 
ATOM     68  C   UNL A   1      47.507  28.397  26.642  1.00  0.00     0.135 A 
ATOM     69  F   UNL A   1      47.491  27.575  30.188  1.00  0.00    -0.206 F 
ATOM     70  C   UNL A   1      49.038  27.016  28.516  1.00  0.00     0.059 A 
ATOM     71  C   UNL A   1      48.674  27.755  26.233  1.00  0.00     0.059 A 
ATOM     72  F   UNL A   1      46.800  29.067  25.719  1.00  0.00    -0.206 F 
ATOM     73  C   UNL A   1      49.440  27.078  27.182  1.00  0.00     0.060 A 
BRANCH  73  74
ATOM     74  S   UNL A   1      50.973  26.254  26.705  1.00  0.00     0.124 S 
ATOM     75  O   UNL A   1      51.019  26.532  25.273  1.00  0.00    -0.237 OA
ATOM     76  O   UNL A   1      51.966  26.950  27.518  1.00  0.00    -0.237 OA
ATOM     77  O   UNL A   1      50.737  24.860  27.065  1.00  0.00    -0.744 OA
ENDBRANCH  73  74
ENDBRANCH  52  66
BRANCH  53  78
ATOM     78  C   UNL A   1      38.283  32.360  30.624  1.00  0.00     0.058 A 
ATOM     79  C   UNL A   1      37.559  33.182  29.747  1.00  0.00     0.135 A 
ATOM     80  C   UNL A   1      37.747  32.136  31.902  1.00  0.00     0.135 A 
ATOM     81  F   UNL A   1      38.032  33.429  28.516  1.00  0.00    -0.206 F 
ATOM     82  C   UNL A   1      36.366  33.786  30.130  1.00  0.00     0.059 A 
ATOM     83  C   UNL A   1      36.540  32.706  32.297  1.00  0.00     0.059 A 
ATOM     84  F   UNL A   1      38.388  31.342  32.773  1.00  0.00    -0.206 F 
ATOM     85  C   UNL A   1      35.865  33.543  31.410  1.00  0.00     0.060 A 
BRANCH  85  86
ATOM     86  S   UNL A   1      34.304  34.313  31.890  1.00  0.00     0.124 S 
ATOM     87  O   UNL A   1      33.738  33.301  32.775  1.00  0.00    -0.237 OA
ATOM     88  O   UNL A   1      34.755  35.544  32.532  1.00  0.00    -0.237 OA
ATOM     89  O   UNL A   1      33.615  34.495  30.616  1.00  0.00    -0.744 OA
ENDBRANCH  85  86
ENDBRANCH  53  78
BRANCH  65  90
ATOM     90  C   UNL A   1      44.864  34.674  30.659  1.00  0.00     0.058 A 
ATOM     91  C   UNL A   1      45.355  34.932  31.948  1.00  0.00     0.135 A 
ATOM     92  C   UNL A   1      45.002  35.683  29.691  1.00  0.00     0.135 A 
ATOM     93  F   UNL A   1      45.243  34.004  32.911  1.00  0.00    -0.206 F 
ATOM     94  C   UNL A   1      45.934  36.155  32.273  1.00  0.00     0.059 A 
ATOM     95  C   UNL A   1      45.607  36.900  29.985  1.00  0.00     0.059 A 
ATOM     96  F   UNL A   1      44.562  35.484  28.438  1.00  0.00    -0.206 F 
ATOM     97  C   UNL A   1      46.057  37.133  31.283  1.00  0.00     0.060 A 
BRANCH  97  98
ATOM     98  S   UNL A   1      46.834  38.704  31.712  1.00  0.00     0.124 S 
ATOM     99  O   UNL A   1      46.332  38.921  33.065  1.00  0.00    -0.237 OA
ATOM    100  O   UNL A   1      48.256  38.388  31.606  1.00  0.00    -0.237 OA
ATOM    101  O   UNL A   1      46.326  39.622  30.698  1.00  0.00    -0.744 OA
ENDBRANCH  97  98
ENDBRANCH  65  90
ENDBRANCH  39  40
ENDBRANCH  31  34
ENDBRANCH  29  30
ENDBRANCH  28  29
ENDBRANCH  27  28
ENDBRANCH   1  27
TORSDOF 23
ENDMDL
MODEL 2
REMARK VINA RESULT:     -10.2      3.470      9.362
REMARK SMILES [NH3+][C@](CCC[P@TB4](=O)([O-])[O-])(Cc1ccccc1)C(=O)NCCCCCCNC(=O)c1ccc(-c2c3nc(c(-c4c(F)cc(S(=O)(=O)[O-])cc4F)c4ccc([nH]4)c(-c4c(F)cc(S(=O)(=O)[O-])cc4F)c4nc(c(-c5c(F)cc(S(=O)(=O)[O-])cc5F)c5ccc2[nH]5)C=C4)C=C3)cc1
REMARK SMILES IDX 22 1 21 2 20 3 19 4 17 5 18 6 2 8 1 9 10 13 11 14 12 15
REMARK SMILES IDX 16 16 13 17 15 18 14 19 3 20 4 21 5 22 6 23 7 24 8 25 9 26
REMARK SMILES IDX 23 27 24 28 25 29 26 30 27 31 28 33 29 34 30 35 94 36 31 37
REMARK SMILES IDX 93 38 32 39 33 40 34 41 87 42 35 43 92 44 86 45 88 46 36 47
REMARK SMILES IDX 91 48 85 49 84 50 37 52 71 53 50 54 70 55 51 56 54 57 69 58
REMARK SMILES IDX 89 59 52 60 53 61 68 63 90 64 55 65 38 66 39 67 48 68 40 69
REMARK SMILES IDX 41 70 47 71 49 72 42 73 43 74 44 75 45 76 46 77 72 78 73 79
REMARK SMILES IDX 82 80 74 81 75 82 81 83 83 84 76 85 77 86 78 87 79 88 80 89
REMARK SMILES IDX 56 90 57 91 66 92 58 93 59 94 65 95 67 96 60 97 61 98 62 99
REMARK SMILES IDX 63 100 64 101
REMARK H PARENT 19 7 1 10 1 11 1 12 26 32 88 51 54 62
REMARK Flexibility Score: inf
ROOT
ATOM      1  C   UNL A   1      34.083  30.677  27.697  1.00  0.00       nan C 
ENDROOT
BRANCH   1   2
ATOM      2  C   UNL A   1      32.944  30.502  26.693  1.00  0.00       nan C 
BRANCH   2   3
ATOM      3  C   UNL A   1      32.959  29.178  25.944  1.00  0.00       nan C 
BRANCH   3   4
ATOM      4  N   UNL A   1      33.646  29.268  24.670  1.00  0.00       nan N 
ATOM      5  C   UNL A   1      33.521  28.492  23.555  1.00  0.00       nan C 
ATOM      6  O   UNL A   1      33.944  28.985  22.502  1.00  0.00       nan OA
ATOM      7  H   UNL A   1      34.301  29.999  24.599  1.00  0.00       nan HD
BRANCH   5   8
ATOM      8  C   UNL A   1      32.784  27.107  23.581  1.00  0.00       nan C 
BRANCH   8   9
ATOM      9  N   UNL A   1      32.553  26.668  22.174  1.00  0.00       nan N 
ATOM     10  H   UNL A   1      32.197  25.712  22.170  1.00  0.00       nan HD
ATOM     11  H   UNL A   1      33.431  26.706  21.657  1.00  0.00       nan HD
ATOM     12  H   UNL A   1      31.873  27.287  21.733  1.00  0.00       nan HD
ENDBRANCH   8   9
BRANCH   8  13
ATOM     13  C   UNL A   1      31.365  27.216  24.220  1.00  0.00       nan C 
BRANCH  13  14
ATOM     14  C   UNL A   1      30.249  28.025  23.587  1.00  0.00       nan A 
ATOM     15  C   UNL A   1      30.387  29.344  23.138  1.00  0.00       nan A 
ATOM     16  C   UNL A   1      28.959  27.467  23.584  1.00  0.00       nan A 
ATOM     17  C   UNL A   1      29.282  30.074  22.690  1.00  0.00       nan A 
ATOM     18  C   UNL A   1      27.853  28.195  23.136  1.00  0.00       nan A 
ATOM     19  C   UNL A   1      28.016  29.501  22.691  1.00  0.00       nan A 
ENDBRANCH  13  14
ENDBRANCH   8  13
BRANCH   8  20
ATOM     20  C   UNL A   1      33.628  26.055  24.365  1.00  0.00       nan C 
BRANCH  20  21
ATOM     21  C   UNL A   1      33.209  25.677  25.777  1.00  0.00       nan C 
BRANCH  21  22
ATOM     22  C   UNL A   1      32.865  24.224  26.005  1.00  0.00       nan C 
BRANCH  22  23
ATOM     23  P   UNL A   1      31.286  23.682  26.756  1.00  0.00       nan P 
ATOM     24  O   UNL A   1      31.040  22.738  25.575  1.00  0.00       nan OA
ATOM     25  O   UNL A   1      32.042  22.711  27.835  1.00  0.00       nan OA
ATOM     26  O   UNL A   1      29.794  23.169  27.465  1.00  0.00       nan OA
ENDBRANCH  22  23
ENDBRANCH  21  22
ENDBRANCH  20  21
ENDBRANCH   8  20
ENDBRANCH   5   8
ENDBRANCH   3   4
ENDBRANCH   2   3
ENDBRANCH   1   2
BRANCH   1  27
ATOM     27  C   UNL A   1      34.329  32.114  28.171  1.00  0.00       nan C 
BRANCH  27  28
ATOM     28  C   UNL A   1      35.766  32.622  28.021  1.00  0.00       nan C 
BRANCH  28  29
ATOM     29  C   UNL A   1      36.509  32.835  29.333  1.00  0.00       inf C 
BRANCH  29  30
ATOM     30  N   UNL A   1      36.052  31.928  30.369  1.00  0.00    -0.352 N 
ATOM     31  C   UNL A   1      36.588  30.728  30.766  1.00  0.00     0.251 C 
ATOM     32  H   UNL A   1      35.245  32.213  30.856  1.00  0.00     0.163 HD
ATOM     33  O   UNL A   1      35.953  29.994  31.515  1.00  0.00    -0.269 OA
BRANCH  31  34
ATOM     34  C   UNL A   1      37.923  30.322  30.275  1.00  0.00     0.039 A 
ATOM     35  C   UNL A   1      38.077  30.013  28.921  1.00  0.00     0.014 A 
ATOM     36  C   UNL A   1      39.011  30.223  31.147  1.00  0.00     0.014 A 
ATOM     37  C   UNL A   1      39.331  29.632  28.439  1.00  0.00     0.010 A 
ATOM     38  C   UNL A   1      40.275  29.923  30.649  1.00  0.00     0.010 A 
ATOM     39  C   UNL A   1      40.444  29.600  29.295  1.00  0.00    -0.014 A 
BRANCH  39  40
ATOM     40  C   UNL A   1      41.781  29.179  28.802  1.00  0.00     0.031 A 
ATOM     41  C   UNL A   1      42.891  30.192  28.698  1.00  0.00     0.074 A 
ATOM     42  C   UNL A   1      41.985  27.905  28.416  1.00  0.00     0.049 A 
ATOM     43  N   UNL A   1      44.108  30.040  28.243  1.00  0.00    -0.248 NA
ATOM     44  C   UNL A   1      42.585  31.564  29.139  1.00  0.00     0.031 C 
ATOM     45  C   UNL A   1      40.977  26.842  28.433  1.00  0.00     0.029 A 
ATOM     46  N   UNL A   1      43.108  27.285  27.928  1.00  0.00    -0.354 N 
ATOM     47  C   UNL A   1      44.707  31.292  28.335  1.00  0.00     0.074 A 
ATOM     48  C   UNL A   1      43.700  32.207  28.825  1.00  0.00     0.031 C 
ATOM     49  C   UNL A   1      41.534  25.698  28.005  1.00  0.00     0.029 A 
ATOM     50  C   UNL A   1      42.925  25.951  27.645  1.00  0.00     0.049 A 
ATOM     51  H   UNL A   1      43.965  27.752  27.793  1.00  0.00     0.167 HD
ATOM     52  C   UNL A   1      45.986  31.644  28.065  1.00  0.00     0.037 A 
ATOM     53  C   UNL A   1      43.784  25.039  27.149  1.00  0.00     0.037 A 
ATOM     54  C   UNL A   1      46.990  30.722  27.603  1.00  0.00     0.049 A 
ATOM     55  C   UNL A   1      45.200  25.457  26.846  1.00  0.00     0.074 A 
ATOM     56  C   UNL A   1      48.325  30.966  27.334  1.00  0.00     0.029 A 
ATOM     57  N   UNL A   1      46.772  29.376  27.347  1.00  0.00    -0.354 N 
ATOM     58  N   UNL A   1      45.760  26.636  26.983  1.00  0.00    -0.248 NA
ATOM     59  C   UNL A   1      46.103  24.418  26.334  1.00  0.00     0.031 C 
ATOM     60  C   UNL A   1      48.903  29.779  26.874  1.00  0.00     0.029 A 
ATOM     61  C   UNL A   1      47.943  28.780  26.911  1.00  0.00     0.049 A 
ATOM     62  H   UNL A   1      45.910  28.912  27.458  1.00  0.00     0.167 HD
ATOM     63  C   UNL A   1      47.091  26.469  26.614  1.00  0.00     0.074 A 
ATOM     64  C   UNL A   1      47.252  25.075  26.254  1.00  0.00     0.031 C 
ATOM     65  C   UNL A   1      48.091  27.385  26.580  1.00  0.00     0.037 A 
BRANCH  52  66
ATOM     66  C   UNL A   1      46.377  33.082  28.278  1.00  0.00     0.058 A 
ATOM     67  C   UNL A   1      46.852  33.540  29.518  1.00  0.00     0.135 A 
ATOM     68  C   UNL A   1      46.314  34.004  27.221  1.00  0.00     0.135 A 
ATOM     69  F   UNL A   1      46.916  32.706  30.568  1.00  0.00    -0.206 F 
ATOM     70  C   UNL A   1      47.223  34.867  29.709  1.00  0.00     0.059 A 
ATOM     71  C   UNL A   1      46.712  35.329  27.382  1.00  0.00     0.059 A 
ATOM     72  F   UNL A   1      45.867  33.622  26.014  1.00  0.00    -0.206 F 
ATOM     73  C   UNL A   1      47.152  35.754  28.635  1.00  0.00     0.060 A 
BRANCH  73  74
ATOM     74  S   UNL A   1      47.653  37.468  28.899  1.00  0.00     0.124 S 
ATOM     75  O   UNL A   1      48.989  37.474  28.313  1.00  0.00    -0.237 OA
ATOM     76  O   UNL A   1      46.633  38.207  28.160  1.00  0.00    -0.237 OA
ATOM     77  O   UNL A   1      47.604  37.617  30.350  1.00  0.00    -0.744 OA
ENDBRANCH  73  74
ENDBRANCH  52  66
BRANCH  53  78
ATOM     78  C   UNL A   1      43.343  23.634  26.933  1.00  0.00     0.058 A 
ATOM     79  C   UNL A   1      43.004  23.172  25.651  1.00  0.00     0.135 A 
ATOM     80  C   UNL A   1      43.241  22.728  28.000  1.00  0.00     0.135 A 
ATOM     81  F   UNL A   1      43.081  24.001  24.598  1.00  0.00    -0.206 F 
ATOM     82  C   UNL A   1      42.550  21.875  25.439  1.00  0.00     0.059 A 
ATOM     83  C   UNL A   1      42.818  21.417  27.808  1.00  0.00     0.059 A 
ATOM     84  F   UNL A   1      43.573  23.112  29.243  1.00  0.00    -0.206 F 
ATOM     85  C   UNL A   1      42.459  21.003  26.526  1.00  0.00     0.060 A 
BRANCH  85  86
ATOM     86  S   UNL A   1      41.891  19.314  26.237  1.00  0.00     0.124 S 
ATOM     87  O   UNL A   1      42.597  18.975  25.007  1.00  0.00    -0.237 OA
ATOM     88  O   UNL A   1      42.344  18.629  27.444  1.00  0.00    -0.237 OA
ATOM     89  O   UNL A   1      40.444  19.463  26.115  1.00  0.00    -0.744 OA
ENDBRANCH  85  86
ENDBRANCH  53  78
BRANCH  65  90
ATOM     90  C   UNL A   1      49.464  26.901  26.200  1.00  0.00     0.058 A 
ATOM     91  C   UNL A   1      50.306  26.256  27.118  1.00  0.00     0.135 A 
ATOM     92  C   UNL A   1      49.921  27.047  24.880  1.00  0.00     0.135 A 
ATOM     93  F   UNL A   1      49.920  26.095  28.393  1.00  0.00    -0.206 F 
ATOM     94  C   UNL A   1      51.567  25.798  26.747  1.00  0.00     0.059 A 
ATOM     95  C   UNL A   1      51.163  26.568  24.480  1.00  0.00     0.059 A 
ATOM     96  F   UNL A   1      49.150  27.645  23.958  1.00  0.00    -0.206 F 
ATOM     97  C   UNL A   1      51.986  25.957  25.425  1.00  0.00     0.060 A 
BRANCH  97  98
ATOM     98  S   UNL A   1      53.613  25.334  24.952  1.00  0.00     0.124 S 
ATOM     99  O   UNL A   1      54.495  26.181  25.748  1.00  0.00    -0.237 OA
ATOM    100  O   UNL A   1      53.541  23.934  25.358  1.00  0.00    -0.237 OA
ATOM    101  O   UNL A   1      53.658  25.561  23.511  1.00  0.00    -0.744 OA
ENDBRANCH  97  98
ENDBRANCH  65  90
ENDBRANCH  39  40
ENDBRANCH  31  34
ENDBRANCH  29  30
ENDBRANCH  28  29
ENDBRANCH  27  28
ENDBRANCH   1  27
TORSDOF 23
ENDMDL
MODEL 3
REMARK VINA RESULT:     -10.1      5.109      6.729
REMARK SMILES [NH3+][C@](CCC[P@TB4](=O)([O-])[O-])(Cc1ccccc1)C(=O)NCCCCCCNC(=O)c1ccc(-c2c3nc(c(-c4c(F)cc(S(=O)(=O)[O-])cc4F)c4ccc([nH]4)c(-c4c(F)cc(S(=O)(=O)[O-])cc4F)c4nc(c(-c5c(F)cc(S(=O)(=O)[O-])cc5F)c5ccc2[nH]5)C=C4)C=C3)cc1
REMARK SMILES IDX 22 1 21 2 20 3 19 4 17 5 18 6 2 8 1 9 10 13 11 14 12 15
REMARK SMILES IDX 16 16 13 17 15 18 14 19 3 20 4 21 5 22 6 23 7 24 8 25 9 26
REMARK SMILES IDX 23 27 24 28 25 29 26 30 27 31 28 33 29 34 30 35 94 36 31 37
REMARK SMILES IDX 93 38 32 39 33 40 34 41 87 42 35 43 92 44 86 45 88 46 36 47
REMARK SMILES IDX 91 48 85 49 84 50 37 52 71 53 50 54 70 55 51 56 54 57 69 58
REMARK SMILES IDX 89 59 52 60 53 61 68 63 90 64 55 65 38 66 39 67 48 68 40 69
REMARK SMILES IDX 41 70 47 71 49 72 42 73 43 74 44 75 45 76 46 77 72 78 73 79
REMARK SMILES IDX 82 80 74 81 75 82 81 83 83 84 76 85 77 86 78 87 79 88 80 89
REMARK SMILES IDX 56 90 57 91 66 92 58 93 59 94 65 95 67 96 60 97 61 98 62 99
REMARK SMILES IDX 63 100 64 101
REMARK H PARENT 19 7 1 10 1 11 1 12 26 32 88 51 54 62
REMARK Flexibility Score: inf
ROOT
ATOM      1  C   UNL A   1      37.046  21.741  24.788  1.00  0.00       nan C 
ENDROOT
BRANCH   1   2
ATOM      2  C   UNL A   1      36.784  22.820  23.737  1.00  0.00       nan C 
BRANCH   2   3
ATOM      3  C   UNL A   1      35.674  23.796  24.096  1.00  0.00       nan C 
BRANCH   3   4
ATOM      4  N   UNL A   1      34.612  23.818  23.110  1.00  0.00       nan N 
ATOM      5  C   UNL A   1      33.450  24.533  23.094  1.00  0.00       nan C 
ATOM      6  O   UNL A   1      32.898  24.646  21.992  1.00  0.00       nan OA
ATOM      7  H   UNL A   1      34.751  23.229  22.333  1.00  0.00       nan HD
BRANCH   5   8
ATOM      8  C   UNL A   1      32.904  25.266  24.370  1.00  0.00       nan C 
BRANCH   8   9
ATOM      9  N   UNL A   1      31.488  25.662  24.117  1.00  0.00       nan N 
ATOM     10  H   UNL A   1      31.065  25.986  24.988  1.00  0.00       nan HD
ATOM     11  H   UNL A   1      30.968  24.859  23.765  1.00  0.00       nan HD
ATOM     12  H   UNL A   1      31.463  26.412  23.427  1.00  0.00       nan HD
ENDBRANCH   8   9
BRANCH   8  13
ATOM     13  C   UNL A   1      33.666  26.599  24.645  1.00  0.00       nan C 
BRANCH  13  14
ATOM     14  C   UNL A   1      33.091  27.697  25.520  1.00  0.00       nan A 
ATOM     15  C   UNL A   1      32.632  27.504  26.828  1.00  0.00       nan A 
ATOM     16  C   UNL A   1      32.871  28.954  24.931  1.00  0.00       nan A 
ATOM     17  C   UNL A   1      31.990  28.530  27.528  1.00  0.00       nan A 
ATOM     18  C   UNL A   1      32.231  29.981  25.628  1.00  0.00       nan A 
ATOM     19  C   UNL A   1      31.788  29.767  26.928  1.00  0.00       nan A 
ENDBRANCH  13  14
ENDBRANCH   8  13
BRANCH   8  20
ATOM     20  C   UNL A   1      33.013  24.338  25.619  1.00  0.00       nan C 
BRANCH  20  21
ATOM     21  C   UNL A   1      31.806  23.510  26.031  1.00  0.00       nan C 
BRANCH  21  22
ATOM     22  C   UNL A   1      31.612  22.203  25.299  1.00  0.00       nan C 
BRANCH  22  23
ATOM     23  P   UNL A   1      32.938  20.953  25.127  1.00  0.00       nan P 
ATOM     24  O   UNL A   1      31.896  19.832  25.160  1.00  0.00       nan OA
ATOM     25  O   UNL A   1      33.105  21.237  23.524  1.00  0.00       nan OA
ATOM     26  O   UNL A   1      34.192  19.771  24.964  1.00  0.00       nan OA
ENDBRANCH  22  23
ENDBRANCH  21  22
ENDBRANCH  20  21
ENDBRANCH   8  20
ENDBRANCH   5   8
ENDBRANCH   3   4
ENDBRANCH   2   3
ENDBRANCH   1   2
BRANCH   1  27
ATOM     27  C   UNL A   1      38.311  21.936  25.631  1.00  0.00       nan C 
BRANCH  27  28
ATOM     28  C   UNL A   1      38.468  23.315  26.278  1.00  0.00       nan C 
BRANCH  28  29
ATOM     29  C   UNL A   1      39.808  23.554  26.959  1.00  0.00       inf C 
BRANCH  29  30
ATOM     30  N   UNL A   1      40.800  24.075  26.038  1.00  0.00    -0.352 N 
ATOM     31  C   UNL A   1      41.394  25.312  26.016  1.00  0.00     0.251 C 
ATOM     32  H   UNL A   1      41.088  23.454  25.330  1.00  0.00     0.163 HD
ATOM     33  O   UNL A   1      42.056  25.653  25.041  1.00  0.00    -0.269 OA
BRANCH  31  34
ATOM     34  C   UNL A   1      41.219  26.230  27.162  1.00  0.00     0.039 A 
ATOM     35  C   UNL A   1      40.256  25.927  28.127  1.00  0.00     0.014 A 
ATOM     36  C   UNL A   1      41.982  27.397  27.272  1.00  0.00     0.014 A 
ATOM     37  C   UNL A   1      40.080  26.781  29.218  1.00  0.00     0.010 A 
ATOM     38  C   UNL A   1      41.861  28.202  28.400  1.00  0.00     0.010 A 
ATOM     39  C   UNL A   1      40.892  27.916  29.373  1.00  0.00    -0.014 A 
BRANCH  39  40
ATOM     40  C   UNL A   1      40.705  28.844  30.517  1.00  0.00     0.031 A 
ATOM     41  C   UNL A   1      41.567  28.701  31.744  1.00  0.00     0.074 A 
ATOM     42  C   UNL A   1      39.741  29.785  30.470  1.00  0.00     0.049 A 
ATOM     43  N   UNL A   1      41.527  29.371  32.867  1.00  0.00    -0.248 NA
ATOM     44  C   UNL A   1      42.596  27.646  31.715  1.00  0.00     0.031 C 
ATOM     45  C   UNL A   1      38.818  29.996  29.354  1.00  0.00     0.029 A 
ATOM     46  N   UNL A   1      39.375  30.739  31.386  1.00  0.00    -0.354 N 
ATOM     47  C   UNL A   1      42.512  28.817  33.676  1.00  0.00     0.074 A 
ATOM     48  C   UNL A   1      43.089  27.712  32.943  1.00  0.00     0.031 C 
ATOM     49  C   UNL A   1      38.011  31.031  29.638  1.00  0.00     0.029 A 
ATOM     50  C   UNL A   1      38.332  31.533  30.971  1.00  0.00     0.049 A 
ATOM     51  H   UNL A   1      39.818  30.844  32.260  1.00  0.00     0.167 HD
ATOM     52  C   UNL A   1      42.922  29.210  34.905  1.00  0.00     0.037 A 
ATOM     53  C   UNL A   1      37.705  32.549  31.596  1.00  0.00     0.037 A 
ATOM     54  C   UNL A   1      42.361  30.328  35.618  1.00  0.00     0.049 A 
ATOM     55  C   UNL A   1      38.172  32.960  32.969  1.00  0.00     0.074 A 
ATOM     56  C   UNL A   1      42.727  30.833  36.853  1.00  0.00     0.029 A 
ATOM     57  N   UNL A   1      41.320  31.119  35.155  1.00  0.00    -0.354 N 
ATOM     58  N   UNL A   1      39.136  32.453  33.700  1.00  0.00    -0.248 NA
ATOM     59  C   UNL A   1      37.474  34.091  33.596  1.00  0.00     0.031 C 
ATOM     60  C   UNL A   1      41.879  31.902  37.156  1.00  0.00     0.029 A 
ATOM     61  C   UNL A   1      41.022  32.101  36.086  1.00  0.00     0.049 A 
ATOM     62  H   UNL A   1      40.859  31.000  34.293  1.00  0.00     0.167 HD
ATOM     63  C   UNL A   1      39.188  33.229  34.854  1.00  0.00     0.074 A 
ATOM     64  C   UNL A   1      38.161  34.243  34.720  1.00  0.00     0.031 C 
ATOM     65  C   UNL A   1      40.011  33.116  35.925  1.00  0.00     0.037 A 
BRANCH  52  66
ATOM     66  C   UNL A   1      44.039  28.436  35.552  1.00  0.00     0.058 A 
ATOM     67  C   UNL A   1      43.784  27.359  36.417  1.00  0.00     0.135 A 
ATOM     68  C   UNL A   1      45.380  28.748  35.274  1.00  0.00     0.135 A 
ATOM     69  F   UNL A   1      42.522  27.029  36.731  1.00  0.00    -0.206 F 
ATOM     70  C   UNL A   1      44.818  26.638  37.005  1.00  0.00     0.059 A 
ATOM     71  C   UNL A   1      46.430  28.018  35.827  1.00  0.00     0.059 A 
ATOM     72  F   UNL A   1      45.684  29.768  34.456  1.00  0.00    -0.206 F 
ATOM     73  C   UNL A   1      46.138  26.973  36.702  1.00  0.00     0.060 A 
BRANCH  73  74
ATOM     74  S   UNL A   1      47.465  26.016  37.464  1.00  0.00     0.124 S 
ATOM     75  O   UNL A   1      48.379  27.072  37.888  1.00  0.00    -0.237 OA
ATOM     76  O   UNL A   1      46.766  25.314  38.537  1.00  0.00    -0.237 OA
ATOM     77  O   UNL A   1      47.945  25.172  36.375  1.00  0.00    -0.744 OA
ENDBRANCH  73  74
ENDBRANCH  52  66
BRANCH  53  78
ATOM     78  C   UNL A   1      36.587  33.268  30.926  1.00  0.00     0.058 A 
ATOM     79  C   UNL A   1      35.261  33.099  31.352  1.00  0.00     0.135 A 
ATOM     80  C   UNL A   1      36.820  34.127  29.841  1.00  0.00     0.135 A 
ATOM     81  F   UNL A   1      34.986  32.286  32.383  1.00  0.00    -0.206 F 
ATOM     82  C   UNL A   1      34.202  33.732  30.709  1.00  0.00     0.059 A 
ATOM     83  C   UNL A   1      35.780  34.794  29.200  1.00  0.00     0.059 A 
ATOM     84  F   UNL A   1      38.072  34.340  29.406  1.00  0.00    -0.206 F 
ATOM     85  C   UNL A   1      34.472  34.577  29.631  1.00  0.00     0.060 A 
BRANCH  85  86
ATOM     86  S   UNL A   1      33.093  35.411  28.818  1.00  0.00     0.124 S 
ATOM     87  O   UNL A   1      32.335  35.907  29.962  1.00  0.00    -0.237 OA
ATOM     88  O   UNL A   1      33.776  36.422  28.017  1.00  0.00    -0.237 OA
ATOM     89  O   UNL A   1      32.457  34.342  28.055  1.00  0.00    -0.744 OA
ENDBRANCH  85  86
ENDBRANCH  53  78
BRANCH  65  90
ATOM     90  C   UNL A   1      39.884  34.150  37.011  1.00  0.00     0.058 A 
ATOM     91  C   UNL A   1      40.511  35.402  36.925  1.00  0.00     0.135 A 
ATOM     92  C   UNL A   1      39.081  33.894  38.135  1.00  0.00     0.135 A 
ATOM     93  F   UNL A   1      41.294  35.695  35.874  1.00  0.00    -0.206 F 
ATOM     94  C   UNL A   1      40.370  36.355  37.929  1.00  0.00     0.059 A 
ATOM     95  C   UNL A   1      38.899  34.844  39.134  1.00  0.00     0.059 A 
ATOM     96  F   UNL A   1      38.448  32.717  38.261  1.00  0.00    -0.206 F 
ATOM     97  C   UNL A   1      39.560  36.067  39.030  1.00  0.00     0.060 A 
BRANCH  97  98
ATOM     98  S   UNL A   1      39.364  37.321  40.312  1.00  0.00     0.124 S 
ATOM     99  O   UNL A   1      40.753  37.651  40.615  1.00  0.00    -0.237 OA
ATOM    100  O   UNL A   1      38.603  38.358  39.621  1.00  0.00    -0.237 OA
ATOM    101  O   UNL A   1      38.641  36.620  41.367  1.00  0.00    -0.744 OA
ENDBRANCH  97  98
ENDBRANCH  65  90
ENDBRANCH  39  40
ENDBRANCH  31  34
ENDBRANCH  29  30
ENDBRANCH  28  29
ENDBRANCH  27  28
ENDBRANCH   1  27
TORSDOF 23
ENDMDL
