MODEL 1
REMARK VINA RESULT:     -13.0      0.000      0.000
REMARK SMILES C[C@@H]1CN(S(=O)(=O)c2cccc(C(=O)N3CCC[C@@H]3C(=O)NCCCCCCNC(=O)c3ccc(-c4c5nc(c(-c6c(F)cc(S(=O)(=O)[O-])cc6F)c6ccc([nH]6)c(-c6c(F)cc(S(=O)(=O)[O-])cc6F)c6nc(c(-c7c(F)cc(S(=O)(=O)[O-])cc7F)c7ccc4[nH]7)C=C6)C=C5)cc3)c2)C[C@H](C)O1
REMARK SMILES IDX 25 1 24 2 23 3 22 4 20 5 21 6 19 8 15 9 16 10 17 11 18 12
REMARK SMILES IDX 13 13 14 14 12 15 8 16 9 17 98 18 10 19 11 20 5 21 6 22 7 23
REMARK SMILES IDX 4 24 1 25 2 26 3 27 102 28 100 29 99 30 101 31 26 32 27 33
REMARK SMILES IDX 28 34 29 35 30 36 31 38 32 39 33 40 97 41 34 42 96 43 35 44
REMARK SMILES IDX 36 45 37 46 90 47 38 48 95 49 89 50 91 51 39 52 94 53 88 54
REMARK SMILES IDX 87 55 40 57 74 58 53 59 73 60 54 61 57 62 72 63 92 64 55 65
REMARK SMILES IDX 56 66 71 68 93 69 58 70 41 71 42 72 51 73 43 74 44 75 50 76
REMARK SMILES IDX 52 77 45 78 46 79 47 80 48 81 49 82 75 83 76 84 85 85 77 86
REMARK SMILES IDX 78 87 84 88 86 89 79 90 80 91 81 92 82 93 83 94 59 95 60 96
REMARK SMILES IDX 69 97 61 98 62 99 68 100 70 101 63 102 64 103 65 104 66 105
REMARK SMILES IDX 67 106
REMARK H PARENT 22 7 29 37 91 56 57 67
REMARK Flexibility Score: inf
ROOT
ATOM      1  C   UNL A   1      38.306  21.795  25.527  1.00  0.00     0.002 C 
ENDROOT
BRANCH   1   2
ATOM      2  C   UNL A   1      37.228  22.575  24.771  1.00  0.00     0.021 C 
BRANCH   2   3
ATOM      3  C   UNL A   1      36.278  23.501  25.527  1.00  0.00     0.116 C 
BRANCH   3   4
ATOM      4  N   UNL A   1      35.491  22.839  26.549  1.00  0.00    -0.354 N 
ATOM      5  C   UNL A   1      34.576  21.827  26.481  1.00  0.00     0.242 C 
ATOM      6  O   UNL A   1      34.060  21.503  27.562  1.00  0.00    -0.273 OA
ATOM      7  H   UNL A   1      35.645  23.181  27.460  1.00  0.00     0.163 HD
BRANCH   5   8
ATOM      8  C   UNL A   1      34.000  21.210  25.173  1.00  0.00     0.174 C 
ATOM      9  N   UNL A   1      32.581  20.935  24.975  1.00  0.00    -0.327 N 
ATOM     10  C   UNL A   1      32.462  19.913  23.948  1.00  0.00     0.121 C 
ATOM     11  C   UNL A   1      33.548  18.939  24.340  1.00  0.00     0.024 C 
ATOM     12  C   UNL A   1      34.657  19.834  24.908  1.00  0.00     0.037 C 
BRANCH   9  13
ATOM     13  C   UNL A   1      31.646  21.950  25.068  1.00  0.00     0.254 C 
ATOM     14  O   UNL A   1      30.657  21.879  25.788  1.00  0.00    -0.269 OA
BRANCH  13  15
ATOM     15  C   UNL A   1      31.750  23.007  24.002  1.00  0.00     0.041 A 
ATOM     16  C   UNL A   1      31.307  25.290  23.281  1.00  0.00     0.083 A 
ATOM     17  C   UNL A   1      32.376  25.206  22.381  1.00  0.00     0.022 A 
ATOM     18  C   UNL A   1      30.966  24.173  24.036  1.00  0.00     0.035 A 
ATOM     19  C   UNL A   1      33.113  24.021  22.277  1.00  0.00     0.002 A 
ATOM     20  C   UNL A   1      32.812  22.928  23.095  1.00  0.00     0.014 A 
BRANCH  16  21
ATOM     21  S   UNL A   1      30.277  26.747  23.325  1.00  0.00     0.243 S 
ATOM     22  O   UNL A   1      28.949  26.285  23.688  1.00  0.00    -0.207 OA
ATOM     23  O   UNL A   1      30.522  27.459  22.095  1.00  0.00    -0.207 OA
BRANCH  21  24
ATOM     24  N   UNL A   1      30.824  27.825  24.629  1.00  0.00    -0.193 NA
ATOM     25  C   UNL A   1      31.702  30.786  26.032  1.00  0.00     0.040 C 
ATOM     26  C   UNL A   1      32.464  29.725  25.242  1.00  0.00     0.130 C 
ATOM     27  C   UNL A   1      31.643  28.997  24.152  1.00  0.00     0.134 C 
ATOM     28  O   UNL A   1      33.199  28.850  26.094  1.00  0.00    -0.373 OA
ATOM     29  C   UNL A   1      32.449  27.766  26.631  1.00  0.00     0.130 C 
ATOM     30  C   UNL A   1      31.681  26.974  25.559  1.00  0.00     0.134 C 
ATOM     31  C   UNL A   1      31.643  28.188  27.846  1.00  0.00     0.040 C 
ENDBRANCH  21  24
ENDBRANCH  16  21
ENDBRANCH  13  15
ENDBRANCH   9  13
ENDBRANCH   5   8
ENDBRANCH   3   4
ENDBRANCH   2   3
ENDBRANCH   1   2
BRANCH   1  32
ATOM     32  C   UNL A   1      39.198  22.548  26.531  1.00  0.00     0.002 C 
BRANCH  32  33
ATOM     33  C   UNL A   1      40.514  21.915  27.029  1.00  0.00     0.021 C 
BRANCH  33  34
ATOM     34  C   UNL A   1      41.811  22.750  27.061  1.00  0.00     0.116 C 
BRANCH  34  35
ATOM     35  N   UNL A   1      42.038  23.628  25.921  1.00  0.00    -0.352 N 
ATOM     36  C   UNL A   1      42.135  25.009  25.834  1.00  0.00     0.251 C 
ATOM     37  H   UNL A   1      42.142  23.160  25.061  1.00  0.00     0.163 HD
ATOM     38  O   UNL A   1      42.453  25.511  24.757  1.00  0.00    -0.269 OA
BRANCH  36  39
ATOM     39  C   UNL A   1      41.870  25.927  26.978  1.00  0.00     0.039 A 
ATOM     40  C   UNL A   1      40.858  25.641  27.891  1.00  0.00     0.014 A 
ATOM     41  C   UNL A   1      42.454  27.191  27.046  1.00  0.00     0.014 A 
ATOM     42  C   UNL A   1      40.537  26.565  28.912  1.00  0.00     0.010 A 
ATOM     43  C   UNL A   1      42.250  28.036  28.158  1.00  0.00     0.010 A 
ATOM     44  C   UNL A   1      41.284  27.745  29.129  1.00  0.00    -0.014 A 
BRANCH  44  45
ATOM     45  C   UNL A   1      41.059  28.608  30.360  1.00  0.00     0.031 A 
ATOM     46  C   UNL A   1      41.896  28.506  31.633  1.00  0.00     0.074 A 
ATOM     47  C   UNL A   1      40.024  29.484  30.382  1.00  0.00     0.049 A 
ATOM     48  N   UNL A   1      41.784  29.184  32.756  1.00  0.00    -0.248 NA
ATOM     49  C   UNL A   1      42.959  27.495  31.675  1.00  0.00     0.031 C 
ATOM     50  C   UNL A   1      39.024  29.640  29.323  1.00  0.00     0.029 A 
ATOM     51  N   UNL A   1      39.639  30.418  31.323  1.00  0.00    -0.354 N 
ATOM     52  C   UNL A   1      42.722  28.651  33.641  1.00  0.00     0.074 A 
ATOM     53  C   UNL A   1      43.359  27.558  32.939  1.00  0.00     0.031 C 
ATOM     54  C   UNL A   1      38.198  30.648  29.631  1.00  0.00     0.029 A 
ATOM     55  C   UNL A   1      38.557  31.182  30.940  1.00  0.00     0.049 A 
ATOM     56  H   UNL A   1      40.095  30.527  32.188  1.00  0.00     0.167 HD
ATOM     57  C   UNL A   1      43.055  29.040  34.902  1.00  0.00     0.037 A 
ATOM     58  C   UNL A   1      37.908  32.197  31.550  1.00  0.00     0.037 A 
ATOM     59  C   UNL A   1      42.491  30.175  35.595  1.00  0.00     0.049 A 
ATOM     60  C   UNL A   1      38.356  32.683  32.899  1.00  0.00     0.074 A 
ATOM     61  C   UNL A   1      42.865  30.705  36.822  1.00  0.00     0.029 A 
ATOM     62  N   UNL A   1      41.444  30.957  35.134  1.00  0.00    -0.354 N 
ATOM     63  N   UNL A   1      39.316  32.222  33.662  1.00  0.00    -0.248 NA
ATOM     64  C   UNL A   1      37.636  33.832  33.469  1.00  0.00     0.031 C 
ATOM     65  C   UNL A   1      42.020  31.782  37.117  1.00  0.00     0.029 A 
ATOM     66  C   UNL A   1      41.149  31.952  36.056  1.00  0.00     0.049 A 
ATOM     67  H   UNL A   1      40.978  30.825  34.277  1.00  0.00     0.167 HD
ATOM     68  C   UNL A   1      39.323  33.031  34.795  1.00  0.00     0.074 A 
ATOM     69  C   UNL A   1      38.287  34.023  34.609  1.00  0.00     0.031 C 
ATOM     70  C   UNL A   1      40.120  32.946  35.888  1.00  0.00     0.037 A 
BRANCH  57  71
ATOM     71  C   UNL A   1      44.116  28.246  35.632  1.00  0.00     0.058 A 
ATOM     72  C   UNL A   1      43.787  27.159  36.459  1.00  0.00     0.135 A 
ATOM     73  C   UNL A   1      45.481  28.537  35.457  1.00  0.00     0.135 A 
ATOM     74  F   UNL A   1      42.502  26.826  36.658  1.00  0.00    -0.206 F 
ATOM     75  C   UNL A   1      44.764  26.425  37.127  1.00  0.00     0.059 A 
ATOM     76  C   UNL A   1      46.477  27.796  36.091  1.00  0.00     0.059 A 
ATOM     77  F   UNL A   1      45.861  29.548  34.660  1.00  0.00    -0.206 F 
ATOM     78  C   UNL A   1      46.107  26.757  36.943  1.00  0.00     0.060 A 
BRANCH  78  79
ATOM     79  S   UNL A   1      47.361  25.812  37.838  1.00  0.00     0.124 S 
ATOM     80  O   UNL A   1      46.586  24.661  38.290  1.00  0.00    -0.237 OA
ATOM     81  O   UNL A   1      48.351  25.541  36.801  1.00  0.00    -0.237 OA
ATOM     82  O   UNL A   1      47.792  26.729  38.889  1.00  0.00    -0.744 OA
ENDBRANCH  78  79
ENDBRANCH  57  71
BRANCH  58  83
ATOM     83  C   UNL A   1      36.765  32.851  30.856  1.00  0.00     0.058 A 
ATOM     84  C   UNL A   1      35.444  32.625  31.272  1.00  0.00     0.135 A 
ATOM     85  C   UNL A   1      36.972  33.750  29.798  1.00  0.00     0.135 A 
ATOM     86  F   UNL A   1      35.193  31.765  32.271  1.00  0.00    -0.206 F 
ATOM     87  C   UNL A   1      34.369  33.264  30.663  1.00  0.00     0.059 A 
ATOM     88  C   UNL A   1      35.917  34.422  29.192  1.00  0.00     0.059 A 
ATOM     89  F   UNL A   1      38.219  34.010  29.374  1.00  0.00    -0.206 F 
ATOM     90  C   UNL A   1      34.616  34.169  29.629  1.00  0.00     0.060 A 
BRANCH  90  91
ATOM     91  S   UNL A   1      33.222  35.058  28.903  1.00  0.00     0.124 S 
ATOM     92  O   UNL A   1      33.888  36.204  28.295  1.00  0.00    -0.237 OA
ATOM     93  O   UNL A   1      32.677  34.071  27.976  1.00  0.00    -0.237 OA
ATOM     94  O   UNL A   1      32.377  35.356  30.056  1.00  0.00    -0.744 OA
ENDBRANCH  90  91
ENDBRANCH  58  83
BRANCH  70  95
ATOM     95  C   UNL A   1      39.927  33.970  36.974  1.00  0.00     0.058 A 
ATOM     96  C   UNL A   1      40.507  35.247  36.899  1.00  0.00     0.135 A 
ATOM     97  C   UNL A   1      39.119  33.687  38.089  1.00  0.00     0.135 A 
ATOM     98  F   UNL A   1      41.294  35.570  35.861  1.00  0.00    -0.206 F 
ATOM     99  C   UNL A   1      40.310  36.197  37.898  1.00  0.00     0.059 A 
ATOM    100  C   UNL A   1      38.890  34.630  39.087  1.00  0.00     0.059 A 
ATOM    101  F   UNL A   1      38.534  32.484  38.210  1.00  0.00    -0.206 F 
ATOM    102  C   UNL A   1      39.500  35.879  38.989  1.00  0.00     0.060 A 
BRANCH 102 103
ATOM    103  S   UNL A   1      39.229  37.130  40.264  1.00  0.00     0.124 S 
ATOM    104  O   UNL A   1      38.603  38.203  39.497  1.00  0.00    -0.237 OA
ATOM    105  O   UNL A   1      38.359  36.434  41.207  1.00  0.00    -0.237 OA
ATOM    106  O   UNL A   1      40.575  37.412  40.755  1.00  0.00    -0.744 OA
ENDBRANCH 102 103
ENDBRANCH  70  95
ENDBRANCH  44  45
ENDBRANCH  36  39
ENDBRANCH  34  35
ENDBRANCH  33  34
ENDBRANCH  32  33
ENDBRANCH   1  32
TORSDOF 20
ENDMDL
MODEL 2
REMARK VINA RESULT:     -12.3      5.763      8.003
REMARK SMILES C[C@@H]1CN(S(=O)(=O)c2cccc(C(=O)N3CCC[C@@H]3C(=O)NCCCCCCNC(=O)c3ccc(-c4c5nc(c(-c6c(F)cc(S(=O)(=O)[O-])cc6F)c6ccc([nH]6)c(-c6c(F)cc(S(=O)(=O)[O-])cc6F)c6nc(c(-c7c(F)cc(S(=O)(=O)[O-])cc7F)c7ccc4[nH]7)C=C6)C=C5)cc3)c2)C[C@H](C)O1
REMARK SMILES IDX 25 1 24 2 23 3 22 4 20 5 21 6 19 8 15 9 16 10 17 11 18 12
REMARK SMILES IDX 13 13 14 14 12 15 8 16 9 17 98 18 10 19 11 20 5 21 6 22 7 23
REMARK SMILES IDX 4 24 1 25 2 26 3 27 102 28 100 29 99 30 101 31 26 32 27 33
REMARK SMILES IDX 28 34 29 35 30 36 31 38 32 39 33 40 97 41 34 42 96 43 35 44
REMARK SMILES IDX 36 45 37 46 90 47 38 48 95 49 89 50 91 51 39 52 94 53 88 54
REMARK SMILES IDX 87 55 40 57 74 58 53 59 73 60 54 61 57 62 72 63 92 64 55 65
REMARK SMILES IDX 56 66 71 68 93 69 58 70 41 71 42 72 51 73 43 74 44 75 50 76
REMARK SMILES IDX 52 77 45 78 46 79 47 80 48 81 49 82 75 83 76 84 85 85 77 86
REMARK SMILES IDX 78 87 84 88 86 89 79 90 80 91 81 92 82 93 83 94 59 95 60 96
REMARK SMILES IDX 69 97 61 98 62 99 68 100 70 101 63 102 64 103 65 104 66 105
REMARK SMILES IDX 67 106
REMARK H PARENT 22 7 29 37 91 56 57 67
REMARK Flexibility Score: inf
ROOT
ATOM      1  C   UNL A   1      37.021  22.436  24.267  1.00  0.00     0.002 C 
ENDROOT
BRANCH   1   2
ATOM      2  C   UNL A   1      36.308  23.569  25.006  1.00  0.00     0.021 C 
BRANCH   2   3
ATOM      3  C   UNL A   1      35.897  23.394  26.467  1.00  0.00     0.116 C 
BRANCH   3   4
ATOM      4  N   UNL A   1      34.469  23.489  26.698  1.00  0.00    -0.354 N 
ATOM      5  C   UNL A   1      33.414  22.801  26.170  1.00  0.00     0.242 C 
ATOM      6  O   UNL A   1      32.295  23.150  26.577  1.00  0.00    -0.273 OA
ATOM      7  H   UNL A   1      34.213  24.174  27.357  1.00  0.00     0.163 HD
BRANCH   5   8
ATOM      8  C   UNL A   1      33.488  21.789  24.989  1.00  0.00     0.174 C 
ATOM      9  N   UNL A   1      32.821  22.002  23.709  1.00  0.00    -0.327 N 
ATOM     10  C   UNL A   1      32.637  20.705  23.079  1.00  0.00     0.121 C 
ATOM     11  C   UNL A   1      32.171  19.852  24.235  1.00  0.00     0.024 C 
ATOM     12  C   UNL A   1      32.937  20.415  25.439  1.00  0.00     0.037 C 
BRANCH   9  13
ATOM     13  C   UNL A   1      33.101  23.121  22.946  1.00  0.00     0.254 C 
ATOM     14  O   UNL A   1      34.099  23.213  22.241  1.00  0.00    -0.269 OA
BRANCH  13  15
ATOM     15  C   UNL A   1      32.275  24.335  23.275  1.00  0.00     0.041 A 
ATOM     16  C   UNL A   1      31.931  26.737  23.081  1.00  0.00     0.083 A 
ATOM     17  C   UNL A   1      30.562  26.553  23.306  1.00  0.00     0.022 A 
ATOM     18  C   UNL A   1      32.781  25.637  23.128  1.00  0.00     0.035 A 
ATOM     19  C   UNL A   1      30.056  25.269  23.537  1.00  0.00     0.002 A 
ATOM     20  C   UNL A   1      30.907  24.160  23.507  1.00  0.00     0.014 A 
BRANCH  16  21
ATOM     21  S   UNL A   1      32.606  28.382  22.920  1.00  0.00     0.243 S 
ATOM     22  O   UNL A   1      31.521  29.211  22.427  1.00  0.00    -0.207 OA
ATOM     23  O   UNL A   1      33.846  28.246  22.194  1.00  0.00    -0.207 OA
BRANCH  21  24
ATOM     24  N   UNL A   1      33.049  29.006  24.525  1.00  0.00    -0.193 NA
ATOM     25  C   UNL A   1      34.923  29.252  27.340  1.00  0.00     0.040 C 
ATOM     26  C   UNL A   1      33.771  28.347  26.916  1.00  0.00     0.130 C 
ATOM     27  C   UNL A   1      33.727  27.994  25.411  1.00  0.00     0.134 C 
ATOM     28  O   UNL A   1      32.522  28.789  27.442  1.00  0.00    -0.373 OA
ATOM     29  C   UNL A   1      31.873  29.800  26.680  1.00  0.00     0.130 C 
ATOM     30  C   UNL A   1      31.748  29.444  25.188  1.00  0.00     0.134 C 
ATOM     31  C   UNL A   1      32.432  31.179  26.985  1.00  0.00     0.040 C 
ENDBRANCH  21  24
ENDBRANCH  16  21
ENDBRANCH  13  15
ENDBRANCH   9  13
ENDBRANCH   5   8
ENDBRANCH   3   4
ENDBRANCH   2   3
ENDBRANCH   1   2
BRANCH   1  32
ATOM     32  C   UNL A   1      36.653  20.981  24.609  1.00  0.00     0.002 C 
BRANCH  32  33
ATOM     33  C   UNL A   1      37.761  19.935  24.855  1.00  0.00     0.021 C 
BRANCH  33  34
ATOM     34  C   UNL A   1      38.940  20.264  25.793  1.00  0.00     0.116 C 
BRANCH  34  35
ATOM     35  N   UNL A   1      40.036  19.303  25.810  1.00  0.00    -0.352 N 
ATOM     36  C   UNL A   1      41.375  19.447  26.143  1.00  0.00     0.251 C 
ATOM     37  H   UNL A   1      39.781  18.391  25.539  1.00  0.00     0.163 HD
ATOM     38  O   UNL A   1      42.082  18.441  26.190  1.00  0.00    -0.269 OA
BRANCH  36  39
ATOM     39  C   UNL A   1      42.012  20.760  26.442  1.00  0.00     0.039 A 
ATOM     40  C   UNL A   1      42.557  21.529  25.418  1.00  0.00     0.014 A 
ATOM     41  C   UNL A   1      42.286  21.152  27.752  1.00  0.00     0.014 A 
ATOM     42  C   UNL A   1      43.255  22.722  25.716  1.00  0.00     0.010 A 
ATOM     43  C   UNL A   1      42.835  22.421  28.040  1.00  0.00     0.010 A 
ATOM     44  C   UNL A   1      43.335  23.247  27.026  1.00  0.00    -0.014 A 
BRANCH  44  45
ATOM     45  C   UNL A   1      43.899  24.634  27.288  1.00  0.00     0.031 A 
ATOM     46  C   UNL A   1      45.353  25.022  27.032  1.00  0.00     0.074 A 
ATOM     47  C   UNL A   1      43.104  25.585  27.838  1.00  0.00     0.049 A 
ATOM     48  N   UNL A   1      45.952  26.178  27.235  1.00  0.00    -0.248 NA
ATOM     49  C   UNL A   1      46.262  23.983  26.532  1.00  0.00     0.031 C 
ATOM     50  C   UNL A   1      41.724  25.382  28.284  1.00  0.00     0.029 A 
ATOM     51  N   UNL A   1      43.334  26.919  28.114  1.00  0.00    -0.354 N 
ATOM     52  C   UNL A   1      47.301  25.988  26.933  1.00  0.00     0.074 A 
ATOM     53  C   UNL A   1      47.441  24.591  26.583  1.00  0.00     0.031 C 
ATOM     54  C   UNL A   1      41.210  26.547  28.699  1.00  0.00     0.029 A 
ATOM     55  C   UNL A   1      42.234  27.583  28.615  1.00  0.00     0.049 A 
ATOM     56  H   UNL A   1      44.204  27.355  27.967  1.00  0.00     0.167 HD
ATOM     57  C   UNL A   1      48.327  26.881  26.913  1.00  0.00     0.037 A 
ATOM     58  C   UNL A   1      42.043  28.869  28.975  1.00  0.00     0.037 A 
ATOM     59  C   UNL A   1      48.200  28.295  27.181  1.00  0.00     0.049 A 
ATOM     60  C   UNL A   1      43.159  29.867  28.847  1.00  0.00     0.074 A 
ATOM     61  C   UNL A   1      49.167  29.283  27.060  1.00  0.00     0.029 A 
ATOM     62  N   UNL A   1      47.048  28.928  27.619  1.00  0.00    -0.354 N 
ATOM     63  N   UNL A   1      44.395  29.673  28.458  1.00  0.00    -0.248 NA
ATOM     64  C   UNL A   1      42.854  31.262  29.203  1.00  0.00     0.031 C 
ATOM     65  C   UNL A   1      48.609  30.504  27.460  1.00  0.00     0.029 A 
ATOM     66  C   UNL A   1      47.283  30.286  27.788  1.00  0.00     0.049 A 
ATOM     67  H   UNL A   1      46.187  28.479  27.787  1.00  0.00     0.167 HD
ATOM     68  C   UNL A   1      45.010  30.920  28.511  1.00  0.00     0.074 A 
ATOM     69  C   UNL A   1      44.007  31.866  28.949  1.00  0.00     0.031 C 
ATOM     70  C   UNL A   1      46.295  31.240  28.224  1.00  0.00     0.037 A 
BRANCH  57  71
ATOM     71  C   UNL A   1      49.706  26.370  26.558  1.00  0.00     0.058 A 
ATOM     72  C   UNL A   1      50.180  26.377  25.236  1.00  0.00     0.135 A 
ATOM     73  C   UNL A   1      50.587  25.922  27.559  1.00  0.00     0.135 A 
ATOM     74  F   UNL A   1      49.389  26.802  24.238  1.00  0.00    -0.206 F 
ATOM     75  C   UNL A   1      51.451  25.911  24.911  1.00  0.00     0.059 A 
ATOM     76  C   UNL A   1      51.875  25.480  27.261  1.00  0.00     0.059 A 
ATOM     77  F   UNL A   1      50.203  25.913  28.845  1.00  0.00    -0.206 F 
ATOM     78  C   UNL A   1      52.289  25.455  25.930  1.00  0.00     0.060 A 
BRANCH  78  79
ATOM     79  S   UNL A   1      53.925  24.829  25.488  1.00  0.00     0.124 S 
ATOM     80  O   UNL A   1      54.280  25.708  24.379  1.00  0.00    -0.237 OA
ATOM     81  O   UNL A   1      54.682  25.028  26.720  1.00  0.00    -0.237 OA
ATOM     82  O   UNL A   1      53.671  23.438  25.129  1.00  0.00    -0.744 OA
ENDBRANCH  78  79
ENDBRANCH  57  71
BRANCH  58  83
ATOM     83  C   UNL A   1      40.705  29.297  29.468  1.00  0.00     0.058 A 
ATOM     84  C   UNL A   1      40.465  29.474  30.839  1.00  0.00     0.135 A 
ATOM     85  C   UNL A   1      39.657  29.580  28.579  1.00  0.00     0.135 A 
ATOM     86  F   UNL A   1      41.430  29.205  31.730  1.00  0.00    -0.206 F 
ATOM     87  C   UNL A   1      39.233  29.917  31.312  1.00  0.00     0.059 A 
ATOM     88  C   UNL A   1      38.427  30.051  29.024  1.00  0.00     0.059 A 
ATOM     89  F   UNL A   1      39.843  29.440  27.257  1.00  0.00    -0.206 F 
ATOM     90  C   UNL A   1      38.222  30.212  30.395  1.00  0.00     0.060 A 
BRANCH  90  91
ATOM     91  S   UNL A   1      36.657  30.868  31.012  1.00  0.00     0.124 S 
ATOM     92  O   UNL A   1      36.121  31.519  29.822  1.00  0.00    -0.237 OA
ATOM     93  O   UNL A   1      35.965  29.657  31.443  1.00  0.00    -0.237 OA
ATOM     94  O   UNL A   1      37.069  31.761  32.091  1.00  0.00    -0.744 OA
ENDBRANCH  90  91
ENDBRANCH  58  83
BRANCH  70  95
ATOM     95  C   UNL A   1      46.700  32.685  28.348  1.00  0.00     0.058 A 
ATOM     96  C   UNL A   1      47.216  33.208  29.545  1.00  0.00     0.135 A 
ATOM     97  C   UNL A   1      46.611  33.550  27.245  1.00  0.00     0.135 A 
ATOM     98  F   UNL A   1      47.318  32.429  30.633  1.00  0.00    -0.206 F 
ATOM     99  C   UNL A   1      47.607  34.540  29.650  1.00  0.00     0.059 A 
ATOM    100  C   UNL A   1      47.018  34.880  27.321  1.00  0.00     0.059 A 
ATOM    101  F   UNL A   1      46.132  33.103  26.073  1.00  0.00    -0.206 F 
ATOM    102  C   UNL A   1      47.504  35.369  28.532  1.00  0.00     0.060 A 
BRANCH 102 103
ATOM    103  S   UNL A   1      48.042  37.088  28.673  1.00  0.00     0.124 S 
ATOM    104  O   UNL A   1      47.858  37.340  30.098  1.00  0.00    -0.237 OA
ATOM    105  O   UNL A   1      49.426  37.023  28.215  1.00  0.00    -0.237 OA
ATOM    106  O   UNL A   1      47.129  37.804  27.786  1.00  0.00    -0.744 OA
ENDBRANCH 102 103
ENDBRANCH  70  95
ENDBRANCH  44  45
ENDBRANCH  36  39
ENDBRANCH  34  35
ENDBRANCH  33  34
ENDBRANCH  32  33
ENDBRANCH   1  32
TORSDOF 20
ENDMDL
MODEL 3
REMARK VINA RESULT:     -11.8      2.754      9.615
REMARK SMILES C[C@@H]1CN(S(=O)(=O)c2cccc(C(=O)N3CCC[C@@H]3C(=O)NCCCCCCNC(=O)c3ccc(-c4c5nc(c(-c6c(F)cc(S(=O)(=O)[O-])cc6F)c6ccc([nH]6)c(-c6c(F)cc(S(=O)(=O)[O-])cc6F)c6nc(c(-c7c(F)cc(S(=O)(=O)[O-])cc7F)c7ccc4[nH]7)C=C6)C=C5)cc3)c2)C[C@H](C)O1
REMARK SMILES IDX 25 1 24 2 23 3 22 4 20 5 21 6 19 8 15 9 16 10 17 11 18 12
REMARK SMILES IDX 13 13 14 14 12 15 8 16 9 17 98 18 10 19 11 20 5 21 6 22 7 23
REMARK SMILES IDX 4 24 1 25 2 26 3 27 102 28 100 29 99 30 101 31 26 32 27 33
REMARK SMILES IDX 28 34 29 35 30 36 31 38 32 39 33 40 97 41 34 42 96 43 35 44
REMARK SMILES IDX 36 45 37 46 90 47 38 48 95 49 89 50 91 51 39 52 94 53 88 54
REMARK SMILES IDX 87 55 40 57 74 58 53 59 73 60 54 61 57 62 72 63 92 64 55 65
REMARK SMILES IDX 56 66 71 68 93 69 58 70 41 71 42 72 51 73 43 74 44 75 50 76
REMARK SMILES IDX 52 77 45 78 46 79 47 80 48 81 49 82 75 83 76 84 85 85 77 86
REMARK SMILES IDX 78 87 84 88 86 89 79 90 80 91 81 92 82 93 83 94 59 95 60 96
REMARK SMILES IDX 69 97 61 98 62 99 68 100 70 101 63 102 64 103 65 104 66 105
REMARK SMILES IDX 67 106
REMARK H PARENT 22 7 29 37 91 56 57 67
REMARK Flexibility Score: inf
ROOT
ATOM      1  C   UNL A   1      34.499  32.196  27.925  1.00  0.00     0.002 C 
ENDROOT
BRANCH   1   2
ATOM      2  C   UNL A   1      33.232  31.470  27.470  1.00  0.00     0.021 C 
BRANCH   2   3
ATOM      3  C   UNL A   1      33.281  29.983  27.126  1.00  0.00     0.116 C 
BRANCH   3   4
ATOM      4  N   UNL A   1      33.635  29.704  25.748  1.00  0.00    -0.354 N 
ATOM      5  C   UNL A   1      32.924  29.154  24.719  1.00  0.00     0.242 C 
ATOM      6  O   UNL A   1      33.543  29.035  23.650  1.00  0.00    -0.273 OA
ATOM      7  H   UNL A   1      34.556  29.958  25.510  1.00  0.00     0.163 HD
BRANCH   5   8
ATOM      8  C   UNL A   1      31.516  28.501  24.835  1.00  0.00     0.174 C 
ATOM      9  N   UNL A   1      31.290  27.062  24.738  1.00  0.00    -0.327 N 
ATOM     10  C   UNL A   1      29.906  26.851  24.349  1.00  0.00     0.121 C 
ATOM     11  C   UNL A   1      29.715  27.893  23.271  1.00  0.00     0.024 C 
ATOM     12  C   UNL A   1      30.582  29.069  23.740  1.00  0.00     0.037 C 
BRANCH   9  13
ATOM     13  C   UNL A   1      31.916  26.190  25.611  1.00  0.00     0.254 C 
ATOM     14  O   UNL A   1      31.875  26.324  26.829  1.00  0.00    -0.269 OA
BRANCH  13  15
ATOM     15  C   UNL A   1      32.905  25.255  24.971  1.00  0.00     0.041 A 
ATOM     16  C   UNL A   1      33.865  23.022  24.818  1.00  0.00     0.083 A 
ATOM     17  C   UNL A   1      34.255  23.287  23.500  1.00  0.00     0.022 A 
ATOM     18  C   UNL A   1      33.251  24.026  25.559  1.00  0.00     0.035 A 
ATOM     19  C   UNL A   1      33.991  24.538  22.929  1.00  0.00     0.002 A 
ATOM     20  C   UNL A   1      33.305  25.515  23.656  1.00  0.00     0.014 A 
BRANCH  16  21
ATOM     21  S   UNL A   1      34.314  21.482  25.600  1.00  0.00     0.243 S 
ATOM     22  O   UNL A   1      33.461  21.365  26.769  1.00  0.00    -0.207 OA
ATOM     23  O   UNL A   1      35.753  21.482  25.708  1.00  0.00    -0.207 OA
BRANCH  21  24
ATOM     24  N   UNL A   1      33.909  20.125  24.524  1.00  0.00    -0.193 NA
ATOM     25  C   UNL A   1      32.391  18.604  21.901  1.00  0.00     0.040 C 
ATOM     26  C   UNL A   1      31.979  18.877  23.345  1.00  0.00     0.130 C 
ATOM     27  C   UNL A   1      32.519  20.195  23.947  1.00  0.00     0.134 C 
ATOM     28  O   UNL A   1      32.172  17.738  24.180  1.00  0.00    -0.373 OA
ATOM     29  C   UNL A   1      33.491  17.585  24.692  1.00  0.00     0.130 C 
ATOM     30  C   UNL A   1      34.027  18.860  25.366  1.00  0.00     0.134 C 
ATOM     31  C   UNL A   1      34.415  16.934  23.678  1.00  0.00     0.040 C 
ENDBRANCH  21  24
ENDBRANCH  16  21
ENDBRANCH  13  15
ENDBRANCH   9  13
ENDBRANCH   5   8
ENDBRANCH   3   4
ENDBRANCH   2   3
ENDBRANCH   1   2
BRANCH   1  32
ATOM     32  C   UNL A   1      34.419  33.702  28.238  1.00  0.00     0.002 C 
BRANCH  32  33
ATOM     33  C   UNL A   1      33.112  34.315  28.782  1.00  0.00     0.021 C 
BRANCH  33  34
ATOM     34  C   UNL A   1      33.063  35.806  29.175  1.00  0.00     0.116 C 
BRANCH  34  35
ATOM     35  N   UNL A   1      32.372  36.121  30.419  1.00  0.00    -0.352 N 
ATOM     36  C   UNL A   1      32.720  35.895  31.742  1.00  0.00     0.251 C 
ATOM     37  H   UNL A   1      31.507  36.574  30.299  1.00  0.00     0.163 HD
ATOM     38  O   UNL A   1      32.009  36.368  32.628  1.00  0.00    -0.269 OA
BRANCH  36  39
ATOM     39  C   UNL A   1      33.911  35.100  32.156  1.00  0.00     0.039 A 
ATOM     40  C   UNL A   1      35.188  35.650  32.078  1.00  0.00     0.014 A 
ATOM     41  C   UNL A   1      33.818  33.733  32.414  1.00  0.00     0.014 A 
ATOM     42  C   UNL A   1      36.324  34.860  32.370  1.00  0.00     0.010 A 
ATOM     43  C   UNL A   1      34.933  32.992  32.864  1.00  0.00     0.010 A 
ATOM     44  C   UNL A   1      36.223  33.538  32.858  1.00  0.00    -0.014 A 
BRANCH  44  45
ATOM     45  C   UNL A   1      37.443  32.789  33.369  1.00  0.00     0.031 A 
ATOM     46  C   UNL A   1      38.142  31.675  32.593  1.00  0.00     0.074 A 
ATOM     47  C   UNL A   1      37.923  33.061  34.608  1.00  0.00     0.049 A 
ATOM     48  N   UNL A   1      39.187  30.952  32.940  1.00  0.00    -0.248 NA
ATOM     49  C   UNL A   1      37.582  31.290  31.292  1.00  0.00     0.031 C 
ATOM     50  C   UNL A   1      37.320  33.992  35.564  1.00  0.00     0.029 A 
ATOM     51  N   UNL A   1      39.033  32.589  35.280  1.00  0.00    -0.354 N 
ATOM     52  C   UNL A   1      39.373  30.008  31.929  1.00  0.00     0.074 A 
ATOM     53  C   UNL A   1      38.300  30.218  30.981  1.00  0.00     0.031 C 
ATOM     54  C   UNL A   1      38.096  34.081  36.653  1.00  0.00     0.029 A 
ATOM     55  C   UNL A   1      39.227  33.170  36.515  1.00  0.00     0.049 A 
ATOM     56  H   UNL A   1      39.631  31.899  34.910  1.00  0.00     0.167 HD
ATOM     57  C   UNL A   1      40.351  29.075  31.774  1.00  0.00     0.037 A 
ATOM     58  C   UNL A   1      40.189  33.008  37.448  1.00  0.00     0.037 A 
ATOM     59  C   UNL A   1      41.476  28.897  32.663  1.00  0.00     0.049 A 
ATOM     60  C   UNL A   1      41.320  32.047  37.213  1.00  0.00     0.074 A 
ATOM     61  C   UNL A   1      42.571  28.058  32.506  1.00  0.00     0.029 A 
ATOM     62  N   UNL A   1      41.660  29.559  33.866  1.00  0.00    -0.354 N 
ATOM     63  N   UNL A   1      41.521  31.245  36.197  1.00  0.00    -0.248 NA
ATOM     64  C   UNL A   1      42.361  31.973  38.251  1.00  0.00     0.031 C 
ATOM     65  C   UNL A   1      43.395  28.188  33.631  1.00  0.00     0.029 A 
ATOM     66  C   UNL A   1      42.838  29.139  34.468  1.00  0.00     0.049 A 
ATOM     67  H   UNL A   1      41.043  30.231  34.239  1.00  0.00     0.167 HD
ATOM     68  C   UNL A   1      42.713  30.581  36.466  1.00  0.00     0.074 A 
ATOM     69  C   UNL A   1      43.201  31.089  37.730  1.00  0.00     0.031 C 
ATOM     70  C   UNL A   1      43.337  29.633  35.726  1.00  0.00     0.037 A 
BRANCH  57  71
ATOM     71  C   UNL A   1      40.279  28.166  30.566  1.00  0.00     0.058 A 
ATOM     72  C   UNL A   1      41.127  28.338  29.459  1.00  0.00     0.135 A 
ATOM     73  C   UNL A   1      39.392  27.075  30.539  1.00  0.00     0.135 A 
ATOM     74  F   UNL A   1      42.001  29.356  29.430  1.00  0.00    -0.206 F 
ATOM     75  C   UNL A   1      41.062  27.498  28.351  1.00  0.00     0.059 A 
ATOM     76  C   UNL A   1      39.333  26.202  29.453  1.00  0.00     0.059 A 
ATOM     77  F   UNL A   1      38.573  26.842  31.576  1.00  0.00    -0.206 F 
ATOM     78  C   UNL A   1      40.155  26.438  28.353  1.00  0.00     0.060 A 
BRANCH  78  79
ATOM     79  S   UNL A   1      40.067  25.374  26.895  1.00  0.00     0.124 S 
ATOM     80  O   UNL A   1      40.691  26.219  25.882  1.00  0.00    -0.237 OA
ATOM     81  O   UNL A   1      40.838  24.207  27.309  1.00  0.00    -0.237 OA
ATOM     82  O   UNL A   1      38.635  25.147  26.726  1.00  0.00    -0.744 OA
ENDBRANCH  78  79
ENDBRANCH  57  71
BRANCH  58  83
ATOM     83  C   UNL A   1      40.135  33.816  38.697  1.00  0.00     0.058 A 
ATOM     84  C   UNL A   1      40.824  35.033  38.800  1.00  0.00     0.135 A 
ATOM     85  C   UNL A   1      39.359  33.409  39.794  1.00  0.00     0.135 A 
ATOM     86  F   UNL A   1      41.589  35.459  37.783  1.00  0.00    -0.206 F 
ATOM     87  C   UNL A   1      40.746  35.820  39.944  1.00  0.00     0.059 A 
ATOM     88  C   UNL A   1      39.243  34.191  40.938  1.00  0.00     0.059 A 
ATOM     89  F   UNL A   1      38.671  32.258  39.739  1.00  0.00    -0.206 F 
ATOM     90  C   UNL A   1      39.945  35.395  41.006  1.00  0.00     0.060 A 
BRANCH  90  91
ATOM     91  S   UNL A   1      39.782  36.464  42.452  1.00  0.00     0.124 S 
ATOM     92  O   UNL A   1      39.533  37.761  41.833  1.00  0.00    -0.237 OA
ATOM     93  O   UNL A   1      38.652  35.864  43.153  1.00  0.00    -0.237 OA
ATOM     94  O   UNL A   1      41.072  36.320  43.123  1.00  0.00    -0.744 OA
ENDBRANCH  90  91
ENDBRANCH  58  83
BRANCH  70  95
ATOM     95  C   UNL A   1      44.640  29.085  36.245  1.00  0.00     0.058 A 
ATOM     96  C   UNL A   1      45.864  29.726  35.992  1.00  0.00     0.135 A 
ATOM     97  C   UNL A   1      44.663  27.927  37.039  1.00  0.00     0.135 A 
ATOM     98  F   UNL A   1      45.903  30.832  35.234  1.00  0.00    -0.206 F 
ATOM     99  C   UNL A   1      47.064  29.226  36.490  1.00  0.00     0.059 A 
ATOM    100  C   UNL A   1      45.849  27.423  37.567  1.00  0.00     0.059 A 
ATOM    101  F   UNL A   1      43.522  27.277  37.319  1.00  0.00    -0.206 F 
ATOM    102  C   UNL A   1      47.047  28.074  37.278  1.00  0.00     0.060 A 
BRANCH 102 103
ATOM    103  S   UNL A   1      48.608  27.452  37.942  1.00  0.00     0.124 S 
ATOM    104  O   UNL A   1      48.145  26.537  38.980  1.00  0.00    -0.237 OA
ATOM    105  O   UNL A   1      49.219  26.826  36.773  1.00  0.00    -0.237 OA
ATOM    106  O   UNL A   1      49.278  28.658  38.420  1.00  0.00    -0.744 OA
ENDBRANCH 102 103
ENDBRANCH  70  95
ENDBRANCH  44  45
ENDBRANCH  36  39
ENDBRANCH  34  35
ENDBRANCH  33  34
ENDBRANCH  32  33
ENDBRANCH   1  32
TORSDOF 20
ENDMDL
