MODEL 1
REMARK VINA RESULT:     -12.1      0.000      0.000
REMARK SMILES Nc1nc2ccccc2nc1N1CCCC[C@@H]1C(=O)NCCCCCCNC(=O)c1ccc(-c2c3nc(c(-c4c(F)cc(S(=O)(=O)[O-])cc4F)c4ccc([nH]4)c(-c4c(F)cc(S(=O)(=O)[O-])cc4F)c4nc(c(-c5c(F)cc(S(=O)(=O)[O-])cc5F)c5ccc2[nH]5)C=C4)C=C3)cc1
REMARK SMILES IDX 24 1 23 2 22 3 21 4 20 5 18 6 19 7 17 9 12 10 13 11 14 12
REMARK SMILES IDX 16 13 15 14 11 15 2 16 3 17 4 18 10 19 5 20 9 21 6 22 8 23
REMARK SMILES IDX 7 24 1 25 25 28 26 29 27 30 28 31 29 33 30 34 31 35 95 36
REMARK SMILES IDX 32 37 94 38 33 39 34 40 35 41 88 42 36 43 93 44 87 45 89 46
REMARK SMILES IDX 37 47 92 48 86 49 85 50 38 52 72 53 51 54 71 55 52 56 55 57
REMARK SMILES IDX 70 58 90 59 53 60 54 61 69 63 91 64 56 65 39 66 40 67 49 68
REMARK SMILES IDX 41 69 42 70 48 71 50 72 43 73 44 74 45 75 46 76 47 77 73 78
REMARK SMILES IDX 74 79 83 80 75 81 76 82 82 83 84 84 77 85 78 86 79 87 80 88
REMARK SMILES IDX 81 89 57 90 58 91 67 92 59 93 60 94 66 95 68 96 61 97 62 98
REMARK SMILES IDX 63 99 64 100 65 101
REMARK H PARENT 20 8 1 26 1 27 27 32 89 51 55 62
REMARK Flexibility Score: inf
ROOT
ATOM      1  C   UNL A   1      31.930  30.571  26.420  1.00  0.00     0.002 C 
ENDROOT
BRANCH   1   2
ATOM      2  C   UNL A   1      32.981  29.880  27.297  1.00  0.00     0.002 C 
BRANCH   2   3
ATOM      3  C   UNL A   1      34.216  29.354  26.556  1.00  0.00     0.021 C 
BRANCH   3   4
ATOM      4  C   UNL A   1      33.913  28.239  25.559  1.00  0.00     0.116 C 
BRANCH   4   5
ATOM      5  N   UNL A   1      33.392  27.062  26.230  1.00  0.00    -0.354 N 
ATOM      6  C   UNL A   1      33.250  25.783  25.774  1.00  0.00     0.242 C 
ATOM      7  O   UNL A   1      32.689  24.975  26.525  1.00  0.00    -0.273 OA
ATOM      8  H   UNL A   1      33.094  27.208  27.157  1.00  0.00     0.163 HD
BRANCH   6   9
ATOM      9  C   UNL A   1      33.674  25.362  24.346  1.00  0.00     0.173 C 
ATOM     10  N   UNL A   1      32.619  25.426  23.312  1.00  0.00    -0.342 N 
ATOM     11  C   UNL A   1      32.883  24.850  22.002  1.00  0.00     0.119 C 
ATOM     12  C   UNL A   1      33.350  23.409  22.154  1.00  0.00     0.022 C 
ATOM     13  C   UNL A   1      34.286  23.947  24.424  1.00  0.00     0.035 C 
ATOM     14  C   UNL A   1      34.574  23.333  23.059  1.00  0.00     0.004 C 
BRANCH  10  15
ATOM     15  C   UNL A   1      31.463  26.175  23.427  1.00  0.00     0.172 A 
ATOM     16  C   UNL A   1      30.249  25.691  23.971  1.00  0.00     0.167 A 
ATOM     17  N   UNL A   1      29.099  26.393  23.899  1.00  0.00    -0.226 NA
ATOM     18  C   UNL A   1      29.157  27.596  23.297  1.00  0.00     0.091 A 
ATOM     19  N   UNL A   1      31.523  27.424  22.909  1.00  0.00    -0.225 NA
ATOM     20  C   UNL A   1      27.995  28.337  23.122  1.00  0.00     0.031 A 
ATOM     21  C   UNL A   1      30.378  28.119  22.815  1.00  0.00     0.091 A 
ATOM     22  C   UNL A   1      28.011  29.574  22.475  1.00  0.00     0.002 A 
ATOM     23  C   UNL A   1      30.387  29.356  22.185  1.00  0.00     0.031 A 
ATOM     24  C   UNL A   1      29.213  30.086  22.004  1.00  0.00     0.002 A 
BRANCH  16  25
ATOM     25  N   UNL A   1      30.145  24.451  24.580  1.00  0.00    -0.381 N 
ATOM     26  H   UNL A   1      30.763  24.206  25.307  1.00  0.00     0.158 HD
ATOM     27  H   UNL A   1      29.454  23.814  24.286  1.00  0.00     0.158 HD
ENDBRANCH  16  25
ENDBRANCH  10  15
ENDBRANCH   6   9
ENDBRANCH   4   5
ENDBRANCH   3   4
ENDBRANCH   2   3
ENDBRANCH   1   2
BRANCH   1  28
ATOM     28  C   UNL A   1      31.651  32.035  26.762  1.00  0.00     0.021 C 
BRANCH  28  29
ATOM     29  C   UNL A   1      32.825  32.785  27.382  1.00  0.00     0.116 C 
BRANCH  29  30
ATOM     30  N   UNL A   1      32.502  34.164  27.715  1.00  0.00    -0.352 N 
ATOM     31  C   UNL A   1      33.051  34.981  28.674  1.00  0.00     0.251 C 
ATOM     32  H   UNL A   1      31.787  34.571  27.173  1.00  0.00     0.163 HD
ATOM     33  O   UNL A   1      32.549  36.077  28.906  1.00  0.00    -0.269 OA
BRANCH  31  34
ATOM     34  C   UNL A   1      34.227  34.524  29.447  1.00  0.00     0.039 A 
ATOM     35  C   UNL A   1      35.516  34.646  28.925  1.00  0.00     0.014 A 
ATOM     36  C   UNL A   1      34.037  33.954  30.710  1.00  0.00     0.014 A 
ATOM     37  C   UNL A   1      36.587  34.054  29.584  1.00  0.00     0.010 A 
ATOM     38  C   UNL A   1      35.130  33.439  31.415  1.00  0.00     0.010 A 
ATOM     39  C   UNL A   1      36.409  33.441  30.837  1.00  0.00    -0.014 A 
BRANCH  39  40
ATOM     40  C   UNL A   1      37.583  32.823  31.509  1.00  0.00     0.031 A 
ATOM     41  C   UNL A   1      38.040  33.298  32.864  1.00  0.00     0.074 A 
ATOM     42  C   UNL A   1      38.190  31.771  30.924  1.00  0.00     0.049 A 
ATOM     43  N   UNL A   1      38.975  32.803  33.634  1.00  0.00    -0.248 NA
ATOM     44  C   UNL A   1      37.366  34.479  33.427  1.00  0.00     0.031 C 
ATOM     45  C   UNL A   1      37.841  31.228  29.609  1.00  0.00     0.029 A 
ATOM     46  N   UNL A   1      39.190  30.944  31.367  1.00  0.00    -0.354 N 
ATOM     47  C   UNL A   1      39.009  33.613  34.764  1.00  0.00     0.074 A 
ATOM     48  C   UNL A   1      38.026  34.655  34.564  1.00  0.00     0.031 C 
ATOM     49  C   UNL A   1      38.560  30.118  29.386  1.00  0.00     0.029 A 
ATOM     50  C   UNL A   1      39.460  29.901  30.513  1.00  0.00     0.049 A 
ATOM     51  H   UNL A   1      39.670  31.084  32.216  1.00  0.00     0.167 HD
ATOM     52  C   UNL A   1      39.774  33.485  35.875  1.00  0.00     0.037 A 
ATOM     53  C   UNL A   1      40.332  28.878  30.622  1.00  0.00     0.037 A 
ATOM     54  C   UNL A   1      40.735  32.432  36.077  1.00  0.00     0.049 A 
ATOM     55  C   UNL A   1      41.187  28.774  31.851  1.00  0.00     0.074 A 
ATOM     56  C   UNL A   1      41.542  32.207  37.178  1.00  0.00     0.029 A 
ATOM     57  N   UNL A   1      41.017  31.428  35.161  1.00  0.00    -0.354 N 
ATOM     58  N   UNL A   1      41.185  29.535  32.920  1.00  0.00    -0.248 NA
ATOM     59  C   UNL A   1      42.169  27.681  31.891  1.00  0.00     0.031 C 
ATOM     60  C   UNL A   1      42.342  31.091  36.913  1.00  0.00     0.029 A 
ATOM     61  C   UNL A   1      42.001  30.594  35.666  1.00  0.00     0.049 A 
ATOM     62  H   UNL A   1      40.583  31.326  34.284  1.00  0.00     0.167 HD
ATOM     63  C   UNL A   1      42.155  29.007  33.763  1.00  0.00     0.074 A 
ATOM     64  C   UNL A   1      42.717  27.855  33.088  1.00  0.00     0.031 C 
ATOM     65  C   UNL A   1      42.543  29.444  34.985  1.00  0.00     0.037 A 
BRANCH  52  66
ATOM     66  C   UNL A   1      39.607  34.507  36.966  1.00  0.00     0.058 A 
ATOM     67  C   UNL A   1      38.838  34.240  38.110  1.00  0.00     0.135 A 
ATOM     68  C   UNL A   1      40.271  35.743  36.898  1.00  0.00     0.135 A 
ATOM     69  F   UNL A   1      38.171  33.080  38.220  1.00  0.00    -0.206 F 
ATOM     70  C   UNL A   1      38.716  35.169  39.138  1.00  0.00     0.059 A 
ATOM     71  C   UNL A   1      40.184  36.678  37.926  1.00  0.00     0.059 A 
ATOM     72  F   UNL A   1      41.023  36.048  35.828  1.00  0.00    -0.206 F 
ATOM     73  C   UNL A   1      39.393  36.385  39.037  1.00  0.00     0.060 A 
BRANCH  73  74
ATOM     74  S   UNL A   1      39.225  37.575  40.384  1.00  0.00     0.124 S 
ATOM     75  O   UNL A   1      38.159  38.436  39.879  1.00  0.00    -0.237 OA
ATOM     76  O   UNL A   1      38.868  36.721  41.512  1.00  0.00    -0.237 OA
ATOM     77  O   UNL A   1      40.545  38.194  40.461  1.00  0.00    -0.744 OA
ENDBRANCH  73  74
ENDBRANCH  52  66
BRANCH  53  78
ATOM     78  C   UNL A   1      40.408  27.865  29.537  1.00  0.00     0.058 A 
ATOM     79  C   UNL A   1      41.402  27.937  28.552  1.00  0.00     0.135 A 
ATOM     80  C   UNL A   1      39.528  26.771  29.502  1.00  0.00     0.135 A 
ATOM     81  F   UNL A   1      42.263  28.966  28.541  1.00  0.00    -0.206 F 
ATOM     82  C   UNL A   1      41.526  26.958  27.570  1.00  0.00     0.059 A 
ATOM     83  C   UNL A   1      39.647  25.768  28.545  1.00  0.00     0.059 A 
ATOM     84  F   UNL A   1      38.569  26.649  30.433  1.00  0.00    -0.206 F 
ATOM     85  C   UNL A   1      40.649  25.872  27.582  1.00  0.00     0.060 A 
BRANCH  85  86
ATOM     86  S   UNL A   1      40.871  24.569  26.352  1.00  0.00     0.124 S 
ATOM     87  O   UNL A   1      41.856  23.715  27.004  1.00  0.00    -0.237 OA
ATOM     88  O   UNL A   1      39.522  24.020  26.241  1.00  0.00    -0.237 OA
ATOM     89  O   UNL A   1      41.342  25.294  25.176  1.00  0.00    -0.744 OA
ENDBRANCH  85  86
ENDBRANCH  53  78
BRANCH  65  90
ATOM     90  C   UNL A   1      43.621  28.677  35.697  1.00  0.00     0.058 A 
ATOM     91  C   UNL A   1      43.313  27.594  36.533  1.00  0.00     0.135 A 
ATOM     92  C   UNL A   1      44.974  28.945  35.436  1.00  0.00     0.135 A 
ATOM     93  F   UNL A   1      42.034  27.305  36.821  1.00  0.00    -0.206 F 
ATOM     94  C   UNL A   1      44.311  26.792  37.076  1.00  0.00     0.059 A 
ATOM     95  C   UNL A   1      45.988  28.145  35.951  1.00  0.00     0.059 A 
ATOM     96  F   UNL A   1      45.318  29.968  34.638  1.00  0.00    -0.206 F 
ATOM     97  C   UNL A   1      45.645  27.066  36.767  1.00  0.00     0.060 A 
BRANCH  97  98
ATOM     98  S   UNL A   1      46.921  25.955  37.396  1.00  0.00     0.124 S 
ATOM     99  O   UNL A   1      47.981  26.893  37.750  1.00  0.00    -0.237 OA
ATOM    100  O   UNL A   1      46.245  25.310  38.518  1.00  0.00    -0.237 OA
ATOM    101  O   UNL A   1      47.207  25.085  36.260  1.00  0.00    -0.744 OA
ENDBRANCH  97  98
ENDBRANCH  65  90
ENDBRANCH  39  40
ENDBRANCH  31  34
ENDBRANCH  29  30
ENDBRANCH  28  29
ENDBRANCH   1  28
TORSDOF 18
ENDMDL
MODEL 2
REMARK VINA RESULT:     -12.0      4.702      6.667
REMARK SMILES Nc1nc2ccccc2nc1N1CCCC[C@@H]1C(=O)NCCCCCCNC(=O)c1ccc(-c2c3nc(c(-c4c(F)cc(S(=O)(=O)[O-])cc4F)c4ccc([nH]4)c(-c4c(F)cc(S(=O)(=O)[O-])cc4F)c4nc(c(-c5c(F)cc(S(=O)(=O)[O-])cc5F)c5ccc2[nH]5)C=C4)C=C3)cc1
REMARK SMILES IDX 24 1 23 2 22 3 21 4 20 5 18 6 19 7 17 9 12 10 13 11 14 12
REMARK SMILES IDX 16 13 15 14 11 15 2 16 3 17 4 18 10 19 5 20 9 21 6 22 8 23
REMARK SMILES IDX 7 24 1 25 25 28 26 29 27 30 28 31 29 33 30 34 31 35 95 36
REMARK SMILES IDX 32 37 94 38 33 39 34 40 35 41 88 42 36 43 93 44 87 45 89 46
REMARK SMILES IDX 37 47 92 48 86 49 85 50 38 52 72 53 51 54 71 55 52 56 55 57
REMARK SMILES IDX 70 58 90 59 53 60 54 61 69 63 91 64 56 65 39 66 40 67 49 68
REMARK SMILES IDX 41 69 42 70 48 71 50 72 43 73 44 74 45 75 46 76 47 77 73 78
REMARK SMILES IDX 74 79 83 80 75 81 76 82 82 83 84 84 77 85 78 86 79 87 80 88
REMARK SMILES IDX 81 89 57 90 58 91 67 92 59 93 60 94 66 95 68 96 61 97 62 98
REMARK SMILES IDX 63 99 64 100 65 101
REMARK H PARENT 20 8 1 26 1 27 27 32 89 51 55 62
REMARK Flexibility Score: inf
ROOT
ATOM      1  C   UNL A   1      31.829  28.553  25.537  1.00  0.00     0.002 C 
ENDROOT
BRANCH   1   2
ATOM      2  C   UNL A   1      32.799  29.146  24.509  1.00  0.00     0.002 C 
BRANCH   2   3
ATOM      3  C   UNL A   1      32.903  28.383  23.183  1.00  0.00     0.021 C 
BRANCH   3   4
ATOM      4  C   UNL A   1      33.979  27.300  23.173  1.00  0.00     0.116 C 
BRANCH   4   5
ATOM      5  N   UNL A   1      33.488  26.079  22.560  1.00  0.00    -0.354 N 
ATOM      6  C   UNL A   1      32.728  25.076  23.088  1.00  0.00     0.242 C 
ATOM      7  O   UNL A   1      32.518  24.089  22.372  1.00  0.00    -0.273 OA
ATOM      8  H   UNL A   1      33.743  25.955  21.617  1.00  0.00     0.163 HD
BRANCH   6   9
ATOM      9  C   UNL A   1      32.224  25.103  24.552  1.00  0.00     0.173 C 
ATOM     10  N   UNL A   1      32.794  24.079  25.453  1.00  0.00    -0.342 N 
ATOM     11  C   UNL A   1      32.217  23.909  26.777  1.00  0.00     0.119 C 
ATOM     12  C   UNL A   1      30.713  23.698  26.665  1.00  0.00     0.022 C 
ATOM     13  C   UNL A   1      30.682  25.025  24.530  1.00  0.00     0.035 C 
ATOM     14  C   UNL A   1      30.063  24.853  25.912  1.00  0.00     0.004 C 
BRANCH  10  15
ATOM     15  C   UNL A   1      33.972  23.399  25.208  1.00  0.00     0.172 A 
ATOM     16  C   UNL A   1      34.047  22.119  24.608  1.00  0.00     0.167 A 
ATOM     17  N   UNL A   1      35.197  21.416  24.554  1.00  0.00    -0.226 NA
ATOM     18  C   UNL A   1      36.289  21.996  25.085  1.00  0.00     0.091 A 
ATOM     19  N   UNL A   1      35.098  24.005  25.653  1.00  0.00    -0.225 NA
ATOM     20  C   UNL A   1      37.490  21.297  25.131  1.00  0.00     0.031 A 
ATOM     21  C   UNL A   1      36.241  23.302  25.622  1.00  0.00     0.091 A 
ATOM     22  C   UNL A   1      38.636  21.854  25.701  1.00  0.00     0.002 A 
ATOM     23  C   UNL A   1      37.390  23.853  26.175  1.00  0.00     0.031 A 
ATOM     24  C   UNL A   1      38.586  23.138  26.226  1.00  0.00     0.002 A 
BRANCH  16  25
ATOM     25  N   UNL A   1      32.940  21.481  24.069  1.00  0.00    -0.381 N 
ATOM     26  H   UNL A   1      32.940  20.502  23.963  1.00  0.00     0.158 HD
ATOM     27  H   UNL A   1      32.156  22.007  23.792  1.00  0.00     0.158 HD
ENDBRANCH  16  25
ENDBRANCH  10  15
ENDBRANCH   6   9
ENDBRANCH   4   5
ENDBRANCH   3   4
ENDBRANCH   2   3
ENDBRANCH   1   2
BRANCH   1  28
ATOM     28  C   UNL A   1      32.479  27.982  26.798  1.00  0.00     0.021 C 
BRANCH  28  29
ATOM     29  C   UNL A   1      33.839  28.577  27.145  1.00  0.00     0.116 C 
BRANCH  29  30
ATOM     30  N   UNL A   1      33.740  29.896  27.752  1.00  0.00    -0.352 N 
ATOM     31  C   UNL A   1      34.692  30.615  28.433  1.00  0.00     0.251 C 
ATOM     32  H   UNL A   1      32.864  30.336  27.661  1.00  0.00     0.163 HD
ATOM     33  O   UNL A   1      34.381  31.658  29.003  1.00  0.00    -0.269 OA
BRANCH  31  34
ATOM     34  C   UNL A   1      36.083  30.115  28.506  1.00  0.00     0.039 A 
ATOM     35  C   UNL A   1      36.581  29.558  29.685  1.00  0.00     0.014 A 
ATOM     36  C   UNL A   1      36.906  30.217  27.379  1.00  0.00     0.014 A 
ATOM     37  C   UNL A   1      37.934  29.257  29.788  1.00  0.00     0.010 A 
ATOM     38  C   UNL A   1      38.247  29.828  27.459  1.00  0.00     0.010 A 
ATOM     39  C   UNL A   1      38.786  29.390  28.678  1.00  0.00    -0.014 A 
BRANCH  39  40
ATOM     40  C   UNL A   1      40.227  29.054  28.833  1.00  0.00     0.031 A 
ATOM     41  C   UNL A   1      41.179  30.010  29.502  1.00  0.00     0.074 A 
ATOM     42  C   UNL A   1      40.659  27.839  28.438  1.00  0.00     0.049 A 
ATOM     43  N   UNL A   1      42.438  29.833  29.811  1.00  0.00    -0.248 NA
ATOM     44  C   UNL A   1      40.656  31.337  29.868  1.00  0.00     0.031 C 
ATOM     45  C   UNL A   1      39.830  26.832  27.771  1.00  0.00     0.029 A 
ATOM     46  N   UNL A   1      41.878  27.225  28.575  1.00  0.00    -0.354 N 
ATOM     47  C   UNL A   1      42.860  31.021  30.398  1.00  0.00     0.074 A 
ATOM     48  C   UNL A   1      41.733  31.928  30.367  1.00  0.00     0.031 C 
ATOM     49  C   UNL A   1      40.540  25.704  27.625  1.00  0.00     0.029 A 
ATOM     50  C   UNL A   1      41.890  25.923  28.134  1.00  0.00     0.049 A 
ATOM     51  H   UNL A   1      42.669  27.675  28.952  1.00  0.00     0.167 HD
ATOM     52  C   UNL A   1      44.069  31.320  30.931  1.00  0.00     0.037 A 
ATOM     53  C   UNL A   1      42.874  25.001  28.142  1.00  0.00     0.037 A 
ATOM     54  C   UNL A   1      45.179  30.404  30.978  1.00  0.00     0.049 A 
ATOM     55  C   UNL A   1      44.213  25.365  28.716  1.00  0.00     0.074 A 
ATOM     56  C   UNL A   1      46.437  30.609  31.517  1.00  0.00     0.029 A 
ATOM     57  N   UNL A   1      45.166  29.114  30.469  1.00  0.00    -0.354 N 
ATOM     58  N   UNL A   1      44.583  26.486  29.289  1.00  0.00    -0.248 NA
ATOM     59  C   UNL A   1      45.272  24.350  28.638  1.00  0.00     0.031 C 
ATOM     60  C   UNL A   1      47.198  29.456  31.300  1.00  0.00     0.029 A 
ATOM     61  C   UNL A   1      46.401  28.517  30.665  1.00  0.00     0.049 A 
ATOM     62  H   UNL A   1      44.394  28.686  30.034  1.00  0.00     0.167 HD
ATOM     63  C   UNL A   1      45.912  26.306  29.650  1.00  0.00     0.074 A 
ATOM     64  C   UNL A   1      46.281  24.965  29.243  1.00  0.00     0.031 C 
ATOM     65  C   UNL A   1      46.749  27.178  30.262  1.00  0.00     0.037 A 
BRANCH  52  66
ATOM     66  C   UNL A   1      44.262  32.693  31.513  1.00  0.00     0.058 A 
ATOM     67  C   UNL A   1      44.693  33.771  30.724  1.00  0.00     0.135 A 
ATOM     68  C   UNL A   1      43.955  32.950  32.860  1.00  0.00     0.135 A 
ATOM     69  F   UNL A   1      45.014  33.579  29.434  1.00  0.00    -0.206 F 
ATOM     70  C   UNL A   1      44.834  35.050  31.253  1.00  0.00     0.059 A 
ATOM     71  C   UNL A   1      44.064  34.227  33.404  1.00  0.00     0.059 A 
ATOM     72  F   UNL A   1      43.535  31.956  33.658  1.00  0.00    -0.206 F 
ATOM     73  C   UNL A   1      44.516  35.268  32.594  1.00  0.00     0.060 A 
BRANCH  73  74
ATOM     74  S   UNL A   1      44.701  36.936  33.260  1.00  0.00     0.124 S 
ATOM     75  O   UNL A   1      43.331  37.433  33.181  1.00  0.00    -0.237 OA
ATOM     76  O   UNL A   1      45.204  36.680  34.606  1.00  0.00    -0.237 OA
ATOM     77  O   UNL A   1      45.650  37.566  32.347  1.00  0.00    -0.744 OA
ENDBRANCH  73  74
ENDBRANCH  52  66
BRANCH  53  78
ATOM     78  C   UNL A   1      42.604  23.641  27.608  1.00  0.00     0.058 A 
ATOM     79  C   UNL A   1      42.680  23.378  26.233  1.00  0.00     0.135 A 
ATOM     80  C   UNL A   1      42.329  22.564  28.467  1.00  0.00     0.135 A 
ATOM     81  F   UNL A   1      42.935  24.375  25.373  1.00  0.00    -0.206 F 
ATOM     82  C   UNL A   1      42.496  22.095  25.727  1.00  0.00     0.059 A 
ATOM     83  C   UNL A   1      42.166  21.269  27.986  1.00  0.00     0.059 A 
ATOM     84  F   UNL A   1      42.262  22.762  29.792  1.00  0.00    -0.206 F 
ATOM     85  C   UNL A   1      42.249  21.045  26.613  1.00  0.00     0.060 A 
BRANCH  85  86
ATOM     86  S   UNL A   1      42.092  19.373  25.951  1.00  0.00     0.124 S 
ATOM     87  O   UNL A   1      42.936  19.447  24.764  1.00  0.00    -0.237 OA
ATOM     88  O   UNL A   1      42.604  18.559  27.049  1.00  0.00    -0.237 OA
ATOM     89  O   UNL A   1      40.660  19.244  25.700  1.00  0.00    -0.744 OA
ENDBRANCH  85  86
ENDBRANCH  53  78
BRANCH  65  90
ATOM     90  C   UNL A   1      48.152  26.723  30.550  1.00  0.00     0.058 A 
ATOM     91  C   UNL A   1      49.216  27.063  29.702  1.00  0.00     0.135 A 
ATOM     92  C   UNL A   1      48.451  26.057  31.750  1.00  0.00     0.135 A 
ATOM     93  F   UNL A   1      48.979  27.690  28.539  1.00  0.00    -0.206 F 
ATOM     94  C   UNL A   1      50.532  26.771  30.040  1.00  0.00     0.059 A 
ATOM     95  C   UNL A   1      49.761  25.773  32.118  1.00  0.00     0.059 A 
ATOM     96  F   UNL A   1      47.466  25.716  32.596  1.00  0.00    -0.206 F 
ATOM     97  C   UNL A   1      50.797  26.139  31.258  1.00  0.00     0.060 A 
BRANCH  97  98
ATOM     98  S   UNL A   1      52.517  25.859  31.728  1.00  0.00     0.124 S 
ATOM     99  O   UNL A   1      53.206  26.047  30.456  1.00  0.00    -0.237 OA
ATOM    100  O   UNL A   1      52.738  26.901  32.727  1.00  0.00    -0.237 OA
ATOM    101  O   UNL A   1      52.512  24.495  32.245  1.00  0.00    -0.744 OA
ENDBRANCH  97  98
ENDBRANCH  65  90
ENDBRANCH  39  40
ENDBRANCH  31  34
ENDBRANCH  29  30
ENDBRANCH  28  29
ENDBRANCH   1  28
TORSDOF 18
ENDMDL
MODEL 3
REMARK VINA RESULT:     -11.9      6.221      8.447
REMARK SMILES Nc1nc2ccccc2nc1N1CCCC[C@@H]1C(=O)NCCCCCCNC(=O)c1ccc(-c2c3nc(c(-c4c(F)cc(S(=O)(=O)[O-])cc4F)c4ccc([nH]4)c(-c4c(F)cc(S(=O)(=O)[O-])cc4F)c4nc(c(-c5c(F)cc(S(=O)(=O)[O-])cc5F)c5ccc2[nH]5)C=C4)C=C3)cc1
REMARK SMILES IDX 24 1 23 2 22 3 21 4 20 5 18 6 19 7 17 9 12 10 13 11 14 12
REMARK SMILES IDX 16 13 15 14 11 15 2 16 3 17 4 18 10 19 5 20 9 21 6 22 8 23
REMARK SMILES IDX 7 24 1 25 25 28 26 29 27 30 28 31 29 33 30 34 31 35 95 36
REMARK SMILES IDX 32 37 94 38 33 39 34 40 35 41 88 42 36 43 93 44 87 45 89 46
REMARK SMILES IDX 37 47 92 48 86 49 85 50 38 52 72 53 51 54 71 55 52 56 55 57
REMARK SMILES IDX 70 58 90 59 53 60 54 61 69 63 91 64 56 65 39 66 40 67 49 68
REMARK SMILES IDX 41 69 42 70 48 71 50 72 43 73 44 74 45 75 46 76 47 77 73 78
REMARK SMILES IDX 74 79 83 80 75 81 76 82 82 83 84 84 77 85 78 86 79 87 80 88
REMARK SMILES IDX 81 89 57 90 58 91 67 92 59 93 60 94 66 95 68 96 61 97 62 98
REMARK SMILES IDX 63 99 64 100 65 101
REMARK H PARENT 20 8 1 26 1 27 27 32 89 51 55 62
REMARK Flexibility Score: inf
ROOT
ATOM      1  C   UNL A   1      35.466  32.109  27.754  1.00  0.00     0.002 C 
ENDROOT
BRANCH   1   2
ATOM      2  C   UNL A   1      34.413  30.996  27.683  1.00  0.00     0.002 C 
BRANCH   2   3
ATOM      3  C   UNL A   1      34.958  29.591  27.400  1.00  0.00     0.021 C 
BRANCH   3   4
ATOM      4  C   UNL A   1      34.244  28.865  26.264  1.00  0.00     0.116 C 
BRANCH   4   5
ATOM      5  N   UNL A   1      33.265  27.923  26.777  1.00  0.00    -0.354 N 
ATOM      6  C   UNL A   1      32.856  26.721  26.274  1.00  0.00     0.242 C 
ATOM      7  O   UNL A   1      31.932  26.147  26.863  1.00  0.00    -0.273 OA
ATOM      8  H   UNL A   1      32.827  28.193  27.616  1.00  0.00     0.163 HD
BRANCH   6   9
ATOM      9  C   UNL A   1      33.441  26.129  24.969  1.00  0.00     0.173 C 
ATOM     10  N   UNL A   1      32.498  26.000  23.837  1.00  0.00    -0.342 N 
ATOM     11  C   UNL A   1      32.916  25.263  22.655  1.00  0.00     0.119 C 
ATOM     12  C   UNL A   1      33.413  23.880  23.054  1.00  0.00     0.022 C 
ATOM     13  C   UNL A   1      34.088  24.769  25.307  1.00  0.00     0.035 C 
ATOM     14  C   UNL A   1      34.538  23.988  24.077  1.00  0.00     0.004 C 
BRANCH  10  15
ATOM     15  C   UNL A   1      31.312  26.701  23.731  1.00  0.00     0.172 A 
ATOM     16  C   UNL A   1      30.050  26.203  24.138  1.00  0.00     0.167 A 
ATOM     17  N   UNL A   1      28.898  26.844  23.851  1.00  0.00    -0.226 NA
ATOM     18  C   UNL A   1      28.999  28.000  23.170  1.00  0.00     0.091 A 
ATOM     19  N   UNL A   1      31.401  27.910  23.129  1.00  0.00    -0.225 NA
ATOM     20  C   UNL A   1      27.848  28.672  22.776  1.00  0.00     0.031 A 
ATOM     21  C   UNL A   1      30.256  28.542  22.822  1.00  0.00     0.091 A 
ATOM     22  C   UNL A   1      27.912  29.858  22.041  1.00  0.00     0.002 A 
ATOM     23  C   UNL A   1      30.311  29.729  22.103  1.00  0.00     0.031 A 
ATOM     24  C   UNL A   1      29.150  30.389  21.703  1.00  0.00     0.002 A 
BRANCH  16  25
ATOM     25  N   UNL A   1      29.905  25.007  24.823  1.00  0.00    -0.381 N 
ATOM     26  H   UNL A   1      29.005  24.650  25.005  1.00  0.00     0.158 HD
ATOM     27  H   UNL A   1      30.701  24.515  25.129  1.00  0.00     0.158 HD
ENDBRANCH  16  25
ENDBRANCH  10  15
ENDBRANCH   6   9
ENDBRANCH   4   5
ENDBRANCH   3   4
ENDBRANCH   2   3
ENDBRANCH   1   2
BRANCH   1  28
ATOM     28  C   UNL A   1      35.417  32.978  29.012  1.00  0.00     0.021 C 
BRANCH  28  29
ATOM     29  C   UNL A   1      36.494  32.671  30.046  1.00  0.00     0.116 C 
BRANCH  29  30
ATOM     30  N   UNL A   1      36.153  31.544  30.900  1.00  0.00    -0.352 N 
ATOM     31  C   UNL A   1      36.822  30.358  31.087  1.00  0.00     0.251 C 
ATOM     32  H   UNL A   1      35.322  31.646  31.420  1.00  0.00     0.163 HD
ATOM     33  O   UNL A   1      36.303  29.459  31.744  1.00  0.00    -0.269 OA
BRANCH  31  34
ATOM     34  C   UNL A   1      38.151  30.156  30.470  1.00  0.00     0.039 A 
ATOM     35  C   UNL A   1      38.289  30.064  29.084  1.00  0.00     0.014 A 
ATOM     36  C   UNL A   1      39.277  30.046  31.293  1.00  0.00     0.014 A 
ATOM     37  C   UNL A   1      39.513  29.700  28.535  1.00  0.00     0.010 A 
ATOM     38  C   UNL A   1      40.528  29.769  30.730  1.00  0.00     0.010 A 
ATOM     39  C   UNL A   1      40.648  29.545  29.350  1.00  0.00    -0.014 A 
BRANCH  39  40
ATOM     40  C   UNL A   1      41.939  29.158  28.720  1.00  0.00     0.031 A 
ATOM     41  C   UNL A   1      43.096  30.120  28.669  1.00  0.00     0.074 A 
ATOM     42  C   UNL A   1      42.089  27.898  28.264  1.00  0.00     0.049 A 
ATOM     43  N   UNL A   1      44.319  29.912  28.252  1.00  0.00    -0.248 NA
ATOM     44  C   UNL A   1      42.854  31.493  29.141  1.00  0.00     0.031 C 
ATOM     45  C   UNL A   1      41.036  26.880  28.253  1.00  0.00     0.029 A 
ATOM     46  N   UNL A   1      43.186  27.243  27.764  1.00  0.00    -0.354 N 
ATOM     47  C   UNL A   1      44.988  31.121  28.402  1.00  0.00     0.074 A 
ATOM     48  C   UNL A   1      44.025  32.073  28.913  1.00  0.00     0.031 C 
ATOM     49  C   UNL A   1      41.555  25.714  27.843  1.00  0.00     0.029 A 
ATOM     50  C   UNL A   1      42.961  25.911  27.508  1.00  0.00     0.049 A 
ATOM     51  H   UNL A   1      44.051  27.685  27.604  1.00  0.00     0.167 HD
ATOM     52  C   UNL A   1      46.289  31.406  28.157  1.00  0.00     0.037 A 
ATOM     53  C   UNL A   1      43.792  24.950  27.058  1.00  0.00     0.037 A 
ATOM     54  C   UNL A   1      47.248  30.449  27.670  1.00  0.00     0.049 A 
ATOM     55  C   UNL A   1      45.224  25.297  26.769  1.00  0.00     0.074 A 
ATOM     56  C   UNL A   1      48.594  30.638  27.411  1.00  0.00     0.029 A 
ATOM     57  N   UNL A   1      46.964  29.124  27.369  1.00  0.00    -0.354 N 
ATOM     58  N   UNL A   1      45.842  26.441  26.942  1.00  0.00    -0.248 NA
ATOM     59  C   UNL A   1      46.072  24.232  26.215  1.00  0.00     0.031 C 
ATOM     60  C   UNL A   1      49.116  29.439  26.916  1.00  0.00     0.029 A 
ATOM     61  C   UNL A   1      48.106  28.490  26.909  1.00  0.00     0.049 A 
ATOM     62  H   UNL A   1      46.082  28.699  27.469  1.00  0.00     0.167 HD
ATOM     63  C   UNL A   1      47.152  26.230  26.531  1.00  0.00     0.074 A 
ATOM     64  C   UNL A   1      47.243  24.847  26.110  1.00  0.00     0.031 C 
ATOM     65  C   UNL A   1      48.183  27.109  26.503  1.00  0.00     0.037 A 
BRANCH  52  66
ATOM     66  C   UNL A   1      46.763  32.811  28.412  1.00  0.00     0.058 A 
ATOM     67  C   UNL A   1      46.710  33.796  27.414  1.00  0.00     0.135 A 
ATOM     68  C   UNL A   1      47.219  33.193  29.685  1.00  0.00     0.135 A 
ATOM     69  F   UNL A   1      46.296  33.483  26.176  1.00  0.00    -0.206 F 
ATOM     70  C   UNL A   1      47.111  35.105  27.662  1.00  0.00     0.059 A 
ATOM     71  C   UNL A   1      47.602  34.503  29.962  1.00  0.00     0.059 A 
ATOM     72  F   UNL A   1      47.287  32.291  30.677  1.00  0.00    -0.206 F 
ATOM     73  C   UNL A   1      47.555  35.449  28.939  1.00  0.00     0.060 A 
BRANCH  73  74
ATOM     74  S   UNL A   1      48.067  37.154  29.241  1.00  0.00     0.124 S 
ATOM     75  O   UNL A   1      46.906  37.894  28.756  1.00  0.00    -0.237 OA
ATOM     76  O   UNL A   1      48.268  37.168  30.686  1.00  0.00    -0.237 OA
ATOM     77  O   UNL A   1      49.279  37.294  28.440  1.00  0.00    -0.744 OA
ENDBRANCH  73  74
ENDBRANCH  52  66
BRANCH  53  78
ATOM     78  C   UNL A   1      43.281  23.566  26.883  1.00  0.00     0.058 A 
ATOM     79  C   UNL A   1      43.038  23.042  25.605  1.00  0.00     0.135 A 
ATOM     80  C   UNL A   1      43.086  22.718  27.986  1.00  0.00     0.135 A 
ATOM     81  F   UNL A   1      43.205  23.815  24.522  1.00  0.00    -0.206 F 
ATOM     82  C   UNL A   1      42.624  21.727  25.425  1.00  0.00     0.059 A 
ATOM     83  C   UNL A   1      42.695  21.392  27.829  1.00  0.00     0.059 A 
ATOM     84  F   UNL A   1      43.320  23.168  29.228  1.00  0.00    -0.206 F 
ATOM     85  C   UNL A   1      42.465  20.906  26.543  1.00  0.00     0.060 A 
BRANCH  85  86
ATOM     86  S   UNL A   1      42.005  19.179  26.290  1.00  0.00     0.124 S 
ATOM     87  O   UNL A   1      40.597  19.300  25.931  1.00  0.00    -0.237 OA
ATOM     88  O   UNL A   1      42.906  18.777  25.215  1.00  0.00    -0.237 OA
ATOM     89  O   UNL A   1      42.276  18.566  27.587  1.00  0.00    -0.744 OA
ENDBRANCH  85  86
ENDBRANCH  53  78
BRANCH  65  90
ATOM     90  C   UNL A   1      49.516  26.616  26.015  1.00  0.00     0.058 A 
ATOM     91  C   UNL A   1      49.956  26.881  24.710  1.00  0.00     0.135 A 
ATOM     92  C   UNL A   1      50.409  25.990  26.899  1.00  0.00     0.135 A 
ATOM     93  F   UNL A   1      49.135  27.468  23.825  1.00  0.00    -0.206 F 
ATOM     94  C   UNL A   1      51.245  26.555  24.302  1.00  0.00     0.059 A 
ATOM     95  C   UNL A   1      51.708  25.674  26.519  1.00  0.00     0.059 A 
ATOM     96  F   UNL A   1      50.034  25.720  28.159  1.00  0.00    -0.206 F 
ATOM     97  C   UNL A   1      52.119  25.966  25.218  1.00  0.00     0.060 A 
BRANCH  97  98
ATOM     98  S   UNL A   1      53.819  25.643  24.703  1.00  0.00     0.124 S 
ATOM     99  O   UNL A   1      53.878  24.187  24.775  1.00  0.00    -0.237 OA
ATOM    100  O   UNL A   1      53.848  26.211  23.358  1.00  0.00    -0.237 OA
ATOM    101  O   UNL A   1      54.618  26.354  25.695  1.00  0.00    -0.744 OA
ENDBRANCH  97  98
ENDBRANCH  65  90
ENDBRANCH  39  40
ENDBRANCH  31  34
ENDBRANCH  29  30
ENDBRANCH  28  29
ENDBRANCH   1  28
TORSDOF 18
ENDMDL
