MODEL 1
REMARK VINA RESULT:     -11.4      0.000      0.000
REMARK SMILES NC(=O)c1ccc(C(=O)NCCCCNC(=O)c2ccc(-c3c4nc(c(-c5c(F)cc(S(=O)(=O)[O-])cc5F)c5ccc([nH]5)c(-c5c(F)cc(S(=O)(=O)[O-])cc5F)c5nc(c(-c6c(F)cc(S(=O)(=O)[O-])cc6F)c6ccc3[nH]6)C=C5)C=C4)cc2)c(F)c1
REMARK SMILES IDX 13 1 12 2 11 3 10 4 8 5 9 6 7 8 4 9 5 10 86 11 6 12 84 13
REMARK SMILES IDX 85 14 2 15 1 16 3 19 14 20 15 21 16 22 17 24 18 25 19 26
REMARK SMILES IDX 83 27 20 28 82 29 21 30 22 31 23 32 76 33 24 34 81 35 75 36
REMARK SMILES IDX 77 37 25 38 80 39 74 40 73 41 26 43 60 44 39 45 59 46 40 47
REMARK SMILES IDX 43 48 58 49 78 50 41 51 42 52 57 54 79 55 44 56 27 57 28 58
REMARK SMILES IDX 37 59 29 60 30 61 36 62 38 63 31 64 32 65 33 66 34 67 35 68
REMARK SMILES IDX 61 69 62 70 71 71 63 72 64 73 70 74 72 75 65 76 66 77 67 78
REMARK SMILES IDX 68 79 69 80 45 81 46 82 55 83 47 84 48 85 54 86 56 87 49 88
REMARK SMILES IDX 50 89 51 90 52 91 53 92
REMARK H PARENT 10 7 1 17 1 18 15 23 77 42 43 53
REMARK Flexibility Score: inf
ROOT
ATOM      1  C   UNL A   1      32.637  28.130  26.186  1.00  0.00     0.023 C 
ENDROOT
BRANCH   1   2
ATOM      2  C   UNL A   1      31.374  27.477  26.754  1.00  0.00     0.023 C 
BRANCH   2   3
ATOM      3  C   UNL A   1      30.850  26.287  25.943  1.00  0.00     0.116 C 
BRANCH   3   4
ATOM      4  N   UNL A   1      30.832  25.086  26.753  1.00  0.00    -0.352 N 
ATOM      5  C   UNL A   1      31.608  23.959  26.771  1.00  0.00     0.254 C 
ATOM      6  O   UNL A   1      31.300  23.099  27.602  1.00  0.00    -0.269 OA
ATOM      7  H   UNL A   1      30.115  25.080  27.428  1.00  0.00     0.163 HD
BRANCH   5   8
ATOM      8  C   UNL A   1      32.807  23.703  25.921  1.00  0.00     0.075 A 
ATOM      9  C   UNL A   1      35.239  23.400  24.509  1.00  0.00     0.042 A 
ATOM     10  C   UNL A   1      35.099  24.437  25.429  1.00  0.00     0.015 A 
ATOM     11  C   UNL A   1      34.181  22.524  24.285  1.00  0.00     0.054 A 
ATOM     12  C   UNL A   1      33.889  24.589  26.116  1.00  0.00     0.018 A 
ATOM     13  C   UNL A   1      32.996  22.659  25.013  1.00  0.00     0.136 A 
ATOM     14  F   UNL A   1      32.096  21.691  24.826  1.00  0.00    -0.206 F 
BRANCH   9  15
ATOM     15  C   UNL A   1      36.500  23.182  23.771  1.00  0.00     0.248 C 
ATOM     16  N   UNL A   1      37.643  23.199  24.520  1.00  0.00    -0.366 N 
ATOM     17  H   UNL A   1      38.516  23.060  24.088  1.00  0.00     0.159 HD
ATOM     18  H   UNL A   1      37.592  23.351  25.491  1.00  0.00     0.159 HD
ATOM     19  O   UNL A   1      36.509  22.948  22.574  1.00  0.00    -0.270 OA
ENDBRANCH   9  15
ENDBRANCH   5   8
ENDBRANCH   3   4
ENDBRANCH   2   3
ENDBRANCH   1   2
BRANCH   1  20
ATOM     20  C   UNL A   1      33.694  28.498  27.221  1.00  0.00     0.116 C 
BRANCH  20  21
ATOM     21  N   UNL A   1      33.596  29.874  27.686  1.00  0.00    -0.352 N 
ATOM     22  C   UNL A   1      34.567  30.644  28.279  1.00  0.00     0.251 C 
ATOM     23  H   UNL A   1      32.722  30.309  27.558  1.00  0.00     0.163 HD
ATOM     24  O   UNL A   1      34.299  31.764  28.700  1.00  0.00    -0.269 OA
BRANCH  22  25
ATOM     25  C   UNL A   1      35.925  30.086  28.447  1.00  0.00     0.039 A 
ATOM     26  C   UNL A   1      36.808  30.135  27.366  1.00  0.00     0.014 A 
ATOM     27  C   UNL A   1      36.334  29.561  29.675  1.00  0.00     0.014 A 
ATOM     28  C   UNL A   1      38.130  29.722  27.540  1.00  0.00     0.010 A 
ATOM     29  C   UNL A   1      37.668  29.209  29.863  1.00  0.00     0.010 A 
ATOM     30  C   UNL A   1      38.579  29.294  28.800  1.00  0.00    -0.014 A 
BRANCH  30  31
ATOM     31  C   UNL A   1      40.005  28.948  29.030  1.00  0.00     0.031 A 
ATOM     32  C   UNL A   1      40.952  29.980  29.575  1.00  0.00     0.074 A 
ATOM     33  C   UNL A   1      40.455  27.726  28.683  1.00  0.00     0.049 A 
ATOM     34  N   UNL A   1      42.243  29.892  29.765  1.00  0.00    -0.248 NA
ATOM     35  C   UNL A   1      40.380  31.291  29.926  1.00  0.00     0.031 C 
ATOM     36  C   UNL A   1      39.641  26.659  28.096  1.00  0.00     0.029 A 
ATOM     37  N   UNL A   1      41.711  27.178  28.759  1.00  0.00    -0.354 N 
ATOM     38  C   UNL A   1      42.640  31.135  30.243  1.00  0.00     0.074 A 
ATOM     39  C   UNL A   1      41.463  31.974  30.271  1.00  0.00     0.031 C 
ATOM     40  C   UNL A   1      40.412  25.581  27.886  1.00  0.00     0.029 A 
ATOM     41  C   UNL A   1      41.781  25.888  28.289  1.00  0.00     0.049 A 
ATOM     42  H   UNL A   1      42.489  27.663  29.118  1.00  0.00     0.167 HD
ATOM     43  C   UNL A   1      43.871  31.531  30.641  1.00  0.00     0.037 A 
ATOM     44  C   UNL A   1      42.830  25.048  28.187  1.00  0.00     0.037 A 
ATOM     45  C   UNL A   1      45.030  30.677  30.649  1.00  0.00     0.049 A 
ATOM     46  C   UNL A   1      44.185  25.506  28.655  1.00  0.00     0.074 A 
ATOM     47  C   UNL A   1      46.305  30.966  31.100  1.00  0.00     0.029 A 
ATOM     48  N   UNL A   1      45.054  29.368  30.190  1.00  0.00    -0.354 N 
ATOM     49  N   UNL A   1      44.530  26.668  29.156  1.00  0.00    -0.248 NA
ATOM     50  C   UNL A   1      45.289  24.543  28.549  1.00  0.00     0.031 C 
ATOM     51  C   UNL A   1      47.111  29.844  30.883  1.00  0.00     0.029 A 
ATOM     52  C   UNL A   1      46.327  28.842  30.334  1.00  0.00     0.049 A 
ATOM     53  H   UNL A   1      44.281  28.885  29.818  1.00  0.00     0.167 HD
ATOM     54  C   UNL A   1      45.888  26.569  29.441  1.00  0.00     0.074 A 
ATOM     55  C   UNL A   1      46.298  25.231  29.069  1.00  0.00     0.031 C 
ATOM     56  C   UNL A   1      46.718  27.504  29.963  1.00  0.00     0.037 A 
BRANCH  43  57
ATOM     57  C   UNL A   1      44.034  32.943  31.128  1.00  0.00     0.058 A 
ATOM     58  C   UNL A   1      43.729  33.281  32.455  1.00  0.00     0.135 A 
ATOM     59  C   UNL A   1      44.425  33.976  30.260  1.00  0.00     0.135 A 
ATOM     60  F   UNL A   1      43.358  32.331  33.328  1.00  0.00    -0.206 F 
ATOM     61  C   UNL A   1      43.785  34.598  32.900  1.00  0.00     0.059 A 
ATOM     62  C   UNL A   1      44.512  35.296  30.690  1.00  0.00     0.059 A 
ATOM     63  F   UNL A   1      44.751  33.701  28.986  1.00  0.00    -0.206 F 
ATOM     64  C   UNL A   1      44.173  35.599  32.009  1.00  0.00     0.060 A 
BRANCH  64  65
ATOM     65  S   UNL A   1      44.258  37.301  32.606  1.00  0.00     0.124 S 
ATOM     66  O   UNL A   1      43.251  37.299  33.660  1.00  0.00    -0.237 OA
ATOM     67  O   UNL A   1      45.646  37.401  33.050  1.00  0.00    -0.237 OA
ATOM     68  O   UNL A   1      43.931  38.090  31.422  1.00  0.00    -0.744 OA
ENDBRANCH  64  65
ENDBRANCH  43  57
BRANCH  44  69
ATOM     69  C   UNL A   1      42.629  23.680  27.641  1.00  0.00     0.058 A 
ATOM     70  C   UNL A   1      42.438  22.578  28.488  1.00  0.00     0.135 A 
ATOM     71  C   UNL A   1      42.658  23.446  26.258  1.00  0.00     0.135 A 
ATOM     72  F   UNL A   1      42.413  22.747  29.819  1.00  0.00    -0.206 F 
ATOM     73  C   UNL A   1      42.306  21.288  27.985  1.00  0.00     0.059 A 
ATOM     74  C   UNL A   1      42.505  22.167  25.730  1.00  0.00     0.059 A 
ATOM     75  F   UNL A   1      42.826  24.471  25.409  1.00  0.00    -0.206 F 
ATOM     76  C   UNL A   1      42.347  21.092  26.604  1.00  0.00     0.060 A 
BRANCH  76  77
ATOM     77  S   UNL A   1      42.187  19.409  25.970  1.00  0.00     0.124 S 
ATOM     78  O   UNL A   1      42.695  18.627  27.093  1.00  0.00    -0.237 OA
ATOM     79  O   UNL A   1      40.752  19.308  25.724  1.00  0.00    -0.237 OA
ATOM     80  O   UNL A   1      43.028  19.415  24.778  1.00  0.00    -0.744 OA
ENDBRANCH  76  77
ENDBRANCH  44  69
BRANCH  56  81
ATOM     81  C   UNL A   1      48.154  27.121  30.182  1.00  0.00     0.058 A 
ATOM     82  C   UNL A   1      48.535  26.427  31.340  1.00  0.00     0.135 A 
ATOM     83  C   UNL A   1      49.161  27.522  29.292  1.00  0.00     0.135 A 
ATOM     84  F   UNL A   1      47.609  26.026  32.225  1.00  0.00    -0.206 F 
ATOM     85  C   UNL A   1      49.871  26.162  31.621  1.00  0.00     0.059 A 
ATOM     86  C   UNL A   1      50.502  27.248  29.540  1.00  0.00     0.059 A 
ATOM     87  F   UNL A   1      48.844  28.178  28.164  1.00  0.00    -0.206 F 
ATOM     88  C   UNL A   1      50.848  26.584  30.718  1.00  0.00     0.060 A 
BRANCH  88  89
ATOM     89  S   UNL A   1      52.579  26.236  31.097  1.00  0.00     0.124 S 
ATOM     90  O   UNL A   1      53.142  26.038  29.766  1.00  0.00    -0.237 OA
ATOM     91  O   UNL A   1      52.995  27.453  31.789  1.00  0.00    -0.237 OA
ATOM     92  O   UNL A   1      52.508  25.041  31.933  1.00  0.00    -0.744 OA
ENDBRANCH  88  89
ENDBRANCH  56  81
ENDBRANCH  30  31
ENDBRANCH  22  25
ENDBRANCH  20  21
ENDBRANCH   1  20
TORSDOF 15
ENDMDL
MODEL 2
REMARK VINA RESULT:     -11.3      2.524      3.714
REMARK SMILES NC(=O)c1ccc(C(=O)NCCCCNC(=O)c2ccc(-c3c4nc(c(-c5c(F)cc(S(=O)(=O)[O-])cc5F)c5ccc([nH]5)c(-c5c(F)cc(S(=O)(=O)[O-])cc5F)c5nc(c(-c6c(F)cc(S(=O)(=O)[O-])cc6F)c6ccc3[nH]6)C=C5)C=C4)cc2)c(F)c1
REMARK SMILES IDX 13 1 12 2 11 3 10 4 8 5 9 6 7 8 4 9 5 10 86 11 6 12 84 13
REMARK SMILES IDX 85 14 2 15 1 16 3 19 14 20 15 21 16 22 17 24 18 25 19 26
REMARK SMILES IDX 83 27 20 28 82 29 21 30 22 31 23 32 76 33 24 34 81 35 75 36
REMARK SMILES IDX 77 37 25 38 80 39 74 40 73 41 26 43 60 44 39 45 59 46 40 47
REMARK SMILES IDX 43 48 58 49 78 50 41 51 42 52 57 54 79 55 44 56 27 57 28 58
REMARK SMILES IDX 37 59 29 60 30 61 36 62 38 63 31 64 32 65 33 66 34 67 35 68
REMARK SMILES IDX 61 69 62 70 71 71 63 72 64 73 70 74 72 75 65 76 66 77 67 78
REMARK SMILES IDX 68 79 69 80 45 81 46 82 55 83 47 84 48 85 54 86 56 87 49 88
REMARK SMILES IDX 50 89 51 90 52 91 53 92
REMARK H PARENT 10 7 1 17 1 18 15 23 77 42 43 53
REMARK Flexibility Score: inf
ROOT
ATOM      1  C   UNL A   1      32.415  27.819  27.238  1.00  0.00     0.023 C 
ENDROOT
BRANCH   1   2
ATOM      2  C   UNL A   1      31.369  28.224  26.195  1.00  0.00     0.023 C 
BRANCH   2   3
ATOM      3  C   UNL A   1      31.545  27.563  24.824  1.00  0.00     0.116 C 
BRANCH   3   4
ATOM      4  N   UNL A   1      30.343  26.851  24.444  1.00  0.00    -0.352 N 
ATOM      5  C   UNL A   1      29.240  27.202  23.714  1.00  0.00     0.254 C 
ATOM      6  O   UNL A   1      28.369  26.335  23.592  1.00  0.00    -0.269 OA
ATOM      7  H   UNL A   1      30.312  25.925  24.780  1.00  0.00     0.163 HD
BRANCH   5   8
ATOM      8  C   UNL A   1      29.022  28.504  23.020  1.00  0.00     0.075 A 
ATOM      9  C   UNL A   1      28.372  31.020  21.905  1.00  0.00     0.042 A 
ATOM     10  C   UNL A   1      27.452  30.371  22.725  1.00  0.00     0.015 A 
ATOM     11  C   UNL A   1      29.601  30.426  21.634  1.00  0.00     0.054 A 
ATOM     12  C   UNL A   1      27.775  29.120  23.265  1.00  0.00     0.018 A 
ATOM     13  C   UNL A   1      29.928  29.200  22.217  1.00  0.00     0.136 A 
ATOM     14  F   UNL A   1      31.177  28.780  22.006  1.00  0.00    -0.206 F 
BRANCH   9  15
ATOM     15  C   UNL A   1      28.091  32.350  21.326  1.00  0.00     0.248 C 
ATOM     16  N   UNL A   1      27.787  32.371  19.994  1.00  0.00    -0.366 N 
ATOM     17  H   UNL A   1      27.590  33.226  19.547  1.00  0.00     0.159 HD
ATOM     18  H   UNL A   1      27.767  31.531  19.481  1.00  0.00     0.159 HD
ATOM     19  O   UNL A   1      28.081  33.358  22.012  1.00  0.00    -0.270 OA
ENDBRANCH   9  15
ENDBRANCH   5   8
ENDBRANCH   3   4
ENDBRANCH   2   3
ENDBRANCH   1   2
BRANCH   1  20
ATOM     20  C   UNL A   1      33.723  28.599  27.176  1.00  0.00     0.116 C 
BRANCH  20  21
ATOM     21  N   UNL A   1      33.618  29.952  27.700  1.00  0.00    -0.352 N 
ATOM     22  C   UNL A   1      34.579  30.696  28.341  1.00  0.00     0.251 C 
ATOM     23  H   UNL A   1      32.745  30.392  27.580  1.00  0.00     0.163 HD
ATOM     24  O   UNL A   1      34.304  31.796  28.808  1.00  0.00    -0.269 OA
BRANCH  22  25
ATOM     25  C   UNL A   1      35.935  30.131  28.503  1.00  0.00     0.039 A 
ATOM     26  C   UNL A   1      36.817  30.186  27.421  1.00  0.00     0.014 A 
ATOM     27  C   UNL A   1      36.344  29.595  29.727  1.00  0.00     0.014 A 
ATOM     28  C   UNL A   1      38.138  29.767  27.590  1.00  0.00     0.010 A 
ATOM     29  C   UNL A   1      37.676  29.236  29.910  1.00  0.00     0.010 A 
ATOM     30  C   UNL A   1      38.587  29.327  28.846  1.00  0.00    -0.014 A 
BRANCH  30  31
ATOM     31  C   UNL A   1      40.012  28.974  29.072  1.00  0.00     0.031 A 
ATOM     32  C   UNL A   1      40.965  30.001  29.616  1.00  0.00     0.074 A 
ATOM     33  C   UNL A   1      40.456  27.751  28.721  1.00  0.00     0.049 A 
ATOM     34  N   UNL A   1      42.256  29.907  29.803  1.00  0.00    -0.248 NA
ATOM     35  C   UNL A   1      40.400  31.313  29.972  1.00  0.00     0.031 C 
ATOM     36  C   UNL A   1      39.635  26.689  28.134  1.00  0.00     0.029 A 
ATOM     37  N   UNL A   1      41.709  27.196  28.793  1.00  0.00    -0.354 N 
ATOM     38  C   UNL A   1      42.660  31.146  30.283  1.00  0.00     0.074 A 
ATOM     39  C   UNL A   1      41.487  31.991  30.316  1.00  0.00     0.031 C 
ATOM     40  C   UNL A   1      40.400  25.607  27.920  1.00  0.00     0.029 A 
ATOM     41  C   UNL A   1      41.772  25.908  28.320  1.00  0.00     0.049 A 
ATOM     42  H   UNL A   1      42.490  27.678  29.151  1.00  0.00     0.167 HD
ATOM     43  C   UNL A   1      43.894  31.535  30.679  1.00  0.00     0.037 A 
ATOM     44  C   UNL A   1      42.817  25.063  28.214  1.00  0.00     0.037 A 
ATOM     45  C   UNL A   1      45.049  30.676  30.682  1.00  0.00     0.049 A 
ATOM     46  C   UNL A   1      44.174  25.514  28.679  1.00  0.00     0.074 A 
ATOM     47  C   UNL A   1      46.326  30.958  31.130  1.00  0.00     0.029 A 
ATOM     48  N   UNL A   1      45.066  29.369  30.220  1.00  0.00    -0.354 N 
ATOM     49  N   UNL A   1      44.527  26.672  29.182  1.00  0.00    -0.248 NA
ATOM     50  C   UNL A   1      45.274  24.545  28.568  1.00  0.00     0.031 C 
ATOM     51  C   UNL A   1      47.127  29.833  30.908  1.00  0.00     0.029 A 
ATOM     52  C   UNL A   1      46.337  28.836  30.359  1.00  0.00     0.049 A 
ATOM     53  H   UNL A   1      44.290  28.890  29.848  1.00  0.00     0.167 HD
ATOM     54  C   UNL A   1      45.884  26.567  29.463  1.00  0.00     0.074 A 
ATOM     55  C   UNL A   1      46.287  25.228  29.087  1.00  0.00     0.031 C 
ATOM     56  C   UNL A   1      46.720  27.497  29.985  1.00  0.00     0.037 A 
BRANCH  43  57
ATOM     57  C   UNL A   1      44.065  32.946  31.168  1.00  0.00     0.058 A 
ATOM     58  C   UNL A   1      43.852  33.264  32.518  1.00  0.00     0.135 A 
ATOM     59  C   UNL A   1      44.369  33.995  30.285  1.00  0.00     0.135 A 
ATOM     60  F   UNL A   1      43.567  32.298  33.405  1.00  0.00    -0.206 F 
ATOM     61  C   UNL A   1      43.916  34.577  32.973  1.00  0.00     0.059 A 
ATOM     62  C   UNL A   1      44.462  35.312  30.723  1.00  0.00     0.059 A 
ATOM     63  F   UNL A   1      44.605  33.739  28.988  1.00  0.00    -0.206 F 
ATOM     64  C   UNL A   1      44.216  35.595  32.067  1.00  0.00     0.060 A 
BRANCH  64  65
ATOM     65  S   UNL A   1      44.312  37.292  32.674  1.00  0.00     0.124 S 
ATOM     66  O   UNL A   1      45.617  37.305  33.324  1.00  0.00    -0.237 OA
ATOM     67  O   UNL A   1      44.206  38.066  31.441  1.00  0.00    -0.237 OA
ATOM     68  O   UNL A   1      43.161  37.396  33.568  1.00  0.00    -0.744 OA
ENDBRANCH  64  65
ENDBRANCH  43  57
BRANCH  44  69
ATOM     69  C   UNL A   1      42.608  23.697  27.666  1.00  0.00     0.058 A 
ATOM     70  C   UNL A   1      42.396  22.597  28.510  1.00  0.00     0.135 A 
ATOM     71  C   UNL A   1      42.651  23.462  26.283  1.00  0.00     0.135 A 
ATOM     72  F   UNL A   1      42.356  22.767  29.840  1.00  0.00    -0.206 F 
ATOM     73  C   UNL A   1      42.256  21.308  28.005  1.00  0.00     0.059 A 
ATOM     74  C   UNL A   1      42.491  22.185  25.753  1.00  0.00     0.059 A 
ATOM     75  F   UNL A   1      42.839  24.485  25.436  1.00  0.00    -0.206 F 
ATOM     76  C   UNL A   1      42.311  21.112  26.625  1.00  0.00     0.060 A 
BRANCH  76  77
ATOM     77  S   UNL A   1      42.141  19.430  25.989  1.00  0.00     0.124 S 
ATOM     78  O   UNL A   1      43.004  19.477  24.813  1.00  0.00    -0.237 OA
ATOM     79  O   UNL A   1      42.632  18.629  27.106  1.00  0.00    -0.237 OA
ATOM     80  O   UNL A   1      40.712  19.315  25.717  1.00  0.00    -0.744 OA
ENDBRANCH  76  77
ENDBRANCH  44  69
BRANCH  56  81
ATOM     81  C   UNL A   1      48.155  27.107  30.199  1.00  0.00     0.058 A 
ATOM     82  C   UNL A   1      48.541  26.435  31.369  1.00  0.00     0.135 A 
ATOM     83  C   UNL A   1      49.157  27.479  29.291  1.00  0.00     0.135 A 
ATOM     84  F   UNL A   1      47.620  26.062  32.271  1.00  0.00    -0.206 F 
ATOM     85  C   UNL A   1      49.877  26.166  31.643  1.00  0.00     0.059 A 
ATOM     86  C   UNL A   1      50.498  27.199  29.533  1.00  0.00     0.059 A 
ATOM     87  F   UNL A   1      48.835  28.113  28.152  1.00  0.00    -0.206 F 
ATOM     88  C   UNL A   1      50.850  26.559  30.722  1.00  0.00     0.060 A 
BRANCH  88  89
ATOM     89  S   UNL A   1      52.581  26.205  31.094  1.00  0.00     0.124 S 
ATOM     90  O   UNL A   1      53.162  26.124  29.758  1.00  0.00    -0.237 OA
ATOM     91  O   UNL A   1      52.971  27.367  31.887  1.00  0.00    -0.237 OA
ATOM     92  O   UNL A   1      52.518  24.946  31.829  1.00  0.00    -0.744 OA
ENDBRANCH  88  89
ENDBRANCH  56  81
ENDBRANCH  30  31
ENDBRANCH  22  25
ENDBRANCH  20  21
ENDBRANCH   1  20
TORSDOF 15
ENDMDL
MODEL 3
REMARK VINA RESULT:     -11.3      1.682      2.336
REMARK SMILES NC(=O)c1ccc(C(=O)NCCCCNC(=O)c2ccc(-c3c4nc(c(-c5c(F)cc(S(=O)(=O)[O-])cc5F)c5ccc([nH]5)c(-c5c(F)cc(S(=O)(=O)[O-])cc5F)c5nc(c(-c6c(F)cc(S(=O)(=O)[O-])cc6F)c6ccc3[nH]6)C=C5)C=C4)cc2)c(F)c1
REMARK SMILES IDX 13 1 12 2 11 3 10 4 8 5 9 6 7 8 4 9 5 10 86 11 6 12 84 13
REMARK SMILES IDX 85 14 2 15 1 16 3 19 14 20 15 21 16 22 17 24 18 25 19 26
REMARK SMILES IDX 83 27 20 28 82 29 21 30 22 31 23 32 76 33 24 34 81 35 75 36
REMARK SMILES IDX 77 37 25 38 80 39 74 40 73 41 26 43 60 44 39 45 59 46 40 47
REMARK SMILES IDX 43 48 58 49 78 50 41 51 42 52 57 54 79 55 44 56 27 57 28 58
REMARK SMILES IDX 37 59 29 60 30 61 36 62 38 63 31 64 32 65 33 66 34 67 35 68
REMARK SMILES IDX 61 69 62 70 71 71 63 72 64 73 70 74 72 75 65 76 66 77 67 78
REMARK SMILES IDX 68 79 69 80 45 81 46 82 55 83 47 84 48 85 54 86 56 87 49 88
REMARK SMILES IDX 50 89 51 90 52 91 53 92
REMARK H PARENT 10 7 1 17 1 18 15 23 77 42 43 53
REMARK Flexibility Score: inf
ROOT
ATOM      1  C   UNL A   1      33.949  28.152  25.800  1.00  0.00     0.023 C 
ENDROOT
BRANCH   1   2
ATOM      2  C   UNL A   1      33.312  29.088  24.769  1.00  0.00     0.023 C 
BRANCH   2   3
ATOM      3  C   UNL A   1      33.412  28.603  23.319  1.00  0.00     0.116 C 
BRANCH   3   4
ATOM      4  N   UNL A   1      32.108  28.614  22.687  1.00  0.00    -0.352 N 
ATOM      5  C   UNL A   1      31.051  27.746  22.712  1.00  0.00     0.254 C 
ATOM      6  O   UNL A   1      30.071  28.061  22.028  1.00  0.00    -0.269 OA
ATOM      7  H   UNL A   1      31.951  29.407  22.125  1.00  0.00     0.163 HD
BRANCH   5   8
ATOM      8  C   UNL A   1      30.957  26.495  23.521  1.00  0.00     0.075 A 
ATOM      9  C   UNL A   1      30.926  23.982  24.815  1.00  0.00     0.042 A 
ATOM     10  C   UNL A   1      31.172  24.049  23.446  1.00  0.00     0.015 A 
ATOM     11  C   UNL A   1      30.691  25.148  25.537  1.00  0.00     0.054 A 
ATOM     12  C   UNL A   1      31.174  25.296  22.808  1.00  0.00     0.018 A 
ATOM     13  C   UNL A   1      30.743  26.389  24.896  1.00  0.00     0.136 A 
ATOM     14  F   UNL A   1      30.641  27.452  25.697  1.00  0.00    -0.206 F 
BRANCH   9  15
ATOM     15  C   UNL A   1      30.932  22.695  25.542  1.00  0.00     0.248 C 
ATOM     16  N   UNL A   1      29.994  22.559  26.526  1.00  0.00    -0.366 N 
ATOM     17  H   UNL A   1      29.944  21.725  27.047  1.00  0.00     0.159 HD
ATOM     18  H   UNL A   1      29.368  23.295  26.713  1.00  0.00     0.159 HD
ATOM     19  O   UNL A   1      31.695  21.793  25.240  1.00  0.00    -0.270 OA
ENDBRANCH   9  15
ENDBRANCH   5   8
ENDBRANCH   3   4
ENDBRANCH   2   3
ENDBRANCH   1   2
BRANCH   1  20
ATOM     20  C   UNL A   1      33.541  28.412  27.246  1.00  0.00     0.116 C 
BRANCH  20  21
ATOM     21  N   UNL A   1      33.469  29.826  27.583  1.00  0.00    -0.352 N 
ATOM     22  C   UNL A   1      34.456  30.631  28.099  1.00  0.00     0.251 C 
ATOM     23  H   UNL A   1      32.601  30.262  27.421  1.00  0.00     0.163 HD
ATOM     24  O   UNL A   1      34.209  31.789  28.416  1.00  0.00    -0.269 OA
BRANCH  22  25
ATOM     25  C   UNL A   1      35.806  30.067  28.309  1.00  0.00     0.039 A 
ATOM     26  C   UNL A   1      36.723  30.115  27.257  1.00  0.00     0.014 A 
ATOM     27  C   UNL A   1      36.174  29.539  29.549  1.00  0.00     0.014 A 
ATOM     28  C   UNL A   1      38.038  29.697  27.473  1.00  0.00     0.010 A 
ATOM     29  C   UNL A   1      37.499  29.182  29.779  1.00  0.00     0.010 A 
ATOM     30  C   UNL A   1      38.445  29.265  28.746  1.00  0.00    -0.014 A 
BRANCH  30  31
ATOM     31  C   UNL A   1      39.861  28.914  29.022  1.00  0.00     0.031 A 
ATOM     32  C   UNL A   1      40.792  29.939  29.606  1.00  0.00     0.074 A 
ATOM     33  C   UNL A   1      40.320  27.693  28.680  1.00  0.00     0.049 A 
ATOM     34  N   UNL A   1      42.075  29.847  29.839  1.00  0.00    -0.248 NA
ATOM     35  C   UNL A   1      40.211  31.248  29.948  1.00  0.00     0.031 C 
ATOM     36  C   UNL A   1      39.523  26.633  28.058  1.00  0.00     0.029 A 
ATOM     37  N   UNL A   1      41.571  27.141  28.795  1.00  0.00    -0.354 N 
ATOM     38  C   UNL A   1      42.459  31.084  30.340  1.00  0.00     0.074 A 
ATOM     39  C   UNL A   1      41.283  31.927  30.335  1.00  0.00     0.031 C 
ATOM     40  C   UNL A   1      40.298  25.554  27.867  1.00  0.00     0.029 A 
ATOM     41  C   UNL A   1      41.654  25.855  28.318  1.00  0.00     0.049 A 
ATOM     42  H   UNL A   1      42.337  27.622  29.184  1.00  0.00     0.167 HD
ATOM     43  C   UNL A   1      43.677  31.474  30.783  1.00  0.00     0.037 A 
ATOM     44  C   UNL A   1      42.704  25.013  28.245  1.00  0.00     0.037 A 
ATOM     45  C   UNL A   1      44.832  30.617  30.824  1.00  0.00     0.049 A 
ATOM     46  C   UNL A   1      44.043  25.464  28.762  1.00  0.00     0.074 A 
ATOM     47  C   UNL A   1      46.092  30.899  31.320  1.00  0.00     0.029 A 
ATOM     48  N   UNL A   1      44.869  29.312  30.356  1.00  0.00    -0.354 N 
ATOM     49  N   UNL A   1      44.374  26.620  29.283  1.00  0.00    -0.248 NA
ATOM     50  C   UNL A   1      45.148  24.498  28.686  1.00  0.00     0.031 C 
ATOM     51  C   UNL A   1      46.902  29.777  31.121  1.00  0.00     0.029 A 
ATOM     52  C   UNL A   1      46.135  28.782  30.538  1.00  0.00     0.049 A 
ATOM     53  H   UNL A   1      44.108  28.834  29.953  1.00  0.00     0.167 HD
ATOM     54  C   UNL A   1      45.721  26.516  29.613  1.00  0.00     0.074 A 
ATOM     55  C   UNL A   1      46.140  25.180  29.245  1.00  0.00     0.031 C 
ATOM     56  C   UNL A   1      46.535  27.445  30.170  1.00  0.00     0.037 A 
BRANCH  43  57
ATOM     57  C   UNL A   1      43.827  32.882  31.286  1.00  0.00     0.058 A 
ATOM     58  C   UNL A   1      43.604  33.185  32.638  1.00  0.00     0.135 A 
ATOM     59  C   UNL A   1      44.121  33.943  30.414  1.00  0.00     0.135 A 
ATOM     60  F   UNL A   1      43.327  32.207  33.514  1.00  0.00    -0.206 F 
ATOM     61  C   UNL A   1      43.648  34.495  33.105  1.00  0.00     0.059 A 
ATOM     62  C   UNL A   1      44.194  35.257  30.864  1.00  0.00     0.059 A 
ATOM     63  F   UNL A   1      44.366  33.702  29.116  1.00  0.00    -0.206 F 
ATOM     64  C   UNL A   1      43.938  35.525  32.209  1.00  0.00     0.060 A 
BRANCH  64  65
ATOM     65  S   UNL A   1      44.009  37.217  32.833  1.00  0.00     0.124 S 
ATOM     66  O   UNL A   1      43.880  37.994  31.606  1.00  0.00    -0.237 OA
ATOM     67  O   UNL A   1      42.863  37.259  33.737  1.00  0.00    -0.237 OA
ATOM     68  O   UNL A   1      45.313  37.282  33.487  1.00  0.00    -0.744 OA
ENDBRANCH  64  65
ENDBRANCH  43  57
BRANCH  44  69
ATOM     69  C   UNL A   1      42.518  23.650  27.682  1.00  0.00     0.058 A 
ATOM     70  C   UNL A   1      42.327  22.537  28.515  1.00  0.00     0.135 A 
ATOM     71  C   UNL A   1      42.563  23.431  26.297  1.00  0.00     0.135 A 
ATOM     72  F   UNL A   1      42.287  22.691  29.847  1.00  0.00    -0.206 F 
ATOM     73  C   UNL A   1      42.209  21.251  27.996  1.00  0.00     0.059 A 
ATOM     74  C   UNL A   1      42.424  22.157  25.753  1.00  0.00     0.059 A 
ATOM     75  F   UNL A   1      42.731  24.466  25.461  1.00  0.00    -0.206 F 
ATOM     76  C   UNL A   1      42.265  21.071  26.613  1.00  0.00     0.060 A 
BRANCH  76  77
ATOM     77  S   UNL A   1      42.123  19.394  25.960  1.00  0.00     0.124 S 
ATOM     78  O   UNL A   1      42.640  18.605  27.073  1.00  0.00    -0.237 OA
ATOM     79  O   UNL A   1      40.690  19.281  25.712  1.00  0.00    -0.237 OA
ATOM     80  O   UNL A   1      42.964  19.424  24.768  1.00  0.00    -0.744 OA
ENDBRANCH  76  77
ENDBRANCH  44  69
BRANCH  56  81
ATOM     81  C   UNL A   1      47.962  27.057  30.435  1.00  0.00     0.058 A 
ATOM     82  C   UNL A   1      48.347  26.584  31.699  1.00  0.00     0.135 A 
ATOM     83  C   UNL A   1      48.960  27.239  29.467  1.00  0.00     0.135 A 
ATOM     84  F   UNL A   1      47.429  26.397  32.660  1.00  0.00    -0.206 F 
ATOM     85  C   UNL A   1      49.679  26.328  32.002  1.00  0.00     0.059 A 
ATOM     86  C   UNL A   1      50.297  26.967  29.741  1.00  0.00     0.059 A 
ATOM     87  F   UNL A   1      48.639  27.677  28.239  1.00  0.00    -0.206 F 
ATOM     88  C   UNL A   1      50.649  26.530  31.018  1.00  0.00     0.060 A 
BRANCH  88  89
ATOM     89  S   UNL A   1      52.375  26.195  31.428  1.00  0.00     0.124 S 
ATOM     90  O   UNL A   1      52.297  24.840  31.962  1.00  0.00    -0.237 OA
ATOM     91  O   UNL A   1      53.032  26.331  30.132  1.00  0.00    -0.237 OA
ATOM     92  O   UNL A   1      52.699  27.235  32.399  1.00  0.00    -0.744 OA
ENDBRANCH  88  89
ENDBRANCH  56  81
ENDBRANCH  30  31
ENDBRANCH  22  25
ENDBRANCH  20  21
ENDBRANCH   1  20
TORSDOF 15
ENDMDL
