MODEL 1
REMARK VINA RESULT:     -13.5      0.000      0.000
REMARK SMILES O=C(COc1ccccc1/C=C1/SC(=S)N(c2ccc(F)c(Cl)c2)C1=O)NCCCCNC(=O)c1ccc(-c2c3nc(c(-c4c(F)cc(S(=O)(=O)[O-])cc4F)c4ccc([nH]4)c(-c4c(F)cc(S(=O)(=O)[O-])cc4F)c4nc(c(-c5c(F)cc(S(=O)(=O)[O-])cc5F)c5ccc2[nH]5)C=C4)C=C3)cc1
REMARK SMILES IDX 29 1 28 2 27 3 1 4 2 5 3 7 4 8 5 9 6 10 10 11 7 12 9 13 8 14
REMARK SMILES IDX 11 15 12 16 13 17 25 18 14 19 16 20 26 21 15 22 17 23 18 24
REMARK SMILES IDX 24 25 19 26 22 27 20 28 23 29 21 30 30 31 31 32 32 33 33 34
REMARK SMILES IDX 34 36 35 37 36 38 100 39 37 40 99 41 38 42 39 43 40 44 93 45
REMARK SMILES IDX 41 46 98 47 92 48 94 49 42 50 97 51 91 52 90 53 43 55 77 56
REMARK SMILES IDX 56 57 76 58 57 59 60 60 75 61 95 62 58 63 59 64 74 66 96 67
REMARK SMILES IDX 61 68 44 69 45 70 54 71 46 72 47 73 53 74 55 75 48 76 49 77
REMARK SMILES IDX 50 78 51 79 52 80 78 81 79 82 88 83 80 84 81 85 87 86 89 87
REMARK SMILES IDX 82 88 83 89 84 90 85 91 86 92 62 93 63 94 72 95 64 96 65 97
REMARK SMILES IDX 71 98 73 99 66 100 67 101 68 102 69 103 70 104
REMARK H PARENT 27 6 32 35 94 54 60 65
REMARK Flexibility Score: inf
ROOT
ATOM      1  C   UNL A   1      41.056  22.252  27.757  1.00  0.00     0.023 C 
ENDROOT
BRANCH   1   2
ATOM      2  C   UNL A   1      40.156  21.613  26.320  1.00  0.00     0.116 C 
BRANCH   2   3
ATOM      3  N   UNL A   1      38.114  21.452  25.832  1.00  0.00    -0.353 N 
ATOM      4  O   UNL A   1      36.926  22.153  23.739  1.00  0.00    -0.271 OA
ATOM      5  C   UNL A   1      36.973  21.602  24.836  1.00  0.00     0.257 C 
ATOM      6  H   UNL A   1      37.688  21.113  26.651  1.00  0.00     0.163 HD
BRANCH   5   7
ATOM      7  C   UNL A   1      35.744  20.831  25.278  1.00  0.00     0.329 C 
BRANCH   7   8
ATOM      8  O   UNL A   1      34.600  21.346  24.638  1.00  0.00    -0.483 OA
BRANCH   8   9
ATOM      9  C   UNL A   1      33.811  22.201  25.379  1.00  0.00     0.127 A 
ATOM     10  C   UNL A   1      33.876  21.854  26.737  1.00  0.00     0.047 A 
ATOM     11  C   UNL A   1      32.806  23.084  24.880  1.00  0.00     0.018 A 
ATOM     12  C   UNL A   1      32.901  22.283  27.621  1.00  0.00     0.004 A 
ATOM     13  C   UNL A   1      31.828  23.496  25.803  1.00  0.00     0.012 A 
ATOM     14  C   UNL A   1      31.861  23.076  27.145  1.00  0.00     0.001 A 
BRANCH  11  15
ATOM     15  C   UNL A   1      32.611  23.489  23.443  1.00  0.00     0.033 C 
ATOM     16  C   UNL A   1      33.094  24.679  22.988  1.00  0.00     0.081 C 
ATOM     17  S   UNL A   1      31.774  25.961  21.619  1.00  0.00    -0.054 SA
ATOM     18  C   UNL A   1      33.894  25.783  24.395  1.00  0.00     0.270 C 
ATOM     19  C   UNL A   1      31.986  27.830  23.053  1.00  0.00     0.152 C 
ATOM     20  N   UNL A   1      33.146  27.408  24.396  1.00  0.00    -0.261 N 
ATOM     21  O   UNL A   1      34.790  25.400  25.136  1.00  0.00    -0.268 OA
ATOM     22  S   UNL A   1      30.976  29.180  22.910  1.00  0.00    -0.051 S 
BRANCH  20  23
ATOM     23  C   UNL A   1      33.286  28.231  25.557  1.00  0.00     0.052 A 
ATOM     24  C   UNL A   1      34.409  28.252  26.388  1.00  0.00     0.030 A 
ATOM     25  C   UNL A   1      32.241  29.101  25.839  1.00  0.00     0.050 A 
ATOM     26  C   UNL A   1      34.588  29.351  27.245  1.00  0.00     0.043 A 
ATOM     27  C   UNL A   1      32.455  30.245  26.581  1.00  0.00     0.078 A 
ATOM     28  C   UNL A   1      33.650  30.385  27.258  1.00  0.00     0.141 A 
ATOM     29  Cl  UNL A   1      31.280  31.492  26.500  1.00  0.00    -0.081 Cl
ATOM     30  F   UNL A   1      33.933  31.522  27.906  1.00  0.00    -0.205 F 
ENDBRANCH  20  23
ENDBRANCH  11  15
ENDBRANCH   8   9
ENDBRANCH   7   8
ENDBRANCH   5   7
ENDBRANCH   2   3
ENDBRANCH   1   2
BRANCH   1  31
ATOM     31  C   UNL A   1      42.543  22.647  28.052  1.00  0.00     0.023 C 
BRANCH  31  32
ATOM     32  C   UNL A   1      43.239  23.786  27.259  1.00  0.00     0.116 C 
BRANCH  32  33
ATOM     33  N   UNL A   1      42.400  24.284  26.186  1.00  0.00    -0.352 N 
ATOM     34  C   UNL A   1      41.569  25.373  26.112  1.00  0.00     0.251 C 
ATOM     35  H   UNL A   1      42.433  23.745  25.363  1.00  0.00     0.163 HD
ATOM     36  O   UNL A   1      40.992  25.613  25.054  1.00  0.00    -0.269 OA
BRANCH  34  37
ATOM     37  C   UNL A   1      41.328  26.260  27.268  1.00  0.00     0.039 A 
ATOM     38  C   UNL A   1      42.215  27.314  27.508  1.00  0.00     0.014 A 
ATOM     39  C   UNL A   1      40.363  25.936  28.225  1.00  0.00     0.014 A 
ATOM     40  C   UNL A   1      42.103  28.071  28.682  1.00  0.00     0.010 A 
ATOM     41  C   UNL A   1      40.223  26.728  29.377  1.00  0.00     0.010 A 
ATOM     42  C   UNL A   1      41.081  27.814  29.616  1.00  0.00    -0.014 A 
BRANCH  42  43
ATOM     43  C   UNL A   1      40.882  28.729  30.783  1.00  0.00     0.031 A 
ATOM     44  C   UNL A   1      41.723  28.627  32.032  1.00  0.00     0.074 A 
ATOM     45  C   UNL A   1      39.900  29.655  30.715  1.00  0.00     0.049 A 
ATOM     46  N   UNL A   1      41.696  29.368  33.112  1.00  0.00    -0.248 NA
ATOM     47  C   UNL A   1      42.711  27.540  32.084  1.00  0.00     0.031 C 
ATOM     48  C   UNL A   1      38.975  29.810  29.588  1.00  0.00     0.029 A 
ATOM     49  N   UNL A   1      39.513  30.641  31.590  1.00  0.00    -0.354 N 
ATOM     50  C   UNL A   1      42.650  28.833  33.975  1.00  0.00     0.074 A 
ATOM     51  C   UNL A   1      43.206  27.675  33.308  1.00  0.00     0.031 C 
ATOM     52  C   UNL A   1      38.163  30.852  29.817  1.00  0.00     0.029 A 
ATOM     53  C   UNL A   1      38.476  31.419  31.124  1.00  0.00     0.049 A 
ATOM     54  H   UNL A   1      39.937  30.779  32.467  1.00  0.00     0.167 HD
ATOM     55  C   UNL A   1      43.039  29.277  35.197  1.00  0.00     0.037 A 
ATOM     56  C   UNL A   1      37.844  32.473  31.681  1.00  0.00     0.037 A 
ATOM     57  C   UNL A   1      42.484  30.444  35.841  1.00  0.00     0.049 A 
ATOM     58  C   UNL A   1      38.305  32.957  33.030  1.00  0.00     0.074 A 
ATOM     59  C   UNL A   1      42.844  31.020  37.046  1.00  0.00     0.029 A 
ATOM     60  N   UNL A   1      41.442  31.209  35.331  1.00  0.00    -0.354 N 
ATOM     61  N   UNL A   1      39.268  32.486  33.788  1.00  0.00    -0.248 NA
ATOM     62  C   UNL A   1      37.605  34.117  33.596  1.00  0.00     0.031 C 
ATOM     63  C   UNL A   1      41.989  32.100  37.290  1.00  0.00     0.029 A 
ATOM     64  C   UNL A   1      41.134  32.237  36.209  1.00  0.00     0.049 A 
ATOM     65  H   UNL A   1      40.990  31.045  34.472  1.00  0.00     0.167 HD
ATOM     66  C   UNL A   1      39.304  33.308  34.909  1.00  0.00     0.074 A 
ATOM     67  C   UNL A   1      38.281  34.315  34.719  1.00  0.00     0.031 C 
ATOM     68  C   UNL A   1      40.112  33.234  35.996  1.00  0.00     0.037 A 
BRANCH  55  69
ATOM     69  C   UNL A   1      44.115  28.507  35.922  1.00  0.00     0.058 A 
ATOM     70  C   UNL A   1      43.811  27.426  36.766  1.00  0.00     0.135 A 
ATOM     71  C   UNL A   1      45.474  28.823  35.742  1.00  0.00     0.135 A 
ATOM     72  F   UNL A   1      42.533  27.077  36.984  1.00  0.00    -0.206 F 
ATOM     73  C   UNL A   1      44.806  26.715  37.434  1.00  0.00     0.059 A 
ATOM     74  C   UNL A   1      46.487  28.107  36.376  1.00  0.00     0.059 A 
ATOM     75  F   UNL A   1      45.831  29.841  34.942  1.00  0.00    -0.206 F 
ATOM     76  C   UNL A   1      46.141  27.064  37.234  1.00  0.00     0.060 A 
BRANCH  76  77
ATOM     77  S   UNL A   1      47.417  26.131  38.108  1.00  0.00     0.124 S 
ATOM     78  O   UNL A   1      48.634  26.647  37.486  1.00  0.00    -0.237 OA
ATOM     79  O   UNL A   1      47.199  26.528  39.496  1.00  0.00    -0.237 OA
ATOM     80  O   UNL A   1      47.097  24.741  37.799  1.00  0.00    -0.744 OA
ENDBRANCH  76  77
ENDBRANCH  55  69
BRANCH  56  81
ATOM     81  C   UNL A   1      36.738  33.157  30.953  1.00  0.00     0.058 A 
ATOM     82  C   UNL A   1      35.397  32.962  31.319  1.00  0.00     0.135 A 
ATOM     83  C   UNL A   1      36.996  34.033  29.887  1.00  0.00     0.135 A 
ATOM     84  F   UNL A   1      35.091  32.132  32.328  1.00  0.00    -0.206 F 
ATOM     85  C   UNL A   1      34.354  33.592  30.646  1.00  0.00     0.059 A 
ATOM     86  C   UNL A   1      35.973  34.698  29.216  1.00  0.00     0.059 A 
ATOM     87  F   UNL A   1      38.260  34.272  29.504  1.00  0.00    -0.206 F 
ATOM     88  C   UNL A   1      34.653  34.462  29.596  1.00  0.00     0.060 A 
BRANCH  88  89
ATOM     89  S   UNL A   1      33.294  35.306  28.755  1.00  0.00     0.124 S 
ATOM     90  O   UNL A   1      32.529  35.828  29.881  1.00  0.00    -0.237 OA
ATOM     91  O   UNL A   1      34.002  36.296  27.949  1.00  0.00    -0.237 OA
ATOM     92  O   UNL A   1      32.652  34.236  27.997  1.00  0.00    -0.744 OA
ENDBRANCH  88  89
ENDBRANCH  56  81
BRANCH  68  93
ATOM     93  C   UNL A   1      39.945  34.294  37.051  1.00  0.00     0.058 A 
ATOM     94  C   UNL A   1      40.680  35.489  37.022  1.00  0.00     0.135 A 
ATOM     95  C   UNL A   1      38.996  34.132  38.074  1.00  0.00     0.135 A 
ATOM     96  F   UNL A   1      41.606  35.691  36.070  1.00  0.00    -0.206 F 
ATOM     97  C   UNL A   1      40.498  36.477  37.984  1.00  0.00     0.059 A 
ATOM     98  C   UNL A   1      38.775  35.119  39.027  1.00  0.00     0.059 A 
ATOM     99  F   UNL A   1      38.260  33.010  38.142  1.00  0.00    -0.206 F 
ATOM    100  C   UNL A   1      39.539  36.283  38.980  1.00  0.00     0.060 A 
BRANCH 100 101
ATOM    101  S   UNL A   1      39.287  37.590  40.199  1.00  0.00     0.124 S 
ATOM    102  O   UNL A   1      38.155  38.312  39.628  1.00  0.00    -0.237 OA
ATOM    103  O   UNL A   1      39.008  36.833  41.416  1.00  0.00    -0.237 OA
ATOM    104  O   UNL A   1      40.557  38.311  40.193  1.00  0.00    -0.744 OA
ENDBRANCH 100 101
ENDBRANCH  68  93
ENDBRANCH  42  43
ENDBRANCH  34  37
ENDBRANCH  32  33
ENDBRANCH  31  32
ENDBRANCH   1  31
TORSDOF 18
ENDMDL
MODEL 2
REMARK VINA RESULT:     -12.9      0.701      7.955
REMARK SMILES O=C(COc1ccccc1/C=C1/SC(=S)N(c2ccc(F)c(Cl)c2)C1=O)NCCCCNC(=O)c1ccc(-c2c3nc(c(-c4c(F)cc(S(=O)(=O)[O-])cc4F)c4ccc([nH]4)c(-c4c(F)cc(S(=O)(=O)[O-])cc4F)c4nc(c(-c5c(F)cc(S(=O)(=O)[O-])cc5F)c5ccc2[nH]5)C=C4)C=C3)cc1
REMARK SMILES IDX 29 1 28 2 27 3 1 4 2 5 3 7 4 8 5 9 6 10 10 11 7 12 9 13 8 14
REMARK SMILES IDX 11 15 12 16 13 17 25 18 14 19 16 20 26 21 15 22 17 23 18 24
REMARK SMILES IDX 24 25 19 26 22 27 20 28 23 29 21 30 30 31 31 32 32 33 33 34
REMARK SMILES IDX 34 36 35 37 36 38 100 39 37 40 99 41 38 42 39 43 40 44 93 45
REMARK SMILES IDX 41 46 98 47 92 48 94 49 42 50 97 51 91 52 90 53 43 55 77 56
REMARK SMILES IDX 56 57 76 58 57 59 60 60 75 61 95 62 58 63 59 64 74 66 96 67
REMARK SMILES IDX 61 68 44 69 45 70 54 71 46 72 47 73 53 74 55 75 48 76 49 77
REMARK SMILES IDX 50 78 51 79 52 80 78 81 79 82 88 83 80 84 81 85 87 86 89 87
REMARK SMILES IDX 82 88 83 89 84 90 85 91 86 92 62 93 63 94 72 95 64 96 65 97
REMARK SMILES IDX 71 98 73 99 66 100 67 101 68 102 69 103 70 104
REMARK H PARENT 27 6 32 35 94 54 60 65
REMARK Flexibility Score: inf
ROOT
ATOM      1  C   UNL A   1      41.323  20.985  27.344  1.00  0.00     0.023 C 
ENDROOT
BRANCH   1   2
ATOM      2  C   UNL A   1      40.024  20.533  26.163  1.00  0.00     0.116 C 
BRANCH   2   3
ATOM      3  N   UNL A   1      38.254  21.469  25.514  1.00  0.00    -0.353 N 
ATOM      4  O   UNL A   1      37.498  23.835  25.852  1.00  0.00    -0.271 OA
ATOM      5  C   UNL A   1      37.392  22.714  25.362  1.00  0.00     0.257 C 
ATOM      6  H   UNL A   1      37.723  20.747  25.110  1.00  0.00     0.163 HD
BRANCH   5   7
ATOM      7  C   UNL A   1      36.292  22.507  24.339  1.00  0.00     0.329 C 
BRANCH   7   8
ATOM      8  O   UNL A   1      35.248  21.749  24.904  1.00  0.00    -0.483 OA
BRANCH   8   9
ATOM      9  C   UNL A   1      34.285  22.448  25.602  1.00  0.00     0.127 A 
ATOM     10  C   UNL A   1      34.354  22.123  26.966  1.00  0.00     0.047 A 
ATOM     11  C   UNL A   1      33.157  23.131  25.052  1.00  0.00     0.018 A 
ATOM     12  C   UNL A   1      33.279  22.370  27.803  1.00  0.00     0.004 A 
ATOM     13  C   UNL A   1      32.083  23.360  25.928  1.00  0.00     0.012 A 
ATOM     14  C   UNL A   1      32.134  22.957  27.275  1.00  0.00     0.001 A 
BRANCH  11  15
ATOM     15  C   UNL A   1      32.954  23.488  23.603  1.00  0.00     0.033 C 
ATOM     16  C   UNL A   1      33.340  24.706  23.131  1.00  0.00     0.081 C 
ATOM     17  S   UNL A   1      31.938  25.841  21.714  1.00  0.00    -0.054 SA
ATOM     18  C   UNL A   1      34.016  25.904  24.526  1.00  0.00     0.270 C 
ATOM     19  C   UNL A   1      31.962  27.750  23.110  1.00  0.00     0.152 C 
ATOM     20  N   UNL A   1      33.130  27.457  24.480  1.00  0.00    -0.261 N 
ATOM     21  O   UNL A   1      34.929  25.615  25.289  1.00  0.00    -0.268 OA
ATOM     22  S   UNL A   1      30.842  29.003  22.922  1.00  0.00    -0.051 S 
BRANCH  20  23
ATOM     23  C   UNL A   1      33.177  28.312  25.625  1.00  0.00     0.052 A 
ATOM     24  C   UNL A   1      34.211  28.329  26.565  1.00  0.00     0.030 A 
ATOM     25  C   UNL A   1      32.137  29.220  25.774  1.00  0.00     0.050 A 
ATOM     26  C   UNL A   1      34.337  29.448  27.404  1.00  0.00     0.043 A 
ATOM     27  C   UNL A   1      32.310  30.380  26.501  1.00  0.00     0.078 A 
ATOM     28  C   UNL A   1      33.434  30.508  27.292  1.00  0.00     0.141 A 
ATOM     29  Cl  UNL A   1      31.188  31.657  26.265  1.00  0.00    -0.081 Cl
ATOM     30  F   UNL A   1      33.686  31.656  27.932  1.00  0.00    -0.205 F 
ENDBRANCH  20  23
ENDBRANCH  11  15
ENDBRANCH   8   9
ENDBRANCH   7   8
ENDBRANCH   5   7
ENDBRANCH   2   3
ENDBRANCH   1   2
BRANCH   1  31
ATOM     31  C   UNL A   1      41.740  22.298  28.089  1.00  0.00     0.023 C 
BRANCH  31  32
ATOM     32  C   UNL A   1      42.657  23.347  27.405  1.00  0.00     0.116 C 
BRANCH  32  33
ATOM     33  N   UNL A   1      41.986  24.014  26.306  1.00  0.00    -0.352 N 
ATOM     34  C   UNL A   1      41.398  25.250  26.214  1.00  0.00     0.251 C 
ATOM     35  H   UNL A   1      41.944  23.485  25.477  1.00  0.00     0.163 HD
ATOM     36  O   UNL A   1      40.929  25.610  25.138  1.00  0.00    -0.269 OA
BRANCH  34  37
ATOM     37  C   UNL A   1      41.292  26.160  27.374  1.00  0.00     0.039 A 
ATOM     38  C   UNL A   1      40.276  25.945  28.311  1.00  0.00     0.014 A 
ATOM     39  C   UNL A   1      42.049  27.334  27.429  1.00  0.00     0.014 A 
ATOM     40  C   UNL A   1      40.053  26.882  29.329  1.00  0.00     0.010 A 
ATOM     41  C   UNL A   1      41.853  28.245  28.480  1.00  0.00     0.010 A 
ATOM     42  C   UNL A   1      40.863  28.027  29.452  1.00  0.00    -0.014 A 
BRANCH  42  43
ATOM     43  C   UNL A   1      40.711  28.932  30.634  1.00  0.00     0.031 A 
ATOM     44  C   UNL A   1      39.649  30.003  30.689  1.00  0.00     0.074 A 
ATOM     45  C   UNL A   1      41.571  28.793  31.667  1.00  0.00     0.049 A 
ATOM     46  N   UNL A   1      39.368  30.842  31.655  1.00  0.00    -0.248 NA
ATOM     47  C   UNL A   1      38.805  30.167  29.497  1.00  0.00     0.031 C 
ATOM     48  C   UNL A   1      42.684  27.838  31.704  1.00  0.00     0.029 A 
ATOM     49  N   UNL A   1      41.654  29.433  32.879  1.00  0.00    -0.354 N 
ATOM     50  C   UNL A   1      38.326  31.640  31.187  1.00  0.00     0.074 A 
ATOM     51  C   UNL A   1      38.057  31.212  29.830  1.00  0.00     0.031 C 
ATOM     52  C   UNL A   1      43.305  27.923  32.890  1.00  0.00     0.029 A 
ATOM     53  C   UNL A   1      42.667  28.965  33.686  1.00  0.00     0.049 A 
ATOM     54  H   UNL A   1      41.045  30.160  33.146  1.00  0.00     0.167 HD
ATOM     55  C   UNL A   1      37.646  32.619  31.834  1.00  0.00     0.037 A 
ATOM     56  C   UNL A   1      43.043  29.327  34.929  1.00  0.00     0.037 A 
ATOM     57  C   UNL A   1      37.917  33.022  33.193  1.00  0.00     0.049 A 
ATOM     58  C   UNL A   1      42.263  30.405  35.632  1.00  0.00     0.074 A 
ATOM     59  C   UNL A   1      37.252  33.957  33.967  1.00  0.00     0.029 A 
ATOM     60  N   UNL A   1      38.945  32.516  33.978  1.00  0.00    -0.354 N 
ATOM     61  N   UNL A   1      41.226  31.085  35.200  1.00  0.00    -0.248 NA
ATOM     62  C   UNL A   1      42.692  30.761  36.991  1.00  0.00     0.031 C 
ATOM     63  C   UNL A   1      37.908  34.052  35.200  1.00  0.00     0.029 A 
ATOM     64  C   UNL A   1      38.945  33.134  35.219  1.00  0.00     0.049 A 
ATOM     65  H   UNL A   1      39.579  31.818  33.696  1.00  0.00     0.167 HD
ATOM     66  C   UNL A   1      40.865  31.931  36.243  1.00  0.00     0.074 A 
ATOM     67  C   UNL A   1      41.781  31.662  37.332  1.00  0.00     0.031 C 
ATOM     68  C   UNL A   1      39.865  32.846  36.293  1.00  0.00     0.037 A 
BRANCH  55  69
ATOM     69  C   UNL A   1      36.540  33.326  31.088  1.00  0.00     0.058 A 
ATOM     70  C   UNL A   1      36.809  34.217  30.035  1.00  0.00     0.135 A 
ATOM     71  C   UNL A   1      35.190  33.082  31.399  1.00  0.00     0.135 A 
ATOM     72  F   UNL A   1      38.077  34.496  29.694  1.00  0.00    -0.206 F 
ATOM     73  C   UNL A   1      35.788  34.868  29.347  1.00  0.00     0.059 A 
ATOM     74  C   UNL A   1      34.151  33.699  30.704  1.00  0.00     0.059 A 
ATOM     75  F   UNL A   1      34.867  32.236  32.389  1.00  0.00    -0.206 F 
ATOM     76  C   UNL A   1      34.462  34.604  29.689  1.00  0.00     0.060 A 
BRANCH  76  77
ATOM     77  S   UNL A   1      33.151  35.457  28.786  1.00  0.00     0.124 S 
ATOM     78  O   UNL A   1      33.922  36.370  27.946  1.00  0.00    -0.237 OA
ATOM     79  O   UNL A   1      32.490  34.360  28.086  1.00  0.00    -0.237 OA
ATOM     80  O   UNL A   1      32.364  36.089  29.840  1.00  0.00    -0.744 OA
ENDBRANCH  76  77
ENDBRANCH  55  69
BRANCH  56  81
ATOM     81  C   UNL A   1      44.189  28.645  35.597  1.00  0.00     0.058 A 
ATOM     82  C   UNL A   1      43.988  27.534  36.430  1.00  0.00     0.135 A 
ATOM     83  C   UNL A   1      45.510  29.079  35.404  1.00  0.00     0.135 A 
ATOM     84  F   UNL A   1      42.746  27.079  36.653  1.00  0.00    -0.206 F 
ATOM     85  C   UNL A   1      45.049  26.890  37.061  1.00  0.00     0.059 A 
ATOM     86  C   UNL A   1      46.591  28.435  36.001  1.00  0.00     0.059 A 
ATOM     87  F   UNL A   1      45.764  30.127  34.605  1.00  0.00    -0.206 F 
ATOM     88  C   UNL A   1      46.349  27.346  36.838  1.00  0.00     0.060 A 
BRANCH  88  89
ATOM     89  S   UNL A   1      47.721  26.479  37.631  1.00  0.00     0.124 S 
ATOM     90  O   UNL A   1      47.827  27.191  38.899  1.00  0.00    -0.237 OA
ATOM     91  O   UNL A   1      47.216  25.112  37.706  1.00  0.00    -0.237 OA
ATOM     92  O   UNL A   1      48.829  26.680  36.701  1.00  0.00    -0.744 OA
ENDBRANCH  88  89
ENDBRANCH  56  81
BRANCH  68  93
ATOM     93  C   UNL A   1      39.688  33.601  37.582  1.00  0.00     0.058 A 
ATOM     94  C   UNL A   1      40.402  34.778  37.854  1.00  0.00     0.135 A 
ATOM     95  C   UNL A   1      38.749  33.168  38.533  1.00  0.00     0.135 A 
ATOM     96  F   UNL A   1      41.318  35.231  36.982  1.00  0.00    -0.206 F 
ATOM     97  C   UNL A   1      40.210  35.487  39.035  1.00  0.00     0.059 A 
ATOM     98  C   UNL A   1      38.518  33.879  39.705  1.00  0.00     0.059 A 
ATOM     99  F   UNL A   1      38.032  32.053  38.317  1.00  0.00    -0.206 F 
ATOM    100  C   UNL A   1      39.261  35.031  39.953  1.00  0.00     0.060 A 
BRANCH 100 101
ATOM    101  S   UNL A   1      38.996  35.982  41.464  1.00  0.00     0.124 S 
ATOM    102  O   UNL A   1      37.733  35.430  41.941  1.00  0.00    -0.237 OA
ATOM    103  O   UNL A   1      40.175  35.646  42.256  1.00  0.00    -0.237 OA
ATOM    104  O   UNL A   1      38.939  37.363  40.990  1.00  0.00    -0.744 OA
ENDBRANCH 100 101
ENDBRANCH  68  93
ENDBRANCH  42  43
ENDBRANCH  34  37
ENDBRANCH  32  33
ENDBRANCH  31  32
ENDBRANCH   1  31
TORSDOF 18
ENDMDL
MODEL 3
REMARK VINA RESULT:     -12.9      6.710     12.323
REMARK SMILES O=C(COc1ccccc1/C=C1/SC(=S)N(c2ccc(F)c(Cl)c2)C1=O)NCCCCNC(=O)c1ccc(-c2c3nc(c(-c4c(F)cc(S(=O)(=O)[O-])cc4F)c4ccc([nH]4)c(-c4c(F)cc(S(=O)(=O)[O-])cc4F)c4nc(c(-c5c(F)cc(S(=O)(=O)[O-])cc5F)c5ccc2[nH]5)C=C4)C=C3)cc1
REMARK SMILES IDX 29 1 28 2 27 3 1 4 2 5 3 7 4 8 5 9 6 10 10 11 7 12 9 13 8 14
REMARK SMILES IDX 11 15 12 16 13 17 25 18 14 19 16 20 26 21 15 22 17 23 18 24
REMARK SMILES IDX 24 25 19 26 22 27 20 28 23 29 21 30 30 31 31 32 32 33 33 34
REMARK SMILES IDX 34 36 35 37 36 38 100 39 37 40 99 41 38 42 39 43 40 44 93 45
REMARK SMILES IDX 41 46 98 47 92 48 94 49 42 50 97 51 91 52 90 53 43 55 77 56
REMARK SMILES IDX 56 57 76 58 57 59 60 60 75 61 95 62 58 63 59 64 74 66 96 67
REMARK SMILES IDX 61 68 44 69 45 70 54 71 46 72 47 73 53 74 55 75 48 76 49 77
REMARK SMILES IDX 50 78 51 79 52 80 78 81 79 82 88 83 80 84 81 85 87 86 89 87
REMARK SMILES IDX 82 88 83 89 84 90 85 91 86 92 62 93 63 94 72 95 64 96 65 97
REMARK SMILES IDX 71 98 73 99 66 100 67 101 68 102 69 103 70 104
REMARK H PARENT 27 6 32 35 94 54 60 65
REMARK Flexibility Score: inf
ROOT
ATOM      1  C   UNL A   1      33.315  31.125  27.354  1.00  0.00     0.023 C 
ENDROOT
BRANCH   1   2
ATOM      2  C   UNL A   1      31.793  30.396  26.692  1.00  0.00     0.116 C 
BRANCH   2   3
ATOM      3  N   UNL A   1      31.368  29.160  25.042  1.00  0.00    -0.353 N 
ATOM      4  O   UNL A   1      32.901  28.352  23.231  1.00  0.00    -0.271 OA
ATOM      5  C   UNL A   1      31.826  28.371  23.823  1.00  0.00     0.257 C 
ATOM      6  H   UNL A   1      30.394  29.026  25.075  1.00  0.00     0.163 HD
BRANCH   5   7
ATOM      7  C   UNL A   1      30.769  27.382  23.372  1.00  0.00     0.329 C 
BRANCH   7   8
ATOM      8  O   UNL A   1      31.366  26.138  23.089  1.00  0.00    -0.483 OA
BRANCH   8   9
ATOM      9  C   UNL A   1      31.546  25.282  24.156  1.00  0.00     0.127 A 
ATOM     10  C   UNL A   1      30.331  25.106  24.836  1.00  0.00     0.047 A 
ATOM     11  C   UNL A   1      32.791  24.886  24.734  1.00  0.00     0.018 A 
ATOM     12  C   UNL A   1      30.315  24.629  26.135  1.00  0.00     0.004 A 
ATOM     13  C   UNL A   1      32.738  24.412  26.056  1.00  0.00     0.012 A 
ATOM     14  C   UNL A   1      31.521  24.315  26.753  1.00  0.00     0.001 A 
BRANCH  11  15
ATOM     15  C   UNL A   1      34.154  25.069  24.120  1.00  0.00     0.033 C 
ATOM     16  C   UNL A   1      34.782  24.025  23.510  1.00  0.00     0.081 C 
ATOM     17  S   UNL A   1      37.017  23.692  23.904  1.00  0.00    -0.054 SA
ATOM     18  C   UNL A   1      33.804  22.334  23.654  1.00  0.00     0.270 C 
ATOM     19  C   UNL A   1      36.633  21.459  24.582  1.00  0.00     0.152 C 
ATOM     20  N   UNL A   1      34.869  21.069  24.337  1.00  0.00    -0.261 N 
ATOM     21  O   UNL A   1      32.641  22.186  23.300  1.00  0.00    -0.268 OA
ATOM     22  S   UNL A   1      37.815  20.560  25.394  1.00  0.00    -0.051 S 
BRANCH  20  23
ATOM     23  C   UNL A   1      34.274  19.891  24.888  1.00  0.00     0.052 A 
ATOM     24  C   UNL A   1      33.331  19.883  25.920  1.00  0.00     0.030 A 
ATOM     25  C   UNL A   1      34.634  18.678  24.315  1.00  0.00     0.050 A 
ATOM     26  C   UNL A   1      32.549  18.730  26.104  1.00  0.00     0.043 A 
ATOM     27  C   UNL A   1      33.799  17.583  24.398  1.00  0.00     0.078 A 
ATOM     28  C   UNL A   1      32.731  17.624  25.271  1.00  0.00     0.141 A 
ATOM     29  Cl  UNL A   1      34.055  16.288  23.302  1.00  0.00    -0.081 Cl
ATOM     30  F   UNL A   1      31.845  16.622  25.306  1.00  0.00    -0.205 F 
ENDBRANCH  20  23
ENDBRANCH  11  15
ENDBRANCH   8   9
ENDBRANCH   7   8
ENDBRANCH   5   7
ENDBRANCH   2   3
ENDBRANCH   1   2
BRANCH   1  31
ATOM     31  C   UNL A   1      34.779  30.620  27.589  1.00  0.00     0.023 C 
BRANCH  31  32
ATOM     32  C   UNL A   1      35.716  31.331  28.603  1.00  0.00     0.116 C 
BRANCH  32  33
ATOM     33  N   UNL A   1      35.643  30.725  29.919  1.00  0.00    -0.352 N 
ATOM     34  C   UNL A   1      36.563  30.010  30.643  1.00  0.00     0.251 C 
ATOM     35  H   UNL A   1      34.779  30.849  30.374  1.00  0.00     0.163 HD
ATOM     36  O   UNL A   1      36.271  29.638  31.777  1.00  0.00    -0.269 OA
BRANCH  34  37
ATOM     37  C   UNL A   1      37.890  29.655  30.100  1.00  0.00     0.039 A 
ATOM     38  C   UNL A   1      38.952  29.455  30.989  1.00  0.00     0.014 A 
ATOM     39  C   UNL A   1      38.139  29.723  28.727  1.00  0.00     0.014 A 
ATOM     40  C   UNL A   1      40.252  29.275  30.497  1.00  0.00     0.010 A 
ATOM     41  C   UNL A   1      39.436  29.494  28.237  1.00  0.00     0.010 A 
ATOM     42  C   UNL A   1      40.508  29.253  29.113  1.00  0.00    -0.014 A 
BRANCH  42  43
ATOM     43  C   UNL A   1      41.872  28.905  28.605  1.00  0.00     0.031 A 
ATOM     44  C   UNL A   1      42.973  29.933  28.502  1.00  0.00     0.074 A 
ATOM     45  C   UNL A   1      42.106  27.635  28.208  1.00  0.00     0.049 A 
ATOM     46  N   UNL A   1      44.215  29.779  28.116  1.00  0.00    -0.248 NA
ATOM     47  C   UNL A   1      42.629  31.316  28.860  1.00  0.00     0.031 C 
ATOM     48  C   UNL A   1      41.103  26.565  28.197  1.00  0.00     0.029 A 
ATOM     49  N   UNL A   1      43.244  27.018  27.748  1.00  0.00    -0.354 N 
ATOM     50  C   UNL A   1      44.799  31.043  28.173  1.00  0.00     0.074 A 
ATOM     51  C   UNL A   1      43.758  31.959  28.587  1.00  0.00     0.031 C 
ATOM     52  C   UNL A   1      41.677  25.421  27.798  1.00  0.00     0.029 A 
ATOM     53  C   UNL A   1      43.078  25.676  27.484  1.00  0.00     0.049 A 
ATOM     54  H   UNL A   1      44.098  27.490  27.618  1.00  0.00     0.167 HD
ATOM     55  C   UNL A   1      46.084  31.400  27.924  1.00  0.00     0.037 A 
ATOM     56  C   UNL A   1      43.953  24.750  27.041  1.00  0.00     0.037 A 
ATOM     57  C   UNL A   1      47.113  30.469  27.527  1.00  0.00     0.049 A 
ATOM     58  C   UNL A   1      45.376  25.167  26.787  1.00  0.00     0.074 A 
ATOM     59  C   UNL A   1      48.458  30.710  27.308  1.00  0.00     0.029 A 
ATOM     60  N   UNL A   1      46.906  29.118  27.280  1.00  0.00    -0.354 N 
ATOM     61  N   UNL A   1      45.925  26.351  26.931  1.00  0.00    -0.248 NA
ATOM     62  C   UNL A   1      46.303  24.127  26.322  1.00  0.00     0.031 C 
ATOM     63  C   UNL A   1      49.054  29.517  26.883  1.00  0.00     0.029 A 
ATOM     64  C   UNL A   1      48.094  28.518  26.892  1.00  0.00     0.049 A 
ATOM     65  H   UNL A   1      46.042  28.655  27.370  1.00  0.00     0.167 HD
ATOM     66  C   UNL A   1      47.265  26.193  26.597  1.00  0.00     0.074 A 
ATOM     67  C   UNL A   1      47.447  24.794  26.264  1.00  0.00     0.031 C 
ATOM     68  C   UNL A   1      48.254  27.120  26.569  1.00  0.00     0.037 A 
BRANCH  55  69
ATOM     69  C   UNL A   1      46.457  32.855  28.073  1.00  0.00     0.058 A 
ATOM     70  C   UNL A   1      46.906  33.382  29.296  1.00  0.00     0.135 A 
ATOM     71  C   UNL A   1      46.408  33.729  26.972  1.00  0.00     0.135 A 
ATOM     72  F   UNL A   1      46.971  32.601  30.386  1.00  0.00    -0.206 F 
ATOM     73  C   UNL A   1      47.252  34.725  29.432  1.00  0.00     0.059 A 
ATOM     74  C   UNL A   1      46.778  35.068  27.078  1.00  0.00     0.059 A 
ATOM     75  F   UNL A   1      45.995  33.284  25.775  1.00  0.00    -0.206 F 
ATOM     76  C   UNL A   1      47.183  35.561  28.318  1.00  0.00     0.060 A 
BRANCH  76  77
ATOM     77  S   UNL A   1      47.636  37.299  28.513  1.00  0.00     0.124 S 
ATOM     78  O   UNL A   1      47.245  37.849  27.217  1.00  0.00    -0.237 OA
ATOM     79  O   UNL A   1      46.815  37.709  29.648  1.00  0.00    -0.237 OA
ATOM     80  O   UNL A   1      49.072  37.252  28.766  1.00  0.00    -0.744 OA
ENDBRANCH  76  77
ENDBRANCH  55  69
BRANCH  56  81
ATOM     81  C   UNL A   1      43.516  23.338  26.841  1.00  0.00     0.058 A 
ATOM     82  C   UNL A   1      43.272  22.826  25.557  1.00  0.00     0.135 A 
ATOM     83  C   UNL A   1      43.349  22.465  27.928  1.00  0.00     0.135 A 
ATOM     84  F   UNL A   1      43.412  23.618  24.483  1.00  0.00    -0.206 F 
ATOM     85  C   UNL A   1      42.862  21.511  25.358  1.00  0.00     0.059 A 
ATOM     86  C   UNL A   1      42.968  21.137  27.753  1.00  0.00     0.059 A 
ATOM     87  F   UNL A   1      43.585  22.893  29.178  1.00  0.00    -0.206 F 
ATOM     88  C   UNL A   1      42.715  20.672  26.464  1.00  0.00     0.060 A 
BRANCH  88  89
ATOM     89  S   UNL A   1      42.219  18.956  26.191  1.00  0.00     0.124 S 
ATOM     90  O   UNL A   1      42.311  18.404  27.538  1.00  0.00    -0.237 OA
ATOM     91  O   UNL A   1      40.871  19.109  25.654  1.00  0.00    -0.237 OA
ATOM     92  O   UNL A   1      43.212  18.466  25.239  1.00  0.00    -0.744 OA
ENDBRANCH  88  89
ENDBRANCH  56  81
BRANCH  68  93
ATOM     93  C   UNL A   1      49.632  26.646  26.198  1.00  0.00     0.058 A 
ATOM     94  C   UNL A   1      50.112  26.724  24.882  1.00  0.00     0.135 A 
ATOM     95  C   UNL A   1      50.503  26.156  27.186  1.00  0.00     0.135 A 
ATOM     96  F   UNL A   1      49.318  27.177  23.898  1.00  0.00    -0.206 F 
ATOM     97  C   UNL A   1      51.399  26.311  24.553  1.00  0.00     0.059 A 
ATOM     98  C   UNL A   1      51.803  25.768  26.885  1.00  0.00     0.059 A 
ATOM     99  F   UNL A   1      50.096  26.068  28.463  1.00  0.00    -0.206 F 
ATOM    100  C   UNL A   1      52.238  25.838  25.563  1.00  0.00     0.060 A 
BRANCH 100 101
ATOM    101  S   UNL A   1      53.918  25.342  25.127  1.00  0.00     0.124 S 
ATOM    102  O   UNL A   1      54.674  25.817  26.281  1.00  0.00    -0.237 OA
ATOM    103  O   UNL A   1      53.793  23.893  25.002  1.00  0.00    -0.237 OA
ATOM    104  O   UNL A   1      54.169  26.054  23.876  1.00  0.00    -0.744 OA
ENDBRANCH 100 101
ENDBRANCH  68  93
ENDBRANCH  42  43
ENDBRANCH  34  37
ENDBRANCH  32  33
ENDBRANCH  31  32
ENDBRANCH   1  31
TORSDOF 18
ENDMDL
