MODEL 1
REMARK VINA RESULT:     -11.8      0.000      0.000
REMARK SMILES O=C(Cc1ccn[nH]1)Nc1sc2c(c1C(=O)NCCCCNC(=O)c1ccc(-c3c4nc(c(-c5c(F)cc(S(=O)(=O)[O-])cc5F)c5ccc([nH]5)c(-c5c(F)cc(S(=O)(=O)[O-])cc5F)c5nc(c(-c6c(F)cc(S(=O)(=O)[O-])cc6F)c6ccc3[nH]6)C=C5)C=C4)cc1)CCC2
REMARK SMILES IDX 19 1 18 2 17 3 15 4 16 5 14 7 10 8 11 9 12 10 13 11 93 12
REMARK SMILES IDX 91 13 92 14 9 15 1 16 2 17 3 19 4 20 5 21 8 22 6 23 7 24
REMARK SMILES IDX 20 26 21 27 22 28 23 29 24 31 25 32 26 33 90 34 27 35 89 36
REMARK SMILES IDX 28 37 29 38 30 39 83 40 31 41 88 42 82 43 84 44 32 45 87 46
REMARK SMILES IDX 81 47 80 48 33 50 67 51 46 52 66 53 47 54 50 55 65 56 85 57
REMARK SMILES IDX 48 58 49 59 64 61 86 62 51 63 34 64 35 65 44 66 36 67 37 68
REMARK SMILES IDX 43 69 45 70 38 71 39 72 40 73 41 74 42 75 68 76 69 77 78 78
REMARK SMILES IDX 70 79 71 80 77 81 79 82 72 83 73 84 74 85 75 86 76 87 52 88
REMARK SMILES IDX 53 89 62 90 54 91 55 92 61 93 63 94 56 95 57 96 58 97 59 98
REMARK SMILES IDX 60 99
REMARK H PARENT 17 6 9 18 8 25 22 30 84 49 50 60
REMARK Flexibility Score: inf
ROOT
ATOM      1  C   UNL A   1      46.158  26.137  26.690  1.00  0.00     0.023 C 
ENDROOT
BRANCH   1   2
ATOM      2  C   UNL A   1      45.154  26.197  25.540  1.00  0.00     0.116 C 
BRANCH   2   3
ATOM      3  N   UNL A   1      44.540  24.927  25.271  1.00  0.00    -0.352 N 
ATOM      4  C   UNL A   1      43.272  24.435  25.400  1.00  0.00     0.254 C 
ATOM      5  O   UNL A   1      43.096  23.409  24.729  1.00  0.00    -0.269 OA
ATOM      6  H   UNL A   1      45.175  24.263  24.916  1.00  0.00     0.163 HD
BRANCH   4   7
ATOM      7  C   UNL A   1      42.169  25.048  26.179  1.00  0.00     0.078 A 
ATOM      8  C   UNL A   1      41.415  24.242  27.047  1.00  0.00     0.108 A 
ATOM      9  S   UNL A   1      39.977  24.944  27.639  1.00  0.00    -0.122 S 
ATOM     10  C   UNL A   1      40.440  26.407  27.002  1.00  0.00     0.011 A 
ATOM     11  C   UNL A   1      41.587  26.370  26.241  1.00  0.00    -0.019 A 
ATOM     12  C   UNL A   1      39.768  27.725  27.086  1.00  0.00     0.047 C 
ATOM     13  C   UNL A   1      41.809  27.735  25.679  1.00  0.00     0.038 C 
ATOM     14  C   UNL A   1      40.867  28.649  26.516  1.00  0.00     0.010 C 
BRANCH   8  15
ATOM     15  N   UNL A   1      41.575  22.958  27.518  1.00  0.00    -0.317 N 
ATOM     16  O   UNL A   1      40.137  21.953  25.994  1.00  0.00    -0.274 OA
ATOM     17  C   UNL A   1      40.826  21.906  27.011  1.00  0.00     0.230 C 
ATOM     18  H   UNL A   1      42.234  22.784  28.229  1.00  0.00     0.170 HD
BRANCH  17  19
ATOM     19  C   UNL A   1      41.086  20.603  27.746  1.00  0.00     0.155 C 
BRANCH  19  20
ATOM     20  C   UNL A   1      42.076  19.739  27.028  1.00  0.00     0.044 A 
ATOM     21  C   UNL A   1      42.742  19.940  25.836  1.00  0.00     0.045 A 
ATOM     22  N   UNL A   1      42.505  18.514  27.477  1.00  0.00    -0.282 N 
ATOM     23  C   UNL A   1      43.497  18.771  25.639  1.00  0.00     0.135 A 
ATOM     24  N   UNL A   1      43.340  17.892  26.630  1.00  0.00    -0.184 NA
ATOM     25  H   UNL A   1      42.227  18.129  28.339  1.00  0.00     0.190 HD
ENDBRANCH  19  20
ENDBRANCH  17  19
ENDBRANCH   8  15
ENDBRANCH   4   7
ENDBRANCH   2   3
ENDBRANCH   1   2
BRANCH   1  26
ATOM     26  C   UNL A   1      45.918  25.013  27.708  1.00  0.00     0.023 C 
BRANCH  26  27
ATOM     27  C   UNL A   1      46.169  25.393  29.168  1.00  0.00     0.116 C 
BRANCH  27  28
ATOM     28  N   UNL A   1      45.346  24.631  30.107  1.00  0.00    -0.352 N 
ATOM     29  C   UNL A   1      44.457  25.112  31.055  1.00  0.00     0.251 C 
ATOM     30  H   UNL A   1      45.435  23.651  30.060  1.00  0.00     0.163 HD
ATOM     31  O   UNL A   1      44.175  24.447  32.038  1.00  0.00    -0.269 OA
BRANCH  29  32
ATOM     32  C   UNL A   1      43.827  26.427  30.830  1.00  0.00     0.039 A 
ATOM     33  C   UNL A   1      43.091  26.710  29.675  1.00  0.00     0.014 A 
ATOM     34  C   UNL A   1      43.995  27.392  31.820  1.00  0.00     0.014 A 
ATOM     35  C   UNL A   1      42.464  27.952  29.565  1.00  0.00     0.010 A 
ATOM     36  C   UNL A   1      43.269  28.554  31.777  1.00  0.00     0.010 A 
ATOM     37  C   UNL A   1      42.551  28.863  30.628  1.00  0.00    -0.014 A 
BRANCH  37  38
ATOM     38  C   UNL A   1      41.768  30.094  30.649  1.00  0.00     0.031 A 
ATOM     39  C   UNL A   1      42.586  31.311  30.389  1.00  0.00     0.074 A 
ATOM     40  C   UNL A   1      40.416  30.088  30.595  1.00  0.00     0.049 A 
ATOM     41  N   UNL A   1      42.927  32.236  31.225  1.00  0.00    -0.248 NA
ATOM     42  C   UNL A   1      43.292  31.404  29.097  1.00  0.00     0.031 C 
ATOM     43  C   UNL A   1      39.525  28.928  30.470  1.00  0.00     0.029 A 
ATOM     44  N   UNL A   1      39.543  31.130  30.518  1.00  0.00    -0.354 N 
ATOM     45  C   UNL A   1      43.644  33.168  30.476  1.00  0.00     0.074 A 
ATOM     46  C   UNL A   1      44.067  32.473  29.295  1.00  0.00     0.031 C 
ATOM     47  C   UNL A   1      38.290  29.336  30.104  1.00  0.00     0.029 A 
ATOM     48  C   UNL A   1      38.250  30.787  30.115  1.00  0.00     0.049 A 
ATOM     49  H   UNL A   1      39.804  32.055  30.731  1.00  0.00     0.167 HD
ATOM     50  C   UNL A   1      43.548  34.504  30.742  1.00  0.00     0.037 A 
ATOM     51  C   UNL A   1      37.249  31.648  29.782  1.00  0.00     0.037 A 
ATOM     52  C   UNL A   1      42.943  34.711  32.038  1.00  0.00     0.049 A 
ATOM     53  C   UNL A   1      37.630  32.976  30.337  1.00  0.00     0.074 A 
ATOM     54  C   UNL A   1      43.233  34.302  33.327  1.00  0.00     0.029 A 
ATOM     55  N   UNL A   1      41.625  35.105  32.058  1.00  0.00    -0.354 N 
ATOM     56  N   UNL A   1      37.705  33.234  31.614  1.00  0.00    -0.248 NA
ATOM     57  C   UNL A   1      38.394  33.862  29.474  1.00  0.00     0.031 C 
ATOM     58  C   UNL A   1      41.966  34.008  33.912  1.00  0.00     0.029 A 
ATOM     59  C   UNL A   1      40.973  34.348  32.993  1.00  0.00     0.049 A 
ATOM     60  H   UNL A   1      41.223  35.808  31.498  1.00  0.00     0.167 HD
ATOM     61  C   UNL A   1      38.846  34.012  31.750  1.00  0.00     0.074 A 
ATOM     62  C   UNL A   1      39.189  34.424  30.389  1.00  0.00     0.031 C 
ATOM     63  C   UNL A   1      39.573  33.998  32.906  1.00  0.00     0.037 A 
BRANCH  50  64
ATOM     64  C   UNL A   1      43.592  35.611  29.699  1.00  0.00     0.058 A 
ATOM     65  C   UNL A   1      44.487  36.687  29.897  1.00  0.00     0.135 A 
ATOM     66  C   UNL A   1      42.633  35.817  28.681  1.00  0.00     0.135 A 
ATOM     67  F   UNL A   1      45.461  36.610  30.818  1.00  0.00    -0.206 F 
ATOM     68  C   UNL A   1      44.367  37.904  29.223  1.00  0.00     0.059 A 
ATOM     69  C   UNL A   1      42.529  37.003  27.962  1.00  0.00     0.059 A 
ATOM     70  F   UNL A   1      41.688  34.924  28.377  1.00  0.00    -0.206 F 
ATOM     71  C   UNL A   1      43.370  38.057  28.268  1.00  0.00     0.060 A 
BRANCH  71  72
ATOM     72  S   UNL A   1      43.159  39.647  27.453  1.00  0.00     0.124 S 
ATOM     73  O   UNL A   1      42.056  39.362  26.544  1.00  0.00    -0.237 OA
ATOM     74  O   UNL A   1      42.853  40.522  28.580  1.00  0.00    -0.237 OA
ATOM     75  O   UNL A   1      44.456  39.875  26.823  1.00  0.00    -0.744 OA
ENDBRANCH  71  72
ENDBRANCH  50  64
BRANCH  51  76
ATOM     76  C   UNL A   1      36.164  31.513  28.765  1.00  0.00     0.058 A 
ATOM     77  C   UNL A   1      36.262  30.569  27.722  1.00  0.00     0.135 A 
ATOM     78  C   UNL A   1      34.887  32.073  28.965  1.00  0.00     0.135 A 
ATOM     79  F   UNL A   1      37.437  29.978  27.456  1.00  0.00    -0.206 F 
ATOM     80  C   UNL A   1      35.151  30.148  26.979  1.00  0.00     0.059 A 
ATOM     81  C   UNL A   1      33.767  31.675  28.231  1.00  0.00     0.059 A 
ATOM     82  F   UNL A   1      34.667  32.956  29.949  1.00  0.00    -0.206 F 
ATOM     83  C   UNL A   1      33.899  30.687  27.263  1.00  0.00     0.060 A 
BRANCH  83  84
ATOM     84  S   UNL A   1      32.428  29.998  26.461  1.00  0.00     0.124 S 
ATOM     85  O   UNL A   1      32.010  28.977  27.416  1.00  0.00    -0.237 OA
ATOM     86  O   UNL A   1      31.557  31.164  26.354  1.00  0.00    -0.237 OA
ATOM     87  O   UNL A   1      32.941  29.491  25.190  1.00  0.00    -0.744 OA
ENDBRANCH  83  84
ENDBRANCH  51  76
BRANCH  63  88
ATOM     88  C   UNL A   1      38.956  33.401  34.144  1.00  0.00     0.058 A 
ATOM     89  C   UNL A   1      38.865  32.026  34.425  1.00  0.00     0.135 A 
ATOM     90  C   UNL A   1      38.594  34.290  35.168  1.00  0.00     0.135 A 
ATOM     91  F   UNL A   1      39.281  31.110  33.539  1.00  0.00    -0.206 F 
ATOM     92  C   UNL A   1      38.403  31.560  35.659  1.00  0.00     0.059 A 
ATOM     93  C   UNL A   1      38.166  33.849  36.414  1.00  0.00     0.059 A 
ATOM     94  F   UNL A   1      38.713  35.615  34.980  1.00  0.00    -0.206 F 
ATOM     95  C   UNL A   1      38.060  32.482  36.650  1.00  0.00     0.060 A 
BRANCH  95  96
ATOM     96  S   UNL A   1      37.534  31.889  38.272  1.00  0.00     0.124 S 
ATOM     97  O   UNL A   1      36.345  32.696  38.523  1.00  0.00    -0.237 OA
ATOM     98  O   UNL A   1      37.299  30.468  38.030  1.00  0.00    -0.237 OA
ATOM     99  O   UNL A   1      38.678  32.182  39.131  1.00  0.00    -0.744 OA
ENDBRANCH  95  96
ENDBRANCH  63  88
ENDBRANCH  37  38
ENDBRANCH  29  32
ENDBRANCH  27  28
ENDBRANCH  26  27
ENDBRANCH   1  26
TORSDOF 17
ENDMDL
MODEL 2
REMARK VINA RESULT:     -11.8      4.343      5.983
REMARK SMILES O=C(Cc1ccn[nH]1)Nc1sc2c(c1C(=O)NCCCCNC(=O)c1ccc(-c3c4nc(c(-c5c(F)cc(S(=O)(=O)[O-])cc5F)c5ccc([nH]5)c(-c5c(F)cc(S(=O)(=O)[O-])cc5F)c5nc(c(-c6c(F)cc(S(=O)(=O)[O-])cc6F)c6ccc3[nH]6)C=C5)C=C4)cc1)CCC2
REMARK SMILES IDX 19 1 18 2 17 3 15 4 16 5 14 7 10 8 11 9 12 10 13 11 93 12
REMARK SMILES IDX 91 13 92 14 9 15 1 16 2 17 3 19 4 20 5 21 8 22 6 23 7 24
REMARK SMILES IDX 20 26 21 27 22 28 23 29 24 31 25 32 26 33 90 34 27 35 89 36
REMARK SMILES IDX 28 37 29 38 30 39 83 40 31 41 88 42 82 43 84 44 32 45 87 46
REMARK SMILES IDX 81 47 80 48 33 50 67 51 46 52 66 53 47 54 50 55 65 56 85 57
REMARK SMILES IDX 48 58 49 59 64 61 86 62 51 63 34 64 35 65 44 66 36 67 37 68
REMARK SMILES IDX 43 69 45 70 38 71 39 72 40 73 41 74 42 75 68 76 69 77 78 78
REMARK SMILES IDX 70 79 71 80 77 81 79 82 72 83 73 84 74 85 75 86 76 87 52 88
REMARK SMILES IDX 53 89 62 90 54 91 55 92 61 93 63 94 56 95 57 96 58 97 59 98
REMARK SMILES IDX 60 99
REMARK H PARENT 17 6 9 18 8 25 22 30 84 49 50 60
REMARK Flexibility Score: inf
ROOT
ATOM      1  C   UNL A   1      38.509  23.480  26.166  1.00  0.00     0.023 C 
ENDROOT
BRANCH   1   2
ATOM      2  C   UNL A   1      36.990  23.348  26.252  1.00  0.00     0.116 C 
BRANCH   2   3
ATOM      3  N   UNL A   1      36.368  23.233  24.963  1.00  0.00    -0.352 N 
ATOM      4  C   UNL A   1      35.172  23.638  24.441  1.00  0.00     0.254 C 
ATOM      5  O   UNL A   1      35.180  23.649  23.203  1.00  0.00    -0.269 OA
ATOM      6  H   UNL A   1      36.929  22.755  24.310  1.00  0.00     0.163 HD
BRANCH   4   7
ATOM      7  C   UNL A   1      33.989  24.093  25.211  1.00  0.00     0.078 A 
ATOM      8  C   UNL A   1      33.155  23.135  25.809  1.00  0.00     0.108 A 
ATOM      9  S   UNL A   1      31.657  23.719  26.381  1.00  0.00    -0.122 S 
ATOM     10  C   UNL A   1      32.173  25.275  26.115  1.00  0.00     0.011 A 
ATOM     11  C   UNL A   1      33.394  25.381  25.487  1.00  0.00    -0.019 A 
ATOM     12  C   UNL A   1      31.486  26.557  26.402  1.00  0.00     0.047 C 
ATOM     13  C   UNL A   1      33.664  26.829  25.249  1.00  0.00     0.038 C 
ATOM     14  C   UNL A   1      32.633  27.562  26.155  1.00  0.00     0.010 C 
BRANCH   8  15
ATOM     15  N   UNL A   1      33.273  21.778  26.015  1.00  0.00    -0.317 N 
ATOM     16  O   UNL A   1      32.434  21.137  23.945  1.00  0.00    -0.274 OA
ATOM     17  C   UNL A   1      32.795  20.864  25.088  1.00  0.00     0.230 C 
ATOM     18  H   UNL A   1      33.706  21.452  26.837  1.00  0.00     0.170 HD
BRANCH  17  19
ATOM     19  C   UNL A   1      32.933  19.429  25.566  1.00  0.00     0.155 C 
BRANCH  19  20
ATOM     20  C   UNL A   1      33.178  18.479  24.434  1.00  0.00     0.044 A 
ATOM     21  C   UNL A   1      34.260  17.664  24.166  1.00  0.00     0.045 A 
ATOM     22  N   UNL A   1      32.297  18.258  23.404  1.00  0.00    -0.282 N 
ATOM     23  C   UNL A   1      33.953  17.042  22.944  1.00  0.00     0.135 A 
ATOM     24  N   UNL A   1      32.764  17.416  22.468  1.00  0.00    -0.184 NA
ATOM     25  H   UNL A   1      31.407  18.676  23.357  1.00  0.00     0.190 HD
ENDBRANCH  19  20
ENDBRANCH  17  19
ENDBRANCH   8  15
ENDBRANCH   4   7
ENDBRANCH   2   3
ENDBRANCH   1   2
BRANCH   1  26
ATOM     26  C   UNL A   1      39.266  22.164  25.931  1.00  0.00     0.023 C 
BRANCH  26  27
ATOM     27  C   UNL A   1      40.522  21.975  26.783  1.00  0.00     0.116 C 
BRANCH  27  28
ATOM     28  N   UNL A   1      41.744  21.873  25.986  1.00  0.00    -0.352 N 
ATOM     29  C   UNL A   1      42.496  22.899  25.435  1.00  0.00     0.251 C 
ATOM     30  H   UNL A   1      42.073  20.961  25.817  1.00  0.00     0.163 HD
ATOM     31  O   UNL A   1      43.204  22.698  24.462  1.00  0.00    -0.269 OA
BRANCH  29  32
ATOM     32  C   UNL A   1      42.455  24.228  26.074  1.00  0.00     0.039 A 
ATOM     33  C   UNL A   1      41.743  25.297  25.521  1.00  0.00     0.014 A 
ATOM     34  C   UNL A   1      43.164  24.385  27.262  1.00  0.00     0.014 A 
ATOM     35  C   UNL A   1      41.693  26.504  26.219  1.00  0.00     0.010 A 
ATOM     36  C   UNL A   1      43.002  25.520  28.014  1.00  0.00     0.010 A 
ATOM     37  C   UNL A   1      42.318  26.601  27.472  1.00  0.00    -0.014 A 
BRANCH  37  38
ATOM     38  C   UNL A   1      42.143  27.770  28.328  1.00  0.00     0.031 A 
ATOM     39  C   UNL A   1      43.241  28.766  28.187  1.00  0.00     0.074 A 
ATOM     40  C   UNL A   1      40.965  28.050  28.931  1.00  0.00     0.049 A 
ATOM     41  N   UNL A   1      44.176  29.045  29.034  1.00  0.00    -0.248 NA
ATOM     42  C   UNL A   1      43.457  29.371  26.859  1.00  0.00     0.031 C 
ATOM     43  C   UNL A   1      39.700  27.313  28.823  1.00  0.00     0.029 A 
ATOM     44  N   UNL A   1      40.606  29.128  29.682  1.00  0.00    -0.354 N 
ATOM     45  C   UNL A   1      44.913  30.073  28.448  1.00  0.00     0.074 A 
ATOM     46  C   UNL A   1      44.610  30.016  27.047  1.00  0.00     0.031 C 
ATOM     47  C   UNL A   1      38.683  28.078  29.279  1.00  0.00     0.029 A 
ATOM     48  C   UNL A   1      39.230  29.294  29.854  1.00  0.00     0.049 A 
ATOM     49  H   UNL A   1      41.267  29.743  30.073  1.00  0.00     0.167 HD
ATOM     50  C   UNL A   1      45.450  31.073  29.208  1.00  0.00     0.037 A 
ATOM     51  C   UNL A   1      38.604  30.376  30.395  1.00  0.00     0.037 A 
ATOM     52  C   UNL A   1      45.441  30.697  30.603  1.00  0.00     0.049 A 
ATOM     53  C   UNL A   1      39.641  31.130  31.151  1.00  0.00     0.074 A 
ATOM     54  C   UNL A   1      45.952  29.638  31.331  1.00  0.00     0.029 A 
ATOM     55  N   UNL A   1      44.476  31.267  31.400  1.00  0.00    -0.354 N 
ATOM     56  N   UNL A   1      40.229  30.676  32.224  1.00  0.00    -0.248 NA
ATOM     57  C   UNL A   1      40.363  32.169  30.434  1.00  0.00     0.031 C 
ATOM     58  C   UNL A   1      44.944  29.333  32.292  1.00  0.00     0.029 A 
ATOM     59  C   UNL A   1      43.925  30.278  32.168  1.00  0.00     0.049 A 
ATOM     60  H   UNL A   1      44.226  32.219  31.413  1.00  0.00     0.167 HD
ATOM     61  C   UNL A   1      41.560  31.041  32.078  1.00  0.00     0.074 A 
ATOM     62  C   UNL A   1      41.568  32.018  30.990  1.00  0.00     0.031 C 
ATOM     63  C   UNL A   1      42.558  30.297  32.639  1.00  0.00     0.037 A 
BRANCH  50  64
ATOM     64  C   UNL A   1      45.584  32.526  28.777  1.00  0.00     0.058 A 
ATOM     65  C   UNL A   1      46.835  33.164  28.937  1.00  0.00     0.135 A 
ATOM     66  C   UNL A   1      44.509  33.396  28.481  1.00  0.00     0.135 A 
ATOM     67  F   UNL A   1      47.941  32.449  29.198  1.00  0.00    -0.206 F 
ATOM     68  C   UNL A   1      46.984  34.551  28.920  1.00  0.00     0.059 A 
ATOM     69  C   UNL A   1      44.646  34.778  28.408  1.00  0.00     0.059 A 
ATOM     70  F   UNL A   1      43.251  32.975  28.328  1.00  0.00    -0.206 F 
ATOM     71  C   UNL A   1      45.876  35.351  28.671  1.00  0.00     0.060 A 
BRANCH  71  72
ATOM     72  S   UNL A   1      46.044  37.142  28.726  1.00  0.00     0.124 S 
ATOM     73  O   UNL A   1      47.493  37.297  28.726  1.00  0.00    -0.237 OA
ATOM     74  O   UNL A   1      45.355  37.543  27.504  1.00  0.00    -0.237 OA
ATOM     75  O   UNL A   1      45.368  37.503  29.968  1.00  0.00    -0.744 OA
ENDBRANCH  71  72
ENDBRANCH  50  64
BRANCH  51  76
ATOM     76  C   UNL A   1      37.286  30.992  30.058  1.00  0.00     0.058 A 
ATOM     77  C   UNL A   1      36.495  31.601  31.054  1.00  0.00     0.135 A 
ATOM     78  C   UNL A   1      36.919  31.276  28.728  1.00  0.00     0.135 A 
ATOM     79  F   UNL A   1      36.768  31.394  32.352  1.00  0.00    -0.206 F 
ATOM     80  C   UNL A   1      35.459  32.495  30.753  1.00  0.00     0.059 A 
ATOM     81  C   UNL A   1      35.884  32.156  28.403  1.00  0.00     0.059 A 
ATOM     82  F   UNL A   1      37.619  30.780  27.698  1.00  0.00    -0.206 F 
ATOM     83  C   UNL A   1      35.180  32.790  29.421  1.00  0.00     0.060 A 
BRANCH  83  84
ATOM     84  S   UNL A   1      33.993  34.100  29.026  1.00  0.00     0.124 S 
ATOM     85  O   UNL A   1      34.853  35.125  28.444  1.00  0.00    -0.237 OA
ATOM     86  O   UNL A   1      33.087  33.429  28.100  1.00  0.00    -0.237 OA
ATOM     87  O   UNL A   1      33.414  34.435  30.325  1.00  0.00    -0.744 OA
ENDBRANCH  83  84
ENDBRANCH  51  76
BRANCH  63  88
ATOM     88  C   UNL A   1      42.201  29.280  33.692  1.00  0.00     0.058 A 
ATOM     89  C   UNL A   1      41.880  27.933  33.445  1.00  0.00     0.135 A 
ATOM     90  C   UNL A   1      42.362  29.665  35.032  1.00  0.00     0.135 A 
ATOM     91  F   UNL A   1      41.803  27.458  32.194  1.00  0.00    -0.206 F 
ATOM     92  C   UNL A   1      41.697  27.021  34.488  1.00  0.00     0.059 A 
ATOM     93  C   UNL A   1      42.219  28.768  36.083  1.00  0.00     0.059 A 
ATOM     94  F   UNL A   1      42.724  30.925  35.329  1.00  0.00    -0.206 F 
ATOM     95  C   UNL A   1      41.873  27.449  35.805  1.00  0.00     0.060 A 
BRANCH  95  96
ATOM     96  S   UNL A   1      41.711  26.260  37.155  1.00  0.00     0.124 S 
ATOM     97  O   UNL A   1      40.421  26.625  37.731  1.00  0.00    -0.237 OA
ATOM     98  O   UNL A   1      41.756  24.979  36.457  1.00  0.00    -0.237 OA
ATOM     99  O   UNL A   1      42.871  26.540  37.998  1.00  0.00    -0.744 OA
ENDBRANCH  95  96
ENDBRANCH  63  88
ENDBRANCH  37  38
ENDBRANCH  29  32
ENDBRANCH  27  28
ENDBRANCH  26  27
ENDBRANCH   1  26
TORSDOF 17
ENDMDL
MODEL 3
REMARK VINA RESULT:     -11.7      4.354      6.660
REMARK SMILES O=C(Cc1ccn[nH]1)Nc1sc2c(c1C(=O)NCCCCNC(=O)c1ccc(-c3c4nc(c(-c5c(F)cc(S(=O)(=O)[O-])cc5F)c5ccc([nH]5)c(-c5c(F)cc(S(=O)(=O)[O-])cc5F)c5nc(c(-c6c(F)cc(S(=O)(=O)[O-])cc6F)c6ccc3[nH]6)C=C5)C=C4)cc1)CCC2
REMARK SMILES IDX 19 1 18 2 17 3 15 4 16 5 14 7 10 8 11 9 12 10 13 11 93 12
REMARK SMILES IDX 91 13 92 14 9 15 1 16 2 17 3 19 4 20 5 21 8 22 6 23 7 24
REMARK SMILES IDX 20 26 21 27 22 28 23 29 24 31 25 32 26 33 90 34 27 35 89 36
REMARK SMILES IDX 28 37 29 38 30 39 83 40 31 41 88 42 82 43 84 44 32 45 87 46
REMARK SMILES IDX 81 47 80 48 33 50 67 51 46 52 66 53 47 54 50 55 65 56 85 57
REMARK SMILES IDX 48 58 49 59 64 61 86 62 51 63 34 64 35 65 44 66 36 67 37 68
REMARK SMILES IDX 43 69 45 70 38 71 39 72 40 73 41 74 42 75 68 76 69 77 78 78
REMARK SMILES IDX 70 79 71 80 77 81 79 82 72 83 73 84 74 85 75 86 76 87 52 88
REMARK SMILES IDX 53 89 62 90 54 91 55 92 61 93 63 94 56 95 57 96 58 97 59 98
REMARK SMILES IDX 60 99
REMARK H PARENT 17 6 9 18 8 25 22 30 84 49 50 60
REMARK Flexibility Score: inf
ROOT
ATOM      1  C   UNL A   1      38.849  23.524  26.539  1.00  0.00     0.023 C 
ENDROOT
BRANCH   1   2
ATOM      2  C   UNL A   1      37.460  23.743  25.942  1.00  0.00     0.116 C 
BRANCH   2   3
ATOM      3  N   UNL A   1      37.379  23.349  24.564  1.00  0.00    -0.352 N 
ATOM      4  C   UNL A   1      36.365  22.925  23.751  1.00  0.00     0.254 C 
ATOM      5  O   UNL A   1      36.652  23.028  22.551  1.00  0.00    -0.269 OA
ATOM      6  H   UNL A   1      38.247  23.394  24.102  1.00  0.00     0.163 HD
BRANCH   4   7
ATOM      7  C   UNL A   1      35.030  22.453  24.190  1.00  0.00     0.078 A 
ATOM      8  C   UNL A   1      33.999  23.390  24.370  1.00  0.00     0.108 A 
ATOM      9  S   UNL A   1      32.616  22.814  25.187  1.00  0.00    -0.122 S 
ATOM     10  C   UNL A   1      33.210  21.266  25.081  1.00  0.00     0.011 A 
ATOM     11  C   UNL A   1      34.482  21.168  24.563  1.00  0.00    -0.019 A 
ATOM     12  C   UNL A   1      32.595  19.990  25.516  1.00  0.00     0.047 C 
ATOM     13  C   UNL A   1      34.892  19.734  24.619  1.00  0.00     0.038 C 
ATOM     14  C   UNL A   1      33.561  18.968  24.876  1.00  0.00     0.010 C 
BRANCH   8  15
ATOM     15  N   UNL A   1      33.869  24.722  24.045  1.00  0.00    -0.317 N 
ATOM     16  O   UNL A   1      32.977  24.374  21.927  1.00  0.00    -0.274 OA
ATOM     17  C   UNL A   1      33.457  25.117  22.781  1.00  0.00     0.230 C 
ATOM     18  H   UNL A   1      34.071  25.406  24.723  1.00  0.00     0.170 HD
BRANCH  17  19
ATOM     19  C   UNL A   1      33.486  26.626  22.608  1.00  0.00     0.155 C 
BRANCH  19  20
ATOM     20  C   UNL A   1      32.138  27.243  22.820  1.00  0.00     0.044 A 
ATOM     21  C   UNL A   1      31.428  27.467  23.982  1.00  0.00     0.045 A 
ATOM     22  N   UNL A   1      31.334  27.714  21.811  1.00  0.00    -0.282 N 
ATOM     23  C   UNL A   1      30.208  28.024  23.562  1.00  0.00     0.135 A 
ATOM     24  N   UNL A   1      30.141  28.159  22.237  1.00  0.00    -0.184 NA
ATOM     25  H   UNL A   1      31.607  27.726  20.865  1.00  0.00     0.190 HD
ENDBRANCH  19  20
ENDBRANCH  17  19
ENDBRANCH   8  15
ENDBRANCH   4   7
ENDBRANCH   2   3
ENDBRANCH   1   2
BRANCH   1  26
ATOM     26  C   UNL A   1      39.512  22.187  26.176  1.00  0.00     0.023 C 
BRANCH  26  27
ATOM     27  C   UNL A   1      40.810  21.880  26.925  1.00  0.00     0.116 C 
BRANCH  27  28
ATOM     28  N   UNL A   1      41.977  21.825  26.046  1.00  0.00    -0.352 N 
ATOM     29  C   UNL A   1      42.647  22.878  25.442  1.00  0.00     0.251 C 
ATOM     30  H   UNL A   1      42.332  20.926  25.857  1.00  0.00     0.163 HD
ATOM     31  O   UNL A   1      43.295  22.701  24.424  1.00  0.00    -0.269 OA
BRANCH  29  32
ATOM     32  C   UNL A   1      42.595  24.207  26.080  1.00  0.00     0.039 A 
ATOM     33  C   UNL A   1      41.927  25.287  25.495  1.00  0.00     0.014 A 
ATOM     34  C   UNL A   1      43.249  24.354  27.301  1.00  0.00     0.014 A 
ATOM     35  C   UNL A   1      41.861  26.494  26.190  1.00  0.00     0.010 A 
ATOM     36  C   UNL A   1      43.068  25.491  28.045  1.00  0.00     0.010 A 
ATOM     37  C   UNL A   1      42.426  26.582  27.472  1.00  0.00    -0.014 A 
BRANCH  37  38
ATOM     38  C   UNL A   1      42.228  27.753  28.319  1.00  0.00     0.031 A 
ATOM     39  C   UNL A   1      43.316  28.762  28.184  1.00  0.00     0.074 A 
ATOM     40  C   UNL A   1      41.040  28.022  28.908  1.00  0.00     0.049 A 
ATOM     41  N   UNL A   1      44.238  29.058  29.040  1.00  0.00    -0.248 NA
ATOM     42  C   UNL A   1      43.538  29.363  26.855  1.00  0.00     0.031 C 
ATOM     43  C   UNL A   1      39.786  27.269  28.791  1.00  0.00     0.029 A 
ATOM     44  N   UNL A   1      40.660  29.099  29.649  1.00  0.00    -0.354 N 
ATOM     45  C   UNL A   1      44.968  30.091  28.456  1.00  0.00     0.074 A 
ATOM     46  C   UNL A   1      44.681  30.023  27.051  1.00  0.00     0.031 C 
ATOM     47  C   UNL A   1      38.755  28.024  29.232  1.00  0.00     0.029 A 
ATOM     48  C   UNL A   1      39.280  29.250  29.805  1.00  0.00     0.049 A 
ATOM     49  H   UNL A   1      41.309  29.725  30.044  1.00  0.00     0.167 HD
ATOM     50  C   UNL A   1      45.485  31.102  29.215  1.00  0.00     0.037 A 
ATOM     51  C   UNL A   1      38.636  30.327  30.334  1.00  0.00     0.037 A 
ATOM     52  C   UNL A   1      45.466  30.733  30.613  1.00  0.00     0.049 A 
ATOM     53  C   UNL A   1      39.655  31.097  31.097  1.00  0.00     0.074 A 
ATOM     54  C   UNL A   1      45.982  29.685  31.352  1.00  0.00     0.029 A 
ATOM     55  N   UNL A   1      44.485  31.296  31.396  1.00  0.00    -0.354 N 
ATOM     56  N   UNL A   1      40.237  30.657  32.179  1.00  0.00    -0.248 NA
ATOM     57  C   UNL A   1      40.372  32.142  30.381  1.00  0.00     0.031 C 
ATOM     58  C   UNL A   1      44.967  29.373  32.304  1.00  0.00     0.029 A 
ATOM     59  C   UNL A   1      43.938  30.304  32.164  1.00  0.00     0.049 A 
ATOM     60  H   UNL A   1      44.223  32.245  31.401  1.00  0.00     0.167 HD
ATOM     61  C   UNL A   1      41.565  31.037  32.044  1.00  0.00     0.074 A 
ATOM     62  C   UNL A   1      41.573  32.009  30.951  1.00  0.00     0.031 C 
ATOM     63  C   UNL A   1      42.566  30.309  32.620  1.00  0.00     0.037 A 
BRANCH  50  64
ATOM     64  C   UNL A   1      45.605  32.554  28.778  1.00  0.00     0.058 A 
ATOM     65  C   UNL A   1      46.816  33.237  29.035  1.00  0.00     0.135 A 
ATOM     66  C   UNL A   1      44.530  33.382  28.380  1.00  0.00     0.135 A 
ATOM     67  F   UNL A   1      47.919  32.564  29.398  1.00  0.00    -0.206 F 
ATOM     68  C   UNL A   1      46.918  34.628  29.011  1.00  0.00     0.059 A 
ATOM     69  C   UNL A   1      44.626  34.768  28.300  1.00  0.00     0.059 A 
ATOM     70  F   UNL A   1      43.305  32.916  28.127  1.00  0.00    -0.206 F 
ATOM     71  C   UNL A   1      45.809  35.386  28.659  1.00  0.00     0.060 A 
BRANCH  71  72
ATOM     72  S   UNL A   1      45.911  37.182  28.703  1.00  0.00     0.124 S 
ATOM     73  O   UNL A   1      47.248  37.383  29.247  1.00  0.00    -0.237 OA
ATOM     74  O   UNL A   1      45.730  37.526  27.297  1.00  0.00    -0.237 OA
ATOM     75  O   UNL A   1      44.807  37.558  29.582  1.00  0.00    -0.744 OA
ENDBRANCH  71  72
ENDBRANCH  50  64
BRANCH  51  76
ATOM     76  C   UNL A   1      37.314  30.925  29.980  1.00  0.00     0.058 A 
ATOM     77  C   UNL A   1      36.494  31.508  30.968  1.00  0.00     0.135 A 
ATOM     78  C   UNL A   1      36.966  31.218  28.647  1.00  0.00     0.135 A 
ATOM     79  F   UNL A   1      36.746  31.289  32.268  1.00  0.00    -0.206 F 
ATOM     80  C   UNL A   1      35.449  32.388  30.658  1.00  0.00     0.059 A 
ATOM     81  C   UNL A   1      35.923  32.085  28.313  1.00  0.00     0.059 A 
ATOM     82  F   UNL A   1      37.694  30.747  27.624  1.00  0.00    -0.206 F 
ATOM     83  C   UNL A   1      35.190  32.694  29.324  1.00  0.00     0.060 A 
BRANCH  83  84
ATOM     84  S   UNL A   1      33.988  33.989  28.923  1.00  0.00     0.124 S 
ATOM     85  O   UNL A   1      33.093  33.299  28.000  1.00  0.00    -0.237 OA
ATOM     86  O   UNL A   1      33.429  34.310  30.231  1.00  0.00    -0.237 OA
ATOM     87  O   UNL A   1      34.809  35.040  28.326  1.00  0.00    -0.744 OA
ENDBRANCH  83  84
ENDBRANCH  51  76
BRANCH  63  88
ATOM     88  C   UNL A   1      42.210  29.293  33.675  1.00  0.00     0.058 A 
ATOM     89  C   UNL A   1      41.823  27.965  33.426  1.00  0.00     0.135 A 
ATOM     90  C   UNL A   1      42.442  29.654  35.011  1.00  0.00     0.135 A 
ATOM     91  F   UNL A   1      41.675  27.510  32.173  1.00  0.00    -0.206 F 
ATOM     92  C   UNL A   1      41.645  27.047  34.465  1.00  0.00     0.059 A 
ATOM     93  C   UNL A   1      42.305  28.749  36.057  1.00  0.00     0.059 A 
ATOM     94  F   UNL A   1      42.868  30.893  35.308  1.00  0.00    -0.206 F 
ATOM     95  C   UNL A   1      41.893  27.449  35.778  1.00  0.00     0.060 A 
BRANCH  95  96
ATOM     96  S   UNL A   1      41.738  26.250  37.120  1.00  0.00     0.124 S 
ATOM     97  O   UNL A   1      40.433  26.586  37.681  1.00  0.00    -0.237 OA
ATOM     98  O   UNL A   1      41.817  24.974  36.415  1.00  0.00    -0.237 OA
ATOM     99  O   UNL A   1      42.880  26.548  37.979  1.00  0.00    -0.744 OA
ENDBRANCH  95  96
ENDBRANCH  63  88
ENDBRANCH  37  38
ENDBRANCH  29  32
ENDBRANCH  27  28
ENDBRANCH  26  27
ENDBRANCH   1  26
TORSDOF 17
ENDMDL
