MODEL 1
REMARK VINA RESULT:     -12.5      0.000      0.000
REMARK SMILES COc1ccc2c(c1)OC[C@@]1(C(=O)NCCCCNC(=O)c3ccc(-c4c5nc(c(-c6c(F)cc(S(=O)(=O)[O-])cc6F)c6ccc([nH]6)c(-c6c(F)cc(S(=O)(=O)[O-])cc6F)c6nc(c(-c7c(F)cc(S(=O)(=O)[O-])cc7F)c7ccc4[nH]7)C=C6)C=C5)cc3)C[N@@H+](Cc3cc(C(C)(C)C)n[nH]3)C[C@H]21
REMARK SMILES IDX 16 1 15 2 14 3 12 4 13 5 11 7 3 8 4 9 8 10 5 11 7 12 6 13
REMARK SMILES IDX 9 14 101 15 10 16 100 17 88 18 89 19 2 21 1 22 90 23 91 24
REMARK SMILES IDX 92 25 99 26 93 27 98 28 94 30 95 31 96 32 97 33 17 34 18 35
REMARK SMILES IDX 19 36 20 37 21 39 22 40 23 41 87 42 24 43 86 44 25 45 26 46
REMARK SMILES IDX 27 47 80 48 28 49 85 50 79 51 81 52 29 53 84 54 78 55 77 56
REMARK SMILES IDX 30 58 64 59 43 60 63 61 44 62 47 63 62 64 82 65 45 66 46 67
REMARK SMILES IDX 61 69 83 70 48 71 31 72 32 73 41 74 33 75 34 76 40 77 42 78
REMARK SMILES IDX 35 79 36 80 37 81 38 82 39 83 65 84 66 85 75 86 67 87 68 88
REMARK SMILES IDX 74 89 76 90 69 91 70 92 71 93 72 94 73 95 49 96 50 97 59 98
REMARK SMILES IDX 51 99 52 100 58 101 60 102 53 103 54 104 55 105 56 106
REMARK SMILES IDX 57 107
REMARK H PARENT 14 6 89 20 99 29 19 38 81 57 47 68
REMARK Flexibility Score: inf
ROOT
ATOM      1  C   UNL A   1      35.429  23.081  23.415  1.00  0.00     0.023 C 
ENDROOT
BRANCH   1   2
ATOM      2  C   UNL A   1      34.378  24.171  23.273  1.00  0.00     0.116 C 
BRANCH   2   3
ATOM      3  N   UNL A   1      34.687  25.405  23.969  1.00  0.00    -0.355 N 
ATOM      4  C   UNL A   1      33.806  26.075  24.781  1.00  0.00     0.236 C 
ATOM      5  O   UNL A   1      34.258  26.591  25.808  1.00  0.00    -0.274 OA
ATOM      6  H   UNL A   1      35.586  25.788  23.851  1.00  0.00     0.163 HD
BRANCH   4   7
ATOM      7  C   UNL A   1      32.320  26.127  24.344  1.00  0.00     0.144 C 
ATOM      8  C   UNL A   1      28.562  29.265  22.408  1.00  0.00     0.122 A 
ATOM      9  C   UNL A   1      27.863  28.249  23.062  1.00  0.00     0.047 A 
ATOM     10  C   UNL A   1      29.956  29.270  22.444  1.00  0.00     0.093 A 
ATOM     11  C   UNL A   1      28.550  27.212  23.697  1.00  0.00     0.012 A 
ATOM     12  C   UNL A   1      30.628  28.257  23.128  1.00  0.00     0.126 A 
ATOM     13  C   UNL A   1      29.950  27.194  23.705  1.00  0.00     0.005 A 
ATOM     14  O   UNL A   1      31.980  28.352  23.265  1.00  0.00    -0.492 OA
ATOM     15  C   UNL A   1      30.739  26.142  24.449  1.00  0.00     0.103 C 
ATOM     16  C   UNL A   1      32.430  27.716  24.494  1.00  0.00     0.253 C 
ATOM     17  C   UNL A   1      30.315  24.739  24.017  1.00  0.00     0.272 C 
ATOM     18  C   UNL A   1      32.214  24.837  25.353  1.00  0.00     0.284 C 
ATOM     19  N   UNL A   1      31.349  23.906  24.596  1.00  0.00    -0.328 N 
ATOM     20  H   UNL A   1      31.890  23.435  23.872  1.00  0.00     0.348 HD
BRANCH   8  21
ATOM     21  O   UNL A   1      27.774  30.220  21.825  1.00  0.00    -0.497 OA
ATOM     22  C   UNL A   1      28.209  31.563  21.995  1.00  0.00     0.278 C 
ENDBRANCH   8  21
BRANCH  19  23
ATOM     23  C   UNL A   1      30.889  22.712  25.302  1.00  0.00     0.319 C 
BRANCH  23  24
ATOM     24  C   UNL A   1      31.856  21.594  25.229  1.00  0.00     0.090 A 
ATOM     25  C   UNL A   1      32.147  20.690  24.234  1.00  0.00     0.055 A 
ATOM     26  N   UNL A   1      32.587  21.194  26.312  1.00  0.00    -0.277 N 
ATOM     27  C   UNL A   1      32.864  19.658  24.881  1.00  0.00     0.068 A 
ATOM     28  N   UNL A   1      33.203  20.017  26.128  1.00  0.00    -0.180 NA
ATOM     29  H   UNL A   1      32.653  21.716  27.144  1.00  0.00     0.190 HD
BRANCH  27  30
ATOM     30  C   UNL A   1      33.183  18.269  24.367  1.00  0.00     0.006 C 
ATOM     31  C   UNL A   1      34.702  18.036  24.379  1.00  0.00     0.017 C 
ATOM     32  C   UNL A   1      32.492  17.211  25.256  1.00  0.00     0.017 C 
ATOM     33  C   UNL A   1      32.664  18.066  22.926  1.00  0.00     0.017 C 
ENDBRANCH  27  30
ENDBRANCH  23  24
ENDBRANCH  19  23
ENDBRANCH   4   7
ENDBRANCH   2   3
ENDBRANCH   1   2
BRANCH   1  34
ATOM     34  C   UNL A   1      35.918  22.786  24.829  1.00  0.00     0.023 C 
BRANCH  34  35
ATOM     35  C   UNL A   1      37.098  23.605  25.338  1.00  0.00     0.116 C 
BRANCH  35  36
ATOM     36  N   UNL A   1      38.324  22.847  25.525  1.00  0.00    -0.352 N 
ATOM     37  C   UNL A   1      39.463  23.188  26.222  1.00  0.00     0.251 C 
ATOM     38  H   UNL A   1      38.343  21.962  25.091  1.00  0.00     0.163 HD
ATOM     39  O   UNL A   1      40.425  22.426  26.247  1.00  0.00    -0.269 OA
BRANCH  37  40
ATOM     40  C   UNL A   1      39.540  24.508  26.886  1.00  0.00     0.039 A 
ATOM     41  C   UNL A   1      40.292  25.543  26.330  1.00  0.00     0.014 A 
ATOM     42  C   UNL A   1      38.928  24.672  28.132  1.00  0.00     0.014 A 
ATOM     43  C   UNL A   1      40.616  26.646  27.112  1.00  0.00     0.010 A 
ATOM     44  C   UNL A   1      39.179  25.829  28.878  1.00  0.00     0.010 A 
ATOM     45  C   UNL A   1      40.083  26.793  28.404  1.00  0.00    -0.014 A 
BRANCH  45  46
ATOM     46  C   UNL A   1      40.521  27.932  29.257  1.00  0.00     0.031 A 
ATOM     47  C   UNL A   1      39.622  29.127  29.466  1.00  0.00     0.074 A 
ATOM     48  C   UNL A   1      41.698  27.856  29.908  1.00  0.00     0.049 A 
ATOM     49  N   UNL A   1      39.838  30.208  30.173  1.00  0.00    -0.248 NA
ATOM     50  C   UNL A   1      38.311  29.110  28.796  1.00  0.00     0.031 C 
ATOM     51  C   UNL A   1      42.642  26.741  29.814  1.00  0.00     0.029 A 
ATOM     52  N   UNL A   1      42.285  28.713  30.805  1.00  0.00    -0.354 N 
ATOM     53  C   UNL A   1      38.707  31.004  30.019  1.00  0.00     0.074 A 
ATOM     54  C   UNL A   1      37.814  30.294  29.128  1.00  0.00     0.031 C 
ATOM     55  C   UNL A   1      43.654  26.948  30.670  1.00  0.00     0.029 A 
ATOM     56  C   UNL A   1      43.468  28.240  31.321  1.00  0.00     0.049 A 
ATOM     57  H   UNL A   1      41.896  29.581  31.055  1.00  0.00     0.167 HD
ATOM     58  C   UNL A   1      38.432  32.207  30.576  1.00  0.00     0.037 A 
ATOM     59  C   UNL A   1      44.317  28.788  32.211  1.00  0.00     0.037 A 
ATOM     60  C   UNL A   1      39.309  32.898  31.487  1.00  0.00     0.049 A 
ATOM     61  C   UNL A   1      44.011  30.144  32.779  1.00  0.00     0.074 A 
ATOM     62  C   UNL A   1      39.121  34.126  32.099  1.00  0.00     0.029 A 
ATOM     63  N   UNL A   1      40.533  32.417  31.926  1.00  0.00    -0.354 N 
ATOM     64  N   UNL A   1      42.957  30.899  32.583  1.00  0.00    -0.248 NA
ATOM     65  C   UNL A   1      45.019  30.732  33.670  1.00  0.00     0.031 C 
ATOM     66  C   UNL A   1      40.243  34.400  32.887  1.00  0.00     0.029 A 
ATOM     67  C   UNL A   1      41.116  33.327  32.794  1.00  0.00     0.049 A 
ATOM     68  H   UNL A   1      40.929  31.556  31.662  1.00  0.00     0.167 HD
ATOM     69  C   UNL A   1      43.172  32.050  33.329  1.00  0.00     0.074 A 
ATOM     70  C   UNL A   1      44.448  31.884  33.998  1.00  0.00     0.031 C 
ATOM     71  C   UNL A   1      42.388  33.149  33.446  1.00  0.00     0.037 A 
BRANCH  58  72
ATOM     72  C   UNL A   1      37.127  32.865  30.220  1.00  0.00     0.058 A 
ATOM     73  C   UNL A   1      35.986  32.715  31.023  1.00  0.00     0.135 A 
ATOM     74  C   UNL A   1      37.032  33.701  29.096  1.00  0.00     0.135 A 
ATOM     75  F   UNL A   1      36.017  31.915  32.100  1.00  0.00    -0.206 F 
ATOM     76  C   UNL A   1      34.791  33.359  30.715  1.00  0.00     0.059 A 
ATOM     77  C   UNL A   1      35.853  34.372  28.781  1.00  0.00     0.059 A 
ATOM     78  F   UNL A   1      38.093  33.878  28.294  1.00  0.00    -0.206 F 
ATOM     79  C   UNL A   1      34.735  34.186  29.592  1.00  0.00     0.060 A 
BRANCH  79  80
ATOM     80  S   UNL A   1      33.179  35.023  29.215  1.00  0.00     0.124 S 
ATOM     81  O   UNL A   1      32.609  34.135  28.205  1.00  0.00    -0.237 OA
ATOM     82  O   UNL A   1      32.504  35.027  30.508  1.00  0.00    -0.237 OA
ATOM     83  O   UNL A   1      33.605  36.332  28.729  1.00  0.00    -0.744 OA
ENDBRANCH  79  80
ENDBRANCH  58  72
BRANCH  59  84
ATOM     84  C   UNL A   1      45.541  28.048  32.613  1.00  0.00     0.058 A 
ATOM     85  C   UNL A   1      46.758  28.261  31.952  1.00  0.00     0.135 A 
ATOM     86  C   UNL A   1      45.526  27.147  33.688  1.00  0.00     0.135 A 
ATOM     87  F   UNL A   1      46.817  29.109  30.913  1.00  0.00    -0.206 F 
ATOM     88  C   UNL A   1      47.920  27.603  32.339  1.00  0.00     0.059 A 
ATOM     89  C   UNL A   1      46.680  26.495  34.110  1.00  0.00     0.059 A 
ATOM     90  F   UNL A   1      44.387  26.920  34.361  1.00  0.00    -0.206 F 
ATOM     91  C   UNL A   1      47.872  26.726  33.424  1.00  0.00     0.060 A 
BRANCH  91  92
ATOM     92  S   UNL A   1      49.399  25.928  33.964  1.00  0.00     0.124 S 
ATOM     93  O   UNL A   1      49.487  24.806  33.039  1.00  0.00    -0.237 OA
ATOM     94  O   UNL A   1      50.383  26.990  33.777  1.00  0.00    -0.237 OA
ATOM     95  O   UNL A   1      49.122  25.581  35.355  1.00  0.00    -0.744 OA
ENDBRANCH  91  92
ENDBRANCH  59  84
BRANCH  71  96
ATOM     96  C   UNL A   1      42.881  34.256  34.330  1.00  0.00     0.058 A 
ATOM     97  C   UNL A   1      43.596  35.343  33.806  1.00  0.00     0.135 A 
ATOM     98  C   UNL A   1      42.590  34.258  35.704  1.00  0.00     0.135 A 
ATOM     99  F   UNL A   1      43.906  35.382  32.501  1.00  0.00    -0.206 F 
ATOM    100  C   UNL A   1      44.019  36.391  34.617  1.00  0.00     0.059 A 
ATOM    101  C   UNL A   1      42.985  35.305  36.530  1.00  0.00     0.059 A 
ATOM    102  F   UNL A   1      41.902  33.243  36.251  1.00  0.00    -0.206 F 
ATOM    103  C   UNL A   1      43.706  36.364  35.978  1.00  0.00     0.060 A 
BRANCH 103 104
ATOM    104  S   UNL A   1      44.226  37.751  37.011  1.00  0.00     0.124 S 
ATOM    105  O   UNL A   1      45.523  37.287  37.493  1.00  0.00    -0.237 OA
ATOM    106  O   UNL A   1      44.262  38.855  36.057  1.00  0.00    -0.237 OA
ATOM    107  O   UNL A   1      43.174  37.835  38.020  1.00  0.00    -0.744 OA
ENDBRANCH 103 104
ENDBRANCH  71  96
ENDBRANCH  45  46
ENDBRANCH  37  40
ENDBRANCH  35  36
ENDBRANCH  34  35
ENDBRANCH   1  34
TORSDOF 18
ENDMDL
MODEL 2
REMARK VINA RESULT:     -12.2      2.867      7.960
REMARK SMILES COc1ccc2c(c1)OC[C@@]1(C(=O)NCCCCNC(=O)c3ccc(-c4c5nc(c(-c6c(F)cc(S(=O)(=O)[O-])cc6F)c6ccc([nH]6)c(-c6c(F)cc(S(=O)(=O)[O-])cc6F)c6nc(c(-c7c(F)cc(S(=O)(=O)[O-])cc7F)c7ccc4[nH]7)C=C6)C=C5)cc3)C[N@@H+](Cc3cc(C(C)(C)C)n[nH]3)C[C@H]21
REMARK SMILES IDX 16 1 15 2 14 3 12 4 13 5 11 7 3 8 4 9 8 10 5 11 7 12 6 13
REMARK SMILES IDX 9 14 101 15 10 16 100 17 88 18 89 19 2 21 1 22 90 23 91 24
REMARK SMILES IDX 92 25 99 26 93 27 98 28 94 30 95 31 96 32 97 33 17 34 18 35
REMARK SMILES IDX 19 36 20 37 21 39 22 40 23 41 87 42 24 43 86 44 25 45 26 46
REMARK SMILES IDX 27 47 80 48 28 49 85 50 79 51 81 52 29 53 84 54 78 55 77 56
REMARK SMILES IDX 30 58 64 59 43 60 63 61 44 62 47 63 62 64 82 65 45 66 46 67
REMARK SMILES IDX 61 69 83 70 48 71 31 72 32 73 41 74 33 75 34 76 40 77 42 78
REMARK SMILES IDX 35 79 36 80 37 81 38 82 39 83 65 84 66 85 75 86 67 87 68 88
REMARK SMILES IDX 74 89 76 90 69 91 70 92 71 93 72 94 73 95 49 96 50 97 59 98
REMARK SMILES IDX 51 99 52 100 58 101 60 102 53 103 54 104 55 105 56 106
REMARK SMILES IDX 57 107
REMARK H PARENT 14 6 89 20 99 29 19 38 81 57 47 68
REMARK Flexibility Score: inf
ROOT
ATOM      1  C   UNL A   1      35.578  23.311  23.623  1.00  0.00     0.023 C 
ENDROOT
BRANCH   1   2
ATOM      2  C   UNL A   1      34.455  24.334  23.533  1.00  0.00     0.116 C 
BRANCH   2   3
ATOM      3  N   UNL A   1      34.691  25.559  24.273  1.00  0.00    -0.355 N 
ATOM      4  C   UNL A   1      33.753  26.174  25.064  1.00  0.00     0.236 C 
ATOM      5  O   UNL A   1      34.143  26.679  26.122  1.00  0.00    -0.274 OA
ATOM      6  H   UNL A   1      35.579  25.975  24.203  1.00  0.00     0.163 HD
BRANCH   4   7
ATOM      7  C   UNL A   1      32.285  26.186  24.566  1.00  0.00     0.144 C 
ATOM      8  C   UNL A   1      28.513  29.231  22.512  1.00  0.00     0.122 A 
ATOM      9  C   UNL A   1      27.820  28.185  23.125  1.00  0.00     0.047 A 
ATOM     10  C   UNL A   1      29.903  29.279  22.607  1.00  0.00     0.093 A 
ATOM     11  C   UNL A   1      28.513  27.162  23.775  1.00  0.00     0.012 A 
ATOM     12  C   UNL A   1      30.579  28.278  23.306  1.00  0.00     0.126 A 
ATOM     13  C   UNL A   1      29.911  27.187  23.841  1.00  0.00     0.005 A 
ATOM     14  O   UNL A   1      31.920  28.414  23.500  1.00  0.00    -0.492 OA
ATOM     15  C   UNL A   1      30.702  26.150  24.605  1.00  0.00     0.103 C 
ATOM     16  C   UNL A   1      32.338  27.776  24.739  1.00  0.00     0.253 C 
ATOM     17  C   UNL A   1      30.340  24.740  24.138  1.00  0.00     0.272 C 
ATOM     18  C   UNL A   1      32.179  24.880  25.554  1.00  0.00     0.284 C 
ATOM     19  N   UNL A   1      31.376  23.932  24.750  1.00  0.00    -0.328 N 
ATOM     20  H   UNL A   1      31.962  23.488  24.043  1.00  0.00     0.348 HD
BRANCH   8  21
ATOM     21  O   UNL A   1      27.720  30.168  21.908  1.00  0.00    -0.497 OA
ATOM     22  C   UNL A   1      28.338  31.424  21.654  1.00  0.00     0.278 C 
ENDBRANCH   8  21
BRANCH  19  23
ATOM     23  C   UNL A   1      30.925  22.716  25.421  1.00  0.00     0.319 C 
BRANCH  23  24
ATOM     24  C   UNL A   1      31.892  21.601  25.299  1.00  0.00     0.090 A 
ATOM     25  C   UNL A   1      32.143  20.706  24.285  1.00  0.00     0.055 A 
ATOM     26  N   UNL A   1      32.667  21.194  26.347  1.00  0.00    -0.277 N 
ATOM     27  C   UNL A   1      32.889  19.671  24.893  1.00  0.00     0.068 A 
ATOM     28  N   UNL A   1      33.279  20.021  26.128  1.00  0.00    -0.180 NA
ATOM     29  H   UNL A   1      32.767  21.709  27.180  1.00  0.00     0.190 HD
BRANCH  27  30
ATOM     30  C   UNL A   1      33.191  18.287  24.354  1.00  0.00     0.006 C 
ATOM     31  C   UNL A   1      34.710  18.078  24.252  1.00  0.00     0.017 C 
ATOM     32  C   UNL A   1      32.584  17.219  25.291  1.00  0.00     0.017 C 
ATOM     33  C   UNL A   1      32.569  18.078  22.955  1.00  0.00     0.017 C 
ENDBRANCH  27  30
ENDBRANCH  23  24
ENDBRANCH  19  23
ENDBRANCH   4   7
ENDBRANCH   2   3
ENDBRANCH   1   2
BRANCH   1  34
ATOM     34  C   UNL A   1      35.707  22.555  24.941  1.00  0.00     0.023 C 
BRANCH  34  35
ATOM     35  C   UNL A   1      36.711  23.095  25.953  1.00  0.00     0.116 C 
BRANCH  35  36
ATOM     36  N   UNL A   1      37.914  22.292  26.097  1.00  0.00    -0.352 N 
ATOM     37  C   UNL A   1      39.160  22.662  26.556  1.00  0.00     0.251 C 
ATOM     38  H   UNL A   1      37.827  21.348  25.827  1.00  0.00     0.163 HD
ATOM     39  O   UNL A   1      40.078  21.848  26.579  1.00  0.00    -0.269 OA
BRANCH  37  40
ATOM     40  C   UNL A   1      39.398  24.066  26.959  1.00  0.00     0.039 A 
ATOM     41  C   UNL A   1      39.886  24.998  26.042  1.00  0.00     0.014 A 
ATOM     42  C   UNL A   1      39.221  24.422  28.298  1.00  0.00     0.014 A 
ATOM     43  C   UNL A   1      40.405  26.202  26.505  1.00  0.00     0.010 A 
ATOM     44  C   UNL A   1      39.656  25.674  28.744  1.00  0.00     0.010 A 
ATOM     45  C   UNL A   1      40.317  26.546  27.865  1.00  0.00    -0.014 A 
BRANCH  45  46
ATOM     46  C   UNL A   1      40.965  27.796  28.351  1.00  0.00     0.031 A 
ATOM     47  C   UNL A   1      42.446  28.021  28.156  1.00  0.00     0.074 A 
ATOM     48  C   UNL A   1      40.206  28.765  28.897  1.00  0.00     0.049 A 
ATOM     49  N   UNL A   1      43.178  29.046  28.515  1.00  0.00    -0.248 NA
ATOM     50  C   UNL A   1      43.204  26.960  27.472  1.00  0.00     0.031 C 
ATOM     51  C   UNL A   1      38.760  28.682  29.111  1.00  0.00     0.029 A 
ATOM     52  N   UNL A   1      40.535  30.022  29.339  1.00  0.00    -0.354 N 
ATOM     53  C   UNL A   1      44.479  28.747  28.121  1.00  0.00     0.074 A 
ATOM     54  C   UNL A   1      44.443  27.432  27.518  1.00  0.00     0.031 C 
ATOM     55  C   UNL A   1      38.316  29.859  29.578  1.00  0.00     0.029 A 
ATOM     56  C   UNL A   1      39.452  30.756  29.762  1.00  0.00     0.049 A 
ATOM     57  H   UNL A   1      41.457  30.365  29.351  1.00  0.00     0.167 HD
ATOM     58  C   UNL A   1      45.597  29.503  28.238  1.00  0.00     0.037 A 
ATOM     59  C   UNL A   1      39.379  32.007  30.254  1.00  0.00     0.037 A 
ATOM     60  C   UNL A   1      45.626  30.825  28.810  1.00  0.00     0.049 A 
ATOM     61  C   UNL A   1      40.640  32.806  30.416  1.00  0.00     0.074 A 
ATOM     62  C   UNL A   1      46.712  31.667  28.980  1.00  0.00     0.029 A 
ATOM     63  N   UNL A   1      44.517  31.502  29.295  1.00  0.00    -0.354 N 
ATOM     64  N   UNL A   1      41.866  32.486  30.080  1.00  0.00    -0.248 NA
ATOM     65  C   UNL A   1      40.511  34.127  31.046  1.00  0.00     0.031 C 
ATOM     66  C   UNL A   1      46.264  32.843  29.591  1.00  0.00     0.029 A 
ATOM     67  C   UNL A   1      44.894  32.748  29.772  1.00  0.00     0.049 A 
ATOM     68  H   UNL A   1      43.598  31.151  29.298  1.00  0.00     0.167 HD
ATOM     69  C   UNL A   1      42.655  33.566  30.453  1.00  0.00     0.074 A 
ATOM     70  C   UNL A   1      41.765  34.559  31.022  1.00  0.00     0.031 C 
ATOM     71  C   UNL A   1      43.996  33.720  30.340  1.00  0.00     0.037 A 
BRANCH  58  72
ATOM     72  C   UNL A   1      46.893  28.924  27.739  1.00  0.00     0.058 A 
ATOM     73  C   UNL A   1      47.783  28.267  28.601  1.00  0.00     0.135 A 
ATOM     74  C   UNL A   1      47.221  28.976  26.375  1.00  0.00     0.135 A 
ATOM     75  F   UNL A   1      47.526  28.202  29.918  1.00  0.00    -0.206 F 
ATOM     76  C   UNL A   1      48.961  27.694  28.132  1.00  0.00     0.059 A 
ATOM     77  C   UNL A   1      48.383  28.392  25.879  1.00  0.00     0.059 A 
ATOM     78  F   UNL A   1      46.404  29.593  25.507  1.00  0.00    -0.206 F 
ATOM     79  C   UNL A   1      49.253  27.762  26.768  1.00  0.00     0.060 A 
BRANCH  79  80
ATOM     80  S   UNL A   1      50.780  27.003  26.174  1.00  0.00     0.124 S 
ATOM     81  O   UNL A   1      50.262  25.953  25.300  1.00  0.00    -0.237 OA
ATOM     82  O   UNL A   1      51.442  28.116  25.502  1.00  0.00    -0.237 OA
ATOM     83  O   UNL A   1      51.428  26.537  27.397  1.00  0.00    -0.744 OA
ENDBRANCH  79  80
ENDBRANCH  58  72
BRANCH  59  84
ATOM     84  C   UNL A   1      38.059  32.574  30.631  1.00  0.00     0.058 A 
ATOM     85  C   UNL A   1      37.566  32.439  31.935  1.00  0.00     0.135 A 
ATOM     86  C   UNL A   1      37.286  33.294  29.708  1.00  0.00     0.135 A 
ATOM     87  F   UNL A   1      38.268  31.752  32.850  1.00  0.00    -0.206 F 
ATOM     88  C   UNL A   1      36.349  32.995  32.314  1.00  0.00     0.059 A 
ATOM     89  C   UNL A   1      36.077  33.879  30.068  1.00  0.00     0.059 A 
ATOM     90  F   UNL A   1      37.723  33.461  28.449  1.00  0.00    -0.206 F 
ATOM     91  C   UNL A   1      35.614  33.719  31.373  1.00  0.00     0.060 A 
BRANCH  91  92
ATOM     92  S   UNL A   1      34.068  34.496  31.890  1.00  0.00     0.124 S 
ATOM     93  O   UNL A   1      33.553  33.519  32.840  1.00  0.00    -0.237 OA
ATOM     94  O   UNL A   1      34.533  35.757  32.459  1.00  0.00    -0.237 OA
ATOM     95  O   UNL A   1      33.322  34.619  30.641  1.00  0.00    -0.744 OA
ENDBRANCH  91  92
ENDBRANCH  59  84
BRANCH  71  96
ATOM     96  C   UNL A   1      44.586  35.008  30.837  1.00  0.00     0.058 A 
ATOM     97  C   UNL A   1      45.078  35.126  32.145  1.00  0.00     0.135 A 
ATOM     98  C   UNL A   1      44.707  36.115  29.984  1.00  0.00     0.135 A 
ATOM     99  F   UNL A   1      44.976  34.097  33.002  1.00  0.00    -0.206 F 
ATOM    100  C   UNL A   1      45.662  36.305  32.596  1.00  0.00     0.059 A 
ATOM    101  C   UNL A   1      45.306  37.298  30.406  1.00  0.00     0.059 A 
ATOM    102  F   UNL A   1      44.257  36.049  28.720  1.00  0.00    -0.206 F 
ATOM    103  C   UNL A   1      45.774  37.385  31.718  1.00  0.00     0.060 A 
BRANCH 103 104
ATOM    104  S   UNL A   1      46.570  38.896  32.304  1.00  0.00     0.124 S 
ATOM    105  O   UNL A   1      47.646  39.057  31.332  1.00  0.00    -0.237 OA
ATOM    106  O   UNL A   1      45.489  39.872  32.220  1.00  0.00    -0.237 OA
ATOM    107  O   UNL A   1      46.993  38.552  33.659  1.00  0.00    -0.744 OA
ENDBRANCH 103 104
ENDBRANCH  71  96
ENDBRANCH  45  46
ENDBRANCH  37  40
ENDBRANCH  35  36
ENDBRANCH  34  35
ENDBRANCH   1  34
TORSDOF 18
ENDMDL
MODEL 3
REMARK VINA RESULT:     -12.2      4.364      9.058
REMARK SMILES COc1ccc2c(c1)OC[C@@]1(C(=O)NCCCCNC(=O)c3ccc(-c4c5nc(c(-c6c(F)cc(S(=O)(=O)[O-])cc6F)c6ccc([nH]6)c(-c6c(F)cc(S(=O)(=O)[O-])cc6F)c6nc(c(-c7c(F)cc(S(=O)(=O)[O-])cc7F)c7ccc4[nH]7)C=C6)C=C5)cc3)C[N@@H+](Cc3cc(C(C)(C)C)n[nH]3)C[C@H]21
REMARK SMILES IDX 16 1 15 2 14 3 12 4 13 5 11 7 3 8 4 9 8 10 5 11 7 12 6 13
REMARK SMILES IDX 9 14 101 15 10 16 100 17 88 18 89 19 2 21 1 22 90 23 91 24
REMARK SMILES IDX 92 25 99 26 93 27 98 28 94 30 95 31 96 32 97 33 17 34 18 35
REMARK SMILES IDX 19 36 20 37 21 39 22 40 23 41 87 42 24 43 86 44 25 45 26 46
REMARK SMILES IDX 27 47 80 48 28 49 85 50 79 51 81 52 29 53 84 54 78 55 77 56
REMARK SMILES IDX 30 58 64 59 43 60 63 61 44 62 47 63 62 64 82 65 45 66 46 67
REMARK SMILES IDX 61 69 83 70 48 71 31 72 32 73 41 74 33 75 34 76 40 77 42 78
REMARK SMILES IDX 35 79 36 80 37 81 38 82 39 83 65 84 66 85 75 86 67 87 68 88
REMARK SMILES IDX 74 89 76 90 69 91 70 92 71 93 72 94 73 95 49 96 50 97 59 98
REMARK SMILES IDX 51 99 52 100 58 101 60 102 53 103 54 104 55 105 56 106
REMARK SMILES IDX 57 107
REMARK H PARENT 14 6 89 20 99 29 19 38 81 57 47 68
REMARK Flexibility Score: inf
ROOT
ATOM      1  C   UNL A   1      37.045  22.209  24.184  1.00  0.00     0.023 C 
ENDROOT
BRANCH   1   2
ATOM      2  C   UNL A   1      36.568  23.639  24.390  1.00  0.00     0.116 C 
BRANCH   2   3
ATOM      3  N   UNL A   1      36.058  23.922  25.717  1.00  0.00    -0.355 N 
ATOM      4  C   UNL A   1      34.735  23.826  26.072  1.00  0.00     0.236 C 
ATOM      5  O   UNL A   1      34.477  23.376  27.193  1.00  0.00    -0.274 OA
ATOM      6  H   UNL A   1      36.700  24.201  26.408  1.00  0.00     0.163 HD
BRANCH   4   7
ATOM      7  C   UNL A   1      33.676  24.289  25.038  1.00  0.00     0.144 C 
ATOM      8  C   UNL A   1      31.501  28.519  22.780  1.00  0.00     0.122 A 
ATOM      9  C   UNL A   1      30.541  27.516  22.638  1.00  0.00     0.047 A 
ATOM     10  C   UNL A   1      32.685  28.241  23.464  1.00  0.00     0.093 A 
ATOM     11  C   UNL A   1      30.784  26.229  23.121  1.00  0.00     0.012 A 
ATOM     12  C   UNL A   1      32.891  26.964  23.987  1.00  0.00     0.126 A 
ATOM     13  C   UNL A   1      31.986  25.936  23.776  1.00  0.00     0.005 A 
ATOM     14  O   UNL A   1      33.990  26.751  24.764  1.00  0.00    -0.492 OA
ATOM     15  C   UNL A   1      32.261  24.582  24.390  1.00  0.00     0.103 C 
ATOM     16  C   UNL A   1      33.738  25.718  25.757  1.00  0.00     0.253 C 
ATOM     17  C   UNL A   1      32.076  23.470  23.358  1.00  0.00     0.272 C 
ATOM     18  C   UNL A   1      33.040  22.813  25.369  1.00  0.00     0.284 C 
ATOM     19  N   UNL A   1      32.652  22.322  24.028  1.00  0.00    -0.328 N 
ATOM     20  H   UNL A   1      33.473  21.979  23.530  1.00  0.00     0.348 HD
BRANCH   8  21
ATOM     21  O   UNL A   1      31.143  29.734  22.264  1.00  0.00    -0.497 OA
ATOM     22  C   UNL A   1      29.760  29.896  21.975  1.00  0.00     0.278 C 
ENDBRANCH   8  21
BRANCH  19  23
ATOM     23  C   UNL A   1      31.866  21.092  23.978  1.00  0.00     0.319 C 
BRANCH  23  24
ATOM     24  C   UNL A   1      32.599  19.921  24.511  1.00  0.00     0.090 A 
ATOM     25  C   UNL A   1      33.420  18.995  23.910  1.00  0.00     0.055 A 
ATOM     26  N   UNL A   1      32.440  19.488  25.797  1.00  0.00    -0.277 N 
ATOM     27  C   UNL A   1      33.502  17.930  24.835  1.00  0.00     0.068 A 
ATOM     28  N   UNL A   1      32.973  18.278  26.017  1.00  0.00    -0.180 NA
ATOM     29  H   UNL A   1      31.979  20.012  26.492  1.00  0.00     0.190 HD
BRANCH  27  30
ATOM     30  C   UNL A   1      34.012  16.522  24.604  1.00  0.00     0.006 C 
ATOM     31  C   UNL A   1      35.303  16.289  25.404  1.00  0.00     0.017 C 
ATOM     32  C   UNL A   1      32.940  15.500  25.046  1.00  0.00     0.017 C 
ATOM     33  C   UNL A   1      34.303  16.263  23.109  1.00  0.00     0.017 C 
ENDBRANCH  27  30
ENDBRANCH  23  24
ENDBRANCH  19  23
ENDBRANCH   4   7
ENDBRANCH   2   3
ENDBRANCH   1   2
BRANCH   1  34
ATOM     34  C   UNL A   1      37.461  21.442  25.435  1.00  0.00     0.023 C 
BRANCH  34  35
ATOM     35  C   UNL A   1      38.927  21.528  25.843  1.00  0.00     0.116 C 
BRANCH  35  36
ATOM     36  N   UNL A   1      39.626  20.253  25.853  1.00  0.00    -0.352 N 
ATOM     37  C   UNL A   1      40.951  19.987  26.127  1.00  0.00     0.251 C 
ATOM     38  H   UNL A   1      39.074  19.467  25.632  1.00  0.00     0.163 HD
ATOM     39  O   UNL A   1      41.379  18.838  26.056  1.00  0.00    -0.269 OA
BRANCH  37  40
ATOM     40  C   UNL A   1      41.866  21.106  26.443  1.00  0.00     0.039 A 
ATOM     41  C   UNL A   1      42.217  21.387  27.764  1.00  0.00     0.014 A 
ATOM     42  C   UNL A   1      42.295  21.940  25.407  1.00  0.00     0.014 A 
ATOM     43  C   UNL A   1      42.800  22.613  28.068  1.00  0.00     0.010 A 
ATOM     44  C   UNL A   1      42.968  23.128  25.710  1.00  0.00     0.010 A 
ATOM     45  C   UNL A   1      43.162  23.508  27.047  1.00  0.00    -0.014 A 
BRANCH  45  46
ATOM     46  C   UNL A   1      43.694  24.853  27.403  1.00  0.00     0.031 A 
ATOM     47  C   UNL A   1      45.139  25.203  27.139  1.00  0.00     0.074 A 
ATOM     48  C   UNL A   1      42.856  25.788  27.891  1.00  0.00     0.049 A 
ATOM     49  N   UNL A   1      45.775  26.322  27.384  1.00  0.00    -0.248 NA
ATOM     50  C   UNL A   1      45.982  24.165  26.522  1.00  0.00     0.031 C 
ATOM     51  C   UNL A   1      41.432  25.584  28.160  1.00  0.00     0.029 A 
ATOM     52  N   UNL A   1      43.069  27.106  28.212  1.00  0.00    -0.354 N 
ATOM     53  C   UNL A   1      47.088  26.118  26.972  1.00  0.00     0.074 A 
ATOM     54  C   UNL A   1      47.168  24.758  26.485  1.00  0.00     0.031 C 
ATOM     55  C   UNL A   1      40.885  26.749  28.540  1.00  0.00     0.029 A 
ATOM     56  C   UNL A   1      41.929  27.765  28.609  1.00  0.00     0.049 A 
ATOM     57  H   UNL A   1      43.952  27.536  28.164  1.00  0.00     0.167 HD
ATOM     58  C   UNL A   1      48.128  26.986  26.986  1.00  0.00     0.037 A 
ATOM     59  C   UNL A   1      41.745  29.041  28.994  1.00  0.00     0.037 A 
ATOM     60  C   UNL A   1      48.039  28.350  27.443  1.00  0.00     0.049 A 
ATOM     61  C   UNL A   1      42.923  29.970  29.045  1.00  0.00     0.074 A 
ATOM     62  C   UNL A   1      49.040  29.305  27.503  1.00  0.00     0.029 A 
ATOM     63  N   UNL A   1      46.881  28.956  27.906  1.00  0.00    -0.354 N 
ATOM     64  N   UNL A   1      44.166  29.742  28.695  1.00  0.00    -0.248 NA
ATOM     65  C   UNL A   1      42.679  31.322  29.565  1.00  0.00     0.031 C 
ATOM     66  C   UNL A   1      48.492  30.481  28.027  1.00  0.00     0.029 A 
ATOM     67  C   UNL A   1      47.144  30.270  28.262  1.00  0.00     0.049 A 
ATOM     68  H   UNL A   1      46.002  28.519  27.971  1.00  0.00     0.167 HD
ATOM     69  C   UNL A   1      44.853  30.923  28.948  1.00  0.00     0.074 A 
ATOM     70  C   UNL A   1      43.882  31.871  29.461  1.00  0.00     0.031 C 
ATOM     71  C   UNL A   1      46.168  31.196  28.776  1.00  0.00     0.037 A 
BRANCH  58  72
ATOM     72  C   UNL A   1      49.462  26.495  26.494  1.00  0.00     0.058 A 
ATOM     73  C   UNL A   1      49.923  26.791  25.203  1.00  0.00     0.135 A 
ATOM     74  C   UNL A   1      50.312  25.768  27.344  1.00  0.00     0.135 A 
ATOM     75  F   UNL A   1      49.144  27.468  24.345  1.00  0.00    -0.206 F 
ATOM     76  C   UNL A   1      51.176  26.371  24.765  1.00  0.00     0.059 A 
ATOM     77  C   UNL A   1      51.578  25.356  26.934  1.00  0.00     0.059 A 
ATOM     78  F   UNL A   1      49.919  25.457  28.588  1.00  0.00    -0.206 F 
ATOM     79  C   UNL A   1      51.996  25.655  25.638  1.00  0.00     0.060 A 
BRANCH  79  80
ATOM     80  S   UNL A   1      53.623  25.129  25.056  1.00  0.00     0.124 S 
ATOM     81  O   UNL A   1      54.506  25.931  25.900  1.00  0.00    -0.237 OA
ATOM     82  O   UNL A   1      53.609  23.698  25.337  1.00  0.00    -0.237 OA
ATOM     83  O   UNL A   1      53.612  25.488  23.641  1.00  0.00    -0.744 OA
ENDBRANCH  79  80
ENDBRANCH  58  72
BRANCH  59  84
ATOM     84  C   UNL A   1      40.385  29.508  29.367  1.00  0.00     0.058 A 
ATOM     85  C   UNL A   1      40.045  29.732  30.708  1.00  0.00     0.135 A 
ATOM     86  C   UNL A   1      39.414  29.775  28.390  1.00  0.00     0.135 A 
ATOM     87  F   UNL A   1      40.940  29.483  31.677  1.00  0.00    -0.206 F 
ATOM     88  C   UNL A   1      38.789  30.204  31.070  1.00  0.00     0.059 A 
ATOM     89  C   UNL A   1      38.158  30.270  28.726  1.00  0.00     0.059 A 
ATOM     90  F   UNL A   1      39.697  29.588  27.091  1.00  0.00    -0.206 F 
ATOM     91  C   UNL A   1      37.853  30.475  30.070  1.00  0.00     0.060 A 
BRANCH  91  92
ATOM     92  S   UNL A   1      36.248  31.152  30.544  1.00  0.00     0.124 S 
ATOM     93  O   UNL A   1      36.596  32.526  30.883  1.00  0.00    -0.237 OA
ATOM     94  O   UNL A   1      35.466  30.973  29.324  1.00  0.00    -0.237 OA
ATOM     95  O   UNL A   1      35.845  30.306  31.664  1.00  0.00    -0.744 OA
ENDBRANCH  91  92
ENDBRANCH  59  84
BRANCH  71  96
ATOM     96  C   UNL A   1      46.639  32.574  29.142  1.00  0.00     0.058 A 
ATOM     97  C   UNL A   1      46.597  33.626  28.215  1.00  0.00     0.135 A 
ATOM     98  C   UNL A   1      47.084  32.857  30.442  1.00  0.00     0.135 A 
ATOM     99  F   UNL A   1      46.188  33.404  26.957  1.00  0.00    -0.206 F 
ATOM    100  C   UNL A   1      46.994  34.914  28.563  1.00  0.00     0.059 A 
ATOM    101  C   UNL A   1      47.466  34.141  30.818  1.00  0.00     0.059 A 
ATOM    102  F   UNL A   1      47.135  31.884  31.366  1.00  0.00    -0.206 F 
ATOM    103  C   UNL A   1      47.425  35.161  29.868  1.00  0.00     0.060 A 
BRANCH 103 104
ATOM    104  S   UNL A   1      47.899  36.845  30.316  1.00  0.00     0.124 S 
ATOM    105  O   UNL A   1      48.310  36.674  31.706  1.00  0.00    -0.237 OA
ATOM    106  O   UNL A   1      48.970  37.130  29.368  1.00  0.00    -0.237 OA
ATOM    107  O   UNL A   1      46.670  37.608  30.114  1.00  0.00    -0.744 OA
ENDBRANCH 103 104
ENDBRANCH  71  96
ENDBRANCH  45  46
ENDBRANCH  37  40
ENDBRANCH  35  36
ENDBRANCH  34  35
ENDBRANCH   1  34
TORSDOF 18
ENDMDL
