MODEL 1
REMARK VINA RESULT:     -11.6      0.000      0.000
REMARK SMILES COc1cccc(C(=O)N[C@H]2C=C[C@@H](C(=O)NCCCCNC(=O)c3ccc(-c4c5nc(c(-c6c(F)cc(S(=O)(=O)[O-])cc6F)c6ccc([nH]6)c(-c6c(F)cc(S(=O)(=O)[O-])cc6F)c6nc(c(-c7c(F)cc(S(=O)(=O)[O-])cc7F)c7ccc4[nH]7)C=C6)C=C5)cc3)C2)c1
REMARK SMILES IDX 19 1 18 2 17 3 15 4 16 5 14 7 11 8 12 9 91 10 13 11 10 12
REMARK SMILES IDX 8 13 9 14 7 16 3 17 4 18 92 19 5 20 6 21 2 22 1 23 20 24
REMARK SMILES IDX 21 25 22 26 23 27 24 29 25 30 26 31 90 32 27 33 89 34 28 35
REMARK SMILES IDX 29 36 30 37 83 38 31 39 88 40 82 41 84 42 32 43 87 44 81 45
REMARK SMILES IDX 80 46 33 48 67 49 46 50 66 51 47 52 50 53 65 54 85 55 48 56
REMARK SMILES IDX 49 57 64 59 86 60 51 61 34 62 35 63 44 64 36 65 37 66 43 67
REMARK SMILES IDX 45 68 38 69 39 70 40 71 41 72 42 73 68 74 69 75 78 76 70 77
REMARK SMILES IDX 71 78 77 79 79 80 72 81 73 82 74 83 75 84 76 85 52 86 53 87
REMARK SMILES IDX 62 88 54 89 55 90 61 91 63 92 56 93 57 94 58 95 59 96 60 97
REMARK H PARENT 17 6 10 15 22 28 84 47 50 58
REMARK Flexibility Score: inf
ROOT
ATOM      1  C   UNL A   1      32.990  29.323  24.854  1.00  0.00     0.023 C 
ENDROOT
BRANCH   1   2
ATOM      2  C   UNL A   1      32.960  28.950  23.376  1.00  0.00     0.116 C 
BRANCH   2   3
ATOM      3  N   UNL A   1      31.722  29.340  22.731  1.00  0.00    -0.356 N 
ATOM      4  C   UNL A   1      30.608  28.607  22.454  1.00  0.00     0.227 C 
ATOM      5  O   UNL A   1      29.651  29.183  21.928  1.00  0.00    -0.274 OA
ATOM      6  H   UNL A   1      31.679  30.283  22.449  1.00  0.00     0.163 HD
BRANCH   4   7
ATOM      7  C   UNL A   1      30.537  27.102  22.719  1.00  0.00     0.103 C 
ATOM      8  C   UNL A   1      31.947  25.112  22.735  1.00  0.00     0.106 C 
ATOM      9  C   UNL A   1      31.652  25.586  24.123  1.00  0.00    -0.006 C 
ATOM     10  C   UNL A   1      31.546  26.322  21.878  1.00  0.00     0.047 C 
ATOM     11  C   UNL A   1      30.840  26.653  24.116  1.00  0.00    -0.016 C 
BRANCH   8  12
ATOM     12  N   UNL A   1      33.348  24.799  22.579  1.00  0.00    -0.346 N 
ATOM     13  C   UNL A   1      34.081  23.696  22.955  1.00  0.00     0.251 C 
ATOM     14  O   UNL A   1      35.272  23.667  22.644  1.00  0.00    -0.269 OA
ATOM     15  H   UNL A   1      33.871  25.497  22.122  1.00  0.00     0.164 HD
BRANCH  13  16
ATOM     16  C   UNL A   1      33.524  22.577  23.776  1.00  0.00     0.043 A 
ATOM     17  C   UNL A   1      33.278  21.329  25.852  1.00  0.00     0.119 A 
ATOM     18  C   UNL A   1      32.570  20.339  25.177  1.00  0.00     0.046 A 
ATOM     19  C   UNL A   1      33.684  22.468  25.158  1.00  0.00     0.060 A 
ATOM     20  C   UNL A   1      32.303  20.476  23.815  1.00  0.00     0.005 A 
ATOM     21  C   UNL A   1      32.792  21.581  23.115  1.00  0.00     0.014 A 
BRANCH  17  22
ATOM     22  O   UNL A   1      33.516  21.098  27.181  1.00  0.00    -0.497 OA
ATOM     23  C   UNL A   1      33.899  22.231  27.959  1.00  0.00     0.278 C 
ENDBRANCH  17  22
ENDBRANCH  13  16
ENDBRANCH   8  12
ENDBRANCH   4   7
ENDBRANCH   2   3
ENDBRANCH   1   2
BRANCH   1  24
ATOM     24  C   UNL A   1      33.750  28.344  25.744  1.00  0.00     0.023 C 
BRANCH  24  25
ATOM     25  C   UNL A   1      33.542  28.537  27.241  1.00  0.00     0.116 C 
BRANCH  25  26
ATOM     26  N   UNL A   1      33.475  29.935  27.646  1.00  0.00    -0.352 N 
ATOM     27  C   UNL A   1      34.478  30.698  28.199  1.00  0.00     0.251 C 
ATOM     28  H   UNL A   1      32.612  30.388  27.506  1.00  0.00     0.163 HD
ATOM     29  O   UNL A   1      34.269  31.850  28.564  1.00  0.00    -0.269 OA
BRANCH  27  30
ATOM     30  C   UNL A   1      35.800  30.073  28.382  1.00  0.00     0.039 A 
ATOM     31  C   UNL A   1      36.707  30.079  27.320  1.00  0.00     0.014 A 
ATOM     32  C   UNL A   1      36.171  29.599  29.643  1.00  0.00     0.014 A 
ATOM     33  C   UNL A   1      38.025  29.680  27.545  1.00  0.00     0.010 A 
ATOM     34  C   UNL A   1      37.496  29.266  29.878  1.00  0.00     0.010 A 
ATOM     35  C   UNL A   1      38.437  29.311  28.835  1.00  0.00    -0.014 A 
BRANCH  35  36
ATOM     36  C   UNL A   1      39.847  28.964  29.141  1.00  0.00     0.031 A 
ATOM     37  C   UNL A   1      40.761  30.024  29.682  1.00  0.00     0.074 A 
ATOM     38  C   UNL A   1      40.326  27.746  28.821  1.00  0.00     0.049 A 
ATOM     39  N   UNL A   1      42.058  29.999  29.832  1.00  0.00    -0.248 NA
ATOM     40  C   UNL A   1      40.133  31.299  30.067  1.00  0.00     0.031 C 
ATOM     41  C   UNL A   1      39.542  26.647  28.251  1.00  0.00     0.029 A 
ATOM     42  N   UNL A   1      41.598  27.238  28.902  1.00  0.00    -0.354 N 
ATOM     43  C   UNL A   1      42.408  31.265  30.285  1.00  0.00     0.074 A 
ATOM     44  C   UNL A   1      41.189  32.043  30.356  1.00  0.00     0.031 C 
ATOM     45  C   UNL A   1      40.350  25.595  28.037  1.00  0.00     0.029 A 
ATOM     46  C   UNL A   1      41.713  25.957  28.415  1.00  0.00     0.049 A 
ATOM     47  H   UNL A   1      42.357  27.743  29.275  1.00  0.00     0.167 HD
ATOM     48  C   UNL A   1      43.632  31.731  30.625  1.00  0.00     0.037 A 
ATOM     49  C   UNL A   1      42.799  25.172  28.269  1.00  0.00     0.037 A 
ATOM     50  C   UNL A   1      44.829  30.935  30.596  1.00  0.00     0.049 A 
ATOM     51  C   UNL A   1      44.145  25.695  28.691  1.00  0.00     0.074 A 
ATOM     52  C   UNL A   1      46.107  31.290  30.984  1.00  0.00     0.029 A 
ATOM     53  N   UNL A   1      44.891  29.619  30.162  1.00  0.00    -0.354 N 
ATOM     54  N   UNL A   1      44.454  26.880  29.163  1.00  0.00    -0.248 NA
ATOM     55  C   UNL A   1      45.288  24.781  28.565  1.00  0.00     0.031 C 
ATOM     56  C   UNL A   1      46.949  30.196  30.762  1.00  0.00     0.029 A 
ATOM     57  C   UNL A   1      46.188  29.148  30.268  1.00  0.00     0.049 A 
ATOM     58  H   UNL A   1      44.126  29.096  29.829  1.00  0.00     0.167 HD
ATOM     59  C   UNL A   1      45.820  26.843  29.417  1.00  0.00     0.074 A 
ATOM     60  C   UNL A   1      46.279  25.522  29.046  1.00  0.00     0.031 C 
ATOM     61  C   UNL A   1      46.618  27.817  29.917  1.00  0.00     0.037 A 
BRANCH  48  62
ATOM     62  C   UNL A   1      43.729  33.168  31.049  1.00  0.00     0.058 A 
ATOM     63  C   UNL A   1      43.939  34.199  30.121  1.00  0.00     0.135 A 
ATOM     64  C   UNL A   1      43.611  33.519  32.404  1.00  0.00     0.135 A 
ATOM     65  F   UNL A   1      44.076  33.914  28.816  1.00  0.00    -0.206 F 
ATOM     66  C   UNL A   1      44.071  35.524  30.522  1.00  0.00     0.059 A 
ATOM     67  C   UNL A   1      43.713  34.842  32.826  1.00  0.00     0.059 A 
ATOM     68  F   UNL A   1      43.409  32.572  33.333  1.00  0.00    -0.206 F 
ATOM     69  C   UNL A   1      43.964  35.834  31.878  1.00  0.00     0.060 A 
BRANCH  69  70
ATOM     70  S   UNL A   1      44.160  37.553  32.392  1.00  0.00     0.124 S 
ATOM     71  O   UNL A   1      43.214  37.632  33.501  1.00  0.00    -0.237 OA
ATOM     72  O   UNL A   1      45.572  37.614  32.759  1.00  0.00    -0.237 OA
ATOM     73  O   UNL A   1      43.794  38.307  31.198  1.00  0.00    -0.744 OA
ENDBRANCH  69  70
ENDBRANCH  48  62
BRANCH  49  74
ATOM     74  C   UNL A   1      42.647  23.800  27.718  1.00  0.00     0.058 A 
ATOM     75  C   UNL A   1      42.620  22.685  28.568  1.00  0.00     0.135 A 
ATOM     76  C   UNL A   1      42.482  23.579  26.342  1.00  0.00     0.135 A 
ATOM     77  F   UNL A   1      42.780  22.847  29.890  1.00  0.00    -0.206 F 
ATOM     78  C   UNL A   1      42.438  21.398  28.075  1.00  0.00     0.059 A 
ATOM     79  C   UNL A   1      42.280  22.302  25.826  1.00  0.00     0.059 A 
ATOM     80  F   UNL A   1      42.483  24.616  25.490  1.00  0.00    -0.206 F 
ATOM     81  C   UNL A   1      42.264  21.216  26.702  1.00  0.00     0.060 A 
BRANCH  81  82
ATOM     82  S   UNL A   1      41.956  19.549  26.079  1.00  0.00     0.124 S 
ATOM     83  O   UNL A   1      40.538  19.616  25.747  1.00  0.00    -0.237 OA
ATOM     84  O   UNL A   1      42.875  19.469  24.947  1.00  0.00    -0.237 OA
ATOM     85  O   UNL A   1      42.303  18.699  27.215  1.00  0.00    -0.744 OA
ENDBRANCH  81  82
ENDBRANCH  49  74
BRANCH  61  86
ATOM     86  C   UNL A   1      48.065  27.489  30.144  1.00  0.00     0.058 A 
ATOM     87  C   UNL A   1      49.029  27.694  29.147  1.00  0.00     0.135 A 
ATOM     88  C   UNL A   1      48.502  27.075  31.412  1.00  0.00     0.135 A 
ATOM     89  F   UNL A   1      48.657  28.083  27.917  1.00  0.00    -0.206 F 
ATOM     90  C   UNL A   1      50.383  27.506  29.402  1.00  0.00     0.059 A 
ATOM     91  C   UNL A   1      49.853  26.898  31.694  1.00  0.00     0.059 A 
ATOM     92  F   UNL A   1      47.616  26.874  32.401  1.00  0.00    -0.206 F 
ATOM     93  C   UNL A   1      50.787  27.117  30.681  1.00  0.00     0.060 A 
BRANCH  93  94
ATOM     94  S   UNL A   1      52.552  26.961  31.026  1.00  0.00     0.124 S 
ATOM     95  O   UNL A   1      52.691  25.520  31.206  1.00  0.00    -0.237 OA
ATOM     96  O   UNL A   1      53.158  27.512  29.817  1.00  0.00    -0.237 OA
ATOM     97  O   UNL A   1      52.734  27.766  32.231  1.00  0.00    -0.744 OA
ENDBRANCH  93  94
ENDBRANCH  61  86
ENDBRANCH  35  36
ENDBRANCH  27  30
ENDBRANCH  25  26
ENDBRANCH  24  25
ENDBRANCH   1  24
TORSDOF 17
ENDMDL
MODEL 2
REMARK VINA RESULT:     -11.6      1.232      1.940
REMARK SMILES COc1cccc(C(=O)N[C@H]2C=C[C@@H](C(=O)NCCCCNC(=O)c3ccc(-c4c5nc(c(-c6c(F)cc(S(=O)(=O)[O-])cc6F)c6ccc([nH]6)c(-c6c(F)cc(S(=O)(=O)[O-])cc6F)c6nc(c(-c7c(F)cc(S(=O)(=O)[O-])cc7F)c7ccc4[nH]7)C=C6)C=C5)cc3)C2)c1
REMARK SMILES IDX 19 1 18 2 17 3 15 4 16 5 14 7 11 8 12 9 91 10 13 11 10 12
REMARK SMILES IDX 8 13 9 14 7 16 3 17 4 18 92 19 5 20 6 21 2 22 1 23 20 24
REMARK SMILES IDX 21 25 22 26 23 27 24 29 25 30 26 31 90 32 27 33 89 34 28 35
REMARK SMILES IDX 29 36 30 37 83 38 31 39 88 40 82 41 84 42 32 43 87 44 81 45
REMARK SMILES IDX 80 46 33 48 67 49 46 50 66 51 47 52 50 53 65 54 85 55 48 56
REMARK SMILES IDX 49 57 64 59 86 60 51 61 34 62 35 63 44 64 36 65 37 66 43 67
REMARK SMILES IDX 45 68 38 69 39 70 40 71 41 72 42 73 68 74 69 75 78 76 70 77
REMARK SMILES IDX 71 78 77 79 79 80 72 81 73 82 74 83 75 84 76 85 52 86 53 87
REMARK SMILES IDX 62 88 54 89 55 90 61 91 63 92 56 93 57 94 58 95 59 96 60 97
REMARK H PARENT 17 6 10 15 22 28 84 47 50 58
REMARK Flexibility Score: inf
ROOT
ATOM      1  C   UNL A   1      32.228  29.266  25.193  1.00  0.00     0.023 C 
ENDROOT
BRANCH   1   2
ATOM      2  C   UNL A   1      31.779  28.803  23.813  1.00  0.00     0.116 C 
BRANCH   2   3
ATOM      3  N   UNL A   1      30.660  27.883  23.872  1.00  0.00    -0.356 N 
ATOM      4  C   UNL A   1      30.645  26.525  23.966  1.00  0.00     0.227 C 
ATOM      5  O   UNL A   1      29.549  25.962  24.045  1.00  0.00    -0.274 OA
ATOM      6  H   UNL A   1      29.772  28.307  23.840  1.00  0.00     0.163 HD
BRANCH   4   7
ATOM      7  C   UNL A   1      31.925  25.691  23.916  1.00  0.00     0.103 C 
ATOM      8  C   UNL A   1      32.719  23.412  24.273  1.00  0.00     0.106 C 
ATOM      9  C   UNL A   1      32.618  23.735  22.816  1.00  0.00    -0.006 C 
ATOM     10  C   UNL A   1      31.903  24.541  24.921  1.00  0.00     0.047 C 
ATOM     11  C   UNL A   1      32.226  25.001  22.619  1.00  0.00    -0.016 C 
BRANCH   8  12
ATOM     12  N   UNL A   1      32.145  22.118  24.561  1.00  0.00    -0.346 N 
ATOM     13  C   UNL A   1      32.724  20.936  24.964  1.00  0.00     0.251 C 
ATOM     14  O   UNL A   1      31.979  19.982  25.192  1.00  0.00    -0.269 OA
ATOM     15  H   UNL A   1      31.168  22.074  24.450  1.00  0.00     0.164 HD
BRANCH  13  16
ATOM     16  C   UNL A   1      34.202  20.735  25.066  1.00  0.00     0.043 A 
ATOM     17  C   UNL A   1      36.478  21.532  25.403  1.00  0.00     0.119 A 
ATOM     18  C   UNL A   1      36.972  20.278  25.058  1.00  0.00     0.046 A 
ATOM     19  C   UNL A   1      35.099  21.725  25.471  1.00  0.00     0.060 A 
ATOM     20  C   UNL A   1      36.093  19.239  24.753  1.00  0.00     0.005 A 
ATOM     21  C   UNL A   1      34.715  19.472  24.741  1.00  0.00     0.014 A 
BRANCH  17  22
ATOM     22  O   UNL A   1      37.415  22.497  25.661  1.00  0.00    -0.497 OA
ATOM     23  C   UNL A   1      38.730  22.035  25.968  1.00  0.00     0.278 C 
ENDBRANCH  17  22
ENDBRANCH  13  16
ENDBRANCH   8  12
ENDBRANCH   4   7
ENDBRANCH   2   3
ENDBRANCH   1   2
BRANCH   1  24
ATOM     24  C   UNL A   1      33.481  28.576  25.723  1.00  0.00     0.023 C 
BRANCH  24  25
ATOM     25  C   UNL A   1      33.669  28.649  27.234  1.00  0.00     0.116 C 
BRANCH  25  26
ATOM     26  N   UNL A   1      33.614  30.004  27.765  1.00  0.00    -0.352 N 
ATOM     27  C   UNL A   1      34.626  30.707  28.377  1.00  0.00     0.251 C 
ATOM     28  H   UNL A   1      32.753  30.473  27.674  1.00  0.00     0.163 HD
ATOM     29  O   UNL A   1      34.429  31.823  28.847  1.00  0.00    -0.269 OA
BRANCH  27  30
ATOM     30  C   UNL A   1      35.946  30.061  28.491  1.00  0.00     0.039 A 
ATOM     31  C   UNL A   1      36.818  30.100  27.401  1.00  0.00     0.014 A 
ATOM     32  C   UNL A   1      36.351  29.532  29.719  1.00  0.00     0.014 A 
ATOM     33  C   UNL A   1      38.137  29.677  27.566  1.00  0.00     0.010 A 
ATOM     34  C   UNL A   1      37.679  29.174  29.897  1.00  0.00     0.010 A 
ATOM     35  C   UNL A   1      38.587  29.251  28.826  1.00  0.00    -0.014 A 
BRANCH  35  36
ATOM     36  C   UNL A   1      40.000  28.875  29.071  1.00  0.00     0.031 A 
ATOM     37  C   UNL A   1      40.963  29.922  29.552  1.00  0.00     0.074 A 
ATOM     38  C   UNL A   1      40.436  27.642  28.748  1.00  0.00     0.049 A 
ATOM     39  N   UNL A   1      42.265  29.869  29.641  1.00  0.00    -0.248 NA
ATOM     40  C   UNL A   1      40.382  31.216  29.946  1.00  0.00     0.031 C 
ATOM     41  C   UNL A   1      39.602  26.554  28.232  1.00  0.00     0.029 A 
ATOM     42  N   UNL A   1      41.700  27.106  28.777  1.00  0.00    -0.354 N 
ATOM     43  C   UNL A   1      42.664  31.133  30.058  1.00  0.00     0.074 A 
ATOM     44  C   UNL A   1      41.468  31.940  30.174  1.00  0.00     0.031 C 
ATOM     45  C   UNL A   1      40.376  25.481  27.997  1.00  0.00     0.029 A 
ATOM     46  C   UNL A   1      41.763  25.816  28.305  1.00  0.00     0.049 A 
ATOM     47  H   UNL A   1      42.486  27.599  29.106  1.00  0.00     0.167 HD
ATOM     48  C   UNL A   1      43.913  31.575  30.333  1.00  0.00     0.037 A 
ATOM     49  C   UNL A   1      42.822  25.004  28.120  1.00  0.00     0.037 A 
ATOM     50  C   UNL A   1      45.089  30.751  30.261  1.00  0.00     0.049 A 
ATOM     51  C   UNL A   1      44.198  25.502  28.471  1.00  0.00     0.074 A 
ATOM     52  C   UNL A   1      46.392  31.082  30.583  1.00  0.00     0.029 A 
ATOM     53  N   UNL A   1      45.101  29.428  29.845  1.00  0.00    -0.354 N 
ATOM     54  N   UNL A   1      44.555  26.685  28.909  1.00  0.00    -0.248 NA
ATOM     55  C   UNL A   1      45.313  24.559  28.305  1.00  0.00     0.031 C 
ATOM     56  C   UNL A   1      47.198  29.965  30.338  1.00  0.00     0.029 A 
ATOM     57  C   UNL A   1      46.390  28.929  29.897  1.00  0.00     0.049 A 
ATOM     58  H   UNL A   1      44.309  28.919  29.556  1.00  0.00     0.167 HD
ATOM     59  C   UNL A   1      45.931  26.621  29.100  1.00  0.00     0.074 A 
ATOM     60  C   UNL A   1      46.343  25.284  28.728  1.00  0.00     0.031 C 
ATOM     61  C   UNL A   1      46.773  27.583  29.547  1.00  0.00     0.037 A 
BRANCH  48  62
ATOM     62  C   UNL A   1      44.062  33.016  30.730  1.00  0.00     0.058 A 
ATOM     63  C   UNL A   1      44.343  34.015  29.786  1.00  0.00     0.135 A 
ATOM     64  C   UNL A   1      43.923  33.401  32.074  1.00  0.00     0.135 A 
ATOM     65  F   UNL A   1      44.504  33.696  28.492  1.00  0.00    -0.206 F 
ATOM     66  C   UNL A   1      44.524  35.342  30.164  1.00  0.00     0.059 A 
ATOM     67  C   UNL A   1      44.072  34.727  32.470  1.00  0.00     0.059 A 
ATOM     68  F   UNL A   1      43.654  32.485  33.016  1.00  0.00    -0.206 F 
ATOM     69  C   UNL A   1      44.393  35.686  31.510  1.00  0.00     0.060 A 
BRANCH  69  70
ATOM     70  S   UNL A   1      44.651  37.406  31.993  1.00  0.00     0.124 S 
ATOM     71  O   UNL A   1      43.937  37.458  33.265  1.00  0.00    -0.237 OA
ATOM     72  O   UNL A   1      46.106  37.494  32.080  1.00  0.00    -0.237 OA
ATOM     73  O   UNL A   1      44.046  38.159  30.901  1.00  0.00    -0.744 OA
ENDBRANCH  69  70
ENDBRANCH  48  62
BRANCH  49  74
ATOM     74  C   UNL A   1      42.614  23.629  27.599  1.00  0.00     0.058 A 
ATOM     75  C   UNL A   1      42.683  23.365  26.223  1.00  0.00     0.135 A 
ATOM     76  C   UNL A   1      42.386  22.546  28.463  1.00  0.00     0.135 A 
ATOM     77  F   UNL A   1      42.892  24.369  25.359  1.00  0.00    -0.206 F 
ATOM     78  C   UNL A   1      42.530  22.078  25.719  1.00  0.00     0.059 A 
ATOM     79  C   UNL A   1      42.249  21.246  27.984  1.00  0.00     0.059 A 
ATOM     80  F   UNL A   1      42.329  22.744  29.788  1.00  0.00    -0.206 F 
ATOM     81  C   UNL A   1      42.318  21.022  26.608  1.00  0.00     0.060 A 
BRANCH  81  82
ATOM     82  S   UNL A   1      42.195  19.345  25.950  1.00  0.00     0.124 S 
ATOM     83  O   UNL A   1      42.706  18.554  27.064  1.00  0.00    -0.237 OA
ATOM     84  O   UNL A   1      40.765  19.224  25.684  1.00  0.00    -0.237 OA
ATOM     85  O   UNL A   1      43.042  19.389  24.762  1.00  0.00    -0.744 OA
ENDBRANCH  81  82
ENDBRANCH  49  74
BRANCH  61  86
ATOM     86  C   UNL A   1      48.221  27.225  29.711  1.00  0.00     0.058 A 
ATOM     87  C   UNL A   1      49.155  27.457  28.691  1.00  0.00     0.135 A 
ATOM     88  C   UNL A   1      48.694  26.752  30.946  1.00  0.00     0.135 A 
ATOM     89  F   UNL A   1      48.749  27.902  27.491  1.00  0.00    -0.206 F 
ATOM     90  C   UNL A   1      50.514  27.239  28.892  1.00  0.00     0.059 A 
ATOM     91  C   UNL A   1      50.050  26.544  31.174  1.00  0.00     0.059 A 
ATOM     92  F   UNL A   1      47.838  26.523  31.955  1.00  0.00    -0.206 F 
ATOM     93  C   UNL A   1      50.953  26.791  30.140  1.00  0.00     0.060 A 
BRANCH  93  94
ATOM     94  S   UNL A   1      52.727  26.596  30.418  1.00  0.00     0.124 S 
ATOM     95  O   UNL A   1      53.204  26.294  29.073  1.00  0.00    -0.237 OA
ATOM     96  O   UNL A   1      53.107  27.903  30.948  1.00  0.00    -0.237 OA
ATOM     97  O   UNL A   1      52.800  25.495  31.375  1.00  0.00    -0.744 OA
ENDBRANCH  93  94
ENDBRANCH  61  86
ENDBRANCH  35  36
ENDBRANCH  27  30
ENDBRANCH  25  26
ENDBRANCH  24  25
ENDBRANCH   1  24
TORSDOF 17
ENDMDL
MODEL 3
REMARK VINA RESULT:     -11.6      1.221      2.340
REMARK SMILES COc1cccc(C(=O)N[C@H]2C=C[C@@H](C(=O)NCCCCNC(=O)c3ccc(-c4c5nc(c(-c6c(F)cc(S(=O)(=O)[O-])cc6F)c6ccc([nH]6)c(-c6c(F)cc(S(=O)(=O)[O-])cc6F)c6nc(c(-c7c(F)cc(S(=O)(=O)[O-])cc7F)c7ccc4[nH]7)C=C6)C=C5)cc3)C2)c1
REMARK SMILES IDX 19 1 18 2 17 3 15 4 16 5 14 7 11 8 12 9 91 10 13 11 10 12
REMARK SMILES IDX 8 13 9 14 7 16 3 17 4 18 92 19 5 20 6 21 2 22 1 23 20 24
REMARK SMILES IDX 21 25 22 26 23 27 24 29 25 30 26 31 90 32 27 33 89 34 28 35
REMARK SMILES IDX 29 36 30 37 83 38 31 39 88 40 82 41 84 42 32 43 87 44 81 45
REMARK SMILES IDX 80 46 33 48 67 49 46 50 66 51 47 52 50 53 65 54 85 55 48 56
REMARK SMILES IDX 49 57 64 59 86 60 51 61 34 62 35 63 44 64 36 65 37 66 43 67
REMARK SMILES IDX 45 68 38 69 39 70 40 71 41 72 42 73 68 74 69 75 78 76 70 77
REMARK SMILES IDX 71 78 77 79 79 80 72 81 73 82 74 83 75 84 76 85 52 86 53 87
REMARK SMILES IDX 62 88 54 89 55 90 61 91 63 92 56 93 57 94 58 95 59 96 60 97
REMARK H PARENT 17 6 10 15 22 28 84 47 50 58
REMARK Flexibility Score: inf
ROOT
ATOM      1  C   UNL A   1      32.478  28.302  24.993  1.00  0.00     0.023 C 
ENDROOT
BRANCH   1   2
ATOM      2  C   UNL A   1      32.680  27.830  23.558  1.00  0.00     0.116 C 
BRANCH   2   3
ATOM      3  N   UNL A   1      31.951  26.612  23.266  1.00  0.00    -0.356 N 
ATOM      4  C   UNL A   1      32.399  25.332  23.134  1.00  0.00     0.227 C 
ATOM      5  O   UNL A   1      31.566  24.446  22.922  1.00  0.00    -0.274 OA
ATOM      6  H   UNL A   1      30.981  26.727  23.145  1.00  0.00     0.163 HD
BRANCH   4   7
ATOM      7  C   UNL A   1      33.887  24.981  23.178  1.00  0.00     0.103 C 
ATOM      8  C   UNL A   1      35.584  24.111  24.698  1.00  0.00     0.106 C 
ATOM      9  C   UNL A   1      35.151  23.075  23.710  1.00  0.00    -0.006 C 
ATOM     10  C   UNL A   1      34.481  25.173  24.572  1.00  0.00     0.047 C 
ATOM     11  C   UNL A   1      34.251  23.565  22.846  1.00  0.00    -0.016 C 
BRANCH   8  12
ATOM     12  N   UNL A   1      35.637  23.566  26.034  1.00  0.00    -0.346 N 
ATOM     13  C   UNL A   1      34.663  22.997  26.824  1.00  0.00     0.251 C 
ATOM     14  O   UNL A   1      35.002  22.559  27.924  1.00  0.00    -0.269 OA
ATOM     15  H   UNL A   1      36.527  23.608  26.455  1.00  0.00     0.164 HD
BRANCH  13  16
ATOM     16  C   UNL A   1      33.218  22.950  26.445  1.00  0.00     0.043 A 
ATOM     17  C   UNL A   1      30.945  23.824  26.460  1.00  0.00     0.119 A 
ATOM     18  C   UNL A   1      30.493  22.669  25.830  1.00  0.00     0.046 A 
ATOM     19  C   UNL A   1      32.311  23.981  26.695  1.00  0.00     0.060 A 
ATOM     20  C   UNL A   1      31.396  21.668  25.471  1.00  0.00     0.005 A 
ATOM     21  C   UNL A   1      32.749  21.801  25.793  1.00  0.00     0.014 A 
BRANCH  17  22
ATOM     22  O   UNL A   1      29.985  24.740  26.799  1.00  0.00    -0.497 OA
ATOM     23  C   UNL A   1      29.707  25.751  25.830  1.00  0.00     0.278 C 
ENDBRANCH  17  22
ENDBRANCH  13  16
ENDBRANCH   8  12
ENDBRANCH   4   7
ENDBRANCH   2   3
ENDBRANCH   1   2
BRANCH   1  24
ATOM     24  C   UNL A   1      33.766  28.588  25.759  1.00  0.00     0.023 C 
BRANCH  24  25
ATOM     25  C   UNL A   1      33.612  28.675  27.272  1.00  0.00     0.116 C 
BRANCH  25  26
ATOM     26  N   UNL A   1      33.568  30.041  27.778  1.00  0.00    -0.352 N 
ATOM     27  C   UNL A   1      34.587  30.748  28.374  1.00  0.00     0.251 C 
ATOM     28  H   UNL A   1      32.710  30.514  27.681  1.00  0.00     0.163 HD
ATOM     29  O   UNL A   1      34.398  31.874  28.824  1.00  0.00    -0.269 OA
BRANCH  27  30
ATOM     30  C   UNL A   1      35.902  30.094  28.497  1.00  0.00     0.039 A 
ATOM     31  C   UNL A   1      36.783  30.132  27.414  1.00  0.00     0.014 A 
ATOM     32  C   UNL A   1      36.295  29.560  29.727  1.00  0.00     0.014 A 
ATOM     33  C   UNL A   1      38.099  29.702  27.589  1.00  0.00     0.010 A 
ATOM     34  C   UNL A   1      37.620  29.195  29.914  1.00  0.00     0.010 A 
ATOM     35  C   UNL A   1      38.536  29.271  28.851  1.00  0.00    -0.014 A 
BRANCH  35  36
ATOM     36  C   UNL A   1      39.946  28.887  29.106  1.00  0.00     0.031 A 
ATOM     37  C   UNL A   1      40.910  29.928  29.598  1.00  0.00     0.074 A 
ATOM     38  C   UNL A   1      40.378  27.653  28.783  1.00  0.00     0.049 A 
ATOM     39  N   UNL A   1      42.210  29.868  29.698  1.00  0.00    -0.248 NA
ATOM     40  C   UNL A   1      40.332  31.223  29.991  1.00  0.00     0.031 C 
ATOM     41  C   UNL A   1      39.543  26.571  28.256  1.00  0.00     0.029 A 
ATOM     42  N   UNL A   1      41.639  27.111  28.821  1.00  0.00    -0.354 N 
ATOM     43  C   UNL A   1      42.612  31.128  30.122  1.00  0.00     0.074 A 
ATOM     44  C   UNL A   1      41.419  31.941  30.231  1.00  0.00     0.031 C 
ATOM     45  C   UNL A   1      40.313  25.494  28.024  1.00  0.00     0.029 A 
ATOM     46  C   UNL A   1      41.699  25.822  28.345  1.00  0.00     0.049 A 
ATOM     47  H   UNL A   1      42.425  27.598  29.158  1.00  0.00     0.167 HD
ATOM     48  C   UNL A   1      43.861  31.564  30.408  1.00  0.00     0.037 A 
ATOM     49  C   UNL A   1      42.756  25.005  28.166  1.00  0.00     0.037 A 
ATOM     50  C   UNL A   1      45.034  30.734  30.343  1.00  0.00     0.049 A 
ATOM     51  C   UNL A   1      44.132  25.495  28.529  1.00  0.00     0.074 A 
ATOM     52  C   UNL A   1      46.336  31.058  30.677  1.00  0.00     0.029 A 
ATOM     53  N   UNL A   1      45.042  29.412  29.923  1.00  0.00    -0.354 N 
ATOM     54  N   UNL A   1      44.491  26.675  28.974  1.00  0.00    -0.248 NA
ATOM     55  C   UNL A   1      45.244  24.548  28.370  1.00  0.00     0.031 C 
ATOM     56  C   UNL A   1      47.138  29.938  30.435  1.00  0.00     0.029 A 
ATOM     57  C   UNL A   1      46.329  28.906  29.984  1.00  0.00     0.049 A 
ATOM     58  H   UNL A   1      44.251  28.908  29.626  1.00  0.00     0.167 HD
ATOM     59  C   UNL A   1      45.865  26.604  29.176  1.00  0.00     0.074 A 
ATOM     60  C   UNL A   1      46.273  25.266  28.804  1.00  0.00     0.031 C 
ATOM     61  C   UNL A   1      46.708  27.560  29.633  1.00  0.00     0.037 A 
BRANCH  48  62
ATOM     62  C   UNL A   1      44.014  33.002  30.812  1.00  0.00     0.058 A 
ATOM     63  C   UNL A   1      43.976  33.399  32.157  1.00  0.00     0.135 A 
ATOM     64  C   UNL A   1      44.202  33.998  29.838  1.00  0.00     0.135 A 
ATOM     65  F   UNL A   1      43.781  32.488  33.124  1.00  0.00    -0.206 F 
ATOM     66  C   UNL A   1      44.076  34.736  32.524  1.00  0.00     0.059 A 
ATOM     67  C   UNL A   1      44.332  35.340  30.185  1.00  0.00     0.059 A 
ATOM     68  F   UNL A   1      44.247  33.672  28.537  1.00  0.00    -0.206 F 
ATOM     69  C   UNL A   1      44.246  35.700  31.529  1.00  0.00     0.060 A 
BRANCH  69  70
ATOM     70  S   UNL A   1      44.352  37.436  32.013  1.00  0.00     0.124 S 
ATOM     71  O   UNL A   1      45.738  37.527  32.461  1.00  0.00    -0.237 OA
ATOM     72  O   UNL A   1      44.041  38.131  30.767  1.00  0.00    -0.237 OA
ATOM     73  O   UNL A   1      43.344  37.556  33.061  1.00  0.00    -0.744 OA
ENDBRANCH  69  70
ENDBRANCH  48  62
BRANCH  49  74
ATOM     74  C   UNL A   1      42.545  23.632  27.638  1.00  0.00     0.058 A 
ATOM     75  C   UNL A   1      42.550  23.386  26.258  1.00  0.00     0.135 A 
ATOM     76  C   UNL A   1      42.379  22.536  28.499  1.00  0.00     0.135 A 
ATOM     77  F   UNL A   1      42.699  24.404  25.397  1.00  0.00    -0.206 F 
ATOM     78  C   UNL A   1      42.394  22.102  25.746  1.00  0.00     0.059 A 
ATOM     79  C   UNL A   1      42.241  21.239  28.011  1.00  0.00     0.059 A 
ATOM     80  F   UNL A   1      42.385  22.718  29.828  1.00  0.00    -0.206 F 
ATOM     81  C   UNL A   1      42.245  21.033  26.632  1.00  0.00     0.060 A 
BRANCH  81  82
ATOM     82  S   UNL A   1      42.117  19.361  25.960  1.00  0.00     0.124 S 
ATOM     83  O   UNL A   1      40.682  19.245  25.734  1.00  0.00    -0.237 OA
ATOM     84  O   UNL A   1      42.948  19.447  24.763  1.00  0.00    -0.237 OA
ATOM     85  O   UNL A   1      42.661  18.529  27.030  1.00  0.00    -0.744 OA
ENDBRANCH  81  82
ENDBRANCH  49  74
BRANCH  61  86
ATOM     86  C   UNL A   1      48.153  27.194  29.808  1.00  0.00     0.058 A 
ATOM     87  C   UNL A   1      49.100  27.441  28.803  1.00  0.00     0.135 A 
ATOM     88  C   UNL A   1      48.610  26.699  31.040  1.00  0.00     0.135 A 
ATOM     89  F   UNL A   1      48.708  27.907  27.606  1.00  0.00    -0.206 F 
ATOM     90  C   UNL A   1      50.455  27.214  29.016  1.00  0.00     0.059 A 
ATOM     91  C   UNL A   1      49.963  26.482  31.280  1.00  0.00     0.059 A 
ATOM     92  F   UNL A   1      47.742  26.455  32.034  1.00  0.00    -0.206 F 
ATOM     93  C   UNL A   1      50.879  26.744  30.261  1.00  0.00     0.060 A 
BRANCH  93  94
ATOM     94  S   UNL A   1      52.648  26.538  30.556  1.00  0.00     0.124 S 
ATOM     95  O   UNL A   1      53.001  27.827  31.141  1.00  0.00    -0.237 OA
ATOM     96  O   UNL A   1      52.683  25.397  31.468  1.00  0.00    -0.237 OA
ATOM     97  O   UNL A   1      53.187  26.282  29.223  1.00  0.00    -0.744 OA
ENDBRANCH  93  94
ENDBRANCH  61  86
ENDBRANCH  35  36
ENDBRANCH  27  30
ENDBRANCH  25  26
ENDBRANCH  24  25
ENDBRANCH   1  24
TORSDOF 17
ENDMDL
