MODEL 1
REMARK VINA RESULT:     -10.8      0.000      0.000
REMARK SMILES COc1cc([C@H]2CC(c3ccc(S(C)(=O)=O)cc3)=NN2c2ccc(C(=O)NCCCCNC(=O)c3ccc(-c4c5nc(c(-c6c(F)cc(S(=O)(=O)[O-])cc6F)c6ccc([nH]6)c(-c6c(F)cc(S(=O)(=O)[O-])cc6F)c6nc(c(-c7c(F)cc(S(=O)(=O)[O-])cc7F)c7ccc4[nH]7)C=C6)C=C5)cc3)cc2)cc(OC)c1OC
REMARK SMILES IDX 29 1 28 2 27 3 25 4 26 5 24 7 21 8 22 9 102 10 23 11 101 12
REMARK SMILES IDX 20 13 6 14 7 15 8 16 19 17 5 18 3 19 4 20 107 21 104 22
REMARK SMILES IDX 103 23 2 24 1 25 108 26 109 27 105 28 106 29 9 30 10 31
REMARK SMILES IDX 18 32 11 33 17 34 12 35 13 36 14 37 15 38 16 39 30 40 31 41
REMARK SMILES IDX 32 42 33 43 34 45 35 46 36 47 100 48 37 49 99 50 38 51 39 52
REMARK SMILES IDX 40 53 93 54 41 55 98 56 92 57 94 58 42 59 97 60 91 61 90 62
REMARK SMILES IDX 43 64 77 65 56 66 76 67 57 68 60 69 75 70 95 71 58 72 59 73
REMARK SMILES IDX 74 75 96 76 61 77 44 78 45 79 54 80 46 81 47 82 53 83 55 84
REMARK SMILES IDX 48 85 49 86 50 87 51 88 52 89 78 90 79 91 88 92 80 93 81 94
REMARK SMILES IDX 87 95 89 96 82 97 83 98 84 99 85 100 86 101 62 102 63 103
REMARK SMILES IDX 72 104 64 105 65 106 71 107 73 108 66 109 67 110 68 111
REMARK SMILES IDX 69 112 70 113
REMARK H PARENT 27 6 32 44 94 63 60 74
REMARK Flexibility Score: inf
ROOT
ATOM      1  C   UNL A   1      40.413  25.769  27.685  1.00  0.00     0.023 C 
ENDROOT
BRANCH   1   2
ATOM      2  C   UNL A   1      39.931  25.088  26.401  1.00  0.00     0.116 C 
BRANCH   2   3
ATOM      3  N   UNL A   1      39.968  23.649  26.549  1.00  0.00    -0.352 N 
ATOM      4  C   UNL A   1      39.074  22.667  26.207  1.00  0.00     0.251 C 
ATOM      5  O   UNL A   1      39.391  21.504  26.461  1.00  0.00    -0.269 OA
ATOM      6  H   UNL A   1      40.789  23.311  26.974  1.00  0.00     0.163 HD
BRANCH   4   7
ATOM      7  C   UNL A   1      37.777  22.930  25.515  1.00  0.00     0.039 A 
ATOM      8  C   UNL A   1      35.256  23.539  24.378  1.00  0.00     0.060 A 
ATOM      9  C   UNL A   1      35.658  24.118  25.586  1.00  0.00     0.029 A 
ATOM     10  C   UNL A   1      36.142  22.682  23.730  1.00  0.00     0.029 A 
ATOM     11  C   UNL A   1      36.891  23.804  26.159  1.00  0.00     0.016 A 
ATOM     12  C   UNL A   1      37.402  22.412  24.272  1.00  0.00     0.016 A 
BRANCH   8  13
ATOM     13  N   UNL A   1      34.024  23.847  23.838  1.00  0.00    -0.257 N 
ATOM     14  C   UNL A   1      33.226  22.964  22.989  1.00  0.00     0.144 C 
ATOM     15  C   UNL A   1      32.012  23.853  22.650  1.00  0.00     0.091 C 
ATOM     16  C   UNL A   1      32.426  25.135  23.323  1.00  0.00     0.071 C 
ATOM     17  N   UNL A   1      33.539  25.099  23.982  1.00  0.00    -0.176 NA
BRANCH  14  18
ATOM     18  C   UNL A   1      32.896  21.676  23.731  1.00  0.00    -0.015 A 
ATOM     19  C   UNL A   1      32.378  19.286  23.714  1.00  0.00     0.164 A 
ATOM     20  C   UNL A   1      32.530  20.514  23.040  1.00  0.00     0.056 A 
ATOM     21  C   UNL A   1      32.617  19.176  25.097  1.00  0.00     0.203 A 
ATOM     22  C   UNL A   1      32.965  20.351  25.796  1.00  0.00     0.164 A 
ATOM     23  C   UNL A   1      33.090  21.572  25.114  1.00  0.00     0.056 A 
BRANCH  19  24
ATOM     24  O   UNL A   1      32.111  18.189  22.933  1.00  0.00    -0.493 OA
ATOM     25  C   UNL A   1      32.176  18.498  21.542  1.00  0.00     0.278 C 
ENDBRANCH  19  24
BRANCH  21  26
ATOM     26  O   UNL A   1      32.541  18.035  25.845  1.00  0.00    -0.490 OA
ATOM     27  C   UNL A   1      33.396  16.932  25.603  1.00  0.00     0.278 C 
ENDBRANCH  21  26
BRANCH  22  28
ATOM     28  O   UNL A   1      33.215  20.501  27.139  1.00  0.00    -0.493 OA
ATOM     29  C   UNL A   1      33.820  21.704  27.588  1.00  0.00     0.278 C 
ENDBRANCH  22  28
ENDBRANCH  14  18
BRANCH  16  30
ATOM     30  C   UNL A   1      31.652  26.377  23.207  1.00  0.00    -0.002 A 
ATOM     31  C   UNL A   1      30.342  26.381  23.703  1.00  0.00     0.011 A 
ATOM     32  C   UNL A   1      32.171  27.490  22.546  1.00  0.00     0.011 A 
ATOM     33  C   UNL A   1      29.545  27.516  23.554  1.00  0.00     0.021 A 
ATOM     34  C   UNL A   1      31.365  28.618  22.371  1.00  0.00     0.021 A 
ATOM     35  C   UNL A   1      30.057  28.623  22.873  1.00  0.00     0.067 A 
BRANCH  35  36
ATOM     36  S   UNL A   1      29.026  30.056  22.659  1.00  0.00     0.175 S 
ATOM     37  C   UNL A   1      27.372  29.449  22.867  1.00  0.00     0.163 C 
ATOM     38  O   UNL A   1      29.327  30.953  23.763  1.00  0.00    -0.224 OA
ATOM     39  O   UNL A   1      29.161  30.495  21.287  1.00  0.00    -0.224 OA
ENDBRANCH  35  36
ENDBRANCH  16  30
ENDBRANCH   8  13
ENDBRANCH   4   7
ENDBRANCH   2   3
ENDBRANCH   1   2
BRANCH   1  40
ATOM     40  C   UNL A   1      39.302  26.450  28.490  1.00  0.00     0.023 C 
BRANCH  40  41
ATOM     41  C   UNL A   1      39.791  27.446  29.536  1.00  0.00     0.116 C 
BRANCH  41  42
ATOM     42  N   UNL A   1      39.183  28.759  29.398  1.00  0.00    -0.352 N 
ATOM     43  C   UNL A   1      39.183  29.805  30.285  1.00  0.00     0.251 C 
ATOM     44  H   UNL A   1      38.706  28.920  28.552  1.00  0.00     0.163 HD
ATOM     45  O   UNL A   1      38.516  30.807  30.041  1.00  0.00    -0.269 OA
BRANCH  43  46
ATOM     46  C   UNL A   1      39.948  29.706  31.545  1.00  0.00     0.039 A 
ATOM     47  C   UNL A   1      41.228  30.268  31.590  1.00  0.00     0.014 A 
ATOM     48  C   UNL A   1      39.421  29.069  32.671  1.00  0.00     0.014 A 
ATOM     49  C   UNL A   1      41.957  30.229  32.778  1.00  0.00     0.010 A 
ATOM     50  C   UNL A   1      40.120  29.094  33.875  1.00  0.00     0.010 A 
ATOM     51  C   UNL A   1      41.400  29.663  33.937  1.00  0.00    -0.014 A 
BRANCH  51  52
ATOM     52  C   UNL A   1      42.154  29.671  35.214  1.00  0.00     0.031 A 
ATOM     53  C   UNL A   1      41.968  30.786  36.206  1.00  0.00     0.074 A 
ATOM     54  C   UNL A   1      43.040  28.687  35.460  1.00  0.00     0.049 A 
ATOM     55  N   UNL A   1      42.504  30.932  37.390  1.00  0.00    -0.248 NA
ATOM     56  C   UNL A   1      41.094  31.897  35.801  1.00  0.00     0.031 C 
ATOM     57  C   UNL A   1      43.375  27.604  34.535  1.00  0.00     0.029 A 
ATOM     58  N   UNL A   1      43.824  28.443  36.559  1.00  0.00    -0.354 N 
ATOM     59  C   UNL A   1      42.041  32.152  37.868  1.00  0.00     0.074 A 
ATOM     60  C   UNL A   1      41.230  32.733  36.819  1.00  0.00     0.031 C 
ATOM     61  C   UNL A   1      44.278  26.796  35.113  1.00  0.00     0.029 A 
ATOM     62  C   UNL A   1      44.596  27.312  36.442  1.00  0.00     0.049 A 
ATOM     63  H   UNL A   1      43.832  29.021  37.355  1.00  0.00     0.167 HD
ATOM     64  C   UNL A   1      42.250  32.723  39.079  1.00  0.00     0.037 A 
ATOM     65  C   UNL A   1      45.454  26.747  37.311  1.00  0.00     0.037 A 
ATOM     66  C   UNL A   1      43.045  32.128  40.121  1.00  0.00     0.049 A 
ATOM     67  C   UNL A   1      45.620  27.354  38.675  1.00  0.00     0.074 A 
ATOM     68  C   UNL A   1      43.260  32.584  41.409  1.00  0.00     0.029 A 
ATOM     69  N   UNL A   1      43.766  30.949  39.989  1.00  0.00    -0.354 N 
ATOM     70  N   UNL A   1      45.087  28.453  39.155  1.00  0.00    -0.248 NA
ATOM     71  C   UNL A   1      46.477  26.635  39.624  1.00  0.00     0.031 C 
ATOM     72  C   UNL A   1      44.140  31.699  42.044  1.00  0.00     0.029 A 
ATOM     73  C   UNL A   1      44.439  30.669  41.166  1.00  0.00     0.049 A 
ATOM     74  H   UNL A   1      43.794  30.393  39.177  1.00  0.00     0.167 HD
ATOM     75  C   UNL A   1      45.531  28.549  40.468  1.00  0.00     0.074 A 
ATOM     76  C   UNL A   1      46.364  27.388  40.710  1.00  0.00     0.031 C 
ATOM     77  C   UNL A   1      45.271  29.511  41.390  1.00  0.00     0.037 A 
BRANCH  64  78
ATOM     78  C   UNL A   1      41.605  34.061  39.327  1.00  0.00     0.058 A 
ATOM     79  C   UNL A   1      42.322  35.262  39.195  1.00  0.00     0.135 A 
ATOM     80  C   UNL A   1      40.259  34.144  39.718  1.00  0.00     0.135 A 
ATOM     81  F   UNL A   1      43.616  35.242  38.835  1.00  0.00    -0.206 F 
ATOM     82  C   UNL A   1      41.745  36.492  39.496  1.00  0.00     0.059 A 
ATOM     83  C   UNL A   1      39.652  35.367  39.995  1.00  0.00     0.059 A 
ATOM     84  F   UNL A   1      39.523  33.030  39.855  1.00  0.00    -0.206 F 
ATOM     85  C   UNL A   1      40.413  36.533  39.906  1.00  0.00     0.060 A 
BRANCH  85  86
ATOM     86  S   UNL A   1      39.689  38.131  40.336  1.00  0.00     0.124 S 
ATOM     87  O   UNL A   1      39.445  37.962  41.765  1.00  0.00    -0.237 OA
ATOM     88  O   UNL A   1      40.753  39.064  39.982  1.00  0.00    -0.237 OA
ATOM     89  O   UNL A   1      38.496  38.198  39.498  1.00  0.00    -0.744 OA
ENDBRANCH  85  86
ENDBRANCH  64  78
BRANCH  65  90
ATOM     90  C   UNL A   1      46.171  25.506  36.917  1.00  0.00     0.058 A 
ATOM     91  C   UNL A   1      45.653  24.241  37.233  1.00  0.00     0.135 A 
ATOM     92  C   UNL A   1      47.341  25.561  36.145  1.00  0.00     0.135 A 
ATOM     93  F   UNL A   1      44.537  24.138  37.970  1.00  0.00    -0.206 F 
ATOM     94  C   UNL A   1      46.269  23.073  36.794  1.00  0.00     0.059 A 
ATOM     95  C   UNL A   1      47.964  24.409  35.678  1.00  0.00     0.059 A 
ATOM     96  F   UNL A   1      47.861  26.750  35.800  1.00  0.00    -0.206 F 
ATOM     97  C   UNL A   1      47.419  23.168  36.007  1.00  0.00     0.060 A 
BRANCH  97  98
ATOM     98  S   UNL A   1      48.151  21.650  35.356  1.00  0.00     0.124 S 
ATOM     99  O   UNL A   1      48.351  20.875  36.574  1.00  0.00    -0.237 OA
ATOM    100  O   UNL A   1      47.109  21.169  34.455  1.00  0.00    -0.237 OA
ATOM    101  O   UNL A   1      49.366  22.121  34.698  1.00  0.00    -0.744 OA
ENDBRANCH  97  98
ENDBRANCH  65  90
BRANCH  77 102
ATOM    102  C   UNL A   1      45.878  29.336  42.754  1.00  0.00     0.058 A 
ATOM    103  C   UNL A   1      45.247  28.575  43.750  1.00  0.00     0.135 A 
ATOM    104  C   UNL A   1      47.124  29.909  43.055  1.00  0.00     0.135 A 
ATOM    105  F   UNL A   1      44.053  28.009  43.514  1.00  0.00    -0.206 F 
ATOM    106  C   UNL A   1      45.818  28.410  45.008  1.00  0.00     0.059 A 
ATOM    107  C   UNL A   1      47.724  29.737  44.298  1.00  0.00     0.059 A 
ATOM    108  F   UNL A   1      47.774  30.637  42.134  1.00  0.00    -0.206 F 
ATOM    109  C   UNL A   1      47.056  28.999  45.274  1.00  0.00     0.060 A 
BRANCH 109 110
ATOM    110  S   UNL A   1      47.795  28.768  46.905  1.00  0.00     0.124 S 
ATOM    111  O   UNL A   1      47.076  29.762  47.696  1.00  0.00    -0.237 OA
ATOM    112  O   UNL A   1      47.479  27.374  47.199  1.00  0.00    -0.237 OA
ATOM    113  O   UNL A   1      49.210  29.048  46.678  1.00  0.00    -0.744 OA
ENDBRANCH 109 110
ENDBRANCH  77 102
ENDBRANCH  51  52
ENDBRANCH  43  46
ENDBRANCH  41  42
ENDBRANCH  40  41
ENDBRANCH   1  40
TORSDOF 21
ENDMDL
MODEL 2
REMARK VINA RESULT:     -10.6      0.969      7.658
REMARK SMILES COc1cc([C@H]2CC(c3ccc(S(C)(=O)=O)cc3)=NN2c2ccc(C(=O)NCCCCNC(=O)c3ccc(-c4c5nc(c(-c6c(F)cc(S(=O)(=O)[O-])cc6F)c6ccc([nH]6)c(-c6c(F)cc(S(=O)(=O)[O-])cc6F)c6nc(c(-c7c(F)cc(S(=O)(=O)[O-])cc7F)c7ccc4[nH]7)C=C6)C=C5)cc3)cc2)cc(OC)c1OC
REMARK SMILES IDX 29 1 28 2 27 3 25 4 26 5 24 7 21 8 22 9 102 10 23 11 101 12
REMARK SMILES IDX 20 13 6 14 7 15 8 16 19 17 5 18 3 19 4 20 107 21 104 22
REMARK SMILES IDX 103 23 2 24 1 25 108 26 109 27 105 28 106 29 9 30 10 31
REMARK SMILES IDX 18 32 11 33 17 34 12 35 13 36 14 37 15 38 16 39 30 40 31 41
REMARK SMILES IDX 32 42 33 43 34 45 35 46 36 47 100 48 37 49 99 50 38 51 39 52
REMARK SMILES IDX 40 53 93 54 41 55 98 56 92 57 94 58 42 59 97 60 91 61 90 62
REMARK SMILES IDX 43 64 77 65 56 66 76 67 57 68 60 69 75 70 95 71 58 72 59 73
REMARK SMILES IDX 74 75 96 76 61 77 44 78 45 79 54 80 46 81 47 82 53 83 55 84
REMARK SMILES IDX 48 85 49 86 50 87 51 88 52 89 78 90 79 91 88 92 80 93 81 94
REMARK SMILES IDX 87 95 89 96 82 97 83 98 84 99 85 100 86 101 62 102 63 103
REMARK SMILES IDX 72 104 64 105 65 106 71 107 73 108 66 109 67 110 68 111
REMARK SMILES IDX 69 112 70 113
REMARK H PARENT 27 6 32 44 94 63 60 74
REMARK Flexibility Score: inf
ROOT
ATOM      1  C   UNL A   1      40.004  25.608  28.019  1.00  0.00     0.023 C 
ENDROOT
BRANCH   1   2
ATOM      2  C   UNL A   1      39.705  25.101  26.605  1.00  0.00     0.116 C 
BRANCH   2   3
ATOM      3  N   UNL A   1      39.836  23.661  26.547  1.00  0.00    -0.352 N 
ATOM      4  C   UNL A   1      39.005  22.683  26.067  1.00  0.00     0.251 C 
ATOM      5  O   UNL A   1      39.398  21.518  26.153  1.00  0.00    -0.269 OA
ATOM      6  H   UNL A   1      40.681  23.321  26.922  1.00  0.00     0.163 HD
BRANCH   4   7
ATOM      7  C   UNL A   1      37.690  22.956  25.416  1.00  0.00     0.039 A 
ATOM      8  C   UNL A   1      35.130  23.567  24.368  1.00  0.00     0.060 A 
ATOM      9  C   UNL A   1      35.523  24.042  25.623  1.00  0.00     0.029 A 
ATOM     10  C   UNL A   1      36.041  22.815  23.630  1.00  0.00     0.029 A 
ATOM     11  C   UNL A   1      36.777  23.725  26.151  1.00  0.00     0.016 A 
ATOM     12  C   UNL A   1      37.320  22.548  24.132  1.00  0.00     0.016 A 
BRANCH   8  13
ATOM     13  N   UNL A   1      33.879  23.874  23.872  1.00  0.00    -0.257 N 
ATOM     14  C   UNL A   1      33.054  22.992  23.048  1.00  0.00     0.144 C 
ATOM     15  C   UNL A   1      31.827  23.879  22.755  1.00  0.00     0.091 C 
ATOM     16  C   UNL A   1      32.261  25.159  23.418  1.00  0.00     0.071 C 
ATOM     17  N   UNL A   1      33.396  25.124  24.038  1.00  0.00    -0.176 NA
BRANCH  14  18
ATOM     18  C   UNL A   1      32.754  21.700  23.796  1.00  0.00    -0.015 A 
ATOM     19  C   UNL A   1      32.154  19.329  23.788  1.00  0.00     0.164 A 
ATOM     20  C   UNL A   1      32.283  20.565  23.124  1.00  0.00     0.056 A 
ATOM     21  C   UNL A   1      32.522  19.183  25.139  1.00  0.00     0.203 A 
ATOM     22  C   UNL A   1      32.977  20.330  25.821  1.00  0.00     0.164 A 
ATOM     23  C   UNL A   1      33.077  21.561  25.152  1.00  0.00     0.056 A 
BRANCH  19  24
ATOM     24  O   UNL A   1      31.775  18.258  23.018  1.00  0.00    -0.493 OA
ATOM     25  C   UNL A   1      32.784  17.894  22.077  1.00  0.00     0.278 C 
ENDBRANCH  19  24
BRANCH  21  26
ATOM     26  O   UNL A   1      32.480  18.029  25.870  1.00  0.00    -0.490 OA
ATOM     27  C   UNL A   1      33.401  16.977  25.647  1.00  0.00     0.278 C 
ENDBRANCH  21  26
BRANCH  22  28
ATOM     28  O   UNL A   1      33.361  20.444  27.136  1.00  0.00    -0.493 OA
ATOM     29  C   UNL A   1      33.695  21.729  27.638  1.00  0.00     0.278 C 
ENDBRANCH  22  28
ENDBRANCH  14  18
BRANCH  16  30
ATOM     30  C   UNL A   1      31.480  26.399  23.334  1.00  0.00    -0.002 A 
ATOM     31  C   UNL A   1      30.326  26.501  24.121  1.00  0.00     0.011 A 
ATOM     32  C   UNL A   1      31.827  27.409  22.436  1.00  0.00     0.011 A 
ATOM     33  C   UNL A   1      29.516  27.632  24.024  1.00  0.00     0.021 A 
ATOM     34  C   UNL A   1      31.001  28.530  22.317  1.00  0.00     0.021 A 
ATOM     35  C   UNL A   1      29.849  28.633  23.108  1.00  0.00     0.067 A 
BRANCH  35  36
ATOM     36  S   UNL A   1      28.796  30.058  22.966  1.00  0.00     0.175 S 
ATOM     37  C   UNL A   1      29.154  30.718  21.359  1.00  0.00     0.163 C 
ATOM     38  O   UNL A   1      27.427  29.565  22.963  1.00  0.00    -0.224 OA
ATOM     39  O   UNL A   1      29.233  31.030  23.945  1.00  0.00    -0.224 OA
ENDBRANCH  35  36
ENDBRANCH  16  30
ENDBRANCH   8  13
ENDBRANCH   4   7
ENDBRANCH   2   3
ENDBRANCH   1   2
BRANCH   1  40
ATOM     40  C   UNL A   1      39.261  26.893  28.397  1.00  0.00     0.023 C 
BRANCH  40  41
ATOM     41  C   UNL A   1      40.140  28.135  28.487  1.00  0.00     0.116 C 
BRANCH  41  42
ATOM     42  N   UNL A   1      39.382  29.374  28.426  1.00  0.00    -0.352 N 
ATOM     43  C   UNL A   1      39.199  30.321  29.401  1.00  0.00     0.251 C 
ATOM     44  H   UNL A   1      38.939  29.558  27.567  1.00  0.00     0.163 HD
ATOM     45  O   UNL A   1      38.428  31.255  29.201  1.00  0.00    -0.269 OA
BRANCH  43  46
ATOM     46  C   UNL A   1      39.896  30.191  30.697  1.00  0.00     0.039 A 
ATOM     47  C   UNL A   1      41.159  30.776  30.833  1.00  0.00     0.014 A 
ATOM     48  C   UNL A   1      39.322  29.503  31.769  1.00  0.00     0.014 A 
ATOM     49  C   UNL A   1      41.823  30.708  32.058  1.00  0.00     0.010 A 
ATOM     50  C   UNL A   1      39.953  29.499  33.010  1.00  0.00     0.010 A 
ATOM     51  C   UNL A   1      41.215  30.090  33.163  1.00  0.00    -0.014 A 
BRANCH  51  52
ATOM     52  C   UNL A   1      41.897  30.066  34.481  1.00  0.00     0.031 A 
ATOM     53  C   UNL A   1      42.792  28.919  34.859  1.00  0.00     0.074 A 
ATOM     54  C   UNL A   1      41.672  31.066  35.354  1.00  0.00     0.049 A 
ATOM     55  N   UNL A   1      43.506  28.755  35.942  1.00  0.00    -0.248 NA
ATOM     56  C   UNL A   1      42.871  27.797  33.912  1.00  0.00     0.031 C 
ATOM     57  C   UNL A   1      40.752  32.184  35.138  1.00  0.00     0.029 A 
ATOM     58  N   UNL A   1      42.196  31.302  36.599  1.00  0.00    -0.354 N 
ATOM     59  C   UNL A   1      44.110  27.511  35.813  1.00  0.00     0.074 A 
ATOM     60  C   UNL A   1      43.630  26.938  34.575  1.00  0.00     0.031 C 
ATOM     61  C   UNL A   1      40.793  33.000  36.203  1.00  0.00     0.029 A 
ATOM     62  C   UNL A   1      41.731  32.455  37.182  1.00  0.00     0.049 A 
ATOM     63  H   UNL A   1      42.845  30.702  37.034  1.00  0.00     0.167 HD
ATOM     64  C   UNL A   1      45.003  26.912  36.638  1.00  0.00     0.037 A 
ATOM     65  C   UNL A   1      42.033  33.020  38.366  1.00  0.00     0.037 A 
ATOM     66  C   UNL A   1      45.487  27.499  37.860  1.00  0.00     0.049 A 
ATOM     67  C   UNL A   1      43.078  32.379  39.235  1.00  0.00     0.074 A 
ATOM     68  C   UNL A   1      46.447  27.014  38.730  1.00  0.00     0.029 A 
ATOM     69  N   UNL A   1      45.038  28.700  38.391  1.00  0.00    -0.354 N 
ATOM     70  N   UNL A   1      43.725  31.253  39.048  1.00  0.00    -0.248 NA
ATOM     71  C   UNL A   1      43.454  33.095  40.460  1.00  0.00     0.031 C 
ATOM     72  C   UNL A   1      46.551  27.904  39.806  1.00  0.00     0.029 A 
ATOM     73  C   UNL A   1      45.688  28.966  39.585  1.00  0.00     0.049 A 
ATOM     74  H   UNL A   1      44.356  29.279  37.980  1.00  0.00     0.167 HD
ATOM     75  C   UNL A   1      44.598  31.133  40.122  1.00  0.00     0.074 A 
ATOM     76  C   UNL A   1      44.406  32.310  40.947  1.00  0.00     0.031 C 
ATOM     77  C   UNL A   1      45.481  30.140  40.399  1.00  0.00     0.037 A 
BRANCH  64  78
ATOM     78  C   UNL A   1      45.505  25.550  36.235  1.00  0.00     0.058 A 
ATOM     79  C   UNL A   1      44.851  24.374  36.637  1.00  0.00     0.135 A 
ATOM     80  C   UNL A   1      46.662  25.419  35.451  1.00  0.00     0.135 A 
ATOM     81  F   UNL A   1      43.746  24.440  37.397  1.00  0.00    -0.206 F 
ATOM     82  C   UNL A   1      45.357  23.116  36.324  1.00  0.00     0.059 A 
ATOM     83  C   UNL A   1      47.170  24.170  35.101  1.00  0.00     0.059 A 
ATOM     84  F   UNL A   1      47.325  26.508  35.033  1.00  0.00    -0.206 F 
ATOM     85  C   UNL A   1      46.523  23.024  35.566  1.00  0.00     0.060 A 
BRANCH  85  86
ATOM     86  S   UNL A   1      47.194  21.387  35.204  1.00  0.00     0.124 S 
ATOM     87  O   UNL A   1      47.298  20.816  36.543  1.00  0.00    -0.237 OA
ATOM     88  O   UNL A   1      46.166  20.807  34.347  1.00  0.00    -0.237 OA
ATOM     89  O   UNL A   1      48.463  21.679  34.545  1.00  0.00    -0.744 OA
ENDBRANCH  85  86
ENDBRANCH  64  78
BRANCH  65  90
ATOM     90  C   UNL A   1      41.367  34.290  38.754  1.00  0.00     0.058 A 
ATOM     91  C   UNL A   1      40.102  34.289  39.359  1.00  0.00     0.135 A 
ATOM     92  C   UNL A   1      42.021  35.523  38.604  1.00  0.00     0.135 A 
ATOM     93  F   UNL A   1      39.438  33.134  39.521  1.00  0.00    -0.206 F 
ATOM     94  C   UNL A   1      39.508  35.465  39.805  1.00  0.00     0.059 A 
ATOM     95  C   UNL A   1      41.456  36.709  39.060  1.00  0.00     0.059 A 
ATOM     96  F   UNL A   1      43.243  35.572  38.051  1.00  0.00    -0.206 F 
ATOM     97  C   UNL A   1      40.198  36.670  39.661  1.00  0.00     0.060 A 
BRANCH  97  98
ATOM     98  S   UNL A   1      39.464  38.176  40.337  1.00  0.00     0.124 S 
ATOM     99  O   UNL A   1      39.310  37.822  41.743  1.00  0.00    -0.237 OA
ATOM    100  O   UNL A   1      40.484  39.175  40.037  1.00  0.00    -0.237 OA
ATOM    101  O   UNL A   1      38.224  38.312  39.579  1.00  0.00    -0.744 OA
ENDBRANCH  97  98
ENDBRANCH  65  90
BRANCH  77 102
ATOM    102  C   UNL A   1      46.321  30.293  41.636  1.00  0.00     0.058 A 
ATOM    103  C   UNL A   1      47.550  30.970  41.614  1.00  0.00     0.135 A 
ATOM    104  C   UNL A   1      45.872  29.786  42.867  1.00  0.00     0.135 A 
ATOM    105  F   UNL A   1      48.026  31.470  40.462  1.00  0.00    -0.206 F 
ATOM    106  C   UNL A   1      48.319  31.115  42.764  1.00  0.00     0.059 A 
ATOM    107  C   UNL A   1      46.614  29.941  44.033  1.00  0.00     0.059 A 
ATOM    108  F   UNL A   1      44.698  29.140  42.944  1.00  0.00    -0.206 F 
ATOM    109  C   UNL A   1      47.844  30.593  43.969  1.00  0.00     0.060 A 
BRANCH 109 110
ATOM    110  S   UNL A   1      48.843  30.800  45.458  1.00  0.00     0.124 S 
ATOM    111  O   UNL A   1      48.445  29.634  46.241  1.00  0.00    -0.237 OA
ATOM    112  O   UNL A   1      50.203  30.776  44.932  1.00  0.00    -0.237 OA
ATOM    113  O   UNL A   1      48.404  32.089  45.984  1.00  0.00    -0.744 OA
ENDBRANCH 109 110
ENDBRANCH  77 102
ENDBRANCH  51  52
ENDBRANCH  43  46
ENDBRANCH  41  42
ENDBRANCH  40  41
ENDBRANCH   1  40
TORSDOF 21
ENDMDL
MODEL 3
REMARK VINA RESULT:     -10.5      6.396      9.770
REMARK SMILES COc1cc([C@H]2CC(c3ccc(S(C)(=O)=O)cc3)=NN2c2ccc(C(=O)NCCCCNC(=O)c3ccc(-c4c5nc(c(-c6c(F)cc(S(=O)(=O)[O-])cc6F)c6ccc([nH]6)c(-c6c(F)cc(S(=O)(=O)[O-])cc6F)c6nc(c(-c7c(F)cc(S(=O)(=O)[O-])cc7F)c7ccc4[nH]7)C=C6)C=C5)cc3)cc2)cc(OC)c1OC
REMARK SMILES IDX 29 1 28 2 27 3 25 4 26 5 24 7 21 8 22 9 102 10 23 11 101 12
REMARK SMILES IDX 20 13 6 14 7 15 8 16 19 17 5 18 3 19 4 20 107 21 104 22
REMARK SMILES IDX 103 23 2 24 1 25 108 26 109 27 105 28 106 29 9 30 10 31
REMARK SMILES IDX 18 32 11 33 17 34 12 35 13 36 14 37 15 38 16 39 30 40 31 41
REMARK SMILES IDX 32 42 33 43 34 45 35 46 36 47 100 48 37 49 99 50 38 51 39 52
REMARK SMILES IDX 40 53 93 54 41 55 98 56 92 57 94 58 42 59 97 60 91 61 90 62
REMARK SMILES IDX 43 64 77 65 56 66 76 67 57 68 60 69 75 70 95 71 58 72 59 73
REMARK SMILES IDX 74 75 96 76 61 77 44 78 45 79 54 80 46 81 47 82 53 83 55 84
REMARK SMILES IDX 48 85 49 86 50 87 51 88 52 89 78 90 79 91 88 92 80 93 81 94
REMARK SMILES IDX 87 95 89 96 82 97 83 98 84 99 85 100 86 101 62 102 63 103
REMARK SMILES IDX 72 104 64 105 65 106 71 107 73 108 66 109 67 110 68 111
REMARK SMILES IDX 69 112 70 113
REMARK H PARENT 27 6 32 44 94 63 60 74
REMARK Flexibility Score: inf
ROOT
ATOM      1  C   UNL A   1      40.727  25.927  25.611  1.00  0.00     0.023 C 
ENDROOT
BRANCH   1   2
ATOM      2  C   UNL A   1      39.644  25.330  26.514  1.00  0.00     0.116 C 
BRANCH   2   3
ATOM      3  N   UNL A   1      39.775  23.890  26.572  1.00  0.00    -0.352 N 
ATOM      4  C   UNL A   1      38.946  22.876  26.166  1.00  0.00     0.251 C 
ATOM      5  O   UNL A   1      39.337  21.722  26.347  1.00  0.00    -0.269 OA
ATOM      6  H   UNL A   1      40.616  23.580  26.978  1.00  0.00     0.163 HD
BRANCH   4   7
ATOM      7  C   UNL A   1      37.634  23.098  25.488  1.00  0.00     0.039 A 
ATOM      8  C   UNL A   1      35.074  23.604  24.387  1.00  0.00     0.060 A 
ATOM      9  C   UNL A   1      35.417  24.084  25.655  1.00  0.00     0.029 A 
ATOM     10  C   UNL A   1      36.034  22.902  23.664  1.00  0.00     0.029 A 
ATOM     11  C   UNL A   1      36.671  23.818  26.209  1.00  0.00     0.016 A 
ATOM     12  C   UNL A   1      37.311  22.686  24.192  1.00  0.00     0.016 A 
BRANCH   8  13
ATOM     13  N   UNL A   1      33.822  23.861  23.865  1.00  0.00    -0.257 N 
ATOM     14  C   UNL A   1      33.040  22.936  23.047  1.00  0.00     0.144 C 
ATOM     15  C   UNL A   1      31.790  23.777  22.716  1.00  0.00     0.091 C 
ATOM     16  C   UNL A   1      32.171  25.083  23.361  1.00  0.00     0.071 C 
ATOM     17  N   UNL A   1      33.296  25.097  23.998  1.00  0.00    -0.176 NA
BRANCH  14  18
ATOM     18  C   UNL A   1      32.769  21.650  23.816  1.00  0.00    -0.015 A 
ATOM     19  C   UNL A   1      32.199  19.272  23.848  1.00  0.00     0.164 A 
ATOM     20  C   UNL A   1      32.300  20.501  23.167  1.00  0.00     0.056 A 
ATOM     21  C   UNL A   1      32.593  19.148  25.194  1.00  0.00     0.203 A 
ATOM     22  C   UNL A   1      33.045  20.309  25.853  1.00  0.00     0.164 A 
ATOM     23  C   UNL A   1      33.118  21.533  25.167  1.00  0.00     0.056 A 
BRANCH  19  24
ATOM     24  O   UNL A   1      31.820  18.187  23.098  1.00  0.00    -0.493 OA
ATOM     25  C   UNL A   1      32.787  17.865  22.100  1.00  0.00     0.278 C 
ENDBRANCH  19  24
BRANCH  21  26
ATOM     26  O   UNL A   1      32.578  18.002  25.940  1.00  0.00    -0.490 OA
ATOM     27  C   UNL A   1      33.408  16.900  25.622  1.00  0.00     0.278 C 
ENDBRANCH  21  26
BRANCH  22  28
ATOM     28  O   UNL A   1      33.451  20.444  27.160  1.00  0.00    -0.493 OA
ATOM     29  C   UNL A   1      33.533  21.748  27.715  1.00  0.00     0.278 C 
ENDBRANCH  22  28
ENDBRANCH  14  18
BRANCH  16  30
ATOM     30  C   UNL A   1      31.352  26.295  23.239  1.00  0.00    -0.002 A 
ATOM     31  C   UNL A   1      31.964  27.452  22.740  1.00  0.00     0.011 A 
ATOM     32  C   UNL A   1      30.031  26.320  23.688  1.00  0.00     0.011 A 
ATOM     33  C   UNL A   1      31.246  28.645  22.671  1.00  0.00     0.021 A 
ATOM     34  C   UNL A   1      29.318  27.521  23.644  1.00  0.00     0.021 A 
ATOM     35  C   UNL A   1      29.930  28.677  23.140  1.00  0.00     0.067 A 
BRANCH  35  36
ATOM     36  S   UNL A   1      29.028  30.207  23.078  1.00  0.00     0.175 S 
ATOM     37  C   UNL A   1      29.390  30.871  21.473  1.00  0.00     0.163 C 
ATOM     38  O   UNL A   1      27.616  29.861  23.122  1.00  0.00    -0.224 OA
ATOM     39  O   UNL A   1      29.605  31.100  24.060  1.00  0.00    -0.224 OA
ENDBRANCH  35  36
ENDBRANCH  16  30
ENDBRANCH   8  13
ENDBRANCH   4   7
ENDBRANCH   2   3
ENDBRANCH   1   2
BRANCH   1  40
ATOM     40  C   UNL A   1      41.790  26.740  26.357  1.00  0.00     0.023 C 
BRANCH  40  41
ATOM     41  C   UNL A   1      41.381  28.170  26.690  1.00  0.00     0.116 C 
BRANCH  41  42
ATOM     42  N   UNL A   1      40.440  28.250  27.795  1.00  0.00    -0.352 N 
ATOM     43  C   UNL A   1      40.641  27.958  29.120  1.00  0.00     0.251 C 
ATOM     44  H   UNL A   1      39.534  28.554  27.560  1.00  0.00     0.163 HD
ATOM     45  O   UNL A   1      39.690  27.977  29.896  1.00  0.00    -0.269 OA
BRANCH  43  46
ATOM     46  C   UNL A   1      41.988  27.583  29.598  1.00  0.00     0.039 A 
ATOM     47  C   UNL A   1      42.423  26.271  29.392  1.00  0.00     0.014 A 
ATOM     48  C   UNL A   1      42.817  28.504  30.243  1.00  0.00     0.014 A 
ATOM     49  C   UNL A   1      43.706  25.898  29.793  1.00  0.00     0.010 A 
ATOM     50  C   UNL A   1      44.121  28.151  30.577  1.00  0.00     0.010 A 
ATOM     51  C   UNL A   1      44.574  26.842  30.367  1.00  0.00    -0.014 A 
BRANCH  51  52
ATOM     52  C   UNL A   1      45.958  26.459  30.741  1.00  0.00     0.031 A 
ATOM     53  C   UNL A   1      47.115  26.792  29.841  1.00  0.00     0.074 A 
ATOM     54  C   UNL A   1      46.163  25.772  31.881  1.00  0.00     0.049 A 
ATOM     55  N   UNL A   1      48.391  26.581  30.029  1.00  0.00    -0.248 NA
ATOM     56  C   UNL A   1      46.793  27.414  28.548  1.00  0.00     0.031 C 
ATOM     57  C   UNL A   1      45.111  25.309  32.788  1.00  0.00     0.029 A 
ATOM     58  N   UNL A   1      47.324  25.337  32.468  1.00  0.00    -0.354 N 
ATOM     59  C   UNL A   1      49.025  27.033  28.878  1.00  0.00     0.074 A 
ATOM     60  C   UNL A   1      47.985  27.474  27.973  1.00  0.00     0.031 C 
ATOM     61  C   UNL A   1      45.675  24.677  33.829  1.00  0.00     0.029 A 
ATOM     62  C   UNL A   1      47.126  24.676  33.656  1.00  0.00     0.049 A 
ATOM     63  H   UNL A   1      48.215  25.485  32.075  1.00  0.00     0.167 HD
ATOM     64  C   UNL A   1      50.352  27.100  28.610  1.00  0.00     0.037 A 
ATOM     65  C   UNL A   1      48.011  24.141  34.516  1.00  0.00     0.037 A 
ATOM     66  C   UNL A   1      51.378  26.675  29.525  1.00  0.00     0.049 A 
ATOM     67  C   UNL A   1      49.480  24.287  34.238  1.00  0.00     0.074 A 
ATOM     68  C   UNL A   1      52.751  26.768  29.386  1.00  0.00     0.029 A 
ATOM     69  N   UNL A   1      51.141  26.064  30.749  1.00  0.00    -0.354 N 
ATOM     70  N   UNL A   1      50.070  24.818  33.193  1.00  0.00    -0.248 NA
ATOM     71  C   UNL A   1      50.404  23.789  35.264  1.00  0.00     0.031 C 
ATOM     72  C   UNL A   1      53.345  26.180  30.510  1.00  0.00     0.029 A 
ATOM     73  C   UNL A   1      52.342  25.759  31.370  1.00  0.00     0.049 A 
ATOM     74  H   UNL A   1      50.250  25.874  31.122  1.00  0.00     0.167 HD
ATOM     75  C   UNL A   1      51.435  24.734  33.442  1.00  0.00     0.074 A 
ATOM     76  C   UNL A   1      51.581  24.114  34.745  1.00  0.00     0.031 C 
ATOM     77  C   UNL A   1      52.472  25.135  32.664  1.00  0.00     0.037 A 
BRANCH  64  78
ATOM     78  C   UNL A   1      50.754  27.654  27.269  1.00  0.00     0.058 A 
ATOM     79  C   UNL A   1      50.964  29.029  27.072  1.00  0.00     0.135 A 
ATOM     80  C   UNL A   1      50.916  26.804  26.164  1.00  0.00     0.135 A 
ATOM     81  F   UNL A   1      50.812  29.890  28.091  1.00  0.00    -0.206 F 
ATOM     82  C   UNL A   1      51.265  29.548  25.816  1.00  0.00     0.059 A 
ATOM     83  C   UNL A   1      51.246  27.297  24.904  1.00  0.00     0.059 A 
ATOM     84  F   UNL A   1      50.734  25.481  26.295  1.00  0.00    -0.206 F 
ATOM     85  C   UNL A   1      51.392  28.674  24.736  1.00  0.00     0.060 A 
BRANCH  85  86
ATOM     86  S   UNL A   1      51.738  29.363  23.103  1.00  0.00     0.124 S 
ATOM     87  O   UNL A   1      50.641  28.808  22.317  1.00  0.00    -0.237 OA
ATOM     88  O   UNL A   1      51.677  30.800  23.347  1.00  0.00    -0.237 OA
ATOM     89  O   UNL A   1      53.064  28.840  22.789  1.00  0.00    -0.744 OA
ENDBRANCH  85  86
ENDBRANCH  64  78
BRANCH  65  90
ATOM     90  C   UNL A   1      47.512  23.471  35.745  1.00  0.00     0.058 A 
ATOM     91  C   UNL A   1      47.154  22.115  35.735  1.00  0.00     0.135 A 
ATOM     92  C   UNL A   1      47.466  24.152  36.971  1.00  0.00     0.135 A 
ATOM     93  F   UNL A   1      47.181  21.423  34.586  1.00  0.00    -0.206 F 
ATOM     94  C   UNL A   1      46.770  21.456  36.899  1.00  0.00     0.059 A 
ATOM     95  C   UNL A   1      47.104  23.511  38.150  1.00  0.00     0.059 A 
ATOM     96  F   UNL A   1      47.821  25.446  37.034  1.00  0.00    -0.206 F 
ATOM     97  C   UNL A   1      46.758  22.160  38.104  1.00  0.00     0.060 A 
BRANCH  97  98
ATOM     98  S   UNL A   1      46.358  21.270  39.624  1.00  0.00     0.124 S 
ATOM     99  O   UNL A   1      47.619  21.351  40.353  1.00  0.00    -0.237 OA
ATOM    100  O   UNL A   1      45.257  22.062  40.163  1.00  0.00    -0.237 OA
ATOM    101  O   UNL A   1      45.988  19.942  39.146  1.00  0.00    -0.744 OA
ENDBRANCH  97  98
ENDBRANCH  65  90
BRANCH  77 102
ATOM    102  C   UNL A   1      53.858  24.935  33.211  1.00  0.00     0.058 A 
ATOM    103  C   UNL A   1      54.573  23.748  32.991  1.00  0.00     0.135 A 
ATOM    104  C   UNL A   1      54.491  25.960  33.933  1.00  0.00     0.135 A 
ATOM    105  F   UNL A   1      54.011  22.737  32.310  1.00  0.00    -0.206 F 
ATOM    106  C   UNL A   1      55.859  23.573  33.493  1.00  0.00     0.059 A 
ATOM    107  C   UNL A   1      55.784  25.815  34.423  1.00  0.00     0.059 A 
ATOM    108  F   UNL A   1      53.854  27.120  34.161  1.00  0.00    -0.206 F 
ATOM    109  C   UNL A   1      56.455  24.611  34.212  1.00  0.00     0.060 A 
BRANCH 109 110
ATOM    110  S   UNL A   1      58.129  24.379  34.846  1.00  0.00     0.124 S 
ATOM    111  O   UNL A   1      58.195  25.407  35.880  1.00  0.00    -0.237 OA
ATOM    112  O   UNL A   1      58.097  23.001  35.324  1.00  0.00    -0.237 OA
ATOM    113  O   UNL A   1      58.969  24.609  33.674  1.00  0.00    -0.744 OA
ENDBRANCH 109 110
ENDBRANCH  77 102
ENDBRANCH  51  52
ENDBRANCH  43  46
ENDBRANCH  41  42
ENDBRANCH  40  41
ENDBRANCH   1  40
TORSDOF 21
ENDMDL
