MODEL 1
REMARK VINA RESULT:     -13.2      0.000      0.000
REMARK SMILES C[C@]12CCC[C@](C)(C(=O)NCCCCNC(=O)c3ccc(-c4c5nc(c(-c6c(F)cc(S(=O)(=O)[O-])cc6F)c6ccc([nH]6)c(-c6c(F)cc(S(=O)(=O)[O-])cc6F)c6nc(c(-c7c(F)cc(S(=O)(=O)[O-])cc7F)c7ccc4[nH]7)C=C6)C=C5)cc3)[C@@H]1CC[C@]13C=C(CO)[C@H](CC[C@H]12)C3
REMARK SMILES IDX 13 1 12 2 11 3 10 4 8 5 9 6 6 8 1 9 2 10 3 11 84 12 95 13
REMARK SMILES IDX 4 14 85 15 87 16 94 17 5 18 7 19 86 20 88 21 96 22 93 23
REMARK SMILES IDX 89 24 92 25 90 26 91 27 14 29 15 30 16 31 17 33 18 34 19 35
REMARK SMILES IDX 83 36 20 37 82 38 21 39 22 40 23 41 76 42 24 43 81 44 75 45
REMARK SMILES IDX 77 46 25 47 80 48 74 49 73 50 26 52 60 53 39 54 59 55 40 56
REMARK SMILES IDX 43 57 58 58 78 59 41 60 42 61 57 63 79 64 44 65 27 66 28 67
REMARK SMILES IDX 37 68 29 69 30 70 36 71 38 72 31 73 32 74 33 75 34 76 35 77
REMARK SMILES IDX 61 78 62 79 71 80 63 81 64 82 70 83 72 84 65 85 66 86 67 87
REMARK SMILES IDX 68 88 69 89 45 90 46 91 55 92 47 93 48 94 54 95 56 96 49 97
REMARK SMILES IDX 50 98 51 99 52 100 53 101
REMARK H PARENT 10 7 91 28 15 32 77 51 43 62
REMARK Flexibility Score: inf
ROOT
ATOM      1  C   UNL A   1      37.661  23.934  26.023  1.00  0.00     0.023 C 
ENDROOT
BRANCH   1   2
ATOM      2  C   UNL A   1      37.421  22.627  25.294  1.00  0.00     0.023 C 
BRANCH   2   3
ATOM      3  C   UNL A   1      35.981  22.366  24.841  1.00  0.00     0.116 C 
BRANCH   3   4
ATOM      4  N   UNL A   1      35.446  22.851  23.530  1.00  0.00    -0.356 N 
ATOM      5  C   UNL A   1      34.163  23.343  23.172  1.00  0.00     0.226 C 
ATOM      6  O   UNL A   1      34.016  23.962  22.123  1.00  0.00    -0.274 OA
ATOM      7  H   UNL A   1      36.094  22.825  22.790  1.00  0.00     0.163 HD
BRANCH   5   8
ATOM      8  C   UNL A   1      32.994  22.944  24.110  1.00  0.00     0.050 C 
ATOM      9  C   UNL A   1      34.180  24.950  26.006  1.00  0.00     0.012 C 
ATOM     10  C   UNL A   1      32.609  25.001  25.781  1.00  0.00    -0.025 C 
ATOM     11  C   UNL A   1      31.946  24.094  26.815  1.00  0.00     0.007 C 
ATOM     12  C   UNL A   1      32.272  24.451  24.328  1.00  0.00     0.010 C 
ATOM     13  C   UNL A   1      32.210  26.483  26.108  1.00  0.00     0.005 C 
ATOM     14  C   UNL A   1      32.662  22.779  26.875  1.00  0.00     0.002 C 
ATOM     15  C   UNL A   1      32.707  25.658  23.402  1.00  0.00     0.006 C 
ATOM     16  C   UNL A   1      32.497  27.568  25.006  1.00  0.00    -0.008 C 
ATOM     17  C   UNL A   1      30.976  26.946  26.877  1.00  0.00     0.006 C 
ATOM     18  C   UNL A   1      32.917  22.176  25.505  1.00  0.00     0.017 C 
ATOM     19  C   UNL A   1      32.697  21.585  23.311  1.00  0.00     0.022 C 
ATOM     20  C   UNL A   1      32.095  27.032  23.659  1.00  0.00     0.012 C 
ATOM     21  C   UNL A   1      33.903  28.003  25.285  1.00  0.00    -0.018 C 
ATOM     22  C   UNL A   1      31.865  28.957  25.304  1.00  0.00     0.019 C 
ATOM     23  C   UNL A   1      31.453  28.267  27.605  1.00  0.00     0.008 C 
ATOM     24  C   UNL A   1      33.866  28.749  26.410  1.00  0.00    -0.045 C 
ATOM     25  C   UNL A   1      32.405  29.167  26.721  1.00  0.00     0.018 C 
BRANCH  24  26
ATOM     26  C   UNL A   1      35.076  29.108  27.201  1.00  0.00     0.187 C 
BRANCH  26  27
ATOM     27  O   UNL A   1      34.703  29.830  28.376  1.00  0.00    -0.392 OA
ATOM     28  H   UNL A   1      34.276  30.664  28.122  1.00  0.00     0.211 HD
ENDBRANCH  26  27
ENDBRANCH  24  26
ENDBRANCH   5   8
ENDBRANCH   3   4
ENDBRANCH   2   3
ENDBRANCH   1   2
BRANCH   1  29
ATOM     29  C   UNL A   1      38.913  23.899  26.869  1.00  0.00     0.116 C 
BRANCH  29  30
ATOM     30  N   UNL A   1      40.095  24.231  26.090  1.00  0.00    -0.352 N 
ATOM     31  C   UNL A   1      40.890  25.345  26.181  1.00  0.00     0.251 C 
ATOM     32  H   UNL A   1      40.360  23.570  25.409  1.00  0.00     0.163 HD
ATOM     33  O   UNL A   1      41.695  25.599  25.304  1.00  0.00    -0.269 OA
BRANCH  31  34
ATOM     34  C   UNL A   1      40.734  26.221  27.358  1.00  0.00     0.039 A 
ATOM     35  C   UNL A   1      39.895  25.815  28.392  1.00  0.00     0.014 A 
ATOM     36  C   UNL A   1      41.426  27.436  27.434  1.00  0.00     0.014 A 
ATOM     37  C   UNL A   1      39.752  26.634  29.508  1.00  0.00     0.010 A 
ATOM     38  C   UNL A   1      41.378  28.187  28.596  1.00  0.00     0.010 A 
ATOM     39  C   UNL A   1      40.499  27.820  29.620  1.00  0.00    -0.014 A 
BRANCH  39  40
ATOM     40  C   UNL A   1      40.303  28.730  30.769  1.00  0.00     0.031 A 
ATOM     41  C   UNL A   1      41.156  28.570  31.999  1.00  0.00     0.074 A 
ATOM     42  C   UNL A   1      39.356  29.685  30.704  1.00  0.00     0.049 A 
ATOM     43  N   UNL A   1      41.163  29.280  33.096  1.00  0.00    -0.248 NA
ATOM     44  C   UNL A   1      42.110  27.445  32.013  1.00  0.00     0.031 C 
ATOM     45  C   UNL A   1      38.431  29.885  29.585  1.00  0.00     0.029 A 
ATOM     46  N   UNL A   1      39.023  30.672  31.591  1.00  0.00    -0.354 N 
ATOM     47  C   UNL A   1      42.106  28.685  33.926  1.00  0.00     0.074 A 
ATOM     48  C   UNL A   1      42.596  27.511  33.242  1.00  0.00     0.031 C 
ATOM     49  C   UNL A   1      37.666  30.959  29.836  1.00  0.00     0.029 A 
ATOM     50  C   UNL A   1      38.023  31.502  31.142  1.00  0.00     0.049 A 
ATOM     51  H   UNL A   1      39.458  30.778  32.469  1.00  0.00     0.167 HD
ATOM     52  C   UNL A   1      42.552  29.101  35.135  1.00  0.00     0.037 A 
ATOM     53  C   UNL A   1      37.469  32.583  31.720  1.00  0.00     0.037 A 
ATOM     54  C   UNL A   1      42.074  30.289  35.791  1.00  0.00     0.049 A 
ATOM     55  C   UNL A   1      37.994  33.038  33.054  1.00  0.00     0.074 A 
ATOM     56  C   UNL A   1      42.491  30.837  36.989  1.00  0.00     0.029 A 
ATOM     57  N   UNL A   1      41.073  31.114  35.298  1.00  0.00    -0.354 N 
ATOM     58  N   UNL A   1      38.939  32.506  33.795  1.00  0.00    -0.248 NA
ATOM     59  C   UNL A   1      37.393  34.250  33.622  1.00  0.00     0.031 C 
ATOM     60  C   UNL A   1      41.707  31.966  37.247  1.00  0.00     0.029 A 
ATOM     61  C   UNL A   1      40.843  32.157  36.179  1.00  0.00     0.049 A 
ATOM     62  H   UNL A   1      40.595  30.978  34.448  1.00  0.00     0.167 HD
ATOM     63  C   UNL A   1      39.064  33.335  34.904  1.00  0.00     0.074 A 
ATOM     64  C   UNL A   1      38.113  34.413  34.724  1.00  0.00     0.031 C 
ATOM     65  C   UNL A   1      39.889  33.218  35.976  1.00  0.00     0.037 A 
BRANCH  52  66
ATOM     66  C   UNL A   1      43.608  28.270  35.812  1.00  0.00     0.058 A 
ATOM     67  C   UNL A   1      43.277  27.226  36.693  1.00  0.00     0.135 A 
ATOM     68  C   UNL A   1      44.970  28.505  35.564  1.00  0.00     0.135 A 
ATOM     69  F   UNL A   1      41.992  26.968  36.985  1.00  0.00    -0.206 F 
ATOM     70  C   UNL A   1      44.256  26.466  37.325  1.00  0.00     0.059 A 
ATOM     71  C   UNL A   1      45.966  27.736  36.160  1.00  0.00     0.059 A 
ATOM     72  F   UNL A   1      45.346  29.493  34.737  1.00  0.00    -0.206 F 
ATOM     73  C   UNL A   1      45.599  26.728  37.049  1.00  0.00     0.060 A 
BRANCH  73  74
ATOM     74  S   UNL A   1      46.855  25.724  37.868  1.00  0.00     0.124 S 
ATOM     75  O   UNL A   1      47.807  25.503  36.782  1.00  0.00    -0.237 OA
ATOM     76  O   UNL A   1      47.309  26.604  38.939  1.00  0.00    -0.237 OA
ATOM     77  O   UNL A   1      46.117  24.542  38.303  1.00  0.00    -0.744 OA
ENDBRANCH  73  74
ENDBRANCH  52  66
BRANCH  53  78
ATOM     78  C   UNL A   1      36.386  33.326  31.022  1.00  0.00     0.058 A 
ATOM     79  C   UNL A   1      36.664  34.138  29.911  1.00  0.00     0.135 A 
ATOM     80  C   UNL A   1      35.051  33.229  31.442  1.00  0.00     0.135 A 
ATOM     81  F   UNL A   1      37.925  34.264  29.470  1.00  0.00    -0.206 F 
ATOM     82  C   UNL A   1      35.661  34.847  29.257  1.00  0.00     0.059 A 
ATOM     83  C   UNL A   1      34.027  33.904  30.786  1.00  0.00     0.059 A 
ATOM     84  F   UNL A   1      34.729  32.449  32.484  1.00  0.00    -0.206 F 
ATOM     85  C   UNL A   1      34.344  34.722  29.701  1.00  0.00     0.060 A 
BRANCH  85  86
ATOM     86  S   UNL A   1      33.045  35.614  28.821  1.00  0.00     0.124 S 
ATOM     87  O   UNL A   1      32.234  36.117  29.923  1.00  0.00    -0.237 OA
ATOM     88  O   UNL A   1      33.808  36.613  28.080  1.00  0.00    -0.237 OA
ATOM     89  O   UNL A   1      32.423  34.577  28.001  1.00  0.00    -0.744 OA
ENDBRANCH  85  86
ENDBRANCH  53  78
BRANCH  65  90
ATOM     90  C   UNL A   1      39.821  34.306  37.013  1.00  0.00     0.058 A 
ATOM     91  C   UNL A   1      38.984  34.208  38.137  1.00  0.00     0.135 A 
ATOM     92  C   UNL A   1      40.617  35.456  36.887  1.00  0.00     0.135 A 
ATOM     93  F   UNL A   1      38.201  33.131  38.305  1.00  0.00    -0.206 F 
ATOM     94  C   UNL A   1      38.903  35.234  39.072  1.00  0.00     0.059 A 
ATOM     95  C   UNL A   1      40.579  36.477  37.829  1.00  0.00     0.059 A 
ATOM     96  F   UNL A   1      41.448  35.593  35.841  1.00  0.00    -0.206 F 
ATOM     97  C   UNL A   1      39.702  36.367  38.907  1.00  0.00     0.060 A 
BRANCH  97  98
ATOM     98  S   UNL A   1      39.581  37.695  40.122  1.00  0.00     0.124 S 
ATOM     99  O   UNL A   1      40.889  38.329  39.995  1.00  0.00    -0.237 OA
ATOM    100  O   UNL A   1      38.448  38.471  39.627  1.00  0.00    -0.237 OA
ATOM    101  O   UNL A   1      39.346  36.986  41.377  1.00  0.00    -0.744 OA
ENDBRANCH  97  98
ENDBRANCH  65  90
ENDBRANCH  39  40
ENDBRANCH  31  34
ENDBRANCH  29  30
ENDBRANCH   1  29
TORSDOF 16
ENDMDL
MODEL 2
REMARK VINA RESULT:     -13.1      6.629     11.995
REMARK SMILES C[C@]12CCC[C@](C)(C(=O)NCCCCNC(=O)c3ccc(-c4c5nc(c(-c6c(F)cc(S(=O)(=O)[O-])cc6F)c6ccc([nH]6)c(-c6c(F)cc(S(=O)(=O)[O-])cc6F)c6nc(c(-c7c(F)cc(S(=O)(=O)[O-])cc7F)c7ccc4[nH]7)C=C6)C=C5)cc3)[C@@H]1CC[C@]13C=C(CO)[C@H](CC[C@H]12)C3
REMARK SMILES IDX 13 1 12 2 11 3 10 4 8 5 9 6 6 8 1 9 2 10 3 11 84 12 95 13
REMARK SMILES IDX 4 14 85 15 87 16 94 17 5 18 7 19 86 20 88 21 96 22 93 23
REMARK SMILES IDX 89 24 92 25 90 26 91 27 14 29 15 30 16 31 17 33 18 34 19 35
REMARK SMILES IDX 83 36 20 37 82 38 21 39 22 40 23 41 76 42 24 43 81 44 75 45
REMARK SMILES IDX 77 46 25 47 80 48 74 49 73 50 26 52 60 53 39 54 59 55 40 56
REMARK SMILES IDX 43 57 58 58 78 59 41 60 42 61 57 63 79 64 44 65 27 66 28 67
REMARK SMILES IDX 37 68 29 69 30 70 36 71 38 72 31 73 32 74 33 75 34 76 35 77
REMARK SMILES IDX 61 78 62 79 71 80 63 81 64 82 70 83 72 84 65 85 66 86 67 87
REMARK SMILES IDX 68 88 69 89 45 90 46 91 55 92 47 93 48 94 54 95 56 96 49 97
REMARK SMILES IDX 50 98 51 99 52 100 53 101
REMARK H PARENT 10 7 91 28 15 32 77 51 43 62
REMARK Flexibility Score: inf
ROOT
ATOM      1  C   UNL A   1      34.105  29.463  26.842  1.00  0.00     0.023 C 
ENDROOT
BRANCH   1   2
ATOM      2  C   UNL A   1      32.988  28.724  27.553  1.00  0.00     0.023 C 
BRANCH   2   3
ATOM      3  C   UNL A   1      31.893  28.139  26.656  1.00  0.00     0.116 C 
BRANCH   3   4
ATOM      4  N   UNL A   1      31.147  26.890  27.003  1.00  0.00    -0.356 N 
ATOM      5  C   UNL A   1      30.921  25.702  26.257  1.00  0.00     0.226 C 
ATOM      6  O   UNL A   1      30.538  24.685  26.828  1.00  0.00    -0.274 OA
ATOM      7  H   UNL A   1      30.744  26.891  27.901  1.00  0.00     0.163 HD
BRANCH   5   8
ATOM      8  C   UNL A   1      31.069  25.825  24.719  1.00  0.00     0.050 C 
ATOM      9  C   UNL A   1      34.019  25.908  25.275  1.00  0.00     0.012 C 
ATOM     10  C   UNL A   1      33.526  24.952  24.108  1.00  0.00    -0.025 C 
ATOM     11  C   UNL A   1      33.530  25.743  22.803  1.00  0.00     0.007 C 
ATOM     12  C   UNL A   1      32.039  24.481  24.414  1.00  0.00     0.010 C 
ATOM     13  C   UNL A   1      34.633  23.844  24.009  1.00  0.00     0.005 C 
ATOM     14  C   UNL A   1      32.885  27.080  23.013  1.00  0.00     0.002 C 
ATOM     15  C   UNL A   1      32.254  23.408  25.557  1.00  0.00     0.006 C 
ATOM     16  C   UNL A   1      34.607  22.699  25.086  1.00  0.00    -0.008 C 
ATOM     17  C   UNL A   1      35.204  23.239  22.729  1.00  0.00     0.006 C 
ATOM     18  C   UNL A   1      31.561  26.992  23.752  1.00  0.00     0.017 C 
ATOM     19  C   UNL A   1      29.538  26.260  24.516  1.00  0.00     0.022 C 
ATOM     20  C   UNL A   1      33.191  22.233  25.289  1.00  0.00     0.012 C 
ATOM     21  C   UNL A   1      35.418  23.249  26.218  1.00  0.00    -0.018 C 
ATOM     22  C   UNL A   1      35.579  21.523  24.784  1.00  0.00     0.019 C 
ATOM     23  C   UNL A   1      36.700  22.891  23.107  1.00  0.00     0.008 C 
ATOM     24  C   UNL A   1      36.708  23.231  25.820  1.00  0.00    -0.045 C 
ATOM     25  C   UNL A   1      36.867  22.324  24.573  1.00  0.00     0.018 C 
BRANCH  24  26
ATOM     26  C   UNL A   1      37.795  23.977  26.515  1.00  0.00     0.187 C 
BRANCH  26  27
ATOM     27  O   UNL A   1      38.969  24.011  25.702  1.00  0.00    -0.392 OA
ATOM     28  H   UNL A   1      39.418  23.152  25.744  1.00  0.00     0.211 HD
ENDBRANCH  26  27
ENDBRANCH  24  26
ENDBRANCH   5   8
ENDBRANCH   3   4
ENDBRANCH   2   3
ENDBRANCH   1   2
BRANCH   1  29
ATOM     29  C   UNL A   1      35.433  29.317  27.551  1.00  0.00     0.116 C 
BRANCH  29  30
ATOM     30  N   UNL A   1      35.356  29.769  28.930  1.00  0.00    -0.352 N 
ATOM     31  C   UNL A   1      36.328  29.722  29.897  1.00  0.00     0.251 C 
ATOM     32  H   UNL A   1      34.495  30.160  29.206  1.00  0.00     0.163 HD
ATOM     33  O   UNL A   1      36.042  29.910  31.065  1.00  0.00    -0.269 OA
BRANCH  31  34
ATOM     34  C   UNL A   1      37.714  29.430  29.482  1.00  0.00     0.039 A 
ATOM     35  C   UNL A   1      38.095  29.704  28.171  1.00  0.00     0.014 A 
ATOM     36  C   UNL A   1      38.629  28.894  30.396  1.00  0.00     0.014 A 
ATOM     37  C   UNL A   1      39.404  29.438  27.778  1.00  0.00     0.010 A 
ATOM     38  C   UNL A   1      39.958  28.748  30.037  1.00  0.00     0.010 A 
ATOM     39  C   UNL A   1      40.345  28.967  28.711  1.00  0.00    -0.014 A 
BRANCH  39  40
ATOM     40  C   UNL A   1      41.718  28.618  28.287  1.00  0.00     0.031 A 
ATOM     41  C   UNL A   1      42.783  29.682  28.267  1.00  0.00     0.074 A 
ATOM     42  C   UNL A   1      41.995  27.354  27.916  1.00  0.00     0.049 A 
ATOM     43  N   UNL A   1      44.049  29.575  27.959  1.00  0.00    -0.248 NA
ATOM     44  C   UNL A   1      42.369  31.054  28.611  1.00  0.00     0.031 C 
ATOM     45  C   UNL A   1      41.021  26.262  27.836  1.00  0.00     0.029 A 
ATOM     46  N   UNL A   1      43.177  26.773  27.546  1.00  0.00    -0.354 N 
ATOM     47  C   UNL A   1      44.573  30.858  28.061  1.00  0.00     0.074 A 
ATOM     48  C   UNL A   1      43.476  31.742  28.384  1.00  0.00     0.031 C 
ATOM     49  C   UNL A   1      41.657  25.132  27.486  1.00  0.00     0.029 A 
ATOM     50  C   UNL A   1      43.071  25.427  27.286  1.00  0.00     0.049 A 
ATOM     51  H   UNL A   1      44.024  27.271  27.474  1.00  0.00     0.167 HD
ATOM     52  C   UNL A   1      45.859  31.260  27.936  1.00  0.00     0.037 A 
ATOM     53  C   UNL A   1      44.016  24.534  26.935  1.00  0.00     0.037 A 
ATOM     54  C   UNL A   1      46.945  30.363  27.643  1.00  0.00     0.049 A 
ATOM     55  C   UNL A   1      45.442  24.999  26.822  1.00  0.00     0.074 A 
ATOM     56  C   UNL A   1      48.294  30.647  27.546  1.00  0.00     0.029 A 
ATOM     57  N   UNL A   1      46.802  29.003  27.402  1.00  0.00    -0.354 N 
ATOM     58  N   UNL A   1      45.934  26.205  26.993  1.00  0.00    -0.248 NA
ATOM     59  C   UNL A   1      46.444  23.981  26.485  1.00  0.00     0.031 C 
ATOM     60  C   UNL A   1      48.962  29.469  27.197  1.00  0.00     0.029 A 
ATOM     61  C   UNL A   1      48.038  28.438  27.137  1.00  0.00     0.049 A 
ATOM     62  H   UNL A   1      45.949  28.513  27.417  1.00  0.00     0.167 HD
ATOM     63  C   UNL A   1      47.307  26.084  26.813  1.00  0.00     0.074 A 
ATOM     64  C   UNL A   1      47.567  24.685  26.540  1.00  0.00     0.031 C 
ATOM     65  C   UNL A   1      48.269  27.040  26.868  1.00  0.00     0.037 A 
BRANCH  52  66
ATOM     66  C   UNL A   1      46.155  32.723  28.122  1.00  0.00     0.058 A 
ATOM     67  C   UNL A   1      46.580  33.242  29.358  1.00  0.00     0.135 A 
ATOM     68  C   UNL A   1      46.033  33.619  27.047  1.00  0.00     0.135 A 
ATOM     69  F   UNL A   1      46.695  32.437  30.426  1.00  0.00    -0.206 F 
ATOM     70  C   UNL A   1      46.844  34.597  29.528  1.00  0.00     0.059 A 
ATOM     71  C   UNL A   1      46.324  34.973  27.187  1.00  0.00     0.059 A 
ATOM     72  F   UNL A   1      45.625  33.181  25.846  1.00  0.00    -0.206 F 
ATOM     73  C   UNL A   1      46.715  35.455  28.434  1.00  0.00     0.060 A 
BRANCH  73  74
ATOM     74  S   UNL A   1      47.074  37.208  28.670  1.00  0.00     0.124 S 
ATOM     75  O   UNL A   1      47.325  37.264  30.108  1.00  0.00    -0.237 OA
ATOM     76  O   UNL A   1      48.240  37.405  27.816  1.00  0.00    -0.237 OA
ATOM     77  O   UNL A   1      45.853  37.870  28.221  1.00  0.00    -0.744 OA
ENDBRANCH  73  74
ENDBRANCH  52  66
BRANCH  53  78
ATOM     78  C   UNL A   1      43.647  23.112  26.708  1.00  0.00     0.058 A 
ATOM     79  C   UNL A   1      43.289  22.276  27.778  1.00  0.00     0.135 A 
ATOM     80  C   UNL A   1      43.630  22.564  25.417  1.00  0.00     0.135 A 
ATOM     81  F   UNL A   1      43.290  22.753  29.031  1.00  0.00    -0.206 F 
ATOM     82  C   UNL A   1      42.953  20.941  27.578  1.00  0.00     0.059 A 
ATOM     83  C   UNL A   1      43.268  21.240  25.189  1.00  0.00     0.059 A 
ATOM     84  F   UNL A   1      43.941  23.326  24.358  1.00  0.00    -0.206 F 
ATOM     85  C   UNL A   1      42.944  20.432  26.278  1.00  0.00     0.060 A 
BRANCH  85  86
ATOM     86  S   UNL A   1      42.467  18.709  26.027  1.00  0.00     0.124 S 
ATOM     87  O   UNL A   1      41.069  18.845  25.634  1.00  0.00    -0.237 OA
ATOM     88  O   UNL A   1      43.389  18.287  24.978  1.00  0.00    -0.237 OA
ATOM     89  O   UNL A   1      42.699  18.103  27.335  1.00  0.00    -0.744 OA
ENDBRANCH  85  86
ENDBRANCH  53  78
BRANCH  65  90
ATOM     90  C   UNL A   1      49.691  26.592  26.664  1.00  0.00     0.058 A 
ATOM     91  C   UNL A   1      50.279  26.548  25.389  1.00  0.00     0.135 A 
ATOM     92  C   UNL A   1      50.480  26.219  27.764  1.00  0.00     0.135 A 
ATOM     93  F   UNL A   1      49.569  26.893  24.304  1.00  0.00    -0.206 F 
ATOM     94  C   UNL A   1      51.583  26.100  25.208  1.00  0.00     0.059 A 
ATOM     95  C   UNL A   1      51.797  25.803  27.609  1.00  0.00     0.059 A 
ATOM     96  F   UNL A   1      49.973  26.260  29.006  1.00  0.00    -0.206 F 
ATOM     97  C   UNL A   1      52.333  25.725  26.325  1.00  0.00     0.060 A 
BRANCH  97  98
ATOM     98  S   UNL A   1      54.020  25.139  26.075  1.00  0.00     0.124 S 
ATOM     99  O   UNL A   1      54.599  25.337  27.400  1.00  0.00    -0.237 OA
ATOM    100  O   UNL A   1      53.814  23.750  25.675  1.00  0.00    -0.237 OA
ATOM    101  O   UNL A   1      54.534  26.017  25.028  1.00  0.00    -0.744 OA
ENDBRANCH  97  98
ENDBRANCH  65  90
ENDBRANCH  39  40
ENDBRANCH  31  34
ENDBRANCH  29  30
ENDBRANCH   1  29
TORSDOF 16
ENDMDL
MODEL 3
REMARK VINA RESULT:     -12.9      6.505     12.025
REMARK SMILES C[C@]12CCC[C@](C)(C(=O)NCCCCNC(=O)c3ccc(-c4c5nc(c(-c6c(F)cc(S(=O)(=O)[O-])cc6F)c6ccc([nH]6)c(-c6c(F)cc(S(=O)(=O)[O-])cc6F)c6nc(c(-c7c(F)cc(S(=O)(=O)[O-])cc7F)c7ccc4[nH]7)C=C6)C=C5)cc3)[C@@H]1CC[C@]13C=C(CO)[C@H](CC[C@H]12)C3
REMARK SMILES IDX 13 1 12 2 11 3 10 4 8 5 9 6 6 8 1 9 2 10 3 11 84 12 95 13
REMARK SMILES IDX 4 14 85 15 87 16 94 17 5 18 7 19 86 20 88 21 96 22 93 23
REMARK SMILES IDX 89 24 92 25 90 26 91 27 14 29 15 30 16 31 17 33 18 34 19 35
REMARK SMILES IDX 83 36 20 37 82 38 21 39 22 40 23 41 76 42 24 43 81 44 75 45
REMARK SMILES IDX 77 46 25 47 80 48 74 49 73 50 26 52 60 53 39 54 59 55 40 56
REMARK SMILES IDX 43 57 58 58 78 59 41 60 42 61 57 63 79 64 44 65 27 66 28 67
REMARK SMILES IDX 37 68 29 69 30 70 36 71 38 72 31 73 32 74 33 75 34 76 35 77
REMARK SMILES IDX 61 78 62 79 71 80 63 81 64 82 70 83 72 84 65 85 66 86 67 87
REMARK SMILES IDX 68 88 69 89 45 90 46 91 55 92 47 93 48 94 54 95 56 96 49 97
REMARK SMILES IDX 50 98 51 99 52 100 53 101
REMARK H PARENT 10 7 91 28 15 32 77 51 43 62
REMARK Flexibility Score: inf
ROOT
ATOM      1  C   UNL A   1      34.904  31.382  28.355  1.00  0.00     0.023 C 
ENDROOT
BRANCH   1   2
ATOM      2  C   UNL A   1      35.251  30.400  27.254  1.00  0.00     0.023 C 
BRANCH   2   3
ATOM      3  C   UNL A   1      34.598  29.017  27.360  1.00  0.00     0.116 C 
BRANCH   3   4
ATOM      4  N   UNL A   1      33.197  28.821  27.847  1.00  0.00    -0.356 N 
ATOM      5  C   UNL A   1      32.027  28.386  27.169  1.00  0.00     0.226 C 
ATOM      6  O   UNL A   1      31.051  28.013  27.812  1.00  0.00    -0.274 OA
ATOM      7  H   UNL A   1      33.063  29.029  28.799  1.00  0.00     0.163 HD
BRANCH   5   8
ATOM      8  C   UNL A   1      32.040  28.532  25.625  1.00  0.00     0.050 C 
ATOM      9  C   UNL A   1      33.941  26.208  25.684  1.00  0.00     0.012 C 
ATOM     10  C   UNL A   1      32.756  26.152  24.629  1.00  0.00    -0.025 C 
ATOM     11  C   UNL A   1      33.238  26.791  23.329  1.00  0.00     0.007 C 
ATOM     12  C   UNL A   1      31.524  26.990  25.184  1.00  0.00     0.010 C 
ATOM     13  C   UNL A   1      32.532  24.621  24.364  1.00  0.00     0.005 C 
ATOM     14  C   UNL A   1      33.932  28.086  23.624  1.00  0.00     0.002 C 
ATOM     15  C   UNL A   1      30.933  26.027  26.291  1.00  0.00     0.006 C 
ATOM     16  C   UNL A   1      31.732  23.810  25.448  1.00  0.00    -0.008 C 
ATOM     17  C   UNL A   1      32.252  23.961  23.017  1.00  0.00     0.006 C 
ATOM     18  C   UNL A   1      33.151  28.978  24.573  1.00  0.00     0.017 C 
ATOM     19  C   UNL A   1      31.442  30.021  25.672  1.00  0.00     0.022 C 
ATOM     20  C   UNL A   1      30.536  24.609  25.890  1.00  0.00     0.012 C 
ATOM     21  C   UNL A   1      32.782  23.374  26.422  1.00  0.00    -0.018 C 
ATOM     22  C   UNL A   1      31.350  22.369  25.006  1.00  0.00     0.019 C 
ATOM     23  C   UNL A   1      32.917  22.532  23.147  1.00  0.00     0.008 C 
ATOM     24  C   UNL A   1      33.498  22.402  25.816  1.00  0.00    -0.045 C 
ATOM     25  C   UNL A   1      32.734  21.876  24.573  1.00  0.00     0.018 C 
BRANCH  24  26
ATOM     26  C   UNL A   1      34.819  21.923  26.311  1.00  0.00     0.187 C 
BRANCH  26  27
ATOM     27  O   UNL A   1      34.694  21.411  27.639  1.00  0.00    -0.392 OA
ATOM     28  H   UNL A   1      33.811  21.617  27.984  1.00  0.00     0.211 HD
ENDBRANCH  26  27
ENDBRANCH  24  26
ENDBRANCH   5   8
ENDBRANCH   3   4
ENDBRANCH   2   3
ENDBRANCH   1   2
BRANCH   1  29
ATOM     29  C   UNL A   1      36.101  31.733  29.210  1.00  0.00     0.116 C 
BRANCH  29  30
ATOM     30  N   UNL A   1      35.958  31.230  30.566  1.00  0.00    -0.352 N 
ATOM     31  C   UNL A   1      36.721  30.291  31.211  1.00  0.00     0.251 C 
ATOM     32  H   UNL A   1      35.217  31.613  31.089  1.00  0.00     0.163 HD
ATOM     33  O   UNL A   1      36.334  29.795  32.253  1.00  0.00    -0.269 OA
BRANCH  31  34
ATOM     34  C   UNL A   1      38.008  29.898  30.605  1.00  0.00     0.039 A 
ATOM     35  C   UNL A   1      39.048  29.496  31.438  1.00  0.00     0.014 A 
ATOM     36  C   UNL A   1      38.175  29.924  29.215  1.00  0.00     0.014 A 
ATOM     37  C   UNL A   1      40.261  29.116  30.870  1.00  0.00     0.010 A 
ATOM     38  C   UNL A   1      39.337  29.429  28.649  1.00  0.00     0.010 A 
ATOM     39  C   UNL A   1      40.409  29.072  29.473  1.00  0.00    -0.014 A 
BRANCH  39  40
ATOM     40  C   UNL A   1      41.714  28.736  28.862  1.00  0.00     0.031 A 
ATOM     41  C   UNL A   1      42.771  29.801  28.735  1.00  0.00     0.074 A 
ATOM     42  C   UNL A   1      41.936  27.484  28.421  1.00  0.00     0.049 A 
ATOM     43  N   UNL A   1      43.985  29.704  28.261  1.00  0.00    -0.248 NA
ATOM     44  C   UNL A   1      42.410  31.162  29.171  1.00  0.00     0.031 C 
ATOM     45  C   UNL A   1      40.956  26.395  28.437  1.00  0.00     0.029 A 
ATOM     46  N   UNL A   1      43.058  26.915  27.882  1.00  0.00    -0.354 N 
ATOM     47  C   UNL A   1      44.522  30.984  28.332  1.00  0.00     0.074 A 
ATOM     48  C   UNL A   1      43.480  31.857  28.821  1.00  0.00     0.031 C 
ATOM     49  C   UNL A   1      41.537  25.276  27.973  1.00  0.00     0.029 A 
ATOM     50  C   UNL A   1      42.914  25.578  27.599  1.00  0.00     0.049 A 
ATOM     51  H   UNL A   1      43.890  27.415  27.715  1.00  0.00     0.167 HD
ATOM     52  C   UNL A   1      45.782  31.390  28.052  1.00  0.00     0.037 A 
ATOM     53  C   UNL A   1      43.802  24.696  27.101  1.00  0.00     0.037 A 
ATOM     54  C   UNL A   1      46.818  30.502  27.592  1.00  0.00     0.049 A 
ATOM     55  C   UNL A   1      45.202  25.165  26.816  1.00  0.00     0.074 A 
ATOM     56  C   UNL A   1      48.144  30.790  27.328  1.00  0.00     0.029 A 
ATOM     57  N   UNL A   1      46.640  29.151  27.332  1.00  0.00    -0.354 N 
ATOM     58  N   UNL A   1      45.716  26.365  26.957  1.00  0.00    -0.248 NA
ATOM     59  C   UNL A   1      46.148  24.158  26.320  1.00  0.00     0.031 C 
ATOM     60  C   UNL A   1      48.757  29.623  26.860  1.00  0.00     0.029 A 
ATOM     61  C   UNL A   1      47.829  28.594  26.890  1.00  0.00     0.049 A 
ATOM     62  H   UNL A   1      45.795  28.660  27.444  1.00  0.00     0.167 HD
ATOM     63  C   UNL A   1      47.054  26.251  26.595  1.00  0.00     0.074 A 
ATOM     64  C   UNL A   1      47.270  24.860  26.249  1.00  0.00     0.031 C 
ATOM     65  C   UNL A   1      48.018  27.205  26.552  1.00  0.00     0.037 A 
BRANCH  52  66
ATOM     66  C   UNL A   1      46.105  32.847  28.241  1.00  0.00     0.058 A 
ATOM     67  C   UNL A   1      45.981  33.776  27.193  1.00  0.00     0.135 A 
ATOM     68  C   UNL A   1      46.525  33.330  29.492  1.00  0.00     0.135 A 
ATOM     69  F   UNL A   1      45.605  33.369  25.970  1.00  0.00    -0.206 F 
ATOM     70  C   UNL A   1      46.289  35.121  27.370  1.00  0.00     0.059 A 
ATOM     71  C   UNL A   1      46.806  34.677  29.699  1.00  0.00     0.059 A 
ATOM     72  F   UNL A   1      46.666  32.487  30.528  1.00  0.00    -0.206 F 
ATOM     73  C   UNL A   1      46.698  35.562  28.629  1.00  0.00     0.060 A 
BRANCH  73  74
ATOM     74  S   UNL A   1      47.081  37.313  28.843  1.00  0.00     0.124 S 
ATOM     75  O   UNL A   1      45.760  37.869  29.120  1.00  0.00    -0.237 OA
ATOM     76  O   UNL A   1      48.009  37.294  29.969  1.00  0.00    -0.237 OA
ATOM     77  O   UNL A   1      47.665  37.693  27.560  1.00  0.00    -0.744 OA
ENDBRANCH  73  74
ENDBRANCH  52  66
BRANCH  53  78
ATOM     78  C   UNL A   1      43.401  23.281  26.882  1.00  0.00     0.058 A 
ATOM     79  C   UNL A   1      43.244  22.397  27.960  1.00  0.00     0.135 A 
ATOM     80  C   UNL A   1      43.153  22.788  25.591  1.00  0.00     0.135 A 
ATOM     81  F   UNL A   1      43.469  22.820  29.213  1.00  0.00    -0.206 F 
ATOM     82  C   UNL A   1      42.881  21.068  27.766  1.00  0.00     0.059 A 
ATOM     83  C   UNL A   1      42.760  21.472  25.375  1.00  0.00     0.059 A 
ATOM     84  F   UNL A   1      43.267  23.599  24.529  1.00  0.00    -0.206 F 
ATOM     85  C   UNL A   1      42.639  20.615  26.468  1.00  0.00     0.060 A 
BRANCH  85  86
ATOM     86  S   UNL A   1      42.129  18.899  26.231  1.00  0.00     0.124 S 
ATOM     87  O   UNL A   1      42.263  18.364  27.580  1.00  0.00    -0.237 OA
ATOM     88  O   UNL A   1      40.765  19.051  25.736  1.00  0.00    -0.237 OA
ATOM     89  O   UNL A   1      43.090  18.396  25.253  1.00  0.00    -0.744 OA
ENDBRANCH  85  86
ENDBRANCH  53  78
BRANCH  65  90
ATOM     90  C   UNL A   1      49.399  26.765  26.151  1.00  0.00     0.058 A 
ATOM     91  C   UNL A   1      50.298  26.207  27.076  1.00  0.00     0.135 A 
ATOM     92  C   UNL A   1      49.822  26.887  24.817  1.00  0.00     0.135 A 
ATOM     93  F   UNL A   1      49.945  26.069  28.363  1.00  0.00    -0.206 F 
ATOM     94  C   UNL A   1      51.584  25.834  26.702  1.00  0.00     0.059 A 
ATOM     95  C   UNL A   1      51.091  26.486  24.414  1.00  0.00     0.059 A 
ATOM     96  F   UNL A   1      48.997  27.396  23.889  1.00  0.00    -0.206 F 
ATOM     97  C   UNL A   1      51.973  25.982  25.368  1.00  0.00     0.060 A 
BRANCH  97  98
ATOM     98  S   UNL A   1      53.647  25.503  24.898  1.00  0.00     0.124 S 
ATOM     99  O   UNL A   1      53.801  26.189  23.620  1.00  0.00    -0.237 OA
ATOM    100  O   UNL A   1      54.446  26.028  26.001  1.00  0.00    -0.237 OA
ATOM    101  O   UNL A   1      53.574  24.046  24.824  1.00  0.00    -0.744 OA
ENDBRANCH  97  98
ENDBRANCH  65  90
ENDBRANCH  39  40
ENDBRANCH  31  34
ENDBRANCH  29  30
ENDBRANCH   1  29
TORSDOF 16
ENDMDL
