MODEL 1
REMARK VINA RESULT:     -12.4      0.000      0.000
REMARK SMILES CS(=O)(=O)c1ccc(C2=NN(c3ccc(C(=O)NCCCCNC(=O)c4ccc(-c5c6nc(c(-c7c(F)cc(S(=O)(=O)[O-])cc7F)c7ccc([nH]7)c(-c7c(F)cc(S(=O)(=O)[O-])cc7F)c7nc(c(-c8c(F)cc(S(=O)(=O)[O-])cc8F)c8ccc5[nH]8)C=C7)C=C6)cc4)cc3)[C@H](c3ccc(F)cc3)C2)cc1
REMARK SMILES IDX 20 1 19 2 18 3 16 4 17 5 15 7 12 8 13 9 93 10 14 11 92 12
REMARK SMILES IDX 11 13 9 14 10 15 102 16 94 17 8 18 5 19 6 20 104 21 7 22
REMARK SMILES IDX 103 23 2 24 1 25 3 26 4 27 95 28 96 29 101 30 97 31 100 32
REMARK SMILES IDX 98 33 99 34 21 35 22 36 23 37 24 38 25 40 26 41 27 42 91 43
REMARK SMILES IDX 28 44 90 45 29 46 30 47 31 48 84 49 32 50 89 51 83 52 85 53
REMARK SMILES IDX 33 54 88 55 82 56 81 57 34 59 68 60 47 61 67 62 48 63 51 64
REMARK SMILES IDX 66 65 86 66 49 67 50 68 65 70 87 71 52 72 35 73 36 74 45 75
REMARK SMILES IDX 37 76 38 77 44 78 46 79 39 80 40 81 41 82 42 83 43 84 69 85
REMARK SMILES IDX 70 86 79 87 71 88 72 89 78 90 80 91 73 92 74 93 75 94 76 95
REMARK SMILES IDX 77 96 53 97 54 98 63 99 55 100 56 101 62 102 64 103 57 104
REMARK SMILES IDX 58 105 59 106 60 107 61 108
REMARK H PARENT 18 6 23 39 85 58 51 69
REMARK Flexibility Score: inf
ROOT
ATOM      1  C   UNL A   1      37.030  29.349  28.962  1.00  0.00     0.023 C 
ENDROOT
BRANCH   1   2
ATOM      2  C   UNL A   1      36.688  30.017  27.630  1.00  0.00     0.116 C 
BRANCH   2   3
ATOM      3  N   UNL A   1      35.513  30.861  27.749  1.00  0.00    -0.352 N 
ATOM      4  C   UNL A   1      34.222  30.655  27.327  1.00  0.00     0.251 C 
ATOM      5  O   UNL A   1      33.352  31.465  27.645  1.00  0.00    -0.269 OA
ATOM      6  H   UNL A   1      35.665  31.719  28.206  1.00  0.00     0.163 HD
BRANCH   4   7
ATOM      7  C   UNL A   1      33.837  29.447  26.555  1.00  0.00     0.039 A 
ATOM      8  C   UNL A   1      33.047  27.256  24.977  1.00  0.00     0.060 A 
ATOM      9  C   UNL A   1      33.628  28.382  24.386  1.00  0.00     0.029 A 
ATOM     10  C   UNL A   1      32.934  27.211  26.367  1.00  0.00     0.029 A 
ATOM     11  C   UNL A   1      34.029  29.469  25.168  1.00  0.00     0.016 A 
ATOM     12  C   UNL A   1      33.334  28.291  27.152  1.00  0.00     0.016 A 
BRANCH   8  13
ATOM     13  N   UNL A   1      32.582  26.199  24.220  1.00  0.00    -0.257 N 
ATOM     14  C   UNL A   1      32.574  24.180  23.596  1.00  0.00     0.071 C 
ATOM     15  N   UNL A   1      32.810  24.933  24.624  1.00  0.00    -0.176 NA
ATOM     16  C   UNL A   1      32.173  24.909  22.338  1.00  0.00     0.091 C 
ATOM     17  C   UNL A   1      31.967  26.326  22.904  1.00  0.00     0.144 C 
BRANCH  14  18
ATOM     18  C   UNL A   1      32.749  22.719  23.656  1.00  0.00    -0.002 A 
ATOM     19  C   UNL A   1      32.840  19.942  23.804  1.00  0.00     0.067 A 
ATOM     20  C   UNL A   1      32.181  20.550  22.735  1.00  0.00     0.021 A 
ATOM     21  C   UNL A   1      33.456  20.711  24.799  1.00  0.00     0.021 A 
ATOM     22  C   UNL A   1      32.128  21.942  22.669  1.00  0.00     0.011 A 
ATOM     23  C   UNL A   1      33.422  22.108  24.718  1.00  0.00     0.011 A 
BRANCH  19  24
ATOM     24  S   UNL A   1      32.850  18.169  23.930  1.00  0.00     0.175 S 
ATOM     25  C   UNL A   1      34.513  17.774  24.395  1.00  0.00     0.163 C 
ATOM     26  O   UNL A   1      32.636  17.627  22.605  1.00  0.00    -0.224 OA
ATOM     27  O   UNL A   1      31.976  17.822  25.037  1.00  0.00    -0.224 OA
ENDBRANCH  19  24
ENDBRANCH  14  18
BRANCH  17  28
ATOM     28  C   UNL A   1      30.533  26.835  23.056  1.00  0.00    -0.023 A 
ATOM     29  C   UNL A   1      29.516  26.125  23.719  1.00  0.00     0.009 A 
ATOM     30  C   UNL A   1      30.226  28.126  22.571  1.00  0.00     0.009 A 
ATOM     31  C   UNL A   1      28.240  26.679  23.874  1.00  0.00     0.039 A 
ATOM     32  C   UNL A   1      28.959  28.688  22.747  1.00  0.00     0.039 A 
ATOM     33  C   UNL A   1      27.975  27.955  23.393  1.00  0.00     0.123 A 
ATOM     34  F   UNL A   1      26.759  28.487  23.565  1.00  0.00    -0.207 F 
ENDBRANCH  17  28
ENDBRANCH   8  13
ENDBRANCH   4   7
ENDBRANCH   2   3
ENDBRANCH   1   2
BRANCH   1  35
ATOM     35  C   UNL A   1      36.059  29.667  30.100  1.00  0.00     0.023 C 
BRANCH  35  36
ATOM     36  C   UNL A   1      36.700  29.785  31.477  1.00  0.00     0.116 C 
BRANCH  36  37
ATOM     37  N   UNL A   1      36.667  31.138  32.013  1.00  0.00    -0.352 N 
ATOM     38  C   UNL A   1      37.713  32.015  32.173  1.00  0.00     0.251 C 
ATOM     39  H   UNL A   1      35.783  31.467  32.295  1.00  0.00     0.163 HD
ATOM     40  O   UNL A   1      37.542  33.090  32.738  1.00  0.00    -0.269 OA
BRANCH  38  41
ATOM     41  C   UNL A   1      39.055  31.624  31.694  1.00  0.00     0.039 A 
ATOM     42  C   UNL A   1      39.935  31.005  32.583  1.00  0.00     0.014 A 
ATOM     43  C   UNL A   1      39.415  31.819  30.357  1.00  0.00     0.014 A 
ATOM     44  C   UNL A   1      41.153  30.508  32.113  1.00  0.00     0.010 A 
ATOM     45  C   UNL A   1      40.599  31.267  29.878  1.00  0.00     0.010 A 
ATOM     46  C   UNL A   1      41.474  30.601  30.749  1.00  0.00    -0.014 A 
BRANCH  46  47
ATOM     47  C   UNL A   1      42.715  29.995  30.203  1.00  0.00     0.031 A 
ATOM     48  C   UNL A   1      43.969  30.818  30.100  1.00  0.00     0.074 A 
ATOM     49  C   UNL A   1      42.683  28.739  29.713  1.00  0.00     0.049 A 
ATOM     50  N   UNL A   1      45.113  30.511  29.548  1.00  0.00    -0.248 NA
ATOM     51  C   UNL A   1      43.918  32.176  30.666  1.00  0.00     0.031 C 
ATOM     52  C   UNL A   1      41.510  27.862  29.705  1.00  0.00     0.029 A 
ATOM     53  N   UNL A   1      43.659  27.990  29.105  1.00  0.00    -0.354 N 
ATOM     54  C   UNL A   1      45.910  31.643  29.677  1.00  0.00     0.074 A 
ATOM     55  C   UNL A   1      45.105  32.656  30.324  1.00  0.00     0.031 C 
ATOM     56  C   UNL A   1      41.837  26.694  29.130  1.00  0.00     0.029 A 
ATOM     57  C   UNL A   1      43.229  26.750  28.695  1.00  0.00     0.049 A 
ATOM     58  H   UNL A   1      44.581  28.310  28.975  1.00  0.00     0.167 HD
ATOM     59  C   UNL A   1      47.201  31.814  29.305  1.00  0.00     0.037 A 
ATOM     60  C   UNL A   1      43.878  25.775  28.029  1.00  0.00     0.037 A 
ATOM     61  C   UNL A   1      48.007  30.788  28.697  1.00  0.00     0.049 A 
ATOM     62  C   UNL A   1      45.318  25.981  27.647  1.00  0.00     0.074 A 
ATOM     63  C   UNL A   1      49.347  30.837  28.358  1.00  0.00     0.029 A 
ATOM     64  N   UNL A   1      47.549  29.529  28.339  1.00  0.00    -0.354 N 
ATOM     65  N   UNL A   1      46.078  27.032  27.842  1.00  0.00    -0.248 NA
ATOM     66  C   UNL A   1      45.991  24.871  26.959  1.00  0.00     0.031 C 
ATOM     67  C   UNL A   1      49.690  29.620  27.759  1.00  0.00     0.029 A 
ATOM     68  C   UNL A   1      48.574  28.798  27.765  1.00  0.00     0.049 A 
ATOM     69  H   UNL A   1      46.629  29.203  28.474  1.00  0.00     0.167 HD
ATOM     70  C   UNL A   1      47.325  26.700  27.324  1.00  0.00     0.074 A 
ATOM     71  C   UNL A   1      47.221  25.348  26.815  1.00  0.00     0.031 C 
ATOM     72  C   UNL A   1      48.456  27.447  27.275  1.00  0.00     0.037 A 
BRANCH  59  73
ATOM     73  C   UNL A   1      47.825  33.160  29.548  1.00  0.00     0.058 A 
ATOM     74  C   UNL A   1      48.489  33.456  30.749  1.00  0.00     0.135 A 
ATOM     75  C   UNL A   1      47.793  34.150  28.554  1.00  0.00     0.135 A 
ATOM     76  F   UNL A   1      48.535  32.550  31.739  1.00  0.00    -0.206 F 
ATOM     77  C   UNL A   1      49.077  34.698  30.967  1.00  0.00     0.059 A 
ATOM     78  C   UNL A   1      48.397  35.391  28.741  1.00  0.00     0.059 A 
ATOM     79  F   UNL A   1      47.170  33.919  27.388  1.00  0.00    -0.206 F 
ATOM     80  C   UNL A   1      49.024  35.660  29.956  1.00  0.00     0.060 A 
BRANCH  80  81
ATOM     81  S   UNL A   1      49.798  37.264  30.251  1.00  0.00     0.124 S 
ATOM     82  O   UNL A   1      48.871  38.164  29.572  1.00  0.00    -0.237 OA
ATOM     83  O   UNL A   1      49.806  37.344  31.709  1.00  0.00    -0.237 OA
ATOM     84  O   UNL A   1      51.110  37.127  29.627  1.00  0.00    -0.744 OA
ENDBRANCH  80  81
ENDBRANCH  59  73
BRANCH  60  85
ATOM     85  C   UNL A   1      43.174  24.509  27.693  1.00  0.00     0.058 A 
ATOM     86  C   UNL A   1      42.584  24.325  26.434  1.00  0.00     0.135 A 
ATOM     87  C   UNL A   1      43.083  23.458  28.618  1.00  0.00     0.135 A 
ATOM     88  F   UNL A   1      42.640  25.304  25.518  1.00  0.00    -0.206 F 
ATOM     89  C   UNL A   1      41.915  23.149  26.107  1.00  0.00     0.059 A 
ATOM     90  C   UNL A   1      42.439  22.264  28.307  1.00  0.00     0.059 A 
ATOM     91  F   UNL A   1      43.646  23.578  29.831  1.00  0.00    -0.206 F 
ATOM     92  C   UNL A   1      41.848  22.124  27.052  1.00  0.00     0.060 A 
BRANCH  92  93
ATOM     93  S   UNL A   1      41.015  20.585  26.604  1.00  0.00     0.124 S 
ATOM     94  O   UNL A   1      40.926  19.913  27.895  1.00  0.00    -0.237 OA
ATOM     95  O   UNL A   1      39.754  21.069  26.048  1.00  0.00    -0.237 OA
ATOM     96  O   UNL A   1      41.926  19.981  25.637  1.00  0.00    -0.744 OA
ENDBRANCH  92  93
ENDBRANCH  60  85
BRANCH  72  97
ATOM     97  C   UNL A   1      49.682  26.813  26.684  1.00  0.00     0.058 A 
ATOM     98  C   UNL A   1      50.070  27.057  25.358  1.00  0.00     0.135 A 
ATOM     99  C   UNL A   1      50.518  26.009  27.477  1.00  0.00     0.135 A 
ATOM    100  F   UNL A   1      49.302  27.813  24.558  1.00  0.00    -0.206 F 
ATOM    101  C   UNL A   1      51.238  26.514  24.834  1.00  0.00     0.059 A 
ATOM    102  C   UNL A   1      51.701  25.476  26.980  1.00  0.00     0.059 A 
ATOM    103  F   UNL A   1      50.195  25.754  28.755  1.00  0.00    -0.206 F 
ATOM    104  C   UNL A   1      52.050  25.728  25.654  1.00  0.00     0.060 A 
BRANCH 104 105
ATOM    105  S   UNL A   1      53.591  25.074  24.977  1.00  0.00     0.124 S 
ATOM    106  O   UNL A   1      54.586  25.777  25.781  1.00  0.00    -0.237 OA
ATOM    107  O   UNL A   1      53.464  23.643  25.234  1.00  0.00    -0.237 OA
ATOM    108  O   UNL A   1      53.534  25.458  23.570  1.00  0.00    -0.744 OA
ENDBRANCH 104 105
ENDBRANCH  72  97
ENDBRANCH  46  47
ENDBRANCH  38  41
ENDBRANCH  36  37
ENDBRANCH  35  36
ENDBRANCH   1  35
TORSDOF 18
ENDMDL
MODEL 2
REMARK VINA RESULT:     -12.0      5.003      8.393
REMARK SMILES CS(=O)(=O)c1ccc(C2=NN(c3ccc(C(=O)NCCCCNC(=O)c4ccc(-c5c6nc(c(-c7c(F)cc(S(=O)(=O)[O-])cc7F)c7ccc([nH]7)c(-c7c(F)cc(S(=O)(=O)[O-])cc7F)c7nc(c(-c8c(F)cc(S(=O)(=O)[O-])cc8F)c8ccc5[nH]8)C=C7)C=C6)cc4)cc3)[C@H](c3ccc(F)cc3)C2)cc1
REMARK SMILES IDX 20 1 19 2 18 3 16 4 17 5 15 7 12 8 13 9 93 10 14 11 92 12
REMARK SMILES IDX 11 13 9 14 10 15 102 16 94 17 8 18 5 19 6 20 104 21 7 22
REMARK SMILES IDX 103 23 2 24 1 25 3 26 4 27 95 28 96 29 101 30 97 31 100 32
REMARK SMILES IDX 98 33 99 34 21 35 22 36 23 37 24 38 25 40 26 41 27 42 91 43
REMARK SMILES IDX 28 44 90 45 29 46 30 47 31 48 84 49 32 50 89 51 83 52 85 53
REMARK SMILES IDX 33 54 88 55 82 56 81 57 34 59 68 60 47 61 67 62 48 63 51 64
REMARK SMILES IDX 66 65 86 66 49 67 50 68 65 70 87 71 52 72 35 73 36 74 45 75
REMARK SMILES IDX 37 76 38 77 44 78 46 79 39 80 40 81 41 82 42 83 43 84 69 85
REMARK SMILES IDX 70 86 79 87 71 88 72 89 78 90 80 91 73 92 74 93 75 94 76 95
REMARK SMILES IDX 77 96 53 97 54 98 63 99 55 100 56 101 62 102 64 103 57 104
REMARK SMILES IDX 58 105 59 106 60 107 61 108
REMARK H PARENT 18 6 23 39 85 58 51 69
REMARK Flexibility Score: inf
ROOT
ATOM      1  C   UNL A   1      34.874  33.817  31.665  1.00  0.00     0.023 C 
ENDROOT
BRANCH   1   2
ATOM      2  C   UNL A   1      35.276  34.929  32.634  1.00  0.00     0.116 C 
BRANCH   2   3
ATOM      3  N   UNL A   1      35.343  34.440  33.999  1.00  0.00    -0.352 N 
ATOM      4  C   UNL A   1      36.389  33.889  34.699  1.00  0.00     0.251 C 
ATOM      5  O   UNL A   1      36.248  33.653  35.898  1.00  0.00    -0.269 OA
ATOM      6  H   UNL A   1      34.503  34.516  34.507  1.00  0.00     0.163 HD
BRANCH   4   7
ATOM      7  C   UNL A   1      37.704  33.633  34.061  1.00  0.00     0.039 A 
ATOM      8  C   UNL A   1      40.185  32.993  32.898  1.00  0.00     0.060 A 
ATOM      9  C   UNL A   1      39.094  32.129  32.762  1.00  0.00     0.029 A 
ATOM     10  C   UNL A   1      40.000  34.208  33.559  1.00  0.00     0.029 A 
ATOM     11  C   UNL A   1      37.858  32.449  33.331  1.00  0.00     0.016 A 
ATOM     12  C   UNL A   1      38.769  34.532  34.128  1.00  0.00     0.016 A 
BRANCH   8  13
ATOM     13  N   UNL A   1      41.432  32.669  32.403  1.00  0.00    -0.257 N 
ATOM     14  C   UNL A   1      43.071  31.366  32.114  1.00  0.00     0.071 C 
ATOM     15  N   UNL A   1      41.784  31.374  32.268  1.00  0.00    -0.176 NA
ATOM     16  C   UNL A   1      43.737  32.718  32.162  1.00  0.00     0.091 C 
ATOM     17  C   UNL A   1      42.497  33.629  32.135  1.00  0.00     0.144 C 
BRANCH  14  18
ATOM     18  C   UNL A   1      43.820  30.106  31.964  1.00  0.00    -0.002 A 
ATOM     19  C   UNL A   1      45.163  27.671  31.905  1.00  0.00     0.067 A 
ATOM     20  C   UNL A   1      43.768  27.683  31.953  1.00  0.00     0.021 A 
ATOM     21  C   UNL A   1      45.891  28.866  31.884  1.00  0.00     0.021 A 
ATOM     22  C   UNL A   1      43.098  28.906  31.993  1.00  0.00     0.011 A 
ATOM     23  C   UNL A   1      45.216  30.091  31.901  1.00  0.00     0.011 A 
BRANCH  19  24
ATOM     24  S   UNL A   1      46.024  26.116  31.925  1.00  0.00     0.175 S 
ATOM     25  C   UNL A   1      45.305  25.201  30.589  1.00  0.00     0.163 C 
ATOM     26  O   UNL A   1      45.674  25.429  33.151  1.00  0.00    -0.224 OA
ATOM     27  O   UNL A   1      47.408  26.398  31.589  1.00  0.00    -0.224 OA
ENDBRANCH  19  24
ENDBRANCH  14  18
BRANCH  17  28
ATOM     28  C   UNL A   1      42.191  34.383  30.840  1.00  0.00    -0.023 A 
ATOM     29  C   UNL A   1      40.931  34.389  30.216  1.00  0.00     0.009 A 
ATOM     30  C   UNL A   1      43.208  35.186  30.277  1.00  0.00     0.009 A 
ATOM     31  C   UNL A   1      40.706  35.152  29.064  1.00  0.00     0.039 A 
ATOM     32  C   UNL A   1      42.976  35.966  29.142  1.00  0.00     0.039 A 
ATOM     33  C   UNL A   1      41.727  35.936  28.542  1.00  0.00     0.123 A 
ATOM     34  F   UNL A   1      41.497  36.682  27.453  1.00  0.00    -0.207 F 
ENDBRANCH  17  28
ENDBRANCH   8  13
ENDBRANCH   4   7
ENDBRANCH   2   3
ENDBRANCH   1   2
BRANCH   1  35
ATOM     35  C   UNL A   1      35.580  33.868  30.309  1.00  0.00     0.023 C 
BRANCH  35  36
ATOM     36  C   UNL A   1      36.454  32.661  29.994  1.00  0.00     0.116 C 
BRANCH  36  37
ATOM     37  N   UNL A   1      35.696  31.427  29.840  1.00  0.00    -0.352 N 
ATOM     38  C   UNL A   1      36.155  30.191  29.449  1.00  0.00     0.251 C 
ATOM     39  H   UNL A   1      34.735  31.486  30.041  1.00  0.00     0.163 HD
ATOM     40  O   UNL A   1      35.369  29.267  29.265  1.00  0.00    -0.269 OA
BRANCH  38  41
ATOM     41  C   UNL A   1      37.601  30.006  29.211  1.00  0.00     0.039 A 
ATOM     42  C   UNL A   1      38.428  29.699  30.294  1.00  0.00     0.014 A 
ATOM     43  C   UNL A   1      38.121  30.077  27.917  1.00  0.00     0.014 A 
ATOM     44  C   UNL A   1      39.771  29.388  30.067  1.00  0.00     0.010 A 
ATOM     45  C   UNL A   1      39.441  29.703  27.686  1.00  0.00     0.010 A 
ATOM     46  C   UNL A   1      40.276  29.349  28.757  1.00  0.00    -0.014 A 
BRANCH  46  47
ATOM     47  C   UNL A   1      41.670  28.925  28.477  1.00  0.00     0.031 A 
ATOM     48  C   UNL A   1      42.768  29.950  28.418  1.00  0.00     0.074 A 
ATOM     49  C   UNL A   1      41.928  27.635  28.182  1.00  0.00     0.049 A 
ATOM     50  N   UNL A   1      44.021  29.799  28.075  1.00  0.00    -0.248 NA
ATOM     51  C   UNL A   1      42.401  31.334  28.761  1.00  0.00     0.031 C 
ATOM     52  C   UNL A   1      40.935  26.557  28.152  1.00  0.00     0.029 A 
ATOM     53  N   UNL A   1      43.100  27.013  27.828  1.00  0.00    -0.354 N 
ATOM     54  C   UNL A   1      44.585  31.068  28.136  1.00  0.00     0.074 A 
ATOM     55  C   UNL A   1      43.530  31.983  28.511  1.00  0.00     0.031 C 
ATOM     56  C   UNL A   1      41.541  25.410  27.807  1.00  0.00     0.029 A 
ATOM     57  C   UNL A   1      42.954  25.673  27.556  1.00  0.00     0.049 A 
ATOM     58  H   UNL A   1      43.963  27.483  27.775  1.00  0.00     0.167 HD
ATOM     59  C   UNL A   1      45.871  31.432  27.916  1.00  0.00     0.037 A 
ATOM     60  C   UNL A   1      43.854  24.763  27.136  1.00  0.00     0.037 A 
ATOM     61  C   UNL A   1      46.924  30.509  27.582  1.00  0.00     0.049 A 
ATOM     62  C   UNL A   1      45.282  25.189  26.921  1.00  0.00     0.074 A 
ATOM     63  C   UNL A   1      48.272  30.767  27.419  1.00  0.00     0.029 A 
ATOM     64  N   UNL A   1      46.746  29.151  27.360  1.00  0.00    -0.354 N 
ATOM     65  N   UNL A   1      45.814  26.379  27.055  1.00  0.00    -0.248 NA
ATOM     66  C   UNL A   1      46.231  24.148  26.503  1.00  0.00     0.031 C 
ATOM     67  C   UNL A   1      48.906  29.572  27.061  1.00  0.00     0.029 A 
ATOM     68  C   UNL A   1      47.957  28.561  27.043  1.00  0.00     0.049 A 
ATOM     69  H   UNL A   1      45.885  28.677  27.420  1.00  0.00     0.167 HD
ATOM     70  C   UNL A   1      47.164  26.227  26.762  1.00  0.00     0.074 A 
ATOM     71  C   UNL A   1      47.370  24.827  26.453  1.00  0.00     0.031 C 
ATOM     72  C   UNL A   1      48.146  27.162  26.751  1.00  0.00     0.037 A 
BRANCH  59  73
ATOM     73  C   UNL A   1      46.213  32.890  28.035  1.00  0.00     0.058 A 
ATOM     74  C   UNL A   1      46.084  33.767  26.947  1.00  0.00     0.135 A 
ATOM     75  C   UNL A   1      46.637  33.425  29.262  1.00  0.00     0.135 A 
ATOM     76  F   UNL A   1      45.699  33.305  25.746  1.00  0.00    -0.206 F 
ATOM     77  C   UNL A   1      46.390  35.119  27.062  1.00  0.00     0.059 A 
ATOM     78  C   UNL A   1      46.923  34.780  29.408  1.00  0.00     0.059 A 
ATOM     79  F   UNL A   1      46.777  32.630  30.334  1.00  0.00    -0.206 F 
ATOM     80  C   UNL A   1      46.810  35.616  28.298  1.00  0.00     0.060 A 
BRANCH  80  81
ATOM     81  S   UNL A   1      47.196  37.375  28.434  1.00  0.00     0.124 S 
ATOM     82  O   UNL A   1      46.132  37.837  29.321  1.00  0.00    -0.237 OA
ATOM     83  O   UNL A   1      48.537  37.358  29.009  1.00  0.00    -0.237 OA
ATOM     84  O   UNL A   1      47.113  37.847  27.056  1.00  0.00    -0.744 OA
ENDBRANCH  80  81
ENDBRANCH  59  73
BRANCH  60  85
ATOM     85  C   UNL A   1      43.435  23.356  26.905  1.00  0.00     0.058 A 
ATOM     86  C   UNL A   1      43.292  22.851  25.604  1.00  0.00     0.135 A 
ATOM     87  C   UNL A   1      43.178  22.486  27.975  1.00  0.00     0.135 A 
ATOM     88  F   UNL A   1      43.522  23.646  24.548  1.00  0.00    -0.206 F 
ATOM     89  C   UNL A   1      42.893  21.539  25.370  1.00  0.00     0.059 A 
ATOM     90  C   UNL A   1      42.799  21.163  27.768  1.00  0.00     0.059 A 
ATOM     91  F   UNL A   1      43.316  22.916  29.240  1.00  0.00    -0.206 F 
ATOM     92  C   UNL A   1      42.649  20.702  26.461  1.00  0.00     0.060 A 
BRANCH  92  93
ATOM     93  S   UNL A   1      42.173  18.988  26.148  1.00  0.00     0.124 S 
ATOM     94  O   UNL A   1      43.104  18.613  25.090  1.00  0.00    -0.237 OA
ATOM     95  O   UNL A   1      42.400  18.363  27.448  1.00  0.00    -0.237 OA
ATOM     96  O   UNL A   1      40.772  19.097  25.751  1.00  0.00    -0.744 OA
ENDBRANCH  92  93
ENDBRANCH  60  85
BRANCH  72  97
ATOM     97  C   UNL A   1      49.540  26.702  26.429  1.00  0.00     0.058 A 
ATOM     98  C   UNL A   1      50.339  26.055  27.384  1.00  0.00     0.135 A 
ATOM     99  C   UNL A   1      50.053  26.847  25.130  1.00  0.00     0.135 A 
ATOM    100  F   UNL A   1      49.896  25.899  28.642  1.00  0.00    -0.206 F 
ATOM    101  C   UNL A   1      51.606  25.579  27.064  1.00  0.00     0.059 A 
ATOM    102  C   UNL A   1      51.307  26.358  24.784  1.00  0.00     0.059 A 
ATOM    103  F   UNL A   1      49.323  27.451  24.179  1.00  0.00    -0.206 F 
ATOM    104  C   UNL A   1      52.080  25.731  25.760  1.00  0.00     0.060 A 
BRANCH 104 105
ATOM    105  S   UNL A   1      53.704  25.061  25.344  1.00  0.00     0.124 S 
ATOM    106  O   UNL A   1      53.446  23.625  25.376  1.00  0.00    -0.237 OA
ATOM    107  O   UNL A   1      53.951  25.632  24.024  1.00  0.00    -0.237 OA
ATOM    108  O   UNL A   1      54.564  25.569  26.410  1.00  0.00    -0.744 OA
ENDBRANCH 104 105
ENDBRANCH  72  97
ENDBRANCH  46  47
ENDBRANCH  38  41
ENDBRANCH  36  37
ENDBRANCH  35  36
ENDBRANCH   1  35
TORSDOF 18
ENDMDL
MODEL 3
REMARK VINA RESULT:     -11.6      6.451     14.276
REMARK SMILES CS(=O)(=O)c1ccc(C2=NN(c3ccc(C(=O)NCCCCNC(=O)c4ccc(-c5c6nc(c(-c7c(F)cc(S(=O)(=O)[O-])cc7F)c7ccc([nH]7)c(-c7c(F)cc(S(=O)(=O)[O-])cc7F)c7nc(c(-c8c(F)cc(S(=O)(=O)[O-])cc8F)c8ccc5[nH]8)C=C7)C=C6)cc4)cc3)[C@H](c3ccc(F)cc3)C2)cc1
REMARK SMILES IDX 20 1 19 2 18 3 16 4 17 5 15 7 12 8 13 9 93 10 14 11 92 12
REMARK SMILES IDX 11 13 9 14 10 15 102 16 94 17 8 18 5 19 6 20 104 21 7 22
REMARK SMILES IDX 103 23 2 24 1 25 3 26 4 27 95 28 96 29 101 30 97 31 100 32
REMARK SMILES IDX 98 33 99 34 21 35 22 36 23 37 24 38 25 40 26 41 27 42 91 43
REMARK SMILES IDX 28 44 90 45 29 46 30 47 31 48 84 49 32 50 89 51 83 52 85 53
REMARK SMILES IDX 33 54 88 55 82 56 81 57 34 59 68 60 47 61 67 62 48 63 51 64
REMARK SMILES IDX 66 65 86 66 49 67 50 68 65 70 87 71 52 72 35 73 36 74 45 75
REMARK SMILES IDX 37 76 38 77 44 78 46 79 39 80 40 81 41 82 42 83 43 84 69 85
REMARK SMILES IDX 70 86 79 87 71 88 72 89 78 90 80 91 73 92 74 93 75 94 76 95
REMARK SMILES IDX 77 96 53 97 54 98 63 99 55 100 56 101 62 102 64 103 57 104
REMARK SMILES IDX 58 105 59 106 60 107 61 108
REMARK H PARENT 18 6 23 39 85 58 51 69
REMARK Flexibility Score: inf
ROOT
ATOM      1  C   UNL A   1      41.535  21.342  26.337  1.00  0.00     0.023 C 
ENDROOT
BRANCH   1   2
ATOM      2  C   UNL A   1      42.962  21.623  26.807  1.00  0.00     0.116 C 
BRANCH   2   3
ATOM      3  N   UNL A   1      43.937  21.206  25.815  1.00  0.00    -0.352 N 
ATOM      4  C   UNL A   1      45.008  21.879  25.280  1.00  0.00     0.251 C 
ATOM      5  O   UNL A   1      45.777  21.278  24.531  1.00  0.00    -0.269 OA
ATOM      6  H   UNL A   1      43.809  20.292  25.470  1.00  0.00     0.163 HD
BRANCH   4   7
ATOM      7  C   UNL A   1      45.297  23.290  25.634  1.00  0.00     0.039 A 
ATOM      8  C   UNL A   1      45.844  25.923  26.461  1.00  0.00     0.060 A 
ATOM      9  C   UNL A   1      46.476  24.840  27.078  1.00  0.00     0.029 A 
ATOM     10  C   UNL A   1      44.994  25.677  25.382  1.00  0.00     0.029 A 
ATOM     11  C   UNL A   1      46.213  23.532  26.664  1.00  0.00     0.016 A 
ATOM     12  C   UNL A   1      44.729  24.374  24.963  1.00  0.00     0.016 A 
BRANCH   8  13
ATOM     13  N   UNL A   1      46.036  27.219  26.896  1.00  0.00    -0.257 N 
ATOM     14  C   UNL A   1      45.525  28.927  28.031  1.00  0.00     0.071 C 
ATOM     15  N   UNL A   1      45.463  27.633  28.044  1.00  0.00    -0.176 NA
ATOM     16  C   UNL A   1      46.150  29.533  26.800  1.00  0.00     0.091 C 
ATOM     17  C   UNL A   1      46.708  28.264  26.130  1.00  0.00     0.144 C 
BRANCH  14  18
ATOM     18  C   UNL A   1      44.964  29.736  29.127  1.00  0.00    -0.002 A 
ATOM     19  C   UNL A   1      43.976  31.460  31.074  1.00  0.00     0.067 A 
ATOM     20  C   UNL A   1      43.389  31.448  29.808  1.00  0.00     0.021 A 
ATOM     21  C   UNL A   1      45.051  30.615  31.376  1.00  0.00     0.021 A 
ATOM     22  C   UNL A   1      43.893  30.590  28.831  1.00  0.00     0.011 A 
ATOM     23  C   UNL A   1      45.540  29.739  30.401  1.00  0.00     0.011 A 
BRANCH  19  24
ATOM     24  S   UNL A   1      43.382  32.601  32.301  1.00  0.00     0.175 S 
ATOM     25  C   UNL A   1      43.916  34.186  31.718  1.00  0.00     0.163 C 
ATOM     26  O   UNL A   1      44.092  32.337  33.535  1.00  0.00    -0.224 OA
ATOM     27  O   UNL A   1      41.931  32.562  32.244  1.00  0.00    -0.224 OA
ENDBRANCH  19  24
ENDBRANCH  14  18
BRANCH  17  28
ATOM     28  C   UNL A   1      48.219  28.037  26.173  1.00  0.00    -0.023 A 
ATOM     29  C   UNL A   1      49.005  28.211  27.326  1.00  0.00     0.009 A 
ATOM     30  C   UNL A   1      48.856  27.549  25.010  1.00  0.00     0.009 A 
ATOM     31  C   UNL A   1      50.376  27.925  27.308  1.00  0.00     0.039 A 
ATOM     32  C   UNL A   1      50.219  27.242  24.999  1.00  0.00     0.039 A 
ATOM     33  C   UNL A   1      50.967  27.440  26.149  1.00  0.00     0.123 A 
ATOM     34  F   UNL A   1      52.274  27.147  26.147  1.00  0.00    -0.207 F 
ENDBRANCH  17  28
ENDBRANCH   8  13
ENDBRANCH   4   7
ENDBRANCH   2   3
ENDBRANCH   1   2
BRANCH   1  35
ATOM     35  C   UNL A   1      40.447  21.724  27.341  1.00  0.00     0.023 C 
BRANCH  35  36
ATOM     36  C   UNL A   1      40.106  23.208  27.386  1.00  0.00     0.116 C 
BRANCH  36  37
ATOM     37  N   UNL A   1      40.528  23.930  26.195  1.00  0.00    -0.352 N 
ATOM     38  C   UNL A   1      40.876  25.255  26.083  1.00  0.00     0.251 C 
ATOM     39  H   UNL A   1      40.569  23.403  25.365  1.00  0.00     0.163 HD
ATOM     40  O   UNL A   1      41.112  25.746  24.984  1.00  0.00    -0.269 OA
BRANCH  38  41
ATOM     41  C   UNL A   1      40.921  26.090  27.301  1.00  0.00     0.039 A 
ATOM     42  C   UNL A   1      41.945  27.029  27.439  1.00  0.00     0.014 A 
ATOM     43  C   UNL A   1      39.920  25.982  28.271  1.00  0.00     0.014 A 
ATOM     44  C   UNL A   1      41.925  27.916  28.518  1.00  0.00     0.010 A 
ATOM     45  C   UNL A   1      39.867  26.908  29.308  1.00  0.00     0.010 A 
ATOM     46  C   UNL A   1      40.863  27.887  29.437  1.00  0.00    -0.014 A 
BRANCH  46  47
ATOM     47  C   UNL A   1      40.762  28.881  30.534  1.00  0.00     0.031 A 
ATOM     48  C   UNL A   1      41.633  28.745  31.752  1.00  0.00     0.074 A 
ATOM     49  C   UNL A   1      39.822  29.846  30.475  1.00  0.00     0.049 A 
ATOM     50  N   UNL A   1      41.615  29.437  32.861  1.00  0.00    -0.248 NA
ATOM     51  C   UNL A   1      42.638  27.670  31.730  1.00  0.00     0.031 C 
ATOM     52  C   UNL A   1      38.880  30.045  29.371  1.00  0.00     0.029 A 
ATOM     53  N   UNL A   1      39.486  30.827  31.376  1.00  0.00    -0.354 N 
ATOM     54  C   UNL A   1      42.584  28.866  33.678  1.00  0.00     0.074 A 
ATOM     55  C   UNL A   1      43.145  27.748  32.952  1.00  0.00     0.031 C 
ATOM     56  C   UNL A   1      38.081  31.086  29.655  1.00  0.00     0.029 A 
ATOM     57  C   UNL A   1      38.426  31.605  30.975  1.00  0.00     0.049 A 
ATOM     58  H   UNL A   1      39.961  30.960  32.228  1.00  0.00     0.167 HD
ATOM     59  C   UNL A   1      42.981  29.252  34.914  1.00  0.00     0.037 A 
ATOM     60  C   UNL A   1      37.794  32.614  31.606  1.00  0.00     0.037 A 
ATOM     61  C   UNL A   1      42.445  30.390  35.613  1.00  0.00     0.049 A 
ATOM     62  C   UNL A   1      38.269  33.038  32.969  1.00  0.00     0.074 A 
ATOM     63  C   UNL A   1      42.835  30.911  36.833  1.00  0.00     0.029 A 
ATOM     64  N   UNL A   1      41.402  31.183  35.155  1.00  0.00    -0.354 N 
ATOM     65  N   UNL A   1      39.236  32.534  33.696  1.00  0.00    -0.248 NA
ATOM     66  C   UNL A   1      37.571  34.170  33.595  1.00  0.00     0.031 C 
ATOM     67  C   UNL A   1      42.005  31.996  37.132  1.00  0.00     0.029 A 
ATOM     68  C   UNL A   1      41.124  32.178  36.076  1.00  0.00     0.049 A 
ATOM     69  H   UNL A   1      40.931  31.057  34.300  1.00  0.00     0.167 HD
ATOM     70  C   UNL A   1      39.280  33.301  34.855  1.00  0.00     0.074 A 
ATOM     71  C   UNL A   1      38.249  34.310  34.728  1.00  0.00     0.031 C 
ATOM     72  C   UNL A   1      40.101  33.183  35.927  1.00  0.00     0.037 A 
BRANCH  59  73
ATOM     73  C   UNL A   1      44.050  28.440  35.589  1.00  0.00     0.058 A 
ATOM     74  C   UNL A   1      43.734  27.370  36.440  1.00  0.00     0.135 A 
ATOM     75  C   UNL A   1      45.407  28.711  35.350  1.00  0.00     0.135 A 
ATOM     76  F   UNL A   1      42.452  27.078  36.715  1.00  0.00    -0.206 F 
ATOM     77  C   UNL A   1      44.726  26.612  37.054  1.00  0.00     0.059 A 
ATOM     78  C   UNL A   1      46.416  27.949  35.933  1.00  0.00     0.059 A 
ATOM     79  F   UNL A   1      45.764  29.724  34.545  1.00  0.00    -0.206 F 
ATOM     80  C   UNL A   1      46.066  26.911  36.794  1.00  0.00     0.060 A 
BRANCH  80  81
ATOM     81  S   UNL A   1      47.342  25.913  37.592  1.00  0.00     0.124 S 
ATOM     82  O   UNL A   1      48.122  26.936  38.282  1.00  0.00    -0.237 OA
ATOM     83  O   UNL A   1      46.557  25.029  38.449  1.00  0.00    -0.237 OA
ATOM     84  O   UNL A   1      48.012  25.261  36.471  1.00  0.00    -0.744 OA
ENDBRANCH  80  81
ENDBRANCH  59  73
BRANCH  60  85
ATOM     85  C   UNL A   1      36.651  33.301  30.949  1.00  0.00     0.058 A 
ATOM     86  C   UNL A   1      36.862  34.201  29.894  1.00  0.00     0.135 A 
ATOM     87  C   UNL A   1      35.328  33.066  31.354  1.00  0.00     0.135 A 
ATOM     88  F   UNL A   1      38.109  34.462  29.475  1.00  0.00    -0.206 F 
ATOM     89  C   UNL A   1      35.804  34.858  29.274  1.00  0.00     0.059 A 
ATOM     90  C   UNL A   1      34.252  33.695  30.735  1.00  0.00     0.059 A 
ATOM     91  F   UNL A   1      35.073  32.201  32.348  1.00  0.00    -0.206 F 
ATOM     92  C   UNL A   1      34.501  34.597  29.702  1.00  0.00     0.060 A 
BRANCH  92  93
ATOM     93  S   UNL A   1      33.131  35.422  28.863  1.00  0.00     0.124 S 
ATOM     94  O   UNL A   1      33.830  36.451  28.102  1.00  0.00    -0.237 OA
ATOM     95  O   UNL A   1      32.548  34.335  28.082  1.00  0.00    -0.237 OA
ATOM     96  O   UNL A   1      32.304  35.903  29.966  1.00  0.00    -0.744 OA
ENDBRANCH  92  93
ENDBRANCH  60  85
BRANCH  72  97
ATOM     97  C   UNL A   1      39.947  34.186  37.035  1.00  0.00     0.058 A 
ATOM     98  C   UNL A   1      40.533  35.459  36.960  1.00  0.00     0.135 A 
ATOM     99  C   UNL A   1      39.145  33.894  38.150  1.00  0.00     0.135 A 
ATOM    100  F   UNL A   1      41.314  35.784  35.918  1.00  0.00    -0.206 F 
ATOM    101  C   UNL A   1      40.338  36.405  37.961  1.00  0.00     0.059 A 
ATOM    102  C   UNL A   1      38.919  34.833  39.150  1.00  0.00     0.059 A 
ATOM    103  F   UNL A   1      38.556  32.693  38.263  1.00  0.00    -0.206 F 
ATOM    104  C   UNL A   1      39.526  36.084  39.050  1.00  0.00     0.060 A 
BRANCH 104 105
ATOM    105  S   UNL A   1      39.238  37.339  40.317  1.00  0.00     0.124 S 
ATOM    106  O   UNL A   1      38.444  38.319  39.583  1.00  0.00    -0.237 OA
ATOM    107  O   UNL A   1      38.527  36.589  41.346  1.00  0.00    -0.237 OA
ATOM    108  O   UNL A   1      40.586  37.768  40.681  1.00  0.00    -0.744 OA
ENDBRANCH 104 105
ENDBRANCH  72  97
ENDBRANCH  46  47
ENDBRANCH  38  41
ENDBRANCH  36  37
ENDBRANCH  35  36
ENDBRANCH   1  35
TORSDOF 18
ENDMDL
