MODEL 1
REMARK VINA RESULT:     -10.5      0.000      0.000
REMARK SMILES CCCCCC(=O)N1CSC[C@H]1C(=O)NCCCCNC(=O)c1ccc(-c2c3nc(c(-c4c(F)cc(S(=O)(=O)[O-])cc4F)c4ccc([nH]4)c(-c4c(F)cc(S(=O)(=O)[O-])cc4F)c4nc(c(-c5c(F)cc(S(=O)(=O)[O-])cc5F)c5ccc2[nH]5)C=C4)C=C3)cc1
REMARK SMILES IDX 16 1 15 2 13 3 14 4 12 6 8 7 9 8 10 9 11 10 6 11 7 12 5 13
REMARK SMILES IDX 4 14 3 15 2 16 1 17 17 18 18 19 19 20 20 21 21 22 22 24
REMARK SMILES IDX 23 25 24 26 88 27 25 28 87 29 26 30 27 31 28 32 81 33 29 34
REMARK SMILES IDX 86 35 80 36 82 37 30 38 85 39 79 40 78 41 31 43 65 44 44 45
REMARK SMILES IDX 64 46 45 47 48 48 63 49 83 50 46 51 47 52 62 54 84 55 49 56
REMARK SMILES IDX 32 57 33 58 42 59 34 60 35 61 41 62 43 63 36 64 37 65 38 66
REMARK SMILES IDX 39 67 40 68 66 69 67 70 76 71 68 72 69 73 75 74 77 75 70 76
REMARK SMILES IDX 71 77 72 78 73 79 74 80 50 81 51 82 60 83 52 84 53 85 59 86
REMARK SMILES IDX 61 87 54 88 55 89 56 90 57 91 58 92
REMARK H PARENT 15 5 20 23 82 42 48 53
REMARK Flexibility Score: inf
ROOT
ATOM      1  C   UNL A   1      32.783  29.306  26.056  1.00  0.00     0.116 C 
ENDROOT
BRANCH   1   2
ATOM      2  N   UNL A   1      33.043  29.533  24.654  1.00  0.00    -0.354 N 
ATOM      3  C   UNL A   1      33.053  28.653  23.615  1.00  0.00     0.243 C 
ATOM      4  O   UNL A   1      33.063  29.134  22.475  1.00  0.00    -0.273 OA
ATOM      5  H   UNL A   1      33.243  30.467  24.413  1.00  0.00     0.163 HD
BRANCH   3   6
ATOM      6  C   UNL A   1      32.816  27.142  23.807  1.00  0.00     0.185 C 
ATOM      7  N   UNL A   1      31.490  26.587  23.506  1.00  0.00    -0.321 N 
ATOM      8  C   UNL A   1      31.459  25.566  22.498  1.00  0.00     0.190 C 
ATOM      9  S   UNL A   1      33.128  25.102  22.051  1.00  0.00    -0.138 SA
ATOM     10  C   UNL A   1      33.913  26.374  23.064  1.00  0.00     0.106 C 
BRANCH   7  11
ATOM     11  C   UNL A   1      30.441  26.918  24.343  1.00  0.00     0.223 C 
ATOM     12  O   UNL A   1      30.257  26.300  25.394  1.00  0.00    -0.275 OA
BRANCH  11  13
ATOM     13  C   UNL A   1      29.387  27.926  23.880  1.00  0.00     0.100 C 
BRANCH  13  14
ATOM     14  C   UNL A   1      29.567  28.661  22.552  1.00  0.00     0.010 C 
BRANCH  14  15
ATOM     15  C   UNL A   1      28.460  29.623  22.099  1.00  0.00     0.000 C 
BRANCH  15  16
ATOM     16  C   UNL A   1      27.596  30.264  23.195  1.00  0.00    -0.003 C 
ATOM     17  C   UNL A   1      27.786  31.759  23.356  1.00  0.00     0.004 C 
ENDBRANCH  15  16
ENDBRANCH  14  15
ENDBRANCH  13  14
ENDBRANCH  11  13
ENDBRANCH   7  11
ENDBRANCH   3   6
ENDBRANCH   1   2
BRANCH   1  18
ATOM     18  C   UNL A   1      34.049  29.395  26.900  1.00  0.00     0.023 C 
BRANCH  18  19
ATOM     19  C   UNL A   1      34.252  30.754  27.573  1.00  0.00     0.023 C 
BRANCH  19  20
ATOM     20  C   UNL A   1      35.588  30.924  28.290  1.00  0.00     0.116 C 
BRANCH  20  21
ATOM     21  N   UNL A   1      35.486  30.809  29.735  1.00  0.00    -0.352 N 
ATOM     22  C   UNL A   1      36.449  30.395  30.629  1.00  0.00     0.251 C 
ATOM     23  H   UNL A   1      34.617  31.059  30.125  1.00  0.00     0.163 HD
ATOM     24  O   UNL A   1      36.165  30.233  31.805  1.00  0.00    -0.269 OA
BRANCH  22  25
ATOM     25  C   UNL A   1      37.816  30.111  30.137  1.00  0.00     0.039 A 
ATOM     26  C   UNL A   1      38.830  29.882  31.068  1.00  0.00     0.014 A 
ATOM     27  C   UNL A   1      38.089  30.052  28.767  1.00  0.00     0.014 A 
ATOM     28  C   UNL A   1      40.109  29.543  30.623  1.00  0.00     0.010 A 
ATOM     29  C   UNL A   1      39.344  29.637  28.328  1.00  0.00     0.010 A 
ATOM     30  C   UNL A   1      40.370  29.391  29.251  1.00  0.00    -0.014 A 
BRANCH  30  31
ATOM     31  C   UNL A   1      41.720  28.995  28.773  1.00  0.00     0.031 A 
ATOM     32  C   UNL A   1      42.823  30.016  28.690  1.00  0.00     0.074 A 
ATOM     33  C   UNL A   1      41.943  27.723  28.383  1.00  0.00     0.049 A 
ATOM     34  N   UNL A   1      44.060  29.865  28.293  1.00  0.00    -0.248 NA
ATOM     35  C   UNL A   1      42.484  31.396  29.080  1.00  0.00     0.031 C 
ATOM     36  C   UNL A   1      40.938  26.659  28.357  1.00  0.00     0.029 A 
ATOM     37  N   UNL A   1      43.085  27.111  27.933  1.00  0.00    -0.354 N 
ATOM     38  C   UNL A   1      44.645  31.123  28.386  1.00  0.00     0.074 A 
ATOM     39  C   UNL A   1      43.610  32.040  28.808  1.00  0.00     0.031 C 
ATOM     40  C   UNL A   1      41.514  25.519  27.940  1.00  0.00     0.029 A 
ATOM     41  C   UNL A   1      42.918  25.777  27.641  1.00  0.00     0.049 A 
ATOM     42  H   UNL A   1      43.944  27.581  27.828  1.00  0.00     0.167 HD
ATOM     43  C   UNL A   1      45.935  31.476  28.174  1.00  0.00     0.037 A 
ATOM     44  C   UNL A   1      43.799  24.865  27.182  1.00  0.00     0.037 A 
ATOM     45  C   UNL A   1      46.965  30.553  27.772  1.00  0.00     0.049 A 
ATOM     46  C   UNL A   1      45.229  25.280  26.956  1.00  0.00     0.074 A 
ATOM     47  C   UNL A   1      48.312  30.801  27.574  1.00  0.00     0.029 A 
ATOM     48  N   UNL A   1      46.763  29.206  27.509  1.00  0.00    -0.354 N 
ATOM     49  N   UNL A   1      45.780  26.459  27.119  1.00  0.00    -0.248 NA
ATOM     50  C   UNL A   1      46.159  24.239  26.498  1.00  0.00     0.031 C 
ATOM     51  C   UNL A   1      48.915  29.613  27.148  1.00  0.00     0.029 A 
ATOM     52  C   UNL A   1      47.956  28.612  27.133  1.00  0.00     0.049 A 
ATOM     53  H   UNL A   1      45.898  28.740  27.578  1.00  0.00     0.167 HD
ATOM     54  C   UNL A   1      47.125  26.297  26.806  1.00  0.00     0.074 A 
ATOM     55  C   UNL A   1      47.307  24.901  26.463  1.00  0.00     0.031 C 
ATOM     56  C   UNL A   1      48.120  27.219  26.800  1.00  0.00     0.037 A 
BRANCH  43  57
ATOM     57  C   UNL A   1      46.308  32.917  28.392  1.00  0.00     0.058 A 
ATOM     58  C   UNL A   1      46.661  33.400  29.664  1.00  0.00     0.135 A 
ATOM     59  C   UNL A   1      46.350  33.820  27.317  1.00  0.00     0.135 A 
ATOM     60  F   UNL A   1      46.623  32.585  30.730  1.00  0.00    -0.206 F 
ATOM     61  C   UNL A   1      47.012  34.730  29.866  1.00  0.00     0.059 A 
ATOM     62  C   UNL A   1      46.727  35.148  27.492  1.00  0.00     0.059 A 
ATOM     63  F   UNL A   1      46.021  33.415  26.080  1.00  0.00    -0.206 F 
ATOM     64  C   UNL A   1      47.044  35.597  28.774  1.00  0.00     0.060 A 
BRANCH  64  65
ATOM     65  S   UNL A   1      47.513  37.317  29.056  1.00  0.00     0.124 S 
ATOM     66  O   UNL A   1      48.413  37.561  27.932  1.00  0.00    -0.237 OA
ATOM     67  O   UNL A   1      46.227  38.003  28.996  1.00  0.00    -0.237 OA
ATOM     68  O   UNL A   1      48.145  37.288  30.370  1.00  0.00    -0.744 OA
ENDBRANCH  64  65
ENDBRANCH  43  57
BRANCH  44  69
ATOM     69  C   UNL A   1      43.357  23.468  26.927  1.00  0.00     0.058 A 
ATOM     70  C   UNL A   1      43.135  23.002  25.622  1.00  0.00     0.135 A 
ATOM     71  C   UNL A   1      43.156  22.566  27.984  1.00  0.00     0.135 A 
ATOM     72  F   UNL A   1      43.309  23.826  24.578  1.00  0.00    -0.206 F 
ATOM     73  C   UNL A   1      42.710  21.700  25.374  1.00  0.00     0.059 A 
ATOM     74  C   UNL A   1      42.759  21.251  27.760  1.00  0.00     0.059 A 
ATOM     75  F   UNL A   1      43.373  22.956  29.250  1.00  0.00    -0.206 F 
ATOM     76  C   UNL A   1      42.527  20.831  26.451  1.00  0.00     0.060 A 
BRANCH  76  77
ATOM     77  S   UNL A   1      42.015  19.131  26.117  1.00  0.00     0.124 S 
ATOM     78  O   UNL A   1      40.584  19.295  25.888  1.00  0.00    -0.237 OA
ATOM     79  O   UNL A   1      42.815  18.797  24.943  1.00  0.00    -0.237 OA
ATOM     80  O   UNL A   1      42.383  18.423  27.339  1.00  0.00    -0.744 OA
ENDBRANCH  76  77
ENDBRANCH  44  69
BRANCH  56  81
ATOM     81  C   UNL A   1      49.501  26.746  26.440  1.00  0.00     0.058 A 
ATOM     82  C   UNL A   1      50.323  26.092  27.371  1.00  0.00     0.135 A 
ATOM     83  C   UNL A   1      49.987  26.901  25.132  1.00  0.00     0.135 A 
ATOM     84  F   UNL A   1      49.909  25.923  28.638  1.00  0.00    -0.206 F 
ATOM     85  C   UNL A   1      51.588  25.630  27.024  1.00  0.00     0.059 A 
ATOM     86  C   UNL A   1      51.237  26.420  24.755  1.00  0.00     0.059 A 
ATOM     87  F   UNL A   1      49.237  27.509  24.198  1.00  0.00    -0.206 F 
ATOM     88  C   UNL A   1      52.035  25.796  25.712  1.00  0.00     0.060 A 
BRANCH  88  89
ATOM     89  S   UNL A   1      53.665  25.161  25.267  1.00  0.00     0.124 S 
ATOM     90  O   UNL A   1      54.506  25.759  26.299  1.00  0.00    -0.237 OA
ATOM     91  O   UNL A   1      53.474  23.716  25.364  1.00  0.00    -0.237 OA
ATOM     92  O   UNL A   1      53.871  25.669  23.915  1.00  0.00    -0.744 OA
ENDBRANCH  88  89
ENDBRANCH  56  81
ENDBRANCH  30  31
ENDBRANCH  22  25
ENDBRANCH  20  21
ENDBRANCH  19  20
ENDBRANCH  18  19
ENDBRANCH   1  18
TORSDOF 19
ENDMDL
MODEL 2
REMARK VINA RESULT:     -10.3      6.889     12.449
REMARK SMILES CCCCCC(=O)N1CSC[C@H]1C(=O)NCCCCNC(=O)c1ccc(-c2c3nc(c(-c4c(F)cc(S(=O)(=O)[O-])cc4F)c4ccc([nH]4)c(-c4c(F)cc(S(=O)(=O)[O-])cc4F)c4nc(c(-c5c(F)cc(S(=O)(=O)[O-])cc5F)c5ccc2[nH]5)C=C4)C=C3)cc1
REMARK SMILES IDX 16 1 15 2 13 3 14 4 12 6 8 7 9 8 10 9 11 10 6 11 7 12 5 13
REMARK SMILES IDX 4 14 3 15 2 16 1 17 17 18 18 19 19 20 20 21 21 22 22 24
REMARK SMILES IDX 23 25 24 26 88 27 25 28 87 29 26 30 27 31 28 32 81 33 29 34
REMARK SMILES IDX 86 35 80 36 82 37 30 38 85 39 79 40 78 41 31 43 65 44 44 45
REMARK SMILES IDX 64 46 45 47 48 48 63 49 83 50 46 51 47 52 62 54 84 55 49 56
REMARK SMILES IDX 32 57 33 58 42 59 34 60 35 61 41 62 43 63 36 64 37 65 38 66
REMARK SMILES IDX 39 67 40 68 66 69 67 70 76 71 68 72 69 73 75 74 77 75 70 76
REMARK SMILES IDX 71 77 72 78 73 79 74 80 50 81 51 82 60 83 52 84 53 85 59 86
REMARK SMILES IDX 61 87 54 88 55 89 56 90 57 91 58 92
REMARK H PARENT 15 5 20 23 82 42 48 53
REMARK Flexibility Score: inf
ROOT
ATOM      1  C   UNL A   1      36.421  22.333  25.337  1.00  0.00     0.116 C 
ENDROOT
BRANCH   1   2
ATOM      2  N   UNL A   1      35.512  22.328  26.458  1.00  0.00    -0.354 N 
ATOM      3  C   UNL A   1      34.320  22.967  26.618  1.00  0.00     0.243 C 
ATOM      4  O   UNL A   1      33.617  22.608  27.570  1.00  0.00    -0.273 OA
ATOM      5  H   UNL A   1      35.797  21.778  27.224  1.00  0.00     0.163 HD
BRANCH   3   6
ATOM      6  C   UNL A   1      33.738  23.913  25.550  1.00  0.00     0.185 C 
ATOM      7  N   UNL A   1      32.766  23.384  24.584  1.00  0.00    -0.321 N 
ATOM      8  C   UNL A   1      31.482  24.024  24.581  1.00  0.00     0.190 C 
ATOM      9  S   UNL A   1      31.520  25.470  25.635  1.00  0.00    -0.138 SA
ATOM     10  C   UNL A   1      33.192  25.164  26.246  1.00  0.00     0.106 C 
BRANCH   7  11
ATOM     11  C   UNL A   1      33.217  22.490  23.631  1.00  0.00     0.223 C 
ATOM     12  O   UNL A   1      34.068  22.830  22.804  1.00  0.00    -0.275 OA
BRANCH  11  13
ATOM     13  C   UNL A   1      32.528  21.133  23.473  1.00  0.00     0.100 C 
BRANCH  13  14
ATOM     14  C   UNL A   1      32.153  20.321  24.712  1.00  0.00     0.010 C 
BRANCH  14  15
ATOM     15  C   UNL A   1      33.268  19.564  25.448  1.00  0.00     0.000 C 
BRANCH  15  16
ATOM     16  C   UNL A   1      34.499  19.156  24.626  1.00  0.00    -0.003 C 
ATOM     17  C   UNL A   1      34.561  17.685  24.268  1.00  0.00     0.004 C 
ENDBRANCH  15  16
ENDBRANCH  14  15
ENDBRANCH  13  14
ENDBRANCH  11  13
ENDBRANCH   7  11
ENDBRANCH   3   6
ENDBRANCH   1   2
BRANCH   1  18
ATOM     18  C   UNL A   1      37.880  22.308  25.777  1.00  0.00     0.023 C 
BRANCH  18  19
ATOM     19  C   UNL A   1      38.354  23.609  26.429  1.00  0.00     0.023 C 
BRANCH  19  20
ATOM     20  C   UNL A   1      39.757  23.555  27.028  1.00  0.00     0.116 C 
BRANCH  20  21
ATOM     21  N   UNL A   1      40.788  24.042  26.126  1.00  0.00    -0.352 N 
ATOM     22  C   UNL A   1      41.525  25.201  26.218  1.00  0.00     0.251 C 
ATOM     23  H   UNL A   1      40.984  23.468  25.350  1.00  0.00     0.163 HD
ATOM     24  O   UNL A   1      42.269  25.530  25.308  1.00  0.00    -0.269 OA
BRANCH  22  25
ATOM     25  C   UNL A   1      41.372  26.060  27.415  1.00  0.00     0.039 A 
ATOM     26  C   UNL A   1      42.227  27.152  27.570  1.00  0.00     0.014 A 
ATOM     27  C   UNL A   1      40.379  25.802  28.363  1.00  0.00     0.014 A 
ATOM     28  C   UNL A   1      42.052  28.015  28.654  1.00  0.00     0.010 A 
ATOM     29  C   UNL A   1      40.156  26.706  29.398  1.00  0.00     0.010 A 
ATOM     30  C   UNL A   1      40.999  27.815  29.562  1.00  0.00    -0.014 A 
BRANCH  30  31
ATOM     31  C   UNL A   1      40.784  28.750  30.696  1.00  0.00     0.031 A 
ATOM     32  C   UNL A   1      41.609  28.619  31.949  1.00  0.00     0.074 A 
ATOM     33  C   UNL A   1      39.827  29.695  30.611  1.00  0.00     0.049 A 
ATOM     34  N   UNL A   1      41.564  29.332  33.045  1.00  0.00    -0.248 NA
ATOM     35  C   UNL A   1      42.596  27.526  31.987  1.00  0.00     0.031 C 
ATOM     36  C   UNL A   1      38.922  29.880  29.475  1.00  0.00     0.029 A 
ATOM     37  N   UNL A   1      39.453  30.676  31.494  1.00  0.00    -0.354 N 
ATOM     38  C   UNL A   1      42.513  28.779  33.897  1.00  0.00     0.074 A 
ATOM     39  C   UNL A   1      43.066  27.626  33.222  1.00  0.00     0.031 C 
ATOM     40  C   UNL A   1      38.116  30.926  29.719  1.00  0.00     0.029 A 
ATOM     41  C   UNL A   1      38.426  31.468  31.038  1.00  0.00     0.049 A 
ATOM     42  H   UNL A   1      39.880  30.801  32.372  1.00  0.00     0.167 HD
ATOM     43  C   UNL A   1      42.911  29.211  35.117  1.00  0.00     0.037 A 
ATOM     44  C   UNL A   1      37.802  32.513  31.618  1.00  0.00     0.037 A 
ATOM     45  C   UNL A   1      42.369  30.371  35.776  1.00  0.00     0.049 A 
ATOM     46  C   UNL A   1      38.265  32.978  32.974  1.00  0.00     0.074 A 
ATOM     47  C   UNL A   1      42.735  30.919  36.993  1.00  0.00     0.029 A 
ATOM     48  N   UNL A   1      41.346  31.161  35.272  1.00  0.00    -0.354 N 
ATOM     49  N   UNL A   1      39.213  32.485  33.735  1.00  0.00    -0.248 NA
ATOM     50  C   UNL A   1      37.584  34.148  33.544  1.00  0.00     0.031 C 
ATOM     51  C   UNL A   1      41.903  32.015  37.245  1.00  0.00     0.029 A 
ATOM     52  C   UNL A   1      41.055  32.183  36.161  1.00  0.00     0.049 A 
ATOM     53  H   UNL A   1      40.893  31.017  34.410  1.00  0.00     0.167 HD
ATOM     54  C   UNL A   1      39.258  33.298  34.862  1.00  0.00     0.074 A 
ATOM     55  C   UNL A   1      38.255  34.325  34.674  1.00  0.00     0.031 C 
ATOM     56  C   UNL A   1      40.056  33.202  35.955  1.00  0.00     0.037 A 
BRANCH  43  57
ATOM     57  C   UNL A   1      44.000  28.437  35.809  1.00  0.00     0.058 A 
ATOM     58  C   UNL A   1      43.704  27.383  36.691  1.00  0.00     0.135 A 
ATOM     59  C   UNL A   1      45.354  28.721  35.563  1.00  0.00     0.135 A 
ATOM     60  F   UNL A   1      42.428  27.078  36.975  1.00  0.00    -0.206 F 
ATOM     61  C   UNL A   1      44.708  26.661  37.326  1.00  0.00     0.059 A 
ATOM     62  C   UNL A   1      46.375  27.992  36.165  1.00  0.00     0.059 A 
ATOM     63  F   UNL A   1      45.695  29.717  34.731  1.00  0.00    -0.206 F 
ATOM     64  C   UNL A   1      46.041  26.971  37.056  1.00  0.00     0.060 A 
BRANCH  64  65
ATOM     65  S   UNL A   1      47.331  26.016  37.883  1.00  0.00     0.124 S 
ATOM     66  O   UNL A   1      48.305  27.057  38.200  1.00  0.00    -0.237 OA
ATOM     67  O   UNL A   1      46.617  25.451  39.022  1.00  0.00    -0.237 OA
ATOM     68  O   UNL A   1      47.748  25.055  36.867  1.00  0.00    -0.744 OA
ENDBRANCH  64  65
ENDBRANCH  43  57
BRANCH  44  69
ATOM     69  C   UNL A   1      36.691  33.202  30.910  1.00  0.00     0.058 A 
ATOM     70  C   UNL A   1      36.943  34.133  29.891  1.00  0.00     0.135 A 
ATOM     71  C   UNL A   1      35.350  32.938  31.233  1.00  0.00     0.135 A 
ATOM     72  F   UNL A   1      38.207  34.424  29.548  1.00  0.00    -0.206 F 
ATOM     73  C   UNL A   1      35.910  34.791  29.231  1.00  0.00     0.059 A 
ATOM     74  C   UNL A   1      34.299  33.563  30.569  1.00  0.00     0.059 A 
ATOM     75  F   UNL A   1      35.053  32.043  32.188  1.00  0.00    -0.206 F 
ATOM     76  C   UNL A   1      34.590  34.498  29.576  1.00  0.00     0.060 A 
BRANCH  76  77
ATOM     77  S   UNL A   1      33.255  35.327  28.686  1.00  0.00     0.124 S 
ATOM     78  O   UNL A   1      32.527  35.965  29.777  1.00  0.00    -0.237 OA
ATOM     79  O   UNL A   1      33.991  36.223  27.799  1.00  0.00    -0.237 OA
ATOM     80  O   UNL A   1      32.563  34.229  28.020  1.00  0.00    -0.744 OA
ENDBRANCH  76  77
ENDBRANCH  44  69
BRANCH  56  81
ATOM     81  C   UNL A   1      39.899  34.250  37.021  1.00  0.00     0.058 A 
ATOM     82  C   UNL A   1      40.582  35.475  36.958  1.00  0.00     0.135 A 
ATOM     83  C   UNL A   1      39.011  34.049  38.090  1.00  0.00     0.135 A 
ATOM     84  F   UNL A   1      41.447  35.716  35.959  1.00  0.00    -0.206 F 
ATOM     85  C   UNL A   1      40.410  36.453  37.932  1.00  0.00     0.059 A 
ATOM     86  C   UNL A   1      38.801  35.025  39.059  1.00  0.00     0.059 A 
ATOM     87  F   UNL A   1      38.323  32.900  38.193  1.00  0.00    -0.206 F 
ATOM     88  C   UNL A   1      39.515  36.220  38.977  1.00  0.00     0.060 A 
BRANCH  88  89
ATOM     89  S   UNL A   1      39.276  37.512  40.215  1.00  0.00     0.124 S 
ATOM     90  O   UNL A   1      40.593  38.138  40.245  1.00  0.00    -0.237 OA
ATOM     91  O   UNL A   1      38.206  38.314  39.626  1.00  0.00    -0.237 OA
ATOM     92  O   UNL A   1      38.904  36.770  41.415  1.00  0.00    -0.744 OA
ENDBRANCH  88  89
ENDBRANCH  56  81
ENDBRANCH  30  31
ENDBRANCH  22  25
ENDBRANCH  20  21
ENDBRANCH  19  20
ENDBRANCH  18  19
ENDBRANCH   1  18
TORSDOF 19
ENDMDL
MODEL 3
REMARK VINA RESULT:     -10.3      3.385      9.405
REMARK SMILES CCCCCC(=O)N1CSC[C@H]1C(=O)NCCCCNC(=O)c1ccc(-c2c3nc(c(-c4c(F)cc(S(=O)(=O)[O-])cc4F)c4ccc([nH]4)c(-c4c(F)cc(S(=O)(=O)[O-])cc4F)c4nc(c(-c5c(F)cc(S(=O)(=O)[O-])cc5F)c5ccc2[nH]5)C=C4)C=C3)cc1
REMARK SMILES IDX 16 1 15 2 13 3 14 4 12 6 8 7 9 8 10 9 11 10 6 11 7 12 5 13
REMARK SMILES IDX 4 14 3 15 2 16 1 17 17 18 18 19 19 20 20 21 21 22 22 24
REMARK SMILES IDX 23 25 24 26 88 27 25 28 87 29 26 30 27 31 28 32 81 33 29 34
REMARK SMILES IDX 86 35 80 36 82 37 30 38 85 39 79 40 78 41 31 43 65 44 44 45
REMARK SMILES IDX 64 46 45 47 48 48 63 49 83 50 46 51 47 52 62 54 84 55 49 56
REMARK SMILES IDX 32 57 33 58 42 59 34 60 35 61 41 62 43 63 36 64 37 65 38 66
REMARK SMILES IDX 39 67 40 68 66 69 67 70 76 71 68 72 69 73 75 74 77 75 70 76
REMARK SMILES IDX 71 77 72 78 73 79 74 80 50 81 51 82 60 83 52 84 53 85 59 86
REMARK SMILES IDX 61 87 54 88 55 89 56 90 57 91 58 92
REMARK H PARENT 15 5 20 23 82 42 48 53
REMARK Flexibility Score: inf
ROOT
ATOM      1  C   UNL A   1      32.886  24.162  25.241  1.00  0.00     0.116 C 
ENDROOT
BRANCH   1   2
ATOM      2  N   UNL A   1      31.796  24.749  25.985  1.00  0.00    -0.354 N 
ATOM      3  C   UNL A   1      31.424  26.053  26.105  1.00  0.00     0.243 C 
ATOM      4  O   UNL A   1      30.312  26.273  26.600  1.00  0.00    -0.273 OA
ATOM      5  H   UNL A   1      31.236  24.107  26.480  1.00  0.00     0.163 HD
BRANCH   3   6
ATOM      6  C   UNL A   1      32.211  27.203  25.446  1.00  0.00     0.185 C 
ATOM      7  N   UNL A   1      31.480  28.203  24.656  1.00  0.00    -0.321 N 
ATOM      8  C   UNL A   1      31.601  29.559  25.108  1.00  0.00     0.190 C 
ATOM      9  S   UNL A   1      32.823  29.661  26.411  1.00  0.00    -0.138 SA
ATOM     10  C   UNL A   1      33.082  27.876  26.511  1.00  0.00     0.106 C 
BRANCH   7  11
ATOM     11  C   UNL A   1      30.934  27.806  23.449  1.00  0.00     0.223 C 
ATOM     12  O   UNL A   1      31.662  27.475  22.510  1.00  0.00    -0.275 OA
BRANCH  11  13
ATOM     13  C   UNL A   1      29.431  27.957  23.208  1.00  0.00     0.100 C 
BRANCH  13  14
ATOM     14  C   UNL A   1      28.883  29.249  22.604  1.00  0.00     0.010 C 
BRANCH  14  15
ATOM     15  C   UNL A   1      27.537  29.777  23.119  1.00  0.00     0.000 C 
BRANCH  15  16
ATOM     16  C   UNL A   1      27.492  31.238  23.593  1.00  0.00    -0.003 C 
ATOM     17  C   UNL A   1      28.829  31.952  23.567  1.00  0.00     0.004 C 
ENDBRANCH  15  16
ENDBRANCH  14  15
ENDBRANCH  13  14
ENDBRANCH  11  13
ENDBRANCH   7  11
ENDBRANCH   3   6
ENDBRANCH   1   2
BRANCH   1  18
ATOM     18  C   UNL A   1      34.085  23.847  26.127  1.00  0.00     0.023 C 
BRANCH  18  19
ATOM     19  C   UNL A   1      35.286  23.280  25.367  1.00  0.00     0.023 C 
BRANCH  19  20
ATOM     20  C   UNL A   1      36.646  23.779  25.846  1.00  0.00     0.116 C 
BRANCH  20  21
ATOM     21  N   UNL A   1      37.623  22.717  26.017  1.00  0.00    -0.352 N 
ATOM     22  C   UNL A   1      38.933  22.819  26.431  1.00  0.00     0.251 C 
ATOM     23  H   UNL A   1      37.308  21.807  25.810  1.00  0.00     0.163 HD
ATOM     24  O   UNL A   1      39.664  21.843  26.403  1.00  0.00    -0.269 OA
BRANCH  22  25
ATOM     25  C   UNL A   1      39.449  24.136  26.871  1.00  0.00     0.039 A 
ATOM     26  C   UNL A   1      39.357  24.475  28.222  1.00  0.00     0.014 A 
ATOM     27  C   UNL A   1      40.038  25.018  25.961  1.00  0.00     0.014 A 
ATOM     28  C   UNL A   1      39.902  25.680  28.668  1.00  0.00     0.010 A 
ATOM     29  C   UNL A   1      40.650  26.181  26.420  1.00  0.00     0.010 A 
ATOM     30  C   UNL A   1      40.577  26.530  27.776  1.00  0.00    -0.014 A 
BRANCH  30  31
ATOM     31  C   UNL A   1      41.191  27.797  28.251  1.00  0.00     0.031 A 
ATOM     32  C   UNL A   1      42.683  27.988  28.176  1.00  0.00     0.074 A 
ATOM     33  C   UNL A   1      40.410  28.761  28.779  1.00  0.00     0.049 A 
ATOM     34  N   UNL A   1      43.403  29.016  28.546  1.00  0.00    -0.248 NA
ATOM     35  C   UNL A   1      43.473  26.867  27.639  1.00  0.00     0.031 C 
ATOM     36  C   UNL A   1      38.961  28.667  28.964  1.00  0.00     0.029 A 
ATOM     37  N   UNL A   1      40.724  30.007  29.259  1.00  0.00    -0.354 N 
ATOM     38  C   UNL A   1      44.723  28.668  28.286  1.00  0.00     0.074 A 
ATOM     39  C   UNL A   1      44.713  27.308  27.795  1.00  0.00     0.031 C 
ATOM     40  C   UNL A   1      38.508  29.816  29.492  1.00  0.00     0.029 A 
ATOM     41  C   UNL A   1      39.635  30.716  29.711  1.00  0.00     0.049 A 
ATOM     42  H   UNL A   1      41.642  30.361  29.279  1.00  0.00     0.167 HD
ATOM     43  C   UNL A   1      45.840  29.424  28.411  1.00  0.00     0.037 A 
ATOM     44  C   UNL A   1      39.555  31.952  30.243  1.00  0.00     0.037 A 
ATOM     45  C   UNL A   1      45.841  30.784  28.883  1.00  0.00     0.049 A 
ATOM     46  C   UNL A   1      40.810  32.775  30.369  1.00  0.00     0.074 A 
ATOM     47  C   UNL A   1      46.912  31.651  29.005  1.00  0.00     0.029 A 
ATOM     48  N   UNL A   1      44.716  31.475  29.309  1.00  0.00    -0.354 N 
ATOM     49  N   UNL A   1      42.042  32.454  30.052  1.00  0.00    -0.248 NA
ATOM     50  C   UNL A   1      40.663  34.131  30.914  1.00  0.00     0.031 C 
ATOM     51  C   UNL A   1      46.442  32.852  29.546  1.00  0.00     0.029 A 
ATOM     52  C   UNL A   1      45.069  32.752  29.711  1.00  0.00     0.049 A 
ATOM     53  H   UNL A   1      43.801  31.111  29.324  1.00  0.00     0.167 HD
ATOM     54  C   UNL A   1      42.812  33.576  30.335  1.00  0.00     0.074 A 
ATOM     55  C   UNL A   1      41.905  34.589  30.833  1.00  0.00     0.031 C 
ATOM     56  C   UNL A   1      44.151  33.752  30.199  1.00  0.00     0.037 A 
BRANCH  43  57
ATOM     57  C   UNL A   1      47.151  28.801  28.014  1.00  0.00     0.058 A 
ATOM     58  C   UNL A   1      47.957  28.128  28.948  1.00  0.00     0.135 A 
ATOM     59  C   UNL A   1      47.592  28.842  26.681  1.00  0.00     0.135 A 
ATOM     60  F   UNL A   1      47.592  28.072  30.239  1.00  0.00    -0.206 F 
ATOM     61  C   UNL A   1      49.165  27.546  28.582  1.00  0.00     0.059 A 
ATOM     62  C   UNL A   1      48.784  28.240  26.287  1.00  0.00     0.059 A 
ATOM     63  F   UNL A   1      46.864  29.472  25.746  1.00  0.00    -0.206 F 
ATOM     64  C   UNL A   1      49.570  27.605  27.249  1.00  0.00     0.060 A 
BRANCH  64  65
ATOM     65  S   UNL A   1      51.137  26.834  26.791  1.00  0.00     0.124 S 
ATOM     66  O   UNL A   1      52.085  27.605  27.592  1.00  0.00    -0.237 OA
ATOM     67  O   UNL A   1      50.936  25.450  27.208  1.00  0.00    -0.237 OA
ATOM     68  O   UNL A   1      51.215  27.048  25.350  1.00  0.00    -0.744 OA
ENDBRANCH  64  65
ENDBRANCH  43  57
BRANCH  44  69
ATOM     69  C   UNL A   1      38.238  32.492  30.674  1.00  0.00     0.058 A 
ATOM     70  C   UNL A   1      37.791  32.349  31.997  1.00  0.00     0.135 A 
ATOM     71  C   UNL A   1      37.402  33.170  29.774  1.00  0.00     0.135 A 
ATOM     72  F   UNL A   1      38.552  31.705  32.895  1.00  0.00    -0.206 F 
ATOM     73  C   UNL A   1      36.556  32.840  32.408  1.00  0.00     0.059 A 
ATOM     74  C   UNL A   1      36.174  33.694  30.167  1.00  0.00     0.059 A 
ATOM     75  F   UNL A   1      37.789  33.350  28.502  1.00  0.00    -0.206 F 
ATOM     76  C   UNL A   1      35.754  33.514  31.484  1.00  0.00     0.060 A 
BRANCH  76  77
ATOM     77  S   UNL A   1      34.170  34.183  32.036  1.00  0.00     0.124 S 
ATOM     78  O   UNL A   1      33.538  34.525  30.767  1.00  0.00    -0.237 OA
ATOM     79  O   UNL A   1      33.593  33.050  32.752  1.00  0.00    -0.237 OA
ATOM     80  O   UNL A   1      34.557  35.312  32.876  1.00  0.00    -0.744 OA
ENDBRANCH  76  77
ENDBRANCH  44  69
BRANCH  56  81
ATOM     81  C   UNL A   1      44.714  35.097  30.564  1.00  0.00     0.058 A 
ATOM     82  C   UNL A   1      44.793  36.142  29.630  1.00  0.00     0.135 A 
ATOM     83  C   UNL A   1      45.127  35.361  31.880  1.00  0.00     0.135 A 
ATOM     84  F   UNL A   1      44.416  35.941  28.357  1.00  0.00    -0.206 F 
ATOM     85  C   UNL A   1      45.287  37.394  29.982  1.00  0.00     0.059 A 
ATOM     86  C   UNL A   1      45.596  36.614  32.261  1.00  0.00     0.059 A 
ATOM     87  F   UNL A   1      45.061  34.400  32.816  1.00  0.00    -0.206 F 
ATOM     88  C   UNL A   1      45.684  37.621  31.301  1.00  0.00     0.060 A 
BRANCH  88  89
ATOM     89  S   UNL A   1      46.290  39.261  31.751  1.00  0.00     0.124 S 
ATOM     90  O   UNL A   1      46.750  39.768  30.463  1.00  0.00    -0.237 OA
ATOM     91  O   UNL A   1      45.093  39.898  32.293  1.00  0.00    -0.237 OA
ATOM     92  O   UNL A   1      47.338  38.980  32.727  1.00  0.00    -0.744 OA
ENDBRANCH  88  89
ENDBRANCH  56  81
ENDBRANCH  30  31
ENDBRANCH  22  25
ENDBRANCH  20  21
ENDBRANCH  19  20
ENDBRANCH  18  19
ENDBRANCH   1  18
TORSDOF 19
ENDMDL
