MODEL 1
REMARK VINA RESULT:     -10.1      0.000      0.000
REMARK SMILES CC[NH2+][C@@](C)(C[C@@H](C)Sc1ccncc1)C(=O)NCCCCNC(=O)c1ccc(-c2c3nc(c(-c4c(F)cc(S(=O)(=O)[O-])cc4F)c4ccc([nH]4)c(-c4c(F)cc(S(=O)(=O)[O-])cc4F)c4nc(c(-c5c(F)cc(S(=O)(=O)[O-])cc5F)c5ccc2[nH]5)C=C4)C=C3)cc1
REMARK SMILES IDX 20 1 19 2 18 3 16 4 17 5 4 7 5 8 3 9 2 12 1 13 6 14 7 15
REMARK SMILES IDX 8 16 9 17 10 18 11 19 15 20 12 21 14 22 13 23 21 24 22 25
REMARK SMILES IDX 23 26 24 27 25 29 26 30 27 31 91 32 28 33 90 34 29 35 30 36
REMARK SMILES IDX 31 37 84 38 32 39 89 40 83 41 85 42 33 43 88 44 82 45 81 46
REMARK SMILES IDX 34 48 68 49 47 50 67 51 48 52 51 53 66 54 86 55 49 56 50 57
REMARK SMILES IDX 65 59 87 60 52 61 35 62 36 63 45 64 37 65 38 66 44 67 46 68
REMARK SMILES IDX 39 69 40 70 41 71 42 72 43 73 69 74 70 75 79 76 71 77 72 78
REMARK SMILES IDX 78 79 80 80 73 81 74 82 75 83 76 84 77 85 53 86 54 87 63 88
REMARK SMILES IDX 55 89 56 90 62 91 64 92 57 93 58 94 59 95 60 96 61 97
REMARK H PARENT 18 6 3 10 3 11 23 28 85 47 51 58
REMARK Flexibility Score: inf
ROOT
ATOM      1  C   UNL A   1      37.023  23.340  24.374  1.00  0.00     0.023 C 
ENDROOT
BRANCH   1   2
ATOM      2  C   UNL A   1      35.544  23.671  24.201  1.00  0.00     0.116 C 
BRANCH   2   3
ATOM      3  N   UNL A   1      34.749  22.488  23.942  1.00  0.00    -0.351 N 
ATOM      4  C   UNL A   1      33.442  22.174  24.160  1.00  0.00     0.281 C 
ATOM      5  O   UNL A   1      33.140  21.014  23.858  1.00  0.00    -0.268 OA
ATOM      6  H   UNL A   1      35.260  21.760  23.519  1.00  0.00     0.163 HD
BRANCH   4   7
ATOM      7  C   UNL A   1      32.398  23.200  24.743  1.00  0.00     0.173 C 
ATOM      8  C   UNL A   1      31.100  22.464  25.156  1.00  0.00     0.090 C 
BRANCH   7   9
ATOM      9  N   UNL A   1      32.936  23.898  25.956  1.00  0.00    -0.334 N 
ATOM     10  H   UNL A   1      33.954  23.861  25.913  1.00  0.00     0.347 HD
ATOM     11  H   UNL A   1      32.554  24.844  25.924  1.00  0.00     0.347 HD
BRANCH   9  12
ATOM     12  C   UNL A   1      32.518  23.341  27.248  1.00  0.00     0.257 C 
ATOM     13  C   UNL A   1      33.657  22.523  27.844  1.00  0.00     0.071 C 
ENDBRANCH   9  12
ENDBRANCH   7   9
BRANCH   7  14
ATOM     14  C   UNL A   1      32.037  24.307  23.707  1.00  0.00     0.093 C 
BRANCH  14  15
ATOM     15  C   UNL A   1      32.520  25.752  23.965  1.00  0.00     0.055 C 
ATOM     16  C   UNL A   1      33.359  26.406  22.874  1.00  0.00     0.020 C 
BRANCH  15  17
ATOM     17  S   UNL A   1      31.077  26.843  24.427  1.00  0.00    -0.123 SA
BRANCH  17  18
ATOM     18  C   UNL A   1      31.785  28.052  25.535  1.00  0.00     0.011 A 
ATOM     19  C   UNL A   1      31.461  29.401  25.396  1.00  0.00     0.035 A 
ATOM     20  C   UNL A   1      32.755  27.687  26.468  1.00  0.00     0.035 A 
ATOM     21  C   UNL A   1      32.090  30.318  26.222  1.00  0.00     0.112 A 
ATOM     22  C   UNL A   1      33.322  28.677  27.253  1.00  0.00     0.112 A 
ATOM     23  N   UNL A   1      33.005  29.984  27.156  1.00  0.00    -0.265 NA
ENDBRANCH  17  18
ENDBRANCH  15  17
ENDBRANCH  14  15
ENDBRANCH   7  14
ENDBRANCH   4   7
ENDBRANCH   2   3
ENDBRANCH   1   2
BRANCH   1  24
ATOM     24  C   UNL A   1      37.453  22.989  25.793  1.00  0.00     0.023 C 
BRANCH  24  25
ATOM     25  C   UNL A   1      38.337  24.030  26.463  1.00  0.00     0.116 C 
BRANCH  25  26
ATOM     26  N   UNL A   1      39.748  23.888  26.127  1.00  0.00    -0.352 N 
ATOM     27  C   UNL A   1      40.806  24.667  26.522  1.00  0.00     0.251 C 
ATOM     28  H   UNL A   1      39.971  23.130  25.538  1.00  0.00     0.163 HD
ATOM     29  O   UNL A   1      41.927  24.469  26.065  1.00  0.00    -0.269 OA
BRANCH  27  30
ATOM     30  C   UNL A   1      40.565  25.766  27.476  1.00  0.00     0.039 A 
ATOM     31  C   UNL A   1      39.616  25.591  28.485  1.00  0.00     0.014 A 
ATOM     32  C   UNL A   1      41.327  26.937  27.408  1.00  0.00     0.014 A 
ATOM     33  C   UNL A   1      39.482  26.565  29.474  1.00  0.00     0.010 A 
ATOM     34  C   UNL A   1      41.246  27.866  28.437  1.00  0.00     0.010 A 
ATOM     35  C   UNL A   1      40.324  27.689  29.479  1.00  0.00    -0.014 A 
BRANCH  35  36
ATOM     36  C   UNL A   1      40.260  28.700  30.562  1.00  0.00     0.031 A 
ATOM     37  C   UNL A   1      41.154  28.564  31.762  1.00  0.00     0.074 A 
ATOM     38  C   UNL A   1      39.347  29.690  30.499  1.00  0.00     0.049 A 
ATOM     39  N   UNL A   1      41.174  29.272  32.861  1.00  0.00    -0.248 NA
ATOM     40  C   UNL A   1      42.134  27.466  31.737  1.00  0.00     0.031 C 
ATOM     41  C   UNL A   1      38.387  29.889  29.411  1.00  0.00     0.029 A 
ATOM     42  N   UNL A   1      39.069  30.707  31.377  1.00  0.00    -0.354 N 
ATOM     43  C   UNL A   1      42.153  28.697  33.661  1.00  0.00     0.074 A 
ATOM     44  C   UNL A   1      42.665  27.547  32.948  1.00  0.00     0.031 C 
ATOM     45  C   UNL A   1      37.640  30.973  29.677  1.00  0.00     0.029 A 
ATOM     46  C   UNL A   1      38.044  31.525  30.966  1.00  0.00     0.049 A 
ATOM     47  H   UNL A   1      39.558  30.837  32.221  1.00  0.00     0.167 HD
ATOM     48  C   UNL A   1      42.604  29.107  34.870  1.00  0.00     0.037 A 
ATOM     49  C   UNL A   1      37.490  32.597  31.565  1.00  0.00     0.037 A 
ATOM     50  C   UNL A   1      42.113  30.270  35.559  1.00  0.00     0.049 A 
ATOM     51  C   UNL A   1      38.030  33.054  32.891  1.00  0.00     0.074 A 
ATOM     52  C   UNL A   1      42.526  30.790  36.772  1.00  0.00     0.029 A 
ATOM     53  N   UNL A   1      41.110  31.104  35.087  1.00  0.00    -0.354 N 
ATOM     54  N   UNL A   1      38.976  32.515  33.623  1.00  0.00    -0.248 NA
ATOM     55  C   UNL A   1      37.438  34.268  33.469  1.00  0.00     0.031 C 
ATOM     56  C   UNL A   1      41.756  31.927  37.045  1.00  0.00     0.029 A 
ATOM     57  C   UNL A   1      40.890  32.136  35.982  1.00  0.00     0.049 A 
ATOM     58  H   UNL A   1      40.625  30.979  34.238  1.00  0.00     0.167 HD
ATOM     59  C   UNL A   1      39.106  33.333  34.739  1.00  0.00     0.074 A 
ATOM     60  C   UNL A   1      38.151  34.412  34.578  1.00  0.00     0.031 C 
ATOM     61  C   UNL A   1      39.939  33.203  35.800  1.00  0.00     0.037 A 
BRANCH  48  62
ATOM     62  C   UNL A   1      43.701  28.302  35.509  1.00  0.00     0.058 A 
ATOM     63  C   UNL A   1      45.053  28.568  35.238  1.00  0.00     0.135 A 
ATOM     64  C   UNL A   1      43.404  27.273  36.416  1.00  0.00     0.135 A 
ATOM     65  F   UNL A   1      45.391  29.528  34.362  1.00  0.00    -0.206 F 
ATOM     66  C   UNL A   1      46.072  27.827  35.826  1.00  0.00     0.059 A 
ATOM     67  C   UNL A   1      44.409  26.535  37.036  1.00  0.00     0.059 A 
ATOM     68  F   UNL A   1      42.129  26.974  36.705  1.00  0.00    -0.206 F 
ATOM     69  C   UNL A   1      45.740  26.811  36.724  1.00  0.00     0.060 A 
BRANCH  69  70
ATOM     70  S   UNL A   1      47.074  25.864  37.485  1.00  0.00     0.124 S 
ATOM     71  O   UNL A   1      47.119  26.449  38.823  1.00  0.00    -0.237 OA
ATOM     72  O   UNL A   1      46.571  24.496  37.409  1.00  0.00    -0.237 OA
ATOM     73  O   UNL A   1      48.225  26.154  36.636  1.00  0.00    -0.744 OA
ENDBRANCH  69  70
ENDBRANCH  48  62
BRANCH  49  74
ATOM     74  C   UNL A   1      36.384  33.327  30.891  1.00  0.00     0.058 A 
ATOM     75  C   UNL A   1      35.058  33.185  31.325  1.00  0.00     0.135 A 
ATOM     76  C   UNL A   1      36.634  34.210  29.829  1.00  0.00     0.135 A 
ATOM     77  F   UNL A   1      34.770  32.348  32.334  1.00  0.00    -0.206 F 
ATOM     78  C   UNL A   1      34.017  33.888  30.729  1.00  0.00     0.059 A 
ATOM     79  C   UNL A   1      35.612  34.940  29.230  1.00  0.00     0.059 A 
ATOM     80  F   UNL A   1      37.889  34.393  29.389  1.00  0.00    -0.206 F 
ATOM     81  C   UNL A   1      34.305  34.768  29.685  1.00  0.00     0.060 A 
BRANCH  81  82
ATOM     82  S   UNL A   1      32.956  35.731  28.966  1.00  0.00     0.124 S 
ATOM     83  O   UNL A   1      32.178  36.076  30.150  1.00  0.00    -0.237 OA
ATOM     84  O   UNL A   1      33.671  36.834  28.329  1.00  0.00    -0.237 OA
ATOM     85  O   UNL A   1      32.326  34.789  28.046  1.00  0.00    -0.744 OA
ENDBRANCH  81  82
ENDBRANCH  49  74
BRANCH  61  86
ATOM     86  C   UNL A   1      39.877  34.264  36.861  1.00  0.00     0.058 A 
ATOM     87  C   UNL A   1      38.942  34.204  37.905  1.00  0.00     0.135 A 
ATOM     88  C   UNL A   1      40.803  35.318  36.865  1.00  0.00     0.135 A 
ATOM     89  F   UNL A   1      38.033  33.218  37.942  1.00  0.00    -0.206 F 
ATOM     90  C   UNL A   1      38.917  35.165  38.910  1.00  0.00     0.059 A 
ATOM     91  C   UNL A   1      40.811  36.277  37.873  1.00  0.00     0.059 A 
ATOM     92  F   UNL A   1      41.724  35.413  35.893  1.00  0.00    -0.206 F 
ATOM     93  C   UNL A   1      39.856  36.197  38.886  1.00  0.00     0.060 A 
BRANCH  93  94
ATOM     94  S   UNL A   1      39.839  37.416  40.217  1.00  0.00     0.124 S 
ATOM     95  O   UNL A   1      40.609  38.506  39.627  1.00  0.00    -0.237 OA
ATOM     96  O   UNL A   1      38.412  37.672  40.390  1.00  0.00    -0.237 OA
ATOM     97  O   UNL A   1      40.483  36.718  41.326  1.00  0.00    -0.744 OA
ENDBRANCH  93  94
ENDBRANCH  61  86
ENDBRANCH  35  36
ENDBRANCH  27  30
ENDBRANCH  25  26
ENDBRANCH  24  25
ENDBRANCH   1  24
TORSDOF 20
ENDMDL
MODEL 2
REMARK VINA RESULT:      -9.8      6.763     11.333
REMARK SMILES CC[NH2+][C@@](C)(C[C@@H](C)Sc1ccncc1)C(=O)NCCCCNC(=O)c1ccc(-c2c3nc(c(-c4c(F)cc(S(=O)(=O)[O-])cc4F)c4ccc([nH]4)c(-c4c(F)cc(S(=O)(=O)[O-])cc4F)c4nc(c(-c5c(F)cc(S(=O)(=O)[O-])cc5F)c5ccc2[nH]5)C=C4)C=C3)cc1
REMARK SMILES IDX 20 1 19 2 18 3 16 4 17 5 4 7 5 8 3 9 2 12 1 13 6 14 7 15
REMARK SMILES IDX 8 16 9 17 10 18 11 19 15 20 12 21 14 22 13 23 21 24 22 25
REMARK SMILES IDX 23 26 24 27 25 29 26 30 27 31 91 32 28 33 90 34 29 35 30 36
REMARK SMILES IDX 31 37 84 38 32 39 89 40 83 41 85 42 33 43 88 44 82 45 81 46
REMARK SMILES IDX 34 48 68 49 47 50 67 51 48 52 51 53 66 54 86 55 49 56 50 57
REMARK SMILES IDX 65 59 87 60 52 61 35 62 36 63 45 64 37 65 38 66 44 67 46 68
REMARK SMILES IDX 39 69 40 70 41 71 42 72 43 73 69 74 70 75 79 76 71 77 72 78
REMARK SMILES IDX 78 79 80 80 73 81 74 82 75 83 76 84 77 85 53 86 54 87 63 88
REMARK SMILES IDX 55 89 56 90 62 91 64 92 57 93 58 94 59 95 60 96 61 97
REMARK H PARENT 18 6 3 10 3 11 23 28 85 47 51 58
REMARK Flexibility Score: inf
ROOT
ATOM      1  C   UNL A   1      39.002  23.135  26.616  1.00  0.00     0.023 C 
ENDROOT
BRANCH   1   2
ATOM      2  C   UNL A   1      37.773  23.791  25.995  1.00  0.00     0.116 C 
BRANCH   2   3
ATOM      3  N   UNL A   1      37.640  23.475  24.588  1.00  0.00    -0.351 N 
ATOM      4  C   UNL A   1      36.570  23.245  23.778  1.00  0.00     0.281 C 
ATOM      5  O   UNL A   1      36.867  22.932  22.619  1.00  0.00    -0.268 OA
ATOM      6  H   UNL A   1      38.504  23.416  24.119  1.00  0.00     0.163 HD
BRANCH   4   7
ATOM      7  C   UNL A   1      35.079  23.368  24.270  1.00  0.00     0.173 C 
ATOM      8  C   UNL A   1      35.036  23.981  25.692  1.00  0.00     0.090 C 
BRANCH   7   9
ATOM      9  N   UNL A   1      34.275  24.252  23.365  1.00  0.00    -0.334 N 
ATOM     10  H   UNL A   1      34.924  24.764  22.769  1.00  0.00     0.347 HD
ATOM     11  H   UNL A   1      33.647  23.630  22.855  1.00  0.00     0.347 HD
BRANCH   9  12
ATOM     12  C   UNL A   1      33.411  25.231  24.035  1.00  0.00     0.257 C 
ATOM     13  C   UNL A   1      33.710  26.627  23.502  1.00  0.00     0.071 C 
ENDBRANCH   9  12
ENDBRANCH   7   9
BRANCH   7  14
ATOM     14  C   UNL A   1      34.365  21.983  24.301  1.00  0.00     0.093 C 
BRANCH  14  15
ATOM     15  C   UNL A   1      33.191  21.776  25.283  1.00  0.00     0.055 C 
ATOM     16  C   UNL A   1      31.788  22.042  24.750  1.00  0.00     0.020 C 
BRANCH  15  17
ATOM     17  S   UNL A   1      33.287  20.078  26.056  1.00  0.00    -0.123 SA
BRANCH  17  18
ATOM     18  C   UNL A   1      33.388  18.971  24.659  1.00  0.00     0.011 A 
ATOM     19  C   UNL A   1      32.359  18.939  23.717  1.00  0.00     0.035 A 
ATOM     20  C   UNL A   1      34.424  18.044  24.552  1.00  0.00     0.035 A 
ATOM     21  C   UNL A   1      32.434  18.012  22.690  1.00  0.00     0.112 A 
ATOM     22  C   UNL A   1      34.414  17.161  23.485  1.00  0.00     0.112 A 
ATOM     23  N   UNL A   1      33.445  17.130  22.547  1.00  0.00    -0.265 NA
ENDBRANCH  17  18
ENDBRANCH  15  17
ENDBRANCH  14  15
ENDBRANCH   7  14
ENDBRANCH   4   7
ENDBRANCH   2   3
ENDBRANCH   1   2
BRANCH   1  24
ATOM     24  C   UNL A   1      39.460  21.843  25.949  1.00  0.00     0.023 C 
BRANCH  24  25
ATOM     25  C   UNL A   1      40.139  20.854  26.884  1.00  0.00     0.116 C 
BRANCH  25  26
ATOM     26  N   UNL A   1      40.982  19.891  26.189  1.00  0.00    -0.352 N 
ATOM     27  C   UNL A   1      42.258  20.057  25.708  1.00  0.00     0.251 C 
ATOM     28  H   UNL A   1      40.584  19.002  26.044  1.00  0.00     0.163 HD
ATOM     29  O   UNL A   1      42.794  19.170  25.052  1.00  0.00    -0.269 OA
BRANCH  27  30
ATOM     30  C   UNL A   1      42.956  21.331  25.966  1.00  0.00     0.039 A 
ATOM     31  C   UNL A   1      43.016  22.287  24.951  1.00  0.00     0.014 A 
ATOM     32  C   UNL A   1      43.488  21.598  27.231  1.00  0.00     0.014 A 
ATOM     33  C   UNL A   1      43.548  23.546  25.228  1.00  0.00     0.010 A 
ATOM     34  C   UNL A   1      43.944  22.876  27.525  1.00  0.00     0.010 A 
ATOM     35  C   UNL A   1      43.978  23.862  26.527  1.00  0.00    -0.014 A 
BRANCH  35  36
ATOM     36  C   UNL A   1      44.473  25.217  26.871  1.00  0.00     0.031 A 
ATOM     37  C   UNL A   1      43.518  26.243  27.412  1.00  0.00     0.074 A 
ATOM     38  C   UNL A   1      45.757  25.542  26.624  1.00  0.00     0.049 A 
ATOM     39  N   UNL A   1      43.725  27.509  27.667  1.00  0.00    -0.248 NA
ATOM     40  C   UNL A   1      42.140  25.795  27.669  1.00  0.00     0.031 C 
ATOM     41  C   UNL A   1      46.763  24.646  26.047  1.00  0.00     0.029 A 
ATOM     42  N   UNL A   1      46.435  26.719  26.816  1.00  0.00    -0.354 N 
ATOM     43  C   UNL A   1      42.502  28.010  28.098  1.00  0.00     0.074 A 
ATOM     44  C   UNL A   1      41.546  26.928  28.016  1.00  0.00     0.031 C 
ATOM     45  C   UNL A   1      47.932  25.301  25.950  1.00  0.00     0.029 A 
ATOM     46  C   UNL A   1      47.751  26.668  26.426  1.00  0.00     0.049 A 
ATOM     47  H   UNL A   1      46.016  27.524  27.196  1.00  0.00     0.167 HD
ATOM     48  C   UNL A   1      42.211  29.252  28.549  1.00  0.00     0.037 A 
ATOM     49  C   UNL A   1      48.705  27.620  26.445  1.00  0.00     0.037 A 
ATOM     50  C   UNL A   1      43.175  30.315  28.659  1.00  0.00     0.049 A 
ATOM     51  C   UNL A   1      48.366  28.983  26.982  1.00  0.00     0.074 A 
ATOM     52  C   UNL A   1      42.989  31.600  29.134  1.00  0.00     0.029 A 
ATOM     53  N   UNL A   1      44.511  30.209  28.303  1.00  0.00    -0.354 N 
ATOM     54  N   UNL A   1      47.212  29.433  27.412  1.00  0.00    -0.248 NA
ATOM     55  C   UNL A   1      49.458  29.963  27.047  1.00  0.00     0.031 C 
ATOM     56  C   UNL A   1      44.209  32.279  29.045  1.00  0.00     0.029 A 
ATOM     57  C   UNL A   1      45.163  31.404  28.549  1.00  0.00     0.049 A 
ATOM     58  H   UNL A   1      44.934  29.401  27.930  1.00  0.00     0.167 HD
ATOM     59  C   UNL A   1      47.442  30.743  27.816  1.00  0.00     0.074 A 
ATOM     60  C   UNL A   1      48.848  31.008  27.591  1.00  0.00     0.031 C 
ATOM     61  C   UNL A   1      46.567  31.645  28.325  1.00  0.00     0.037 A 
BRANCH  48  62
ATOM     62  C   UNL A   1      40.795  29.518  28.978  1.00  0.00     0.058 A 
ATOM     63  C   UNL A   1      39.760  29.648  28.037  1.00  0.00     0.135 A 
ATOM     64  C   UNL A   1      40.462  29.619  30.338  1.00  0.00     0.135 A 
ATOM     65  F   UNL A   1      40.028  29.581  26.724  1.00  0.00    -0.206 F 
ATOM     66  C   UNL A   1      38.449  29.894  28.428  1.00  0.00     0.059 A 
ATOM     67  C   UNL A   1      39.151  29.839  30.752  1.00  0.00     0.059 A 
ATOM     68  F   UNL A   1      41.413  29.507  31.277  1.00  0.00    -0.206 F 
ATOM     69  C   UNL A   1      38.153  29.989  29.789  1.00  0.00     0.060 A 
BRANCH  69  70
ATOM     70  S   UNL A   1      36.445  30.299  30.280  1.00  0.00     0.124 S 
ATOM     71  O   UNL A   1      36.313  29.423  31.441  1.00  0.00    -0.237 OA
ATOM     72  O   UNL A   1      36.456  31.730  30.565  1.00  0.00    -0.237 OA
ATOM     73  O   UNL A   1      35.676  29.903  29.105  1.00  0.00    -0.744 OA
ENDBRANCH  69  70
ENDBRANCH  48  62
BRANCH  49  74
ATOM     74  C   UNL A   1      50.077  27.297  25.973  1.00  0.00     0.058 A 
ATOM     75  C   UNL A   1      51.065  26.867  26.870  1.00  0.00     0.135 A 
ATOM     76  C   UNL A   1      50.416  27.371  24.613  1.00  0.00     0.135 A 
ATOM     77  F   UNL A   1      50.789  26.785  28.181  1.00  0.00    -0.206 F 
ATOM     78  C   UNL A   1      52.342  26.526  26.439  1.00  0.00     0.059 A 
ATOM     79  C   UNL A   1      51.680  27.016  24.154  1.00  0.00     0.059 A 
ATOM     80  F   UNL A   1      49.499  27.760  23.712  1.00  0.00    -0.206 F 
ATOM     81  C   UNL A   1      52.639  26.599  25.077  1.00  0.00     0.060 A 
BRANCH  81  82
ATOM     82  S   UNL A   1      54.278  26.085  24.519  1.00  0.00     0.124 S 
ATOM     83  O   UNL A   1      55.144  26.922  25.341  1.00  0.00    -0.237 OA
ATOM     84  O   UNL A   1      54.279  24.660  24.837  1.00  0.00    -0.237 OA
ATOM     85  O   UNL A   1      54.260  26.400  23.093  1.00  0.00    -0.744 OA
ENDBRANCH  81  82
ENDBRANCH  49  74
BRANCH  61  86
ATOM     86  C   UNL A   1      47.107  32.995  28.699  1.00  0.00     0.058 A 
ATOM     87  C   UNL A   1      47.112  34.062  27.788  1.00  0.00     0.135 A 
ATOM     88  C   UNL A   1      47.566  33.239  30.003  1.00  0.00     0.135 A 
ATOM     89  F   UNL A   1      46.687  33.877  26.529  1.00  0.00    -0.206 F 
ATOM     90  C   UNL A   1      47.572  35.322  28.153  1.00  0.00     0.059 A 
ATOM     91  C   UNL A   1      48.009  34.498  30.395  1.00  0.00     0.059 A 
ATOM     92  F   UNL A   1      47.571  32.252  30.913  1.00  0.00    -0.206 F 
ATOM     93  C   UNL A   1      48.017  35.531  29.459  1.00  0.00     0.060 A 
BRANCH  93  94
ATOM     94  S   UNL A   1      48.575  37.181  29.932  1.00  0.00     0.124 S 
ATOM     95  O   UNL A   1      48.151  37.246  31.326  1.00  0.00    -0.237 OA
ATOM     96  O   UNL A   1      50.016  37.100  29.711  1.00  0.00    -0.237 OA
ATOM     97  O   UNL A   1      47.855  38.059  29.014  1.00  0.00    -0.744 OA
ENDBRANCH  93  94
ENDBRANCH  61  86
ENDBRANCH  35  36
ENDBRANCH  27  30
ENDBRANCH  25  26
ENDBRANCH  24  25
ENDBRANCH   1  24
TORSDOF 20
ENDMDL
MODEL 3
REMARK VINA RESULT:      -9.8      3.154      9.449
REMARK SMILES CC[NH2+][C@@](C)(C[C@@H](C)Sc1ccncc1)C(=O)NCCCCNC(=O)c1ccc(-c2c3nc(c(-c4c(F)cc(S(=O)(=O)[O-])cc4F)c4ccc([nH]4)c(-c4c(F)cc(S(=O)(=O)[O-])cc4F)c4nc(c(-c5c(F)cc(S(=O)(=O)[O-])cc5F)c5ccc2[nH]5)C=C4)C=C3)cc1
REMARK SMILES IDX 20 1 19 2 18 3 16 4 17 5 4 7 5 8 3 9 2 12 1 13 6 14 7 15
REMARK SMILES IDX 8 16 9 17 10 18 11 19 15 20 12 21 14 22 13 23 21 24 22 25
REMARK SMILES IDX 23 26 24 27 25 29 26 30 27 31 91 32 28 33 90 34 29 35 30 36
REMARK SMILES IDX 31 37 84 38 32 39 89 40 83 41 85 42 33 43 88 44 82 45 81 46
REMARK SMILES IDX 34 48 68 49 47 50 67 51 48 52 51 53 66 54 86 55 49 56 50 57
REMARK SMILES IDX 65 59 87 60 52 61 35 62 36 63 45 64 37 65 38 66 44 67 46 68
REMARK SMILES IDX 39 69 40 70 41 71 42 72 43 73 69 74 70 75 79 76 71 77 72 78
REMARK SMILES IDX 78 79 80 80 73 81 74 82 75 83 76 84 77 85 53 86 54 87 63 88
REMARK SMILES IDX 55 89 56 90 62 91 64 92 57 93 58 94 59 95 60 96 61 97
REMARK H PARENT 18 6 3 10 3 11 23 28 85 47 51 58
REMARK Flexibility Score: inf
ROOT
ATOM      1  C   UNL A   1      31.993  28.260  26.989  1.00  0.00     0.023 C 
ENDROOT
BRANCH   1   2
ATOM      2  C   UNL A   1      31.150  27.227  26.250  1.00  0.00     0.116 C 
BRANCH   2   3
ATOM      3  N   UNL A   1      31.633  26.992  24.904  1.00  0.00    -0.351 N 
ATOM      4  C   UNL A   1      32.066  25.882  24.246  1.00  0.00     0.281 C 
ATOM      5  O   UNL A   1      32.473  26.096  23.099  1.00  0.00    -0.268 OA
ATOM      6  H   UNL A   1      31.652  27.806  24.350  1.00  0.00     0.163 HD
BRANCH   4   7
ATOM      7  C   UNL A   1      32.049  24.443  24.887  1.00  0.00     0.173 C 
ATOM      8  C   UNL A   1      32.811  24.452  26.236  1.00  0.00     0.090 C 
BRANCH   7   9
ATOM      9  N   UNL A   1      30.649  23.979  25.155  1.00  0.00    -0.334 N 
ATOM     10  H   UNL A   1      30.011  24.619  24.681  1.00  0.00     0.347 HD
ATOM     11  H   UNL A   1      30.604  23.019  24.811  1.00  0.00     0.347 HD
BRANCH   9  12
ATOM     12  C   UNL A   1      30.258  23.917  26.567  1.00  0.00     0.257 C 
ATOM     13  C   UNL A   1      29.730  22.525  26.891  1.00  0.00     0.071 C 
ENDBRANCH   9  12
ENDBRANCH   7   9
BRANCH   7  14
ATOM     14  C   UNL A   1      32.706  23.385  23.949  1.00  0.00     0.093 C 
BRANCH  14  15
ATOM     15  C   UNL A   1      33.932  22.598  24.463  1.00  0.00     0.055 C 
ATOM     16  C   UNL A   1      33.752  21.100  24.675  1.00  0.00     0.020 C 
BRANCH  15  17
ATOM     17  S   UNL A   1      35.415  22.934  23.380  1.00  0.00    -0.123 SA
BRANCH  17  18
ATOM     18  C   UNL A   1      36.809  22.733  24.479  1.00  0.00     0.011 A 
ATOM     19  C   UNL A   1      37.476  21.510  24.543  1.00  0.00     0.035 A 
ATOM     20  C   UNL A   1      37.171  23.743  25.368  1.00  0.00     0.035 A 
ATOM     21  C   UNL A   1      38.502  21.367  25.464  1.00  0.00     0.112 A 
ATOM     22  C   UNL A   1      38.215  23.506  26.248  1.00  0.00     0.112 A 
ATOM     23  N   UNL A   1      38.893  22.343  26.310  1.00  0.00    -0.265 NA
ENDBRANCH  17  18
ENDBRANCH  15  17
ENDBRANCH  14  15
ENDBRANCH   7  14
ENDBRANCH   4   7
ENDBRANCH   2   3
ENDBRANCH   1   2
BRANCH   1  24
ATOM     24  C   UNL A   1      33.501  28.053  26.906  1.00  0.00     0.023 C 
BRANCH  24  25
ATOM     25  C   UNL A   1      34.272  29.236  26.339  1.00  0.00     0.116 C 
BRANCH  25  26
ATOM     26  N   UNL A   1      33.944  30.500  26.986  1.00  0.00    -0.352 N 
ATOM     27  C   UNL A   1      34.626  31.157  27.980  1.00  0.00     0.251 C 
ATOM     28  H   UNL A   1      33.123  30.941  26.668  1.00  0.00     0.163 HD
ATOM     29  O   UNL A   1      34.157  32.169  28.489  1.00  0.00    -0.269 OA
BRANCH  27  30
ATOM     30  C   UNL A   1      35.912  30.605  28.447  1.00  0.00     0.039 A 
ATOM     31  C   UNL A   1      37.100  31.140  27.946  1.00  0.00     0.014 A 
ATOM     32  C   UNL A   1      35.936  29.609  29.427  1.00  0.00     0.014 A 
ATOM     33  C   UNL A   1      38.317  30.725  28.484  1.00  0.00     0.010 A 
ATOM     34  C   UNL A   1      37.143  29.256  30.015  1.00  0.00     0.010 A 
ATOM     35  C   UNL A   1      38.345  29.810  29.549  1.00  0.00    -0.014 A 
BRANCH  35  36
ATOM     36  C   UNL A   1      39.619  29.412  30.195  1.00  0.00     0.031 A 
ATOM     37  C   UNL A   1      40.134  30.193  31.370  1.00  0.00     0.074 A 
ATOM     38  C   UNL A   1      40.343  28.400  29.677  1.00  0.00     0.049 A 
ATOM     39  N   UNL A   1      41.274  30.079  32.002  1.00  0.00    -0.248 NA
ATOM     40  C   UNL A   1      39.269  31.269  31.882  1.00  0.00     0.031 C 
ATOM     41  C   UNL A   1      39.971  27.605  28.503  1.00  0.00     0.029 A 
ATOM     42  N   UNL A   1      41.550  27.875  30.063  1.00  0.00    -0.354 N 
ATOM     43  C   UNL A   1      41.268  31.074  32.972  1.00  0.00     0.074 A 
ATOM     44  C   UNL A   1      40.039  31.819  32.809  1.00  0.00     0.031 C 
ATOM     45  C   UNL A   1      40.921  26.683  28.279  1.00  0.00     0.029 A 
ATOM     46  C   UNL A   1      41.982  26.840  29.268  1.00  0.00     0.049 A 
ATOM     47  H   UNL A   1      42.059  28.209  30.837  1.00  0.00     0.167 HD
ATOM     48  C   UNL A   1      42.191  31.325  33.929  1.00  0.00     0.037 A 
ATOM     49  C   UNL A   1      43.109  26.105  29.328  1.00  0.00     0.037 A 
ATOM     50  C   UNL A   1      43.395  30.558  34.106  1.00  0.00     0.049 A 
ATOM     51  C   UNL A   1      44.103  26.380  30.421  1.00  0.00     0.074 A 
ATOM     52  C   UNL A   1      44.379  30.710  35.066  1.00  0.00     0.029 A 
ATOM     53  N   UNL A   1      43.772  29.484  33.313  1.00  0.00    -0.354 N 
ATOM     54  N   UNL A   1      44.070  27.307  31.348  1.00  0.00    -0.248 NA
ATOM     55  C   UNL A   1      45.282  25.505  30.485  1.00  0.00     0.031 C 
ATOM     56  C   UNL A   1      45.363  29.741  34.839  1.00  0.00     0.029 A 
ATOM     57  C   UNL A   1      44.972  28.962  33.761  1.00  0.00     0.049 A 
ATOM     58  H   UNL A   1      43.260  29.144  32.543  1.00  0.00     0.167 HD
ATOM     59  C   UNL A   1      45.212  27.117  32.117  1.00  0.00     0.074 A 
ATOM     60  C   UNL A   1      45.908  25.977  31.555  1.00  0.00     0.031 C 
ATOM     61  C   UNL A   1      45.645  27.822  33.191  1.00  0.00     0.037 A 
BRANCH  48  62
ATOM     62  C   UNL A   1      41.917  32.462  34.873  1.00  0.00     0.058 A 
ATOM     63  C   UNL A   1      42.274  33.781  34.548  1.00  0.00     0.135 A 
ATOM     64  C   UNL A   1      41.271  32.241  36.099  1.00  0.00     0.135 A 
ATOM     65  F   UNL A   1      42.913  34.044  33.397  1.00  0.00    -0.206 F 
ATOM     66  C   UNL A   1      42.024  34.837  35.417  1.00  0.00     0.059 A 
ATOM     67  C   UNL A   1      40.987  33.287  36.973  1.00  0.00     0.059 A 
ATOM     68  F   UNL A   1      40.912  30.999  36.460  1.00  0.00    -0.206 F 
ATOM     69  C   UNL A   1      41.380  34.581  36.628  1.00  0.00     0.060 A 
BRANCH  69  70
ATOM     70  S   UNL A   1      41.053  35.964  37.740  1.00  0.00     0.124 S 
ATOM     71  O   UNL A   1      42.276  36.748  37.596  1.00  0.00    -0.237 OA
ATOM     72  O   UNL A   1      39.851  36.555  37.160  1.00  0.00    -0.237 OA
ATOM     73  O   UNL A   1      40.869  35.321  39.037  1.00  0.00    -0.744 OA
ENDBRANCH  69  70
ENDBRANCH  48  62
BRANCH  49  74
ATOM     74  C   UNL A   1      43.331  25.017  28.340  1.00  0.00     0.058 A 
ATOM     75  C   UNL A   1      43.016  23.687  28.651  1.00  0.00     0.135 A 
ATOM     76  C   UNL A   1      43.822  25.290  27.054  1.00  0.00     0.135 A 
ATOM     77  F   UNL A   1      42.549  23.377  29.870  1.00  0.00    -0.206 F 
ATOM     78  C   UNL A   1      43.184  22.662  27.725  1.00  0.00     0.059 A 
ATOM     79  C   UNL A   1      43.979  24.286  26.103  1.00  0.00     0.059 A 
ATOM     80  F   UNL A   1      44.121  26.550  26.702  1.00  0.00    -0.206 F 
ATOM     81  C   UNL A   1      43.662  22.973  26.451  1.00  0.00     0.060 A 
BRANCH  81  82
ATOM     82  S   UNL A   1      43.808  21.647  25.233  1.00  0.00     0.124 S 
ATOM     83  O   UNL A   1      42.650  20.822  25.558  1.00  0.00    -0.237 OA
ATOM     84  O   UNL A   1      43.736  22.379  23.972  1.00  0.00    -0.237 OA
ATOM     85  O   UNL A   1      45.109  21.058  25.533  1.00  0.00    -0.744 OA
ENDBRANCH  81  82
ENDBRANCH  49  74
BRANCH  61  86
ATOM     86  C   UNL A   1      46.918  27.370  33.846  1.00  0.00     0.058 A 
ATOM     87  C   UNL A   1      46.915  26.410  34.869  1.00  0.00     0.135 A 
ATOM     88  C   UNL A   1      48.157  27.857  33.403  1.00  0.00     0.135 A 
ATOM     89  F   UNL A   1      45.755  25.917  35.331  1.00  0.00    -0.206 F 
ATOM     90  C   UNL A   1      48.100  25.961  35.443  1.00  0.00     0.059 A 
ATOM     91  C   UNL A   1      49.355  27.405  33.947  1.00  0.00     0.059 A 
ATOM     92  F   UNL A   1      48.212  28.769  32.419  1.00  0.00    -0.206 F 
ATOM     93  C   UNL A   1      49.314  26.463  34.974  1.00  0.00     0.060 A 
BRANCH  93  94
ATOM     94  S   UNL A   1      50.847  25.844  35.700  1.00  0.00     0.124 S 
ATOM     95  O   UNL A   1      51.052  24.612  34.946  1.00  0.00    -0.237 OA
ATOM     96  O   UNL A   1      51.787  26.924  35.416  1.00  0.00    -0.237 OA
ATOM     97  O   UNL A   1      50.509  25.669  37.110  1.00  0.00    -0.744 OA
ENDBRANCH  93  94
ENDBRANCH  61  86
ENDBRANCH  35  36
ENDBRANCH  27  30
ENDBRANCH  25  26
ENDBRANCH  24  25
ENDBRANCH   1  24
TORSDOF 20
ENDMDL
