MODEL 1
REMARK VINA RESULT:     -13.0      0.000      0.000
REMARK SMILES Cc1ccc2c(=O)c3cccc(CC(=O)NCCCCNC(=O)c4ccc(-c5c6nc(c(-c7c(F)cc(S(=O)(=O)[O-])cc7F)c7ccc([nH]7)c(-c7c(F)cc(S(=O)(=O)[O-])cc7F)c7nc(c(-c8c(F)cc(S(=O)(=O)[O-])cc8F)c8ccc5[nH]8)C=C7)C=C6)cc4)c3oc2c1C
REMARK SMILES IDX 19 1 18 2 17 3 16 4 14 5 15 6 13 8 12 9 1 10 2 11 3 12 93 13
REMARK SMILES IDX 4 14 92 15 94 16 5 17 91 18 6 19 90 20 7 21 8 22 9 23 11 24
REMARK SMILES IDX 10 25 20 26 21 27 22 28 23 30 24 31 25 32 89 33 26 34 88 35
REMARK SMILES IDX 27 36 28 37 29 38 82 39 30 40 87 41 81 42 83 43 31 44 86 45
REMARK SMILES IDX 80 46 79 47 32 49 66 50 45 51 65 52 46 53 49 54 64 55 84 56
REMARK SMILES IDX 47 57 48 58 63 60 85 61 50 62 33 63 34 64 43 65 35 66 36 67
REMARK SMILES IDX 42 68 44 69 37 70 38 71 39 72 40 73 41 74 67 75 68 76 77 77
REMARK SMILES IDX 69 78 70 79 76 80 78 81 71 82 72 83 73 84 74 85 75 86 51 87
REMARK SMILES IDX 52 88 61 89 53 90 54 91 60 92 62 93 55 94 56 95 57 96 58 97
REMARK SMILES IDX 59 98
REMARK H PARENT 16 7 21 29 83 48 49 59
REMARK Flexibility Score: inf
ROOT
ATOM      1  C   UNL A   1      34.917  32.099  28.283  1.00  0.00     0.023 C 
ENDROOT
BRANCH   1   2
ATOM      2  C   UNL A   1      35.024  30.785  27.508  1.00  0.00     0.023 C 
BRANCH   2   3
ATOM      3  C   UNL A   1      33.689  30.159  27.107  1.00  0.00     0.116 C 
BRANCH   3   4
ATOM      4  N   UNL A   1      33.672  29.726  25.724  1.00  0.00    -0.356 N 
ATOM      5  C   UNL A   1      33.737  28.462  25.212  1.00  0.00     0.224 C 
ATOM      6  O   UNL A   1      33.638  28.322  23.991  1.00  0.00    -0.275 OA
ATOM      7  H   UNL A   1      33.603  30.448  25.058  1.00  0.00     0.163 HD
BRANCH   5   8
ATOM      8  C   UNL A   1      33.839  27.258  26.134  1.00  0.00     0.139 C 
BRANCH   8   9
ATOM      9  C   UNL A   1      32.690  26.275  26.045  1.00  0.00     0.005 A 
ATOM     10  C   UNL A   1      37.514  20.906  24.861  1.00  0.00     0.045 C 
ATOM     11  C   UNL A   1      36.104  21.392  25.067  1.00  0.00    -0.044 A 
ATOM     12  C   UNL A   1      35.066  20.445  25.038  1.00  0.00     0.005 A 
ATOM     13  C   UNL A   1      35.800  22.748  25.332  1.00  0.00    -0.005 A 
ATOM     14  C   UNL A   1      33.741  20.828  25.231  1.00  0.00     0.016 A 
ATOM     15  C   UNL A   1      34.451  23.129  25.507  1.00  0.00     0.141 A 
ATOM     16  C   UNL A   1      36.870  23.805  25.441  1.00  0.00     0.049 C 
ATOM     17  C   UNL A   1      33.441  22.171  25.454  1.00  0.00     0.066 A 
ATOM     18  O   UNL A   1      34.200  24.468  25.723  1.00  0.00    -0.455 OA
ATOM     19  C   UNL A   1      32.047  22.595  25.628  1.00  0.00     0.200 A 
ATOM     20  C   UNL A   1      32.903  24.896  25.861  1.00  0.00     0.142 A 
ATOM     21  O   UNL A   1      31.118  21.797  25.586  1.00  0.00    -0.288 OA
ATOM     22  C   UNL A   1      31.809  24.030  25.826  1.00  0.00     0.066 A 
ATOM     23  C   UNL A   1      30.504  24.511  25.968  1.00  0.00     0.016 A 
ATOM     24  C   UNL A   1      31.369  26.754  26.144  1.00  0.00     0.008 A 
ATOM     25  C   UNL A   1      30.285  25.876  26.119  1.00  0.00     0.001 A 
ENDBRANCH   8   9
ENDBRANCH   5   8
ENDBRANCH   3   4
ENDBRANCH   2   3
ENDBRANCH   1   2
BRANCH   1  26
ATOM     26  C   UNL A   1      35.894  32.259  29.442  1.00  0.00     0.116 C 
BRANCH  26  27
ATOM     27  N   UNL A   1      35.706  31.283  30.507  1.00  0.00    -0.352 N 
ATOM     28  C   UNL A   1      36.592  30.330  30.956  1.00  0.00     0.251 C 
ATOM     29  H   UNL A   1      34.834  31.308  30.963  1.00  0.00     0.163 HD
ATOM     30  O   UNL A   1      36.251  29.520  31.813  1.00  0.00    -0.269 OA
BRANCH  28  31
ATOM     31  C   UNL A   1      37.942  30.262  30.354  1.00  0.00     0.039 A 
ATOM     32  C   UNL A   1      38.096  30.028  28.987  1.00  0.00     0.014 A 
ATOM     33  C   UNL A   1      39.062  30.358  31.185  1.00  0.00     0.014 A 
ATOM     34  C   UNL A   1      39.354  29.718  28.482  1.00  0.00     0.010 A 
ATOM     35  C   UNL A   1      40.335  30.119  30.659  1.00  0.00     0.010 A 
ATOM     36  C   UNL A   1      40.484  29.739  29.315  1.00  0.00    -0.014 A 
BRANCH  36  37
ATOM     37  C   UNL A   1      41.802  29.324  28.767  1.00  0.00     0.031 A 
ATOM     38  C   UNL A   1      42.965  30.283  28.759  1.00  0.00     0.074 A 
ATOM     39  C   UNL A   1      41.971  28.057  28.343  1.00  0.00     0.049 A 
ATOM     40  N   UNL A   1      44.192  30.085  28.348  1.00  0.00    -0.248 NA
ATOM     41  C   UNL A   1      42.720  31.638  29.278  1.00  0.00     0.031 C 
ATOM     42  C   UNL A   1      40.927  27.031  28.320  1.00  0.00     0.029 A 
ATOM     43  N   UNL A   1      43.087  27.407  27.883  1.00  0.00    -0.354 N 
ATOM     44  C   UNL A   1      44.859  31.290  28.542  1.00  0.00     0.074 A 
ATOM     45  C   UNL A   1      43.895  32.222  29.084  1.00  0.00     0.031 C 
ATOM     46  C   UNL A   1      41.464  25.867  27.924  1.00  0.00     0.029 A 
ATOM     47  C   UNL A   1      42.874  26.076  27.612  1.00  0.00     0.049 A 
ATOM     48  H   UNL A   1      43.957  27.851  27.758  1.00  0.00     0.167 HD
ATOM     49  C   UNL A   1      46.159  31.587  28.301  1.00  0.00     0.037 A 
ATOM     50  C   UNL A   1      43.717  25.129  27.157  1.00  0.00     0.037 A 
ATOM     51  C   UNL A   1      47.124  30.651  27.787  1.00  0.00     0.049 A 
ATOM     52  C   UNL A   1      45.144  25.492  26.868  1.00  0.00     0.074 A 
ATOM     53  C   UNL A   1      48.468  30.856  27.524  1.00  0.00     0.029 A 
ATOM     54  N   UNL A   1      46.852  29.329  27.465  1.00  0.00    -0.354 N 
ATOM     55  N   UNL A   1      45.751  26.641  27.040  1.00  0.00    -0.248 NA
ATOM     56  C   UNL A   1      45.998  24.435  26.310  1.00  0.00     0.031 C 
ATOM     57  C   UNL A   1      49.001  29.667  27.013  1.00  0.00     0.029 A 
ATOM     58  C   UNL A   1      47.999  28.711  26.991  1.00  0.00     0.049 A 
ATOM     59  H   UNL A   1      45.975  28.894  27.559  1.00  0.00     0.167 HD
ATOM     60  C   UNL A   1      47.059  26.448  26.611  1.00  0.00     0.074 A 
ATOM     61  C   UNL A   1      47.160  25.064  26.191  1.00  0.00     0.031 C 
ATOM     62  C   UNL A   1      48.080  27.337  26.564  1.00  0.00     0.037 A 
BRANCH  49  63
ATOM     63  C   UNL A   1      46.616  32.991  28.585  1.00  0.00     0.058 A 
ATOM     64  C   UNL A   1      46.549  33.997  27.610  1.00  0.00     0.135 A 
ATOM     65  C   UNL A   1      47.087  33.343  29.861  1.00  0.00     0.135 A 
ATOM     66  F   UNL A   1      46.121  33.710  26.371  1.00  0.00    -0.206 F 
ATOM     67  C   UNL A   1      46.951  35.302  27.883  1.00  0.00     0.059 A 
ATOM     68  C   UNL A   1      47.476  34.646  30.162  1.00  0.00     0.059 A 
ATOM     69  F   UNL A   1      47.173  32.417  30.829  1.00  0.00    -0.206 F 
ATOM     70  C   UNL A   1      47.415  35.615  29.161  1.00  0.00     0.060 A 
BRANCH  70  71
ATOM     71  S   UNL A   1      47.929  37.312  29.501  1.00  0.00     0.124 S 
ATOM     72  O   UNL A   1      46.803  38.070  28.960  1.00  0.00    -0.237 OA
ATOM     73  O   UNL A   1      48.055  37.318  30.954  1.00  0.00    -0.237 OA
ATOM     74  O   UNL A   1      49.184  37.442  28.765  1.00  0.00    -0.744 OA
ENDBRANCH  70  71
ENDBRANCH  49  63
BRANCH  50  75
ATOM     75  C   UNL A   1      43.219  23.745  26.957  1.00  0.00     0.058 A 
ATOM     76  C   UNL A   1      42.905  23.272  25.677  1.00  0.00     0.135 A 
ATOM     77  C   UNL A   1      43.105  22.853  28.035  1.00  0.00     0.135 A 
ATOM     78  F   UNL A   1      42.993  24.093  24.618  1.00  0.00    -0.206 F 
ATOM     79  C   UNL A   1      42.502  21.959  25.466  1.00  0.00     0.059 A 
ATOM     80  C   UNL A   1      42.724  21.528  27.847  1.00  0.00     0.059 A 
ATOM     81  F   UNL A   1      43.408  23.258  29.278  1.00  0.00    -0.206 F 
ATOM     82  C   UNL A   1      42.423  21.091  26.558  1.00  0.00     0.060 A 
BRANCH  82  83
ATOM     83  S   UNL A   1      41.985  19.364  26.264  1.00  0.00     0.124 S 
ATOM     84  O   UNL A   1      42.489  18.723  27.472  1.00  0.00    -0.237 OA
ATOM     85  O   UNL A   1      40.532  19.434  26.137  1.00  0.00    -0.237 OA
ATOM     86  O   UNL A   1      42.697  19.044  25.031  1.00  0.00    -0.744 OA
ENDBRANCH  82  83
ENDBRANCH  50  75
BRANCH  62  87
ATOM     87  C   UNL A   1      49.396  26.846  26.035  1.00  0.00     0.058 A 
ATOM     88  C   UNL A   1      49.755  27.032  24.692  1.00  0.00     0.135 A 
ATOM     89  C   UNL A   1      50.328  26.235  26.888  1.00  0.00     0.135 A 
ATOM     90  F   UNL A   1      48.894  27.604  23.836  1.00  0.00    -0.206 F 
ATOM     91  C   UNL A   1      50.991  26.616  24.208  1.00  0.00     0.059 A 
ATOM     92  C   UNL A   1      51.577  25.828  26.430  1.00  0.00     0.059 A 
ATOM     93  F   UNL A   1      50.033  26.042  28.184  1.00  0.00    -0.206 F 
ATOM     94  C   UNL A   1      51.896  26.017  25.085  1.00  0.00     0.060 A 
BRANCH  94  95
ATOM     95  S   UNL A   1      53.511  25.516  24.453  1.00  0.00     0.124 S 
ATOM     96  O   UNL A   1      54.409  26.343  25.251  1.00  0.00    -0.237 OA
ATOM     97  O   UNL A   1      53.534  24.086  24.750  1.00  0.00    -0.237 OA
ATOM     98  O   UNL A   1      53.440  25.853  23.034  1.00  0.00    -0.744 OA
ENDBRANCH  94  95
ENDBRANCH  62  87
ENDBRANCH  36  37
ENDBRANCH  28  31
ENDBRANCH  26  27
ENDBRANCH   1  26
TORSDOF 15
ENDMDL
MODEL 2
REMARK VINA RESULT:     -13.0      1.277      2.141
REMARK SMILES Cc1ccc2c(=O)c3cccc(CC(=O)NCCCCNC(=O)c4ccc(-c5c6nc(c(-c7c(F)cc(S(=O)(=O)[O-])cc7F)c7ccc([nH]7)c(-c7c(F)cc(S(=O)(=O)[O-])cc7F)c7nc(c(-c8c(F)cc(S(=O)(=O)[O-])cc8F)c8ccc5[nH]8)C=C7)C=C6)cc4)c3oc2c1C
REMARK SMILES IDX 19 1 18 2 17 3 16 4 14 5 15 6 13 8 12 9 1 10 2 11 3 12 93 13
REMARK SMILES IDX 4 14 92 15 94 16 5 17 91 18 6 19 90 20 7 21 8 22 9 23 11 24
REMARK SMILES IDX 10 25 20 26 21 27 22 28 23 30 24 31 25 32 89 33 26 34 88 35
REMARK SMILES IDX 27 36 28 37 29 38 82 39 30 40 87 41 81 42 83 43 31 44 86 45
REMARK SMILES IDX 80 46 79 47 32 49 66 50 45 51 65 52 46 53 49 54 64 55 84 56
REMARK SMILES IDX 47 57 48 58 63 60 85 61 50 62 33 63 34 64 43 65 35 66 36 67
REMARK SMILES IDX 42 68 44 69 37 70 38 71 39 72 40 73 41 74 67 75 68 76 77 77
REMARK SMILES IDX 69 78 70 79 76 80 78 81 71 82 72 83 73 84 74 85 75 86 51 87
REMARK SMILES IDX 52 88 61 89 53 90 54 91 60 92 62 93 55 94 56 95 57 96 58 97
REMARK SMILES IDX 59 98
REMARK H PARENT 16 7 21 29 83 48 49 59
REMARK Flexibility Score: inf
ROOT
ATOM      1  C   UNL A   1      35.728  32.577  28.192  1.00  0.00     0.023 C 
ENDROOT
BRANCH   1   2
ATOM      2  C   UNL A   1      34.348  31.955  27.977  1.00  0.00     0.023 C 
BRANCH   2   3
ATOM      3  C   UNL A   1      34.360  30.492  27.531  1.00  0.00     0.116 C 
BRANCH   3   4
ATOM      4  N   UNL A   1      33.045  29.886  27.585  1.00  0.00    -0.356 N 
ATOM      5  C   UNL A   1      32.645  28.648  27.168  1.00  0.00     0.224 C 
ATOM      6  O   UNL A   1      31.476  28.312  27.374  1.00  0.00    -0.275 OA
ATOM      7  H   UNL A   1      32.338  30.446  27.978  1.00  0.00     0.163 HD
BRANCH   5   8
ATOM      8  C   UNL A   1      33.641  27.681  26.549  1.00  0.00     0.139 C 
BRANCH   8   9
ATOM      9  C   UNL A   1      33.668  27.659  25.035  1.00  0.00     0.005 A 
ATOM     10  C   UNL A   1      32.580  20.429  25.222  1.00  0.00     0.045 C 
ATOM     11  C   UNL A   1      32.751  21.719  24.465  1.00  0.00    -0.044 A 
ATOM     12  C   UNL A   1      32.712  21.673  23.061  1.00  0.00     0.005 A 
ATOM     13  C   UNL A   1      32.902  22.966  25.116  1.00  0.00    -0.005 A 
ATOM     14  C   UNL A   1      32.854  22.832  22.302  1.00  0.00     0.016 A 
ATOM     15  C   UNL A   1      33.065  24.133  24.337  1.00  0.00     0.141 A 
ATOM     16  C   UNL A   1      32.889  23.096  26.618  1.00  0.00     0.049 C 
ATOM     17  C   UNL A   1      33.040  24.055  22.946  1.00  0.00     0.066 A 
ATOM     18  O   UNL A   1      33.248  25.320  25.014  1.00  0.00    -0.455 OA
ATOM     19  C   UNL A   1      33.224  25.280  22.159  1.00  0.00     0.200 A 
ATOM     20  C   UNL A   1      33.450  26.477  24.303  1.00  0.00     0.142 A 
ATOM     21  O   UNL A   1      33.216  25.270  20.934  1.00  0.00    -0.288 OA
ATOM     22  C   UNL A   1      33.446  26.523  22.909  1.00  0.00     0.066 A 
ATOM     23  C   UNL A   1      33.660  27.724  22.226  1.00  0.00     0.016 A 
ATOM     24  C   UNL A   1      33.924  28.855  24.337  1.00  0.00     0.008 A 
ATOM     25  C   UNL A   1      33.907  28.890  22.943  1.00  0.00     0.001 A 
ENDBRANCH   8   9
ENDBRANCH   5   8
ENDBRANCH   3   4
ENDBRANCH   2   3
ENDBRANCH   1   2
BRANCH   1  26
ATOM     26  C   UNL A   1      36.212  32.616  29.636  1.00  0.00     0.116 C 
BRANCH  26  27
ATOM     27  N   UNL A   1      35.843  31.438  30.411  1.00  0.00    -0.352 N 
ATOM     28  C   UNL A   1      36.583  30.298  30.633  1.00  0.00     0.251 C 
ATOM     29  H   UNL A   1      34.952  31.460  30.828  1.00  0.00     0.163 HD
ATOM     30  O   UNL A   1      36.095  29.351  31.243  1.00  0.00    -0.269 OA
BRANCH  28  31
ATOM     31  C   UNL A   1      37.953  30.210  30.081  1.00  0.00     0.039 A 
ATOM     32  C   UNL A   1      38.153  29.926  28.729  1.00  0.00     0.014 A 
ATOM     33  C   UNL A   1      39.043  30.338  30.946  1.00  0.00     0.014 A 
ATOM     34  C   UNL A   1      39.428  29.599  28.280  1.00  0.00     0.010 A 
ATOM     35  C   UNL A   1      40.334  30.081  30.473  1.00  0.00     0.010 A 
ATOM     36  C   UNL A   1      40.529  29.652  29.150  1.00  0.00    -0.014 A 
BRANCH  36  37
ATOM     37  C   UNL A   1      41.865  29.219  28.663  1.00  0.00     0.031 A 
ATOM     38  C   UNL A   1      43.039  30.162  28.706  1.00  0.00     0.074 A 
ATOM     39  C   UNL A   1      42.037  27.949  28.251  1.00  0.00     0.049 A 
ATOM     40  N   UNL A   1      44.281  29.948  28.352  1.00  0.00    -0.248 NA
ATOM     41  C   UNL A   1      42.788  31.522  29.211  1.00  0.00     0.031 C 
ATOM     42  C   UNL A   1      40.982  26.935  28.183  1.00  0.00     0.029 A 
ATOM     43  N   UNL A   1      43.164  27.283  27.844  1.00  0.00    -0.354 N 
ATOM     44  C   UNL A   1      44.954  31.145  28.573  1.00  0.00     0.074 A 
ATOM     45  C   UNL A   1      43.978  32.091  29.068  1.00  0.00     0.031 C 
ATOM     46  C   UNL A   1      41.522  25.764  27.815  1.00  0.00     0.029 A 
ATOM     47  C   UNL A   1      42.947  25.954  27.567  1.00  0.00     0.049 A 
ATOM     48  H   UNL A   1      44.045  27.715  27.758  1.00  0.00     0.167 HD
ATOM     49  C   UNL A   1      46.267  31.425  28.391  1.00  0.00     0.037 A 
ATOM     50  C   UNL A   1      43.798  24.995  27.154  1.00  0.00     0.037 A 
ATOM     51  C   UNL A   1      47.243  30.475  27.924  1.00  0.00     0.049 A 
ATOM     52  C   UNL A   1      45.241  25.339  26.929  1.00  0.00     0.074 A 
ATOM     53  C   UNL A   1      48.599  30.663  27.722  1.00  0.00     0.029 A 
ATOM     54  N   UNL A   1      46.969  29.156  27.593  1.00  0.00    -0.354 N 
ATOM     55  N   UNL A   1      45.855  26.481  27.126  1.00  0.00    -0.248 NA
ATOM     56  C   UNL A   1      46.106  24.270  26.413  1.00  0.00     0.031 C 
ATOM     57  C   UNL A   1      49.141  29.466  27.239  1.00  0.00     0.029 A 
ATOM     58  C   UNL A   1      48.128  28.522  27.173  1.00  0.00     0.049 A 
ATOM     59  H   UNL A   1      46.083  28.732  27.648  1.00  0.00     0.167 HD
ATOM     60  C   UNL A   1      47.177  26.270  26.757  1.00  0.00     0.074 A 
ATOM     61  C   UNL A   1      47.280  24.883  26.346  1.00  0.00     0.031 C 
ATOM     62  C   UNL A   1      48.211  27.146  26.754  1.00  0.00     0.037 A 
BRANCH  49  63
ATOM     63  C   UNL A   1      46.729  32.824  28.692  1.00  0.00     0.058 A 
ATOM     64  C   UNL A   1      47.198  33.186  29.963  1.00  0.00     0.135 A 
ATOM     65  C   UNL A   1      46.743  33.803  27.683  1.00  0.00     0.135 A 
ATOM     66  F   UNL A   1      47.191  32.294  30.966  1.00  0.00    -0.206 F 
ATOM     67  C   UNL A   1      47.647  34.476  30.231  1.00  0.00     0.059 A 
ATOM     68  C   UNL A   1      47.206  35.093  27.924  1.00  0.00     0.059 A 
ATOM     69  F   UNL A   1      46.303  33.507  26.450  1.00  0.00    -0.206 F 
ATOM     70  C   UNL A   1      47.645  35.423  29.206  1.00  0.00     0.060 A 
BRANCH  70  71
ATOM     71  S   UNL A   1      48.234  37.090  29.569  1.00  0.00     0.124 S 
ATOM     72  O   UNL A   1      48.961  36.875  30.818  1.00  0.00    -0.237 OA
ATOM     73  O   UNL A   1      49.057  37.394  28.403  1.00  0.00    -0.237 OA
ATOM     74  O   UNL A   1      47.005  37.869  29.685  1.00  0.00    -0.744 OA
ENDBRANCH  70  71
ENDBRANCH  49  63
BRANCH  50  75
ATOM     75  C   UNL A   1      43.292  23.617  26.935  1.00  0.00     0.058 A 
ATOM     76  C   UNL A   1      43.062  23.132  25.641  1.00  0.00     0.135 A 
ATOM     77  C   UNL A   1      43.087  22.740  28.012  1.00  0.00     0.135 A 
ATOM     78  F   UNL A   1      43.238  23.938  24.582  1.00  0.00    -0.206 F 
ATOM     79  C   UNL A   1      42.652  21.823  25.417  1.00  0.00     0.059 A 
ATOM     80  C   UNL A   1      42.697  21.420  27.813  1.00  0.00     0.059 A 
ATOM     81  F   UNL A   1      43.308  23.156  29.269  1.00  0.00    -0.206 F 
ATOM     82  C   UNL A   1      42.481  20.971  26.511  1.00  0.00     0.060 A 
BRANCH  82  83
ATOM     83  S   UNL A   1      42.036  19.248  26.206  1.00  0.00     0.124 S 
ATOM     84  O   UNL A   1      40.622  19.365  25.868  1.00  0.00    -0.237 OA
ATOM     85  O   UNL A   1      42.927  18.890  25.107  1.00  0.00    -0.237 OA
ATOM     86  O   UNL A   1      42.331  18.596  27.478  1.00  0.00    -0.744 OA
ENDBRANCH  82  83
ENDBRANCH  50  75
BRANCH  62  87
ATOM     87  C   UNL A   1      49.543  26.636  26.287  1.00  0.00     0.058 A 
ATOM     88  C   UNL A   1      49.973  26.830  24.966  1.00  0.00     0.135 A 
ATOM     89  C   UNL A   1      50.420  26.001  27.179  1.00  0.00     0.135 A 
ATOM     90  F   UNL A   1      49.167  27.425  24.073  1.00  0.00    -0.206 F 
ATOM     91  C   UNL A   1      51.224  26.396  24.540  1.00  0.00     0.059 A 
ATOM     92  C   UNL A   1      51.684  25.576  26.780  1.00  0.00     0.059 A 
ATOM     93  F   UNL A   1      50.057  25.799  28.456  1.00  0.00    -0.206 F 
ATOM     94  C   UNL A   1      52.073  25.772  25.455  1.00  0.00     0.060 A 
BRANCH  94  95
ATOM     95  S   UNL A   1      53.709  25.248  24.900  1.00  0.00     0.124 S 
ATOM     96  O   UNL A   1      53.816  25.931  23.615  1.00  0.00    -0.237 OA
ATOM     97  O   UNL A   1      54.577  25.753  25.960  1.00  0.00    -0.237 OA
ATOM     98  O   UNL A   1      53.595  23.794  24.832  1.00  0.00    -0.744 OA
ENDBRANCH  94  95
ENDBRANCH  62  87
ENDBRANCH  36  37
ENDBRANCH  28  31
ENDBRANCH  26  27
ENDBRANCH   1  26
TORSDOF 15
ENDMDL
MODEL 3
REMARK VINA RESULT:     -13.0      6.400     11.937
REMARK SMILES Cc1ccc2c(=O)c3cccc(CC(=O)NCCCCNC(=O)c4ccc(-c5c6nc(c(-c7c(F)cc(S(=O)(=O)[O-])cc7F)c7ccc([nH]7)c(-c7c(F)cc(S(=O)(=O)[O-])cc7F)c7nc(c(-c8c(F)cc(S(=O)(=O)[O-])cc8F)c8ccc5[nH]8)C=C7)C=C6)cc4)c3oc2c1C
REMARK SMILES IDX 19 1 18 2 17 3 16 4 14 5 15 6 13 8 12 9 1 10 2 11 3 12 93 13
REMARK SMILES IDX 4 14 92 15 94 16 5 17 91 18 6 19 90 20 7 21 8 22 9 23 11 24
REMARK SMILES IDX 10 25 20 26 21 27 22 28 23 30 24 31 25 32 89 33 26 34 88 35
REMARK SMILES IDX 27 36 28 37 29 38 82 39 30 40 87 41 81 42 83 43 31 44 86 45
REMARK SMILES IDX 80 46 79 47 32 49 66 50 45 51 65 52 46 53 49 54 64 55 84 56
REMARK SMILES IDX 47 57 48 58 63 60 85 61 50 62 33 63 34 64 43 65 35 66 36 67
REMARK SMILES IDX 42 68 44 69 37 70 38 71 39 72 40 73 41 74 67 75 68 76 77 77
REMARK SMILES IDX 69 78 70 79 76 80 78 81 71 82 72 83 73 84 74 85 75 86 51 87
REMARK SMILES IDX 52 88 61 89 53 90 54 91 60 92 62 93 55 94 56 95 57 96 58 97
REMARK SMILES IDX 59 98
REMARK H PARENT 16 7 21 29 83 48 49 59
REMARK Flexibility Score: inf
ROOT
ATOM      1  C   UNL A   1      39.768  22.219  26.759  1.00  0.00     0.023 C 
ENDROOT
BRANCH   1   2
ATOM      2  C   UNL A   1      38.589  22.993  26.168  1.00  0.00     0.023 C 
BRANCH   2   3
ATOM      3  C   UNL A   1      37.533  22.134  25.473  1.00  0.00     0.116 C 
BRANCH   3   4
ATOM      4  N   UNL A   1      36.278  22.104  26.197  1.00  0.00    -0.356 N 
ATOM      5  C   UNL A   1      35.268  23.022  26.216  1.00  0.00     0.224 C 
ATOM      6  O   UNL A   1      34.250  22.757  26.860  1.00  0.00    -0.275 OA
ATOM      7  H   UNL A   1      36.133  21.306  26.756  1.00  0.00     0.163 HD
BRANCH   5   8
ATOM      8  C   UNL A   1      35.364  24.296  25.392  1.00  0.00     0.139 C 
BRANCH   8   9
ATOM      9  C   UNL A   1      34.418  24.377  24.212  1.00  0.00     0.005 A 
ATOM     10  C   UNL A   1      31.923  30.754  26.782  1.00  0.00     0.045 C 
ATOM     11  C   UNL A   1      31.945  29.668  25.739  1.00  0.00    -0.044 A 
ATOM     12  C   UNL A   1      31.097  29.803  24.625  1.00  0.00     0.005 A 
ATOM     13  C   UNL A   1      32.813  28.554  25.820  1.00  0.00    -0.005 A 
ATOM     14  C   UNL A   1      31.075  28.839  23.621  1.00  0.00     0.016 A 
ATOM     15  C   UNL A   1      32.769  27.573  24.806  1.00  0.00     0.141 A 
ATOM     16  C   UNL A   1      33.793  28.380  26.954  1.00  0.00     0.049 C 
ATOM     17  C   UNL A   1      31.906  27.723  23.723  1.00  0.00     0.066 A 
ATOM     18  O   UNL A   1      33.606  26.485  24.948  1.00  0.00    -0.455 OA
ATOM     19  C   UNL A   1      31.871  26.683  22.688  1.00  0.00     0.200 A 
ATOM     20  C   UNL A   1      33.574  25.484  24.009  1.00  0.00     0.142 A 
ATOM     21  O   UNL A   1      31.128  26.761  21.717  1.00  0.00    -0.288 OA
ATOM     22  C   UNL A   1      32.751  25.524  22.883  1.00  0.00     0.066 A 
ATOM     23  C   UNL A   1      32.749  24.479  21.954  1.00  0.00     0.016 A 
ATOM     24  C   UNL A   1      34.377  23.311  23.292  1.00  0.00     0.008 A 
ATOM     25  C   UNL A   1      33.558  23.368  22.164  1.00  0.00     0.001 A 
ENDBRANCH   8   9
ENDBRANCH   5   8
ENDBRANCH   3   4
ENDBRANCH   2   3
ENDBRANCH   1   2
BRANCH   1  26
ATOM     26  C   UNL A   1      41.026  23.038  27.022  1.00  0.00     0.116 C 
BRANCH  26  27
ATOM     27  N   UNL A   1      41.357  23.966  25.949  1.00  0.00    -0.352 N 
ATOM     28  C   UNL A   1      41.552  25.327  26.029  1.00  0.00     0.251 C 
ATOM     29  H   UNL A   1      41.453  23.570  25.053  1.00  0.00     0.163 HD
ATOM     30  O   UNL A   1      41.744  25.987  25.012  1.00  0.00    -0.269 OA
BRANCH  28  31
ATOM     31  C   UNL A   1      41.474  25.989  27.350  1.00  0.00     0.039 A 
ATOM     32  C   UNL A   1      40.344  25.831  28.154  1.00  0.00     0.014 A 
ATOM     33  C   UNL A   1      42.512  26.835  27.748  1.00  0.00     0.014 A 
ATOM     34  C   UNL A   1      40.174  26.649  29.265  1.00  0.00     0.010 A 
ATOM     35  C   UNL A   1      42.372  27.603  28.908  1.00  0.00     0.010 A 
ATOM     36  C   UNL A   1      41.176  27.558  29.644  1.00  0.00    -0.014 A 
BRANCH  36  37
ATOM     37  C   UNL A   1      40.933  28.476  30.787  1.00  0.00     0.031 A 
ATOM     38  C   UNL A   1      41.853  28.474  31.981  1.00  0.00     0.074 A 
ATOM     39  C   UNL A   1      39.925  29.366  30.717  1.00  0.00     0.049 A 
ATOM     40  N   UNL A   1      41.813  29.224  33.053  1.00  0.00    -0.248 NA
ATOM     41  C   UNL A   1      42.962  27.506  31.970  1.00  0.00     0.031 C 
ATOM     42  C   UNL A   1      38.978  29.480  29.605  1.00  0.00     0.029 A 
ATOM     43  N   UNL A   1      39.546  30.363  31.578  1.00  0.00    -0.354 N 
ATOM     44  C   UNL A   1      42.873  28.808  33.851  1.00  0.00     0.074 A 
ATOM     45  C   UNL A   1      43.526  27.723  33.151  1.00  0.00     0.031 C 
ATOM     46  C   UNL A   1      38.166  30.524  29.825  1.00  0.00     0.029 A 
ATOM     47  C   UNL A   1      38.495  31.119  31.116  1.00  0.00     0.049 A 
ATOM     48  H   UNL A   1      39.985  30.523  32.445  1.00  0.00     0.167 HD
ATOM     49  C   UNL A   1      43.273  29.296  35.050  1.00  0.00     0.037 A 
ATOM     50  C   UNL A   1      37.862  32.170  31.670  1.00  0.00     0.037 A 
ATOM     51  C   UNL A   1      42.640  30.393  35.733  1.00  0.00     0.049 A 
ATOM     52  C   UNL A   1      38.304  32.670  33.014  1.00  0.00     0.074 A 
ATOM     53  C   UNL A   1      42.983  30.966  36.945  1.00  0.00     0.029 A 
ATOM     54  N   UNL A   1      41.538  31.090  35.260  1.00  0.00    -0.354 N 
ATOM     55  N   UNL A   1      39.297  32.252  33.761  1.00  0.00    -0.248 NA
ATOM     56  C   UNL A   1      37.532  33.775  33.599  1.00  0.00     0.031 C 
ATOM     57  C   UNL A   1      42.069  31.990  37.220  1.00  0.00     0.029 A 
ATOM     58  C   UNL A   1      41.178  32.078  36.163  1.00  0.00     0.049 A 
ATOM     59  H   UNL A   1      41.079  30.910  34.408  1.00  0.00     0.167 HD
ATOM     60  C   UNL A   1      39.270  33.041  34.905  1.00  0.00     0.074 A 
ATOM     61  C   UNL A   1      38.175  33.977  34.741  1.00  0.00     0.031 C 
ATOM     62  C   UNL A   1      40.076  32.991  35.993  1.00  0.00     0.037 A 
BRANCH  49  63
ATOM     63  C   UNL A   1      44.454  28.637  35.710  1.00  0.00     0.058 A 
ATOM     64  C   UNL A   1      44.295  27.560  36.594  1.00  0.00     0.135 A 
ATOM     65  C   UNL A   1      45.761  29.063  35.422  1.00  0.00     0.135 A 
ATOM     66  F   UNL A   1      43.067  27.124  36.915  1.00  0.00    -0.206 F 
ATOM     67  C   UNL A   1      45.391  26.937  37.185  1.00  0.00     0.059 A 
ATOM     68  C   UNL A   1      46.872  28.443  35.986  1.00  0.00     0.059 A 
ATOM     69  F   UNL A   1      45.967  30.092  34.583  1.00  0.00    -0.206 F 
ATOM     70  C   UNL A   1      46.675  27.388  36.877  1.00  0.00     0.060 A 
BRANCH  70  71
ATOM     71  S   UNL A   1      48.086  26.568  37.649  1.00  0.00     0.124 S 
ATOM     72  O   UNL A   1      47.598  26.373  39.012  1.00  0.00    -0.237 OA
ATOM     73  O   UNL A   1      48.224  25.358  36.846  1.00  0.00    -0.237 OA
ATOM     74  O   UNL A   1      49.166  27.540  37.504  1.00  0.00    -0.744 OA
ENDBRANCH  70  71
ENDBRANCH  49  63
BRANCH  50  75
ATOM     75  C   UNL A   1      36.744  32.816  30.939  1.00  0.00     0.058 A 
ATOM     76  C   UNL A   1      35.414  32.603  31.324  1.00  0.00     0.135 A 
ATOM     77  C   UNL A   1      36.988  33.705  29.880  1.00  0.00     0.135 A 
ATOM     78  F   UNL A   1      35.134  31.756  32.327  1.00  0.00    -0.206 F 
ATOM     79  C   UNL A   1      34.361  33.253  30.691  1.00  0.00     0.059 A 
ATOM     80  C   UNL A   1      35.953  34.383  29.244  1.00  0.00     0.059 A 
ATOM     81  F   UNL A   1      38.246  33.951  29.485  1.00  0.00    -0.206 F 
ATOM     82  C   UNL A   1      34.642  34.149  29.656  1.00  0.00     0.060 A 
BRANCH  82  83
ATOM     83  S   UNL A   1      33.276  35.056  28.900  1.00  0.00     0.124 S 
ATOM     84  O   UNL A   1      32.374  35.227  30.032  1.00  0.00    -0.237 OA
ATOM     85  O   UNL A   1      33.938  36.266  28.422  1.00  0.00    -0.237 OA
ATOM     86  O   UNL A   1      32.813  34.150  27.852  1.00  0.00    -0.744 OA
ENDBRANCH  82  83
ENDBRANCH  50  75
BRANCH  62  87
ATOM     87  C   UNL A   1      39.802  33.970  37.097  1.00  0.00     0.058 A 
ATOM     88  C   UNL A   1      39.004  33.622  38.196  1.00  0.00     0.135 A 
ATOM     89  C   UNL A   1      40.388  35.245  37.085  1.00  0.00     0.135 A 
ATOM     90  F   UNL A   1      38.416  32.417  38.249  1.00  0.00    -0.206 F 
ATOM     91  C   UNL A   1      38.782  34.512  39.242  1.00  0.00     0.059 A 
ATOM     92  C   UNL A   1      40.195  36.145  38.129  1.00  0.00     0.059 A 
ATOM     93  F   UNL A   1      41.167  35.623  36.058  1.00  0.00    -0.206 F 
ATOM     94  C   UNL A   1      39.384  35.770  39.200  1.00  0.00     0.060 A 
BRANCH  94  95
ATOM     95  S   UNL A   1      39.119  36.902  40.581  1.00  0.00     0.124 S 
ATOM     96  O   UNL A   1      40.483  37.331  40.876  1.00  0.00    -0.237 OA
ATOM     97  O   UNL A   1      38.249  37.917  39.993  1.00  0.00    -0.237 OA
ATOM     98  O   UNL A   1      38.492  36.060  41.596  1.00  0.00    -0.744 OA
ENDBRANCH  94  95
ENDBRANCH  62  87
ENDBRANCH  36  37
ENDBRANCH  28  31
ENDBRANCH  26  27
ENDBRANCH   1  26
TORSDOF 15
ENDMDL
