MODEL 1
REMARK VINA RESULT:     -13.2      0.000      0.000
REMARK SMILES O=C(Cn1cccc1C(=O)N1CCC2(CCCC2)CC1)NCCCCNC(=O)c1ccc(-c2c3nc(c(-c4c(F)cc(S(=O)(=O)[O-])cc4F)c4ccc([nH]4)c(-c4c(F)cc(S(=O)(=O)[O-])cc4F)c4nc(c(-c5c(F)cc(S(=O)(=O)[O-])cc5F)c5ccc2[nH]5)C=C4)C=C3)cc1
REMARK SMILES IDX 24 1 23 2 22 3 21 4 1 5 2 6 3 8 4 9 5 10 8 11 6 12 7 13 9 14
REMARK SMILES IDX 10 15 11 16 12 17 20 18 13 19 19 20 14 21 15 22 18 23 16 24
REMARK SMILES IDX 17 25 25 26 26 27 27 28 28 30 29 31 30 32 94 33 31 34 93 35
REMARK SMILES IDX 32 36 33 37 34 38 87 39 35 40 92 41 86 42 88 43 36 44 91 45
REMARK SMILES IDX 85 46 84 47 37 49 71 50 50 51 70 52 51 53 54 54 69 55 89 56
REMARK SMILES IDX 52 57 53 58 68 60 90 61 55 62 38 63 39 64 48 65 40 66 41 67
REMARK SMILES IDX 47 68 49 69 42 70 43 71 44 72 45 73 46 74 72 75 73 76 82 77
REMARK SMILES IDX 74 78 75 79 81 80 83 81 76 82 77 83 78 84 79 85 80 86 56 87
REMARK SMILES IDX 57 88 66 89 58 90 59 91 65 92 67 93 60 94 61 95 62 96 63 97
REMARK SMILES IDX 64 98
REMARK H PARENT 21 7 26 29 88 48 54 59
REMARK Flexibility Score: inf
ROOT
ATOM      1  C   UNL A   1      43.760  40.245  30.070  1.00  0.00     0.023 C 
ENDROOT
BRANCH   1   2
ATOM      2  C   UNL A   1      43.182  41.001  28.865  1.00  0.00     0.023 C 
BRANCH   2   3
ATOM      3  C   UNL A   1      42.684  40.117  27.720  1.00  0.00     0.116 C 
BRANCH   3   4
ATOM      4  N   UNL A   1      42.235  40.899  26.584  1.00  0.00    -0.355 N 
ATOM      5  O   UNL A   1      44.155  40.577  25.384  1.00  0.00    -0.273 OA
ATOM      6  C   UNL A   1      43.031  41.074  25.475  1.00  0.00     0.239 C 
ATOM      7  H   UNL A   1      41.342  41.312  26.607  1.00  0.00     0.163 HD
BRANCH   6   8
ATOM      8  C   UNL A   1      42.552  42.083  24.466  1.00  0.00     0.222 C 
BRANCH   8   9
ATOM      9  N   UNL A   1      43.430  43.125  23.966  1.00  0.00    -0.334 N 
ATOM     10  C   UNL A   1      44.150  43.995  24.740  1.00  0.00     0.087 A 
ATOM     11  C   UNL A   1      43.610  43.411  22.609  1.00  0.00     0.107 A 
ATOM     12  C   UNL A   1      44.815  44.861  23.907  1.00  0.00     0.020 A 
ATOM     13  C   UNL A   1      44.475  44.504  22.585  1.00  0.00     0.033 A 
BRANCH  11  14
ATOM     14  C   UNL A   1      43.095  42.747  21.402  1.00  0.00     0.270 C 
ATOM     15  O   UNL A   1      42.694  41.583  21.406  1.00  0.00    -0.267 OA
ATOM     16  N   UNL A   1      42.916  43.517  20.252  1.00  0.00    -0.337 N 
ATOM     17  C   UNL A   1      41.603  43.481  19.641  1.00  0.00     0.120 C 
ATOM     18  C   UNL A   1      43.984  43.666  19.273  1.00  0.00     0.120 C 
ATOM     19  C   UNL A   1      41.321  44.848  19.036  1.00  0.00     0.028 C 
ATOM     20  C   UNL A   1      43.854  45.018  18.558  1.00  0.00     0.028 C 
ATOM     21  C   UNL A   1      42.421  45.345  18.058  1.00  0.00    -0.026 C 
ATOM     22  C   UNL A   1      42.236  46.881  17.880  1.00  0.00     0.007 C 
ATOM     23  C   UNL A   1      42.223  44.763  16.638  1.00  0.00     0.007 C 
ATOM     24  C   UNL A   1      42.175  47.135  16.385  1.00  0.00     0.001 C 
ATOM     25  C   UNL A   1      41.543  45.868  15.839  1.00  0.00     0.001 C 
ENDBRANCH  11  14
ENDBRANCH   8   9
ENDBRANCH   6   8
ENDBRANCH   3   4
ENDBRANCH   2   3
ENDBRANCH   1   2
BRANCH   1  26
ATOM     26  C   UNL A   1      43.801  38.733  29.894  1.00  0.00     0.116 C 
BRANCH  26  27
ATOM     27  N   UNL A   1      45.163  38.244  29.736  1.00  0.00    -0.352 N 
ATOM     28  C   UNL A   1      45.630  36.970  29.941  1.00  0.00     0.251 C 
ATOM     29  H   UNL A   1      45.831  38.907  29.447  1.00  0.00     0.163 HD
ATOM     30  O   UNL A   1      46.833  36.786  30.153  1.00  0.00    -0.269 OA
BRANCH  28  31
ATOM     31  C   UNL A   1      44.703  35.827  29.904  1.00  0.00     0.039 A 
ATOM     32  C   UNL A   1      44.503  35.066  31.063  1.00  0.00     0.014 A 
ATOM     33  C   UNL A   1      44.086  35.469  28.700  1.00  0.00     0.014 A 
ATOM     34  C   UNL A   1      43.644  33.975  31.021  1.00  0.00     0.010 A 
ATOM     35  C   UNL A   1      43.184  34.425  28.668  1.00  0.00     0.010 A 
ATOM     36  C   UNL A   1      42.982  33.671  29.823  1.00  0.00    -0.014 A 
BRANCH  36  37
ATOM     37  C   UNL A   1      42.004  32.572  29.786  1.00  0.00     0.031 A 
ATOM     38  C   UNL A   1      42.597  31.352  29.036  1.00  0.00     0.074 A 
ATOM     39  C   UNL A   1      40.804  32.847  30.397  1.00  0.00     0.049 A 
ATOM     40  N   UNL A   1      42.044  30.546  28.184  1.00  0.00    -0.248 NA
ATOM     41  C   UNL A   1      44.055  31.054  29.157  1.00  0.00     0.031 C 
ATOM     42  C   UNL A   1      40.475  34.119  31.097  1.00  0.00     0.029 A 
ATOM     43  N   UNL A   1      39.628  32.153  30.585  1.00  0.00    -0.354 N 
ATOM     44  C   UNL A   1      42.986  29.535  27.859  1.00  0.00     0.074 A 
ATOM     45  C   UNL A   1      44.246  29.998  28.356  1.00  0.00     0.031 C 
ATOM     46  C   UNL A   1      39.192  34.134  31.525  1.00  0.00     0.029 A 
ATOM     47  C   UNL A   1      38.550  32.887  31.167  1.00  0.00     0.049 A 
ATOM     48  H   UNL A   1      39.536  31.207  30.331  1.00  0.00     0.167 HD
ATOM     49  C   UNL A   1      42.622  28.304  27.374  1.00  0.00     0.037 A 
ATOM     50  C   UNL A   1      37.229  32.529  31.279  1.00  0.00     0.037 A 
ATOM     51  C   UNL A   1      41.198  28.212  27.400  1.00  0.00     0.049 A 
ATOM     52  C   UNL A   1      37.191  31.142  30.785  1.00  0.00     0.074 A 
ATOM     53  C   UNL A   1      40.222  28.829  26.663  1.00  0.00     0.029 A 
ATOM     54  N   UNL A   1      40.656  27.744  28.578  1.00  0.00    -0.354 N 
ATOM     55  N   UNL A   1      37.702  30.115  31.397  1.00  0.00    -0.248 NA
ATOM     56  C   UNL A   1      36.691  30.916  29.423  1.00  0.00     0.031 C 
ATOM     57  C   UNL A   1      39.291  29.202  27.653  1.00  0.00     0.029 A 
ATOM     58  C   UNL A   1      39.562  28.522  28.849  1.00  0.00     0.049 A 
ATOM     59  H   UNL A   1      40.992  26.993  29.120  1.00  0.00     0.167 HD
ATOM     60  C   UNL A   1      37.885  29.226  30.367  1.00  0.00     0.074 A 
ATOM     61  C   UNL A   1      36.991  29.628  29.298  1.00  0.00     0.031 C 
ATOM     62  C   UNL A   1      39.086  28.610  30.211  1.00  0.00     0.037 A 
BRANCH  49  63
ATOM     63  C   UNL A   1      43.337  26.994  27.137  1.00  0.00     0.058 A 
ATOM     64  C   UNL A   1      43.429  26.536  25.794  1.00  0.00     0.135 A 
ATOM     65  C   UNL A   1      43.594  26.038  28.127  1.00  0.00     0.135 A 
ATOM     66  F   UNL A   1      43.265  27.387  24.766  1.00  0.00    -0.206 F 
ATOM     67  C   UNL A   1      43.609  25.196  25.462  1.00  0.00     0.059 A 
ATOM     68  C   UNL A   1      43.824  24.690  27.813  1.00  0.00     0.059 A 
ATOM     69  F   UNL A   1      43.554  26.367  29.425  1.00  0.00    -0.206 F 
ATOM     70  C   UNL A   1      43.774  24.272  26.483  1.00  0.00     0.060 A 
BRANCH  70  71
ATOM     71  S   UNL A   1      43.893  22.526  26.031  1.00  0.00     0.124 S 
ATOM     72  O   UNL A   1      43.392  22.535  24.661  1.00  0.00    -0.237 OA
ATOM     73  O   UNL A   1      45.323  22.268  26.177  1.00  0.00    -0.237 OA
ATOM     74  O   UNL A   1      43.043  21.865  27.015  1.00  0.00    -0.744 OA
ENDBRANCH  70  71
ENDBRANCH  49  63
BRANCH  50  75
ATOM     75  C   UNL A   1      35.879  33.191  31.535  1.00  0.00     0.058 A 
ATOM     76  C   UNL A   1      35.187  33.248  32.751  1.00  0.00     0.135 A 
ATOM     77  C   UNL A   1      35.291  33.989  30.507  1.00  0.00     0.135 A 
ATOM     78  F   UNL A   1      35.498  32.423  33.759  1.00  0.00    -0.206 F 
ATOM     79  C   UNL A   1      34.142  34.168  32.983  1.00  0.00     0.059 A 
ATOM     80  C   UNL A   1      34.309  34.952  30.726  1.00  0.00     0.059 A 
ATOM     81  F   UNL A   1      35.689  33.896  29.229  1.00  0.00    -0.206 F 
ATOM     82  C   UNL A   1      33.765  35.069  31.987  1.00  0.00     0.060 A 
BRANCH  82  83
ATOM     83  S   UNL A   1      32.682  36.470  32.356  1.00  0.00     0.124 S 
ATOM     84  O   UNL A   1      32.742  37.241  31.121  1.00  0.00    -0.237 OA
ATOM     85  O   UNL A   1      31.408  35.814  32.637  1.00  0.00    -0.237 OA
ATOM     86  O   UNL A   1      33.318  37.089  33.517  1.00  0.00    -0.744 OA
ENDBRANCH  82  83
ENDBRANCH  50  75
BRANCH  62  87
ATOM     87  C   UNL A   1      39.911  28.419  31.476  1.00  0.00     0.058 A 
ATOM     88  C   UNL A   1      39.406  27.662  32.544  1.00  0.00     0.135 A 
ATOM     89  C   UNL A   1      41.176  28.993  31.695  1.00  0.00     0.135 A 
ATOM     90  F   UNL A   1      38.206  27.071  32.432  1.00  0.00    -0.206 F 
ATOM     91  C   UNL A   1      40.116  27.472  33.737  1.00  0.00     0.059 A 
ATOM     92  C   UNL A   1      41.913  28.821  32.873  1.00  0.00     0.059 A 
ATOM     93  F   UNL A   1      41.741  29.748  30.759  1.00  0.00    -0.206 F 
ATOM     94  C   UNL A   1      41.377  28.046  33.889  1.00  0.00     0.060 A 
BRANCH  94  95
ATOM     95  S   UNL A   1      42.316  27.724  35.400  1.00  0.00     0.124 S 
ATOM     96  O   UNL A   1      41.275  27.317  36.337  1.00  0.00    -0.237 OA
ATOM     97  O   UNL A   1      43.229  26.670  34.969  1.00  0.00    -0.237 OA
ATOM     98  O   UNL A   1      42.945  29.011  35.693  1.00  0.00    -0.744 OA
ENDBRANCH  94  95
ENDBRANCH  62  87
ENDBRANCH  36  37
ENDBRANCH  28  31
ENDBRANCH  26  27
ENDBRANCH   1  26
TORSDOF 16
ENDMDL
MODEL 2
REMARK VINA RESULT:     -13.1      9.144     13.563
REMARK SMILES O=C(Cn1cccc1C(=O)N1CCC2(CCCC2)CC1)NCCCCNC(=O)c1ccc(-c2c3nc(c(-c4c(F)cc(S(=O)(=O)[O-])cc4F)c4ccc([nH]4)c(-c4c(F)cc(S(=O)(=O)[O-])cc4F)c4nc(c(-c5c(F)cc(S(=O)(=O)[O-])cc5F)c5ccc2[nH]5)C=C4)C=C3)cc1
REMARK SMILES IDX 24 1 23 2 22 3 21 4 1 5 2 6 3 8 4 9 5 10 8 11 6 12 7 13 9 14
REMARK SMILES IDX 10 15 11 16 12 17 20 18 13 19 19 20 14 21 15 22 18 23 16 24
REMARK SMILES IDX 17 25 25 26 26 27 27 28 28 30 29 31 30 32 94 33 31 34 93 35
REMARK SMILES IDX 32 36 33 37 34 38 87 39 35 40 92 41 86 42 88 43 36 44 91 45
REMARK SMILES IDX 85 46 84 47 37 49 71 50 50 51 70 52 51 53 54 54 69 55 89 56
REMARK SMILES IDX 52 57 53 58 68 60 90 61 55 62 38 63 39 64 48 65 40 66 41 67
REMARK SMILES IDX 47 68 49 69 42 70 43 71 44 72 45 73 46 74 72 75 73 76 82 77
REMARK SMILES IDX 74 78 75 79 81 80 83 81 76 82 77 83 78 84 79 85 80 86 56 87
REMARK SMILES IDX 57 88 66 89 58 90 59 91 65 92 67 93 60 94 61 95 62 96 63 97
REMARK SMILES IDX 64 98
REMARK H PARENT 21 7 26 29 88 48 54 59
REMARK Flexibility Score: inf
ROOT
ATOM      1  C   UNL A   1      33.656  28.312  26.032  1.00  0.00     0.023 C 
ENDROOT
BRANCH   1   2
ATOM      2  C   UNL A   1      33.328  29.349  24.949  1.00  0.00     0.023 C 
BRANCH   2   3
ATOM      3  C   UNL A   1      33.442  28.845  23.509  1.00  0.00     0.116 C 
BRANCH   3   4
ATOM      4  N   UNL A   1      33.059  27.452  23.388  1.00  0.00    -0.355 N 
ATOM      5  O   UNL A   1      31.082  27.909  22.333  1.00  0.00    -0.273 OA
ATOM      6  C   UNL A   1      31.873  27.084  22.794  1.00  0.00     0.239 C 
ATOM      7  H   UNL A   1      33.660  26.755  23.736  1.00  0.00     0.163 HD
BRANCH   6   8
ATOM      8  C   UNL A   1      31.484  25.637  22.928  1.00  0.00     0.222 C 
BRANCH   8   9
ATOM      9  N   UNL A   1      30.992  25.101  24.184  1.00  0.00    -0.334 N 
ATOM     10  C   UNL A   1      30.189  25.766  25.071  1.00  0.00     0.087 A 
ATOM     11  C   UNL A   1      31.327  23.836  24.680  1.00  0.00     0.107 A 
ATOM     12  C   UNL A   1      29.982  24.951  26.157  1.00  0.00     0.020 A 
ATOM     13  C   UNL A   1      30.693  23.757  25.918  1.00  0.00     0.033 A 
BRANCH  11  14
ATOM     14  C   UNL A   1      32.118  22.744  24.093  1.00  0.00     0.270 C 
ATOM     15  O   UNL A   1      31.715  22.069  23.145  1.00  0.00    -0.267 OA
ATOM     16  N   UNL A   1      33.431  22.572  24.531  1.00  0.00    -0.337 N 
ATOM     17  C   UNL A   1      34.461  22.548  23.512  1.00  0.00     0.120 C 
ATOM     18  C   UNL A   1      33.740  21.702  25.657  1.00  0.00     0.120 C 
ATOM     19  C   UNL A   1      35.719  23.177  24.090  1.00  0.00     0.028 C 
ATOM     20  C   UNL A   1      35.003  22.202  26.373  1.00  0.00     0.028 C 
ATOM     21  C   UNL A   1      36.188  22.537  25.427  1.00  0.00    -0.026 C 
ATOM     22  C   UNL A   1      37.172  23.534  26.108  1.00  0.00     0.007 C 
ATOM     23  C   UNL A   1      37.032  21.264  25.181  1.00  0.00     0.007 C 
ATOM     24  C   UNL A   1      38.428  22.743  26.428  1.00  0.00     0.001 C 
ATOM     25  C   UNL A   1      38.482  21.707  25.321  1.00  0.00     0.001 C 
ENDBRANCH  11  14
ENDBRANCH   8   9
ENDBRANCH   6   8
ENDBRANCH   3   4
ENDBRANCH   2   3
ENDBRANCH   1   2
BRANCH   1  26
ATOM     26  C   UNL A   1      34.990  28.543  26.730  1.00  0.00     0.116 C 
BRANCH  26  27
ATOM     27  N   UNL A   1      35.274  29.961  26.898  1.00  0.00    -0.352 N 
ATOM     28  C   UNL A   1      36.257  30.538  27.662  1.00  0.00     0.251 C 
ATOM     29  H   UNL A   1      34.690  30.581  26.406  1.00  0.00     0.163 HD
ATOM     30  O   UNL A   1      36.140  31.713  28.023  1.00  0.00    -0.269 OA
BRANCH  28  31
ATOM     31  C   UNL A   1      37.447  29.762  28.046  1.00  0.00     0.039 A 
ATOM     32  C   UNL A   1      38.573  29.769  27.213  1.00  0.00     0.014 A 
ATOM     33  C   UNL A   1      37.419  28.971  29.200  1.00  0.00     0.014 A 
ATOM     34  C   UNL A   1      39.687  29.019  27.567  1.00  0.00     0.010 A 
ATOM     35  C   UNL A   1      38.545  28.274  29.590  1.00  0.00     0.010 A 
ATOM     36  C   UNL A   1      39.667  28.285  28.762  1.00  0.00    -0.014 A 
BRANCH  36  37
ATOM     37  C   UNL A   1      40.870  27.555  29.194  1.00  0.00     0.031 A 
ATOM     38  C   UNL A   1      41.089  26.308  28.301  1.00  0.00     0.074 A 
ATOM     39  C   UNL A   1      41.525  28.108  30.268  1.00  0.00     0.049 A 
ATOM     40  N   UNL A   1      41.458  25.106  28.620  1.00  0.00    -0.248 NA
ATOM     41  C   UNL A   1      40.729  26.369  26.853  1.00  0.00     0.031 C 
ATOM     42  C   UNL A   1      41.124  29.367  30.955  1.00  0.00     0.029 A 
ATOM     43  N   UNL A   1      42.642  27.773  31.002  1.00  0.00    -0.354 N 
ATOM     44  C   UNL A   1      41.601  24.357  27.423  1.00  0.00     0.074 A 
ATOM     45  C   UNL A   1      40.979  25.135  26.396  1.00  0.00     0.031 C 
ATOM     46  C   UNL A   1      41.906  29.615  32.031  1.00  0.00     0.029 A 
ATOM     47  C   UNL A   1      42.896  28.568  32.160  1.00  0.00     0.049 A 
ATOM     48  H   UNL A   1      43.230  27.028  30.743  1.00  0.00     0.167 HD
ATOM     49  C   UNL A   1      42.390  23.237  27.333  1.00  0.00     0.037 A 
ATOM     50  C   UNL A   1      43.795  28.345  33.175  1.00  0.00     0.037 A 
ATOM     51  C   UNL A   1      43.095  23.083  28.565  1.00  0.00     0.049 A 
ATOM     52  C   UNL A   1      44.548  27.161  32.731  1.00  0.00     0.074 A 
ATOM     53  C   UNL A   1      42.684  22.733  29.824  1.00  0.00     0.029 A 
ATOM     54  N   UNL A   1      44.300  23.747  28.643  1.00  0.00    -0.354 N 
ATOM     55  N   UNL A   1      45.393  27.137  31.743  1.00  0.00    -0.248 NA
ATOM     56  C   UNL A   1      44.203  25.867  33.333  1.00  0.00     0.031 C 
ATOM     57  C   UNL A   1      43.353  23.677  30.628  1.00  0.00     0.029 A 
ATOM     58  C   UNL A   1      44.364  24.309  29.891  1.00  0.00     0.049 A 
ATOM     59  H   UNL A   1      44.985  23.805  27.938  1.00  0.00     0.167 HD
ATOM     60  C   UNL A   1      45.404  25.807  31.403  1.00  0.00     0.074 A 
ATOM     61  C   UNL A   1      44.934  25.071  32.561  1.00  0.00     0.031 C 
ATOM     62  C   UNL A   1      45.238  25.440  30.106  1.00  0.00     0.037 A 
BRANCH  49  63
ATOM     63  C   UNL A   1      42.895  22.374  26.202  1.00  0.00     0.058 A 
ATOM     64  C   UNL A   1      42.537  20.997  26.222  1.00  0.00     0.135 A 
ATOM     65  C   UNL A   1      43.953  22.717  25.351  1.00  0.00     0.135 A 
ATOM     66  F   UNL A   1      41.494  20.572  26.955  1.00  0.00    -0.206 F 
ATOM     67  C   UNL A   1      43.273  20.014  25.568  1.00  0.00     0.059 A 
ATOM     68  C   UNL A   1      44.680  21.746  24.645  1.00  0.00     0.059 A 
ATOM     69  F   UNL A   1      44.359  23.988  25.239  1.00  0.00    -0.206 F 
ATOM     70  C   UNL A   1      44.367  20.396  24.805  1.00  0.00     0.060 A 
BRANCH  70  71
ATOM     71  S   UNL A   1      45.372  19.093  24.058  1.00  0.00     0.124 S 
ATOM     72  O   UNL A   1      45.204  18.000  25.010  1.00  0.00    -0.237 OA
ATOM     73  O   UNL A   1      44.722  18.907  22.764  1.00  0.00    -0.237 OA
ATOM     74  O   UNL A   1      46.704  19.686  24.001  1.00  0.00    -0.744 OA
ENDBRANCH  70  71
ENDBRANCH  49  63
BRANCH  50  75
ATOM     75  C   UNL A   1      44.045  28.808  34.606  1.00  0.00     0.058 A 
ATOM     76  C   UNL A   1      45.182  29.469  35.089  1.00  0.00     0.135 A 
ATOM     77  C   UNL A   1      42.983  28.731  35.557  1.00  0.00     0.135 A 
ATOM     78  F   UNL A   1      46.326  29.468  34.394  1.00  0.00    -0.206 F 
ATOM     79  C   UNL A   1      45.184  30.168  36.316  1.00  0.00     0.059 A 
ATOM     80  C   UNL A   1      42.934  29.467  36.739  1.00  0.00     0.059 A 
ATOM     81  F   UNL A   1      41.906  27.960  35.349  1.00  0.00    -0.206 F 
ATOM     82  C   UNL A   1      44.028  30.225  37.095  1.00  0.00     0.060 A 
BRANCH  82  83
ATOM     83  S   UNL A   1      43.892  31.379  38.482  1.00  0.00     0.124 S 
ATOM     84  O   UNL A   1      44.619  32.542  37.987  1.00  0.00    -0.237 OA
ATOM     85  O   UNL A   1      42.447  31.538  38.613  1.00  0.00    -0.237 OA
ATOM     86  O   UNL A   1      44.530  30.658  39.581  1.00  0.00    -0.744 OA
ENDBRANCH  82  83
ENDBRANCH  50  75
BRANCH  62  87
ATOM     87  C   UNL A   1      45.690  26.449  29.059  1.00  0.00     0.058 A 
ATOM     88  C   UNL A   1      47.048  26.785  28.938  1.00  0.00     0.135 A 
ATOM     89  C   UNL A   1      44.824  27.137  28.191  1.00  0.00     0.135 A 
ATOM     90  F   UNL A   1      47.955  26.180  29.722  1.00  0.00    -0.206 F 
ATOM     91  C   UNL A   1      47.514  27.720  28.006  1.00  0.00     0.059 A 
ATOM     92  C   UNL A   1      45.257  28.076  27.247  1.00  0.00     0.059 A 
ATOM     93  F   UNL A   1      43.515  26.916  28.234  1.00  0.00    -0.206 F 
ATOM     94  C   UNL A   1      46.611  28.355  27.154  1.00  0.00     0.060 A 
BRANCH  94  95
ATOM     95  S   UNL A   1      47.236  29.499  25.901  1.00  0.00     0.124 S 
ATOM     96  O   UNL A   1      47.837  28.597  24.924  1.00  0.00    -0.237 OA
ATOM     97  O   UNL A   1      46.015  30.174  25.473  1.00  0.00    -0.237 OA
ATOM     98  O   UNL A   1      48.182  30.333  26.639  1.00  0.00    -0.744 OA
ENDBRANCH  94  95
ENDBRANCH  62  87
ENDBRANCH  36  37
ENDBRANCH  28  31
ENDBRANCH  26  27
ENDBRANCH   1  26
TORSDOF 16
ENDMDL
MODEL 3
REMARK VINA RESULT:     -12.8      9.180     12.752
REMARK SMILES O=C(Cn1cccc1C(=O)N1CCC2(CCCC2)CC1)NCCCCNC(=O)c1ccc(-c2c3nc(c(-c4c(F)cc(S(=O)(=O)[O-])cc4F)c4ccc([nH]4)c(-c4c(F)cc(S(=O)(=O)[O-])cc4F)c4nc(c(-c5c(F)cc(S(=O)(=O)[O-])cc5F)c5ccc2[nH]5)C=C4)C=C3)cc1
REMARK SMILES IDX 24 1 23 2 22 3 21 4 1 5 2 6 3 8 4 9 5 10 8 11 6 12 7 13 9 14
REMARK SMILES IDX 10 15 11 16 12 17 20 18 13 19 19 20 14 21 15 22 18 23 16 24
REMARK SMILES IDX 17 25 25 26 26 27 27 28 28 30 29 31 30 32 94 33 31 34 93 35
REMARK SMILES IDX 32 36 33 37 34 38 87 39 35 40 92 41 86 42 88 43 36 44 91 45
REMARK SMILES IDX 85 46 84 47 37 49 71 50 50 51 70 52 51 53 54 54 69 55 89 56
REMARK SMILES IDX 52 57 53 58 68 60 90 61 55 62 38 63 39 64 48 65 40 66 41 67
REMARK SMILES IDX 47 68 49 69 42 70 43 71 44 72 45 73 46 74 72 75 73 76 82 77
REMARK SMILES IDX 74 78 75 79 81 80 83 81 76 82 77 83 78 84 79 85 80 86 56 87
REMARK SMILES IDX 57 88 66 89 58 90 59 91 65 92 67 93 60 94 61 95 62 96 63 97
REMARK SMILES IDX 64 98
REMARK H PARENT 21 7 26 29 88 48 54 59
REMARK Flexibility Score: inf
ROOT
ATOM      1  C   UNL A   1      34.035  28.672  26.299  1.00  0.00     0.023 C 
ENDROOT
BRANCH   1   2
ATOM      2  C   UNL A   1      32.849  28.884  27.250  1.00  0.00     0.023 C 
BRANCH   2   3
ATOM      3  C   UNL A   1      31.728  27.849  27.134  1.00  0.00     0.116 C 
BRANCH   3   4
ATOM      4  N   UNL A   1      32.139  26.685  26.373  1.00  0.00    -0.355 N 
ATOM      5  O   UNL A   1      30.065  25.721  26.401  1.00  0.00    -0.273 OA
ATOM      6  C   UNL A   1      31.249  25.683  26.060  1.00  0.00     0.239 C 
ATOM      7  H   UNL A   1      33.073  26.610  26.073  1.00  0.00     0.163 HD
BRANCH   6   8
ATOM      8  C   UNL A   1      31.839  24.431  25.469  1.00  0.00     0.222 C 
BRANCH   8   9
ATOM      9  N   UNL A   1      33.265  24.307  25.232  1.00  0.00    -0.334 N 
ATOM     10  C   UNL A   1      34.187  23.873  26.147  1.00  0.00     0.087 A 
ATOM     11  C   UNL A   1      33.895  24.673  24.038  1.00  0.00     0.107 A 
ATOM     12  C   UNL A   1      35.430  23.944  25.569  1.00  0.00     0.020 A 
ATOM     13  C   UNL A   1      35.251  24.446  24.264  1.00  0.00     0.033 A 
BRANCH  11  14
ATOM     14  C   UNL A   1      33.346  25.151  22.760  1.00  0.00     0.270 C 
ATOM     15  O   UNL A   1      33.403  24.488  21.724  1.00  0.00    -0.267 OA
ATOM     16  N   UNL A   1      32.600  26.330  22.764  1.00  0.00    -0.337 N 
ATOM     17  C   UNL A   1      31.273  26.265  22.184  1.00  0.00     0.120 C 
ATOM     18  C   UNL A   1      33.237  27.623  22.557  1.00  0.00     0.120 C 
ATOM     19  C   UNL A   1      30.369  27.216  22.954  1.00  0.00     0.028 C 
ATOM     20  C   UNL A   1      32.445  28.720  23.283  1.00  0.00     0.028 C 
ATOM     21  C   UNL A   1      30.911  28.670  23.043  1.00  0.00    -0.026 C 
ATOM     22  C   UNL A   1      30.149  29.388  24.195  1.00  0.00     0.007 C 
ATOM     23  C   UNL A   1      30.558  29.485  21.776  1.00  0.00     0.007 C 
ATOM     24  C   UNL A   1      29.600  30.675  23.608  1.00  0.00     0.001 C 
ATOM     25  C   UNL A   1      29.340  30.317  22.157  1.00  0.00     0.001 C 
ENDBRANCH  11  14
ENDBRANCH   8   9
ENDBRANCH   6   8
ENDBRANCH   3   4
ENDBRANCH   2   3
ENDBRANCH   1   2
BRANCH   1  26
ATOM     26  C   UNL A   1      35.395  28.930  26.933  1.00  0.00     0.116 C 
BRANCH  26  27
ATOM     27  N   UNL A   1      35.397  30.149  27.730  1.00  0.00    -0.352 N 
ATOM     28  C   UNL A   1      36.166  30.435  28.830  1.00  0.00     0.251 C 
ATOM     29  H   UNL A   1      34.771  30.853  27.446  1.00  0.00     0.163 HD
ATOM     30  O   UNL A   1      35.799  31.307  29.623  1.00  0.00    -0.269 OA
BRANCH  28  31
ATOM     31  C   UNL A   1      37.424  29.708  29.063  1.00  0.00     0.039 A 
ATOM     32  C   UNL A   1      38.559  30.037  28.310  1.00  0.00     0.014 A 
ATOM     33  C   UNL A   1      37.458  28.651  29.979  1.00  0.00     0.014 A 
ATOM     34  C   UNL A   1      39.740  29.335  28.517  1.00  0.00     0.010 A 
ATOM     35  C   UNL A   1      38.644  27.992  30.233  1.00  0.00     0.010 A 
ATOM     36  C   UNL A   1      39.775  28.324  29.487  1.00  0.00    -0.014 A 
BRANCH  36  37
ATOM     37  C   UNL A   1      41.040  27.631  29.777  1.00  0.00     0.031 A 
ATOM     38  C   UNL A   1      41.202  26.401  28.849  1.00  0.00     0.074 A 
ATOM     39  C   UNL A   1      41.789  28.194  30.783  1.00  0.00     0.049 A 
ATOM     40  N   UNL A   1      41.643  25.209  29.110  1.00  0.00    -0.248 NA
ATOM     41  C   UNL A   1      40.687  26.465  27.449  1.00  0.00     0.031 C 
ATOM     42  C   UNL A   1      41.424  29.432  31.527  1.00  0.00     0.029 A 
ATOM     43  N   UNL A   1      42.989  27.890  31.389  1.00  0.00    -0.354 N 
ATOM     44  C   UNL A   1      41.681  24.477  27.895  1.00  0.00     0.074 A 
ATOM     45  C   UNL A   1      40.927  25.245  26.951  1.00  0.00     0.031 C 
ATOM     46  C   UNL A   1      42.308  29.695  32.516  1.00  0.00     0.029 A 
ATOM     47  C   UNL A   1      43.340  28.681  32.524  1.00  0.00     0.049 A 
ATOM     48  H   UNL A   1      43.569  27.167  31.058  1.00  0.00     0.167 HD
ATOM     49  C   UNL A   1      42.491  23.386  27.705  1.00  0.00     0.037 A 
ATOM     50  C   UNL A   1      44.349  28.478  33.434  1.00  0.00     0.037 A 
ATOM     51  C   UNL A   1      43.329  23.243  28.852  1.00  0.00     0.049 A 
ATOM     52  C   UNL A   1      45.088  27.324  32.895  1.00  0.00     0.074 A 
ATOM     53  C   UNL A   1      43.067  22.867  30.143  1.00  0.00     0.029 A 
ATOM     54  N   UNL A   1      44.514  23.946  28.810  1.00  0.00    -0.354 N 
ATOM     55  N   UNL A   1      45.823  27.339  31.822  1.00  0.00    -0.248 NA
ATOM     56  C   UNL A   1      44.852  26.014  33.512  1.00  0.00     0.031 C 
ATOM     57  C   UNL A   1      43.788  23.824  30.884  1.00  0.00     0.029 A 
ATOM     58  C   UNL A   1      44.693  24.497  30.052  1.00  0.00     0.049 A 
ATOM     59  H   UNL A   1      45.117  24.034  28.036  1.00  0.00     0.167 HD
ATOM     60  C   UNL A   1      45.840  26.014  31.464  1.00  0.00     0.074 A 
ATOM     61  C   UNL A   1      45.521  25.250  32.655  1.00  0.00     0.031 C 
ATOM     62  C   UNL A   1      45.548  25.655  30.187  1.00  0.00     0.037 A 
BRANCH  49  63
ATOM     63  C   UNL A   1      42.900  22.552  26.514  1.00  0.00     0.058 A 
ATOM     64  C   UNL A   1      42.480  21.193  26.495  1.00  0.00     0.135 A 
ATOM     65  C   UNL A   1      43.929  22.885  25.626  1.00  0.00     0.135 A 
ATOM     66  F   UNL A   1      41.455  20.782  27.262  1.00  0.00    -0.206 F 
ATOM     67  C   UNL A   1      43.137  20.208  25.764  1.00  0.00     0.059 A 
ATOM     68  C   UNL A   1      44.575  21.915  24.843  1.00  0.00     0.059 A 
ATOM     69  F   UNL A   1      44.388  24.141  25.546  1.00  0.00    -0.206 F 
ATOM     70  C   UNL A   1      44.208  20.574  24.963  1.00  0.00     0.060 A 
BRANCH  70  71
ATOM     71  S   UNL A   1      45.114  19.263  24.112  1.00  0.00     0.124 S 
ATOM     72  O   UNL A   1      46.486  19.753  24.178  1.00  0.00    -0.237 OA
ATOM     73  O   UNL A   1      44.821  18.097  24.941  1.00  0.00    -0.237 OA
ATOM     74  O   UNL A   1      44.511  19.243  22.784  1.00  0.00    -0.744 OA
ENDBRANCH  70  71
ENDBRANCH  49  63
BRANCH  50  75
ATOM     75  C   UNL A   1      44.737  28.934  34.836  1.00  0.00     0.058 A 
ATOM     76  C   UNL A   1      45.931  29.558  35.217  1.00  0.00     0.135 A 
ATOM     77  C   UNL A   1      43.759  28.893  35.875  1.00  0.00     0.135 A 
ATOM     78  F   UNL A   1      47.011  29.519  34.425  1.00  0.00    -0.206 F 
ATOM     79  C   UNL A   1      46.062  30.259  36.436  1.00  0.00     0.059 A 
ATOM     80  C   UNL A   1      43.835  29.631  37.054  1.00  0.00     0.059 A 
ATOM     81  F   UNL A   1      42.644  28.157  35.764  1.00  0.00    -0.206 F 
ATOM     82  C   UNL A   1      44.980  30.354  37.311  1.00  0.00     0.060 A 
BRANCH  82  83
ATOM     83  S   UNL A   1      45.001  31.513  38.699  1.00  0.00     0.124 S 
ATOM     84  O   UNL A   1      44.298  30.767  39.736  1.00  0.00    -0.237 OA
ATOM     85  O   UNL A   1      46.431  31.714  38.916  1.00  0.00    -0.237 OA
ATOM     86  O   UNL A   1      44.294  32.679  38.173  1.00  0.00    -0.744 OA
ENDBRANCH  82  83
ENDBRANCH  50  75
BRANCH  62  87
ATOM     87  C   UNL A   1      45.852  26.690  29.113  1.00  0.00     0.058 A 
ATOM     88  C   UNL A   1      47.176  27.080  28.860  1.00  0.00     0.135 A 
ATOM     89  C   UNL A   1      44.876  27.349  28.344  1.00  0.00     0.135 A 
ATOM     90  F   UNL A   1      48.181  26.507  29.541  1.00  0.00    -0.206 F 
ATOM     91  C   UNL A   1      47.508  28.041  27.896  1.00  0.00     0.059 A 
ATOM     92  C   UNL A   1      45.174  28.312  27.373  1.00  0.00     0.059 A 
ATOM     93  F   UNL A   1      43.588  27.074  28.516  1.00  0.00    -0.206 F 
ATOM     94  C   UNL A   1      46.500  28.646  27.147  1.00  0.00     0.060 A 
BRANCH  94  95
ATOM     95  S   UNL A   1      46.949  29.823  25.851  1.00  0.00     0.124 S 
ATOM     96  O   UNL A   1      47.086  28.964  24.679  1.00  0.00    -0.237 OA
ATOM     97  O   UNL A   1      45.799  30.722  25.847  1.00  0.00    -0.237 OA
ATOM     98  O   UNL A   1      48.196  30.410  26.338  1.00  0.00    -0.744 OA
ENDBRANCH  94  95
ENDBRANCH  62  87
ENDBRANCH  36  37
ENDBRANCH  28  31
ENDBRANCH  26  27
ENDBRANCH   1  26
TORSDOF 16
ENDMDL
