MODEL 1
REMARK VINA RESULT:     -10.8      0.000      0.000
REMARK SMILES C=CCN(CC(=O)NCCCCNC(=O)c1ccc(-c2c3nc(c(-c4c(F)cc(S(=O)(=O)[O-])cc4F)c4ccc([nH]4)c(-c4c(F)cc(S(=O)(=O)[O-])cc4F)c4nc(c(-c5c(F)cc(S(=O)(=O)[O-])cc5F)c5ccc2[nH]5)C=C4)C=C3)cc1)S(=O)(=O)c1ccccc1OC
REMARK SMILES IDX 10 1 9 2 8 3 6 4 7 5 5 7 4 8 3 9 2 10 1 11 82 12 83 13 84 14
REMARK SMILES IDX 85 15 86 16 90 17 87 18 89 19 88 20 91 21 92 22 11 23 12 24
REMARK SMILES IDX 13 25 14 26 15 28 16 29 17 30 81 31 18 32 80 33 19 34 20 35
REMARK SMILES IDX 21 36 74 37 22 38 79 39 73 40 75 41 23 42 78 43 72 44 71 45
REMARK SMILES IDX 24 47 58 48 37 49 57 50 38 51 41 52 56 53 76 54 39 55 40 56
REMARK SMILES IDX 55 58 77 59 42 60 25 61 26 62 35 63 27 64 28 65 34 66 36 67
REMARK SMILES IDX 29 68 30 69 31 70 32 71 33 72 59 73 60 74 69 75 61 76 62 77
REMARK SMILES IDX 68 78 70 79 63 80 64 81 65 82 66 83 67 84 43 85 44 86 53 87
REMARK SMILES IDX 45 88 46 89 52 90 54 91 47 92 48 93 49 94 50 95 51 96
REMARK H PARENT 8 6 13 27 75 46 41 57
REMARK Flexibility Score: inf
ROOT
ATOM      1  C   UNL A   1      31.832  28.224  25.900  1.00  0.00     0.023 C 
ENDROOT
BRANCH   1   2
ATOM      2  C   UNL A   1      30.943  27.013  25.621  1.00  0.00     0.116 C 
BRANCH   2   3
ATOM      3  N   UNL A   1      31.171  25.947  26.577  1.00  0.00    -0.355 N 
ATOM      4  C   UNL A   1      31.221  24.595  26.385  1.00  0.00     0.235 C 
ATOM      5  O   UNL A   1      31.409  23.872  27.366  1.00  0.00    -0.274 OA
ATOM      6  H   UNL A   1      31.314  26.243  27.506  1.00  0.00     0.163 HD
BRANCH   4   7
ATOM      7  C   UNL A   1      31.112  23.997  24.991  1.00  0.00     0.202 C 
BRANCH   7   8
ATOM      8  N   UNL A   1      32.321  23.423  24.308  1.00  0.00    -0.185 NA
BRANCH   8   9
ATOM      9  C   UNL A   1      32.612  24.172  23.055  1.00  0.00     0.130 C 
BRANCH   9  10
ATOM     10  C   UNL A   1      33.307  25.481  23.222  1.00  0.00    -0.018 C 
ATOM     11  C   UNL A   1      33.225  26.503  22.357  1.00  0.00     0.005 C 
ENDBRANCH   9  10
ENDBRANCH   8   9
BRANCH   8  12
ATOM     12  S   UNL A   1      32.472  21.709  24.298  1.00  0.00     0.247 S 
ATOM     13  O   UNL A   1      31.659  21.229  25.397  1.00  0.00    -0.207 OA
ATOM     14  O   UNL A   1      32.268  21.238  22.944  1.00  0.00    -0.207 OA
BRANCH  12  15
ATOM     15  C   UNL A   1      34.187  21.380  24.607  1.00  0.00     0.124 A 
ATOM     16  C   UNL A   1      35.129  22.409  24.463  1.00  0.00     0.026 A 
ATOM     17  C   UNL A   1      34.616  20.077  24.865  1.00  0.00     0.138 A 
ATOM     18  C   UNL A   1      36.490  22.138  24.614  1.00  0.00     0.002 A 
ATOM     19  C   UNL A   1      35.982  19.805  24.991  1.00  0.00     0.048 A 
ATOM     20  C   UNL A   1      36.916  20.837  24.878  1.00  0.00     0.004 A 
BRANCH  17  21
ATOM     21  O   UNL A   1      33.752  19.018  24.833  1.00  0.00    -0.495 OA
ATOM     22  C   UNL A   1      34.302  17.917  24.107  1.00  0.00     0.278 C 
ENDBRANCH  17  21
ENDBRANCH  12  15
ENDBRANCH   8  12
ENDBRANCH   7   8
ENDBRANCH   4   7
ENDBRANCH   2   3
ENDBRANCH   1   2
BRANCH   1  23
ATOM     23  C   UNL A   1      32.601  28.168  27.217  1.00  0.00     0.023 C 
BRANCH  23  24
ATOM     24  C   UNL A   1      33.922  28.929  27.218  1.00  0.00     0.116 C 
BRANCH  24  25
ATOM     25  N   UNL A   1      33.874  30.184  27.959  1.00  0.00    -0.352 N 
ATOM     26  C   UNL A   1      34.877  30.778  28.692  1.00  0.00     0.251 C 
ATOM     27  H   UNL A   1      33.018  30.667  27.933  1.00  0.00     0.163 HD
ATOM     28  O   UNL A   1      34.662  31.806  29.325  1.00  0.00    -0.269 OA
BRANCH  26  29
ATOM     29  C   UNL A   1      36.201  30.129  28.739  1.00  0.00     0.039 A 
ATOM     30  C   UNL A   1      37.006  30.146  27.596  1.00  0.00     0.014 A 
ATOM     31  C   UNL A   1      36.676  29.591  29.937  1.00  0.00     0.014 A 
ATOM     32  C   UNL A   1      38.329  29.709  27.681  1.00  0.00     0.010 A 
ATOM     33  C   UNL A   1      38.011  29.216  30.035  1.00  0.00     0.010 A 
ATOM     34  C   UNL A   1      38.854  29.290  28.913  1.00  0.00    -0.014 A 
BRANCH  34  35
ATOM     35  C   UNL A   1      40.285  28.938  29.082  1.00  0.00     0.031 A 
ATOM     36  C   UNL A   1      41.257  29.993  29.524  1.00  0.00     0.074 A 
ATOM     37  C   UNL A   1      40.725  27.718  28.715  1.00  0.00     0.049 A 
ATOM     38  N   UNL A   1      42.563  29.970  29.511  1.00  0.00    -0.248 NA
ATOM     39  C   UNL A   1      40.679  31.258  30.007  1.00  0.00     0.031 C 
ATOM     40  C   UNL A   1      39.884  26.620  28.229  1.00  0.00     0.029 A 
ATOM     41  N   UNL A   1      41.996  27.205  28.669  1.00  0.00    -0.354 N 
ATOM     42  C   UNL A   1      42.965  31.232  29.929  1.00  0.00     0.074 A 
ATOM     43  C   UNL A   1      41.763  31.999  30.178  1.00  0.00     0.031 C 
ATOM     44  C   UNL A   1      40.661  25.562  27.947  1.00  0.00     0.029 A 
ATOM     45  C   UNL A   1      42.055  25.919  28.188  1.00  0.00     0.049 A 
ATOM     46  H   UNL A   1      42.791  27.710  28.954  1.00  0.00     0.167 HD
ATOM     47  C   UNL A   1      44.222  31.706  30.093  1.00  0.00     0.037 A 
ATOM     48  C   UNL A   1      43.117  25.123  27.953  1.00  0.00     0.037 A 
ATOM     49  C   UNL A   1      45.411  30.920  29.903  1.00  0.00     0.049 A 
ATOM     50  C   UNL A   1      44.501  25.644  28.219  1.00  0.00     0.074 A 
ATOM     51  C   UNL A   1      46.730  31.293  30.088  1.00  0.00     0.029 A 
ATOM     52  N   UNL A   1      45.421  29.592  29.503  1.00  0.00    -0.354 N 
ATOM     53  N   UNL A   1      44.863  26.839  28.622  1.00  0.00    -0.248 NA
ATOM     54  C   UNL A   1      45.619  24.716  27.998  1.00  0.00     0.031 C 
ATOM     55  C   UNL A   1      47.540  30.188  29.796  1.00  0.00     0.029 A 
ATOM     56  C   UNL A   1      46.722  29.126  29.446  1.00  0.00     0.049 A 
ATOM     57  H   UNL A   1      44.621  29.061  29.290  1.00  0.00     0.167 HD
ATOM     58  C   UNL A   1      46.249  26.800  28.721  1.00  0.00     0.074 A 
ATOM     59  C   UNL A   1      46.660  25.464  28.340  1.00  0.00     0.031 C 
ATOM     60  C   UNL A   1      47.103  27.784  29.091  1.00  0.00     0.037 A 
BRANCH  47  61
ATOM     61  C   UNL A   1      44.366  33.144  30.496  1.00  0.00     0.058 A 
ATOM     62  C   UNL A   1      44.506  33.520  31.839  1.00  0.00     0.135 A 
ATOM     63  C   UNL A   1      44.353  34.158  29.525  1.00  0.00     0.135 A 
ATOM     64  F   UNL A   1      44.503  32.587  32.806  1.00  0.00    -0.206 F 
ATOM     65  C   UNL A   1      44.593  34.856  32.214  1.00  0.00     0.059 A 
ATOM     66  C   UNL A   1      44.460  35.502  29.876  1.00  0.00     0.059 A 
ATOM     67  F   UNL A   1      44.218  33.851  28.226  1.00  0.00    -0.206 F 
ATOM     68  C   UNL A   1      44.558  35.840  31.225  1.00  0.00     0.060 A 
BRANCH  68  69
ATOM     69  S   UNL A   1      44.644  37.575  31.716  1.00  0.00     0.124 S 
ATOM     70  O   UNL A   1      43.647  37.622  32.781  1.00  0.00    -0.237 OA
ATOM     71  O   UNL A   1      46.032  37.719  32.143  1.00  0.00    -0.237 OA
ATOM     72  O   UNL A   1      44.292  38.288  30.493  1.00  0.00    -0.744 OA
ENDBRANCH  68  69
ENDBRANCH  47  61
BRANCH  48  73
ATOM     73  C   UNL A   1      42.907  23.739  27.458  1.00  0.00     0.058 A 
ATOM     74  C   UNL A   1      42.796  22.670  28.357  1.00  0.00     0.135 A 
ATOM     75  C   UNL A   1      42.791  23.461  26.088  1.00  0.00     0.135 A 
ATOM     76  F   UNL A   1      42.904  22.891  29.676  1.00  0.00    -0.206 F 
ATOM     77  C   UNL A   1      42.586  21.368  27.918  1.00  0.00     0.059 A 
ATOM     78  C   UNL A   1      42.566  22.169  25.624  1.00  0.00     0.059 A 
ATOM     79  F   UNL A   1      42.874  24.455  25.190  1.00  0.00    -0.206 F 
ATOM     80  C   UNL A   1      42.473  21.127  26.548  1.00  0.00     0.060 A 
BRANCH  80  81
ATOM     81  S   UNL A   1      42.146  19.442  25.984  1.00  0.00     0.124 S 
ATOM     82  O   UNL A   1      43.061  19.330  24.853  1.00  0.00    -0.237 OA
ATOM     83  O   UNL A   1      42.486  18.648  27.161  1.00  0.00    -0.237 OA
ATOM     84  O   UNL A   1      40.725  19.474  25.651  1.00  0.00    -0.744 OA
ENDBRANCH  80  81
ENDBRANCH  48  73
BRANCH  60  85
ATOM     85  C   UNL A   1      48.563  27.447  29.145  1.00  0.00     0.058 A 
ATOM     86  C   UNL A   1      49.427  27.777  28.091  1.00  0.00     0.135 A 
ATOM     87  C   UNL A   1      49.115  26.873  30.300  1.00  0.00     0.135 A 
ATOM     88  F   UNL A   1      48.942  28.322  26.964  1.00  0.00    -0.206 F 
ATOM     89  C   UNL A   1      50.796  27.550  28.181  1.00  0.00     0.059 A 
ATOM     90  C   UNL A   1      50.482  26.650  30.418  1.00  0.00     0.059 A 
ATOM     91  F   UNL A   1      48.325  26.546  31.336  1.00  0.00    -0.206 F 
ATOM     92  C   UNL A   1      51.315  26.990  29.351  1.00  0.00     0.060 A 
BRANCH  92  93
ATOM     93  S   UNL A   1      53.101  26.767  29.494  1.00  0.00     0.124 S 
ATOM     94  O   UNL A   1      53.371  25.849  28.392  1.00  0.00    -0.237 OA
ATOM     95  O   UNL A   1      53.605  28.127  29.324  1.00  0.00    -0.237 OA
ATOM     96  O   UNL A   1      53.265  26.210  30.833  1.00  0.00    -0.744 OA
ENDBRANCH  92  93
ENDBRANCH  60  85
ENDBRANCH  34  35
ENDBRANCH  26  29
ENDBRANCH  24  25
ENDBRANCH  23  24
ENDBRANCH   1  23
TORSDOF 20
ENDMDL
MODEL 2
REMARK VINA RESULT:     -10.5      1.212      2.217
REMARK SMILES C=CCN(CC(=O)NCCCCNC(=O)c1ccc(-c2c3nc(c(-c4c(F)cc(S(=O)(=O)[O-])cc4F)c4ccc([nH]4)c(-c4c(F)cc(S(=O)(=O)[O-])cc4F)c4nc(c(-c5c(F)cc(S(=O)(=O)[O-])cc5F)c5ccc2[nH]5)C=C4)C=C3)cc1)S(=O)(=O)c1ccccc1OC
REMARK SMILES IDX 10 1 9 2 8 3 6 4 7 5 5 7 4 8 3 9 2 10 1 11 82 12 83 13 84 14
REMARK SMILES IDX 85 15 86 16 90 17 87 18 89 19 88 20 91 21 92 22 11 23 12 24
REMARK SMILES IDX 13 25 14 26 15 28 16 29 17 30 81 31 18 32 80 33 19 34 20 35
REMARK SMILES IDX 21 36 74 37 22 38 79 39 73 40 75 41 23 42 78 43 72 44 71 45
REMARK SMILES IDX 24 47 58 48 37 49 57 50 38 51 41 52 56 53 76 54 39 55 40 56
REMARK SMILES IDX 55 58 77 59 42 60 25 61 26 62 35 63 27 64 28 65 34 66 36 67
REMARK SMILES IDX 29 68 30 69 31 70 32 71 33 72 59 73 60 74 69 75 61 76 62 77
REMARK SMILES IDX 68 78 70 79 63 80 64 81 65 82 66 83 67 84 43 85 44 86 53 87
REMARK SMILES IDX 45 88 46 89 52 90 54 91 47 92 48 93 49 94 50 95 51 96
REMARK H PARENT 8 6 13 27 75 46 41 57
REMARK Flexibility Score: inf
ROOT
ATOM      1  C   UNL A   1      33.380  28.924  24.434  1.00  0.00     0.023 C 
ENDROOT
BRANCH   1   2
ATOM      2  C   UNL A   1      32.467  28.931  23.208  1.00  0.00     0.116 C 
BRANCH   2   3
ATOM      3  N   UNL A   1      32.914  27.990  22.200  1.00  0.00    -0.355 N 
ATOM      4  C   UNL A   1      33.301  26.686  22.331  1.00  0.00     0.235 C 
ATOM      5  O   UNL A   1      33.668  26.080  21.322  1.00  0.00    -0.274 OA
ATOM      6  H   UNL A   1      32.942  28.344  21.282  1.00  0.00     0.163 HD
BRANCH   4   7
ATOM      7  C   UNL A   1      33.222  25.976  23.674  1.00  0.00     0.202 C 
BRANCH   7   8
ATOM      8  N   UNL A   1      32.199  24.901  23.912  1.00  0.00    -0.185 NA
BRANCH   8   9
ATOM      9  C   UNL A   1      31.350  25.244  25.085  1.00  0.00     0.130 C 
BRANCH   9  10
ATOM     10  C   UNL A   1      29.974  25.730  24.777  1.00  0.00    -0.018 C 
ATOM     11  C   UNL A   1      29.663  26.538  23.752  1.00  0.00     0.005 C 
ENDBRANCH   9  10
ENDBRANCH   8   9
BRANCH   8  12
ATOM     12  S   UNL A   1      32.719  23.272  23.719  1.00  0.00     0.247 S 
ATOM     13  O   UNL A   1      31.924  22.486  24.640  1.00  0.00    -0.207 OA
ATOM     14  O   UNL A   1      32.761  22.969  22.303  1.00  0.00    -0.207 OA
BRANCH  12  15
ATOM     15  C   UNL A   1      34.425  23.256  24.205  1.00  0.00     0.124 A 
ATOM     16  C   UNL A   1      35.420  23.048  23.239  1.00  0.00     0.026 A 
ATOM     17  C   UNL A   1      34.770  23.320  25.556  1.00  0.00     0.138 A 
ATOM     18  C   UNL A   1      36.758  22.943  23.624  1.00  0.00     0.002 A 
ATOM     19  C   UNL A   1      36.108  23.189  25.939  1.00  0.00     0.048 A 
ATOM     20  C   UNL A   1      37.101  23.014  24.973  1.00  0.00     0.004 A 
BRANCH  17  21
ATOM     21  O   UNL A   1      33.820  23.340  26.538  1.00  0.00    -0.495 OA
ATOM     22  C   UNL A   1      34.176  22.485  27.626  1.00  0.00     0.278 C 
ENDBRANCH  17  21
ENDBRANCH  12  15
ENDBRANCH   8  12
ENDBRANCH   7   8
ENDBRANCH   4   7
ENDBRANCH   2   3
ENDBRANCH   1   2
BRANCH   1  23
ATOM     23  C   UNL A   1      32.665  28.728  25.768  1.00  0.00     0.023 C 
BRANCH  23  24
ATOM     24  C   UNL A   1      33.560  28.846  26.996  1.00  0.00     0.116 C 
BRANCH  24  25
ATOM     25  N   UNL A   1      33.475  30.140  27.662  1.00  0.00    -0.352 N 
ATOM     26  C   UNL A   1      34.449  30.792  28.384  1.00  0.00     0.251 C 
ATOM     27  H   UNL A   1      32.611  30.606  27.587  1.00  0.00     0.163 HD
ATOM     28  O   UNL A   1      34.202  31.850  28.952  1.00  0.00    -0.269 OA
BRANCH  26  29
ATOM     29  C   UNL A   1      35.781  30.169  28.501  1.00  0.00     0.039 A 
ATOM     30  C   UNL A   1      36.625  30.159  27.387  1.00  0.00     0.014 A 
ATOM     31  C   UNL A   1      36.223  29.684  29.734  1.00  0.00     0.014 A 
ATOM     32  C   UNL A   1      37.952  29.749  27.534  1.00  0.00     0.010 A 
ATOM     33  C   UNL A   1      37.559  29.338  29.892  1.00  0.00     0.010 A 
ATOM     34  C   UNL A   1      38.440  29.386  28.798  1.00  0.00    -0.014 A 
BRANCH  34  35
ATOM     35  C   UNL A   1      39.870  29.067  29.029  1.00  0.00     0.031 A 
ATOM     36  C   UNL A   1      40.799  30.145  29.506  1.00  0.00     0.074 A 
ATOM     37  C   UNL A   1      40.352  27.855  28.688  1.00  0.00     0.049 A 
ATOM     38  N   UNL A   1      42.105  30.151  29.548  1.00  0.00    -0.248 NA
ATOM     39  C   UNL A   1      40.173  31.399  29.957  1.00  0.00     0.031 C 
ATOM     40  C   UNL A   1      39.556  26.737  28.174  1.00  0.00     0.029 A 
ATOM     41  N   UNL A   1      41.635  27.370  28.699  1.00  0.00    -0.354 N 
ATOM     42  C   UNL A   1      42.461  31.423  29.976  1.00  0.00     0.074 A 
ATOM     43  C   UNL A   1      41.233  32.165  30.170  1.00  0.00     0.031 C 
ATOM     44  C   UNL A   1      40.368  25.694  27.930  1.00  0.00     0.029 A 
ATOM     45  C   UNL A   1      41.743  26.083  28.229  1.00  0.00     0.049 A 
ATOM     46  H   UNL A   1      42.406  27.894  29.015  1.00  0.00     0.167 HD
ATOM     47  C   UNL A   1      43.699  31.927  30.190  1.00  0.00     0.037 A 
ATOM     48  C   UNL A   1      42.830  25.310  28.043  1.00  0.00     0.037 A 
ATOM     49  C   UNL A   1      44.912  31.165  30.054  1.00  0.00     0.049 A 
ATOM     50  C   UNL A   1      44.190  25.863  28.365  1.00  0.00     0.074 A 
ATOM     51  C   UNL A   1      46.214  31.569  30.293  1.00  0.00     0.029 A 
ATOM     52  N   UNL A   1      44.968  29.836  29.663  1.00  0.00    -0.354 N 
ATOM     53  N   UNL A   1      44.509  27.067  28.775  1.00  0.00    -0.248 NA
ATOM     54  C   UNL A   1      45.336  24.959  28.196  1.00  0.00     0.031 C 
ATOM     55  C   UNL A   1      47.059  30.481  30.043  1.00  0.00     0.029 A 
ATOM     56  C   UNL A   1      46.280  29.399  29.664  1.00  0.00     0.049 A 
ATOM     57  H   UNL A   1      44.189  29.286  29.420  1.00  0.00     0.167 HD
ATOM     58  C   UNL A   1      45.889  27.059  28.933  1.00  0.00     0.074 A 
ATOM     59  C   UNL A   1      46.346  25.731  28.577  1.00  0.00     0.031 C 
ATOM     60  C   UNL A   1      46.706  28.064  29.333  1.00  0.00     0.037 A 
BRANCH  47  61
ATOM     61  C   UNL A   1      43.794  33.369  30.590  1.00  0.00     0.058 A 
ATOM     62  C   UNL A   1      43.865  34.393  29.634  1.00  0.00     0.135 A 
ATOM     63  C   UNL A   1      43.822  33.730  31.946  1.00  0.00     0.135 A 
ATOM     64  F   UNL A   1      43.863  34.096  28.325  1.00  0.00    -0.206 F 
ATOM     65  C   UNL A   1      43.999  35.726  30.007  1.00  0.00     0.059 A 
ATOM     66  C   UNL A   1      43.934  35.060  32.343  1.00  0.00     0.059 A 
ATOM     67  F   UNL A   1      43.759  32.788  32.900  1.00  0.00    -0.206 F 
ATOM     68  C   UNL A   1      44.043  36.047  31.365  1.00  0.00     0.060 A 
BRANCH  68  69
ATOM     69  S   UNL A   1      44.244  37.776  31.846  1.00  0.00     0.124 S 
ATOM     70  O   UNL A   1      43.749  38.464  30.658  1.00  0.00    -0.237 OA
ATOM     71  O   UNL A   1      43.401  37.878  33.033  1.00  0.00    -0.237 OA
ATOM     72  O   UNL A   1      45.678  37.892  32.089  1.00  0.00    -0.744 OA
ENDBRANCH  68  69
ENDBRANCH  47  61
BRANCH  48  73
ATOM     73  C   UNL A   1      42.672  23.919  27.547  1.00  0.00     0.058 A 
ATOM     74  C   UNL A   1      42.568  22.850  28.447  1.00  0.00     0.135 A 
ATOM     75  C   UNL A   1      42.600  23.635  26.176  1.00  0.00     0.135 A 
ATOM     76  F   UNL A   1      42.636  23.078  29.768  1.00  0.00    -0.206 F 
ATOM     77  C   UNL A   1      42.406  21.541  28.007  1.00  0.00     0.059 A 
ATOM     78  C   UNL A   1      42.422  22.335  25.711  1.00  0.00     0.059 A 
ATOM     79  F   UNL A   1      42.678  24.628  25.277  1.00  0.00    -0.206 F 
ATOM     80  C   UNL A   1      42.335  21.293  26.636  1.00  0.00     0.060 A 
BRANCH  80  81
ATOM     81  S   UNL A   1      42.070  19.598  26.069  1.00  0.00     0.124 S 
ATOM     82  O   UNL A   1      42.538  18.830  27.217  1.00  0.00    -0.237 OA
ATOM     83  O   UNL A   1      40.630  19.573  25.828  1.00  0.00    -0.237 OA
ATOM     84  O   UNL A   1      42.898  19.517  24.870  1.00  0.00    -0.744 OA
ENDBRANCH  80  81
ENDBRANCH  48  73
BRANCH  60  85
ATOM     85  C   UNL A   1      48.169  27.760  29.450  1.00  0.00     0.058 A 
ATOM     86  C   UNL A   1      48.681  27.048  30.544  1.00  0.00     0.135 A 
ATOM     87  C   UNL A   1      49.049  28.106  28.413  1.00  0.00     0.135 A 
ATOM     88  F   UNL A   1      47.876  26.702  31.562  1.00  0.00    -0.206 F 
ATOM     89  C   UNL A   1      50.021  26.684  30.606  1.00  0.00     0.059 A 
ATOM     90  C   UNL A   1      50.390  27.741  28.448  1.00  0.00     0.059 A 
ATOM     91  F   UNL A   1      48.601  28.784  27.344  1.00  0.00    -0.206 F 
ATOM     92  C   UNL A   1      50.868  27.032  29.551  1.00  0.00     0.060 A 
BRANCH  92  93
ATOM     93  S   UNL A   1      52.590  26.492  29.600  1.00  0.00     0.124 S 
ATOM     94  O   UNL A   1      52.693  25.724  28.365  1.00  0.00    -0.237 OA
ATOM     95  O   UNL A   1      53.318  27.758  29.623  1.00  0.00    -0.237 OA
ATOM     96  O   UNL A   1      52.663  25.714  30.834  1.00  0.00    -0.744 OA
ENDBRANCH  92  93
ENDBRANCH  60  85
ENDBRANCH  34  35
ENDBRANCH  26  29
ENDBRANCH  24  25
ENDBRANCH  23  24
ENDBRANCH   1  23
TORSDOF 20
ENDMDL
MODEL 3
REMARK VINA RESULT:     -10.4      1.318      2.187
REMARK SMILES C=CCN(CC(=O)NCCCCNC(=O)c1ccc(-c2c3nc(c(-c4c(F)cc(S(=O)(=O)[O-])cc4F)c4ccc([nH]4)c(-c4c(F)cc(S(=O)(=O)[O-])cc4F)c4nc(c(-c5c(F)cc(S(=O)(=O)[O-])cc5F)c5ccc2[nH]5)C=C4)C=C3)cc1)S(=O)(=O)c1ccccc1OC
REMARK SMILES IDX 10 1 9 2 8 3 6 4 7 5 5 7 4 8 3 9 2 10 1 11 82 12 83 13 84 14
REMARK SMILES IDX 85 15 86 16 90 17 87 18 89 19 88 20 91 21 92 22 11 23 12 24
REMARK SMILES IDX 13 25 14 26 15 28 16 29 17 30 81 31 18 32 80 33 19 34 20 35
REMARK SMILES IDX 21 36 74 37 22 38 79 39 73 40 75 41 23 42 78 43 72 44 71 45
REMARK SMILES IDX 24 47 58 48 37 49 57 50 38 51 41 52 56 53 76 54 39 55 40 56
REMARK SMILES IDX 55 58 77 59 42 60 25 61 26 62 35 63 27 64 28 65 34 66 36 67
REMARK SMILES IDX 29 68 30 69 31 70 32 71 33 72 59 73 60 74 69 75 61 76 62 77
REMARK SMILES IDX 68 78 70 79 63 80 64 81 65 82 66 83 67 84 43 85 44 86 53 87
REMARK SMILES IDX 45 88 46 89 52 90 54 91 47 92 48 93 49 94 50 95 51 96
REMARK H PARENT 8 6 13 27 75 46 41 57
REMARK Flexibility Score: inf
ROOT
ATOM      1  C   UNL A   1      33.604  29.030  24.103  1.00  0.00     0.023 C 
ENDROOT
BRANCH   1   2
ATOM      2  C   UNL A   1      32.703  28.895  22.876  1.00  0.00     0.116 C 
BRANCH   2   3
ATOM      3  N   UNL A   1      33.129  27.810  22.013  1.00  0.00    -0.355 N 
ATOM      4  C   UNL A   1      33.324  26.489  22.300  1.00  0.00     0.235 C 
ATOM      5  O   UNL A   1      33.716  25.746  21.397  1.00  0.00    -0.274 OA
ATOM      6  H   UNL A   1      33.304  28.066  21.078  1.00  0.00     0.163 HD
BRANCH   4   7
ATOM      7  C   UNL A   1      33.005  25.931  23.679  1.00  0.00     0.202 C 
BRANCH   7   8
ATOM      8  N   UNL A   1      31.949  24.876  23.851  1.00  0.00    -0.185 NA
BRANCH   8   9
ATOM      9  C   UNL A   1      30.630  25.382  23.385  1.00  0.00     0.130 C 
BRANCH   9  10
ATOM     10  C   UNL A   1      30.145  26.636  24.030  1.00  0.00    -0.018 C 
ATOM     11  C   UNL A   1      29.297  27.507  23.463  1.00  0.00     0.005 C 
ENDBRANCH   9  10
ENDBRANCH   8   9
BRANCH   8  12
ATOM     12  S   UNL A   1      32.010  23.940  25.294  1.00  0.00     0.247 S 
ATOM     13  O   UNL A   1      33.117  24.466  26.066  1.00  0.00    -0.207 OA
ATOM     14  O   UNL A   1      30.673  23.859  25.845  1.00  0.00    -0.207 OA
BRANCH  12  15
ATOM     15  C   UNL A   1      32.353  22.280  24.771  1.00  0.00     0.124 A 
ATOM     16  C   UNL A   1      32.093  21.901  23.447  1.00  0.00     0.026 A 
ATOM     17  C   UNL A   1      32.757  21.321  25.702  1.00  0.00     0.138 A 
ATOM     18  C   UNL A   1      32.273  20.575  23.049  1.00  0.00     0.002 A 
ATOM     19  C   UNL A   1      32.913  19.989  25.306  1.00  0.00     0.048 A 
ATOM     20  C   UNL A   1      32.683  19.620  23.979  1.00  0.00     0.004 A 
BRANCH  17  21
ATOM     21  O   UNL A   1      32.846  21.609  27.035  1.00  0.00    -0.495 OA
ATOM     22  C   UNL A   1      34.207  21.666  27.466  1.00  0.00     0.278 C 
ENDBRANCH  17  21
ENDBRANCH  12  15
ENDBRANCH   8  12
ENDBRANCH   7   8
ENDBRANCH   4   7
ENDBRANCH   2   3
ENDBRANCH   1   2
BRANCH   1  23
ATOM     23  C   UNL A   1      32.868  29.250  25.422  1.00  0.00     0.023 C 
BRANCH  23  24
ATOM     24  C   UNL A   1      33.758  29.237  26.660  1.00  0.00     0.116 C 
BRANCH  24  25
ATOM     25  N   UNL A   1      33.651  30.444  27.471  1.00  0.00    -0.352 N 
ATOM     26  C   UNL A   1      34.582  30.973  28.337  1.00  0.00     0.251 C 
ATOM     27  H   UNL A   1      32.808  30.944  27.389  1.00  0.00     0.163 HD
ATOM     28  O   UNL A   1      34.317  31.963  29.009  1.00  0.00    -0.269 OA
BRANCH  26  29
ATOM     29  C   UNL A   1      35.886  30.297  28.475  1.00  0.00     0.039 A 
ATOM     30  C   UNL A   1      36.761  30.282  27.385  1.00  0.00     0.014 A 
ATOM     31  C   UNL A   1      36.273  29.766  29.707  1.00  0.00     0.014 A 
ATOM     32  C   UNL A   1      38.066  29.819  27.559  1.00  0.00     0.010 A 
ATOM     33  C   UNL A   1      37.591  29.365  29.894  1.00  0.00     0.010 A 
ATOM     34  C   UNL A   1      38.504  29.406  28.827  1.00  0.00    -0.014 A 
BRANCH  34  35
ATOM     35  C   UNL A   1      39.914  29.028  29.089  1.00  0.00     0.031 A 
ATOM     36  C   UNL A   1      40.876  30.066  29.590  1.00  0.00     0.074 A 
ATOM     37  C   UNL A   1      40.352  27.797  28.756  1.00  0.00     0.049 A 
ATOM     38  N   UNL A   1      42.179  30.017  29.662  1.00  0.00    -0.248 NA
ATOM     39  C   UNL A   1      40.293  31.343  30.030  1.00  0.00     0.031 C 
ATOM     40  C   UNL A   1      39.523  26.714  28.221  1.00  0.00     0.029 A 
ATOM     41  N   UNL A   1      41.614  27.259  28.795  1.00  0.00    -0.354 N 
ATOM     42  C   UNL A   1      42.578  31.273  30.101  1.00  0.00     0.074 A 
ATOM     43  C   UNL A   1      41.378  32.065  30.268  1.00  0.00     0.031 C 
ATOM     44  C   UNL A   1      40.296  25.639  27.994  1.00  0.00     0.029 A 
ATOM     45  C   UNL A   1      41.679  25.970  28.324  1.00  0.00     0.049 A 
ATOM     46  H   UNL A   1      42.399  27.751  29.130  1.00  0.00     0.167 HD
ATOM     47  C   UNL A   1      43.831  31.724  30.344  1.00  0.00     0.037 A 
ATOM     48  C   UNL A   1      42.737  25.152  28.162  1.00  0.00     0.037 A 
ATOM     49  C   UNL A   1      45.014  30.913  30.235  1.00  0.00     0.049 A 
ATOM     50  C   UNL A   1      44.111  25.648  28.515  1.00  0.00     0.074 A 
ATOM     51  C   UNL A   1      46.326  31.261  30.504  1.00  0.00     0.029 A 
ATOM     52  N   UNL A   1      45.024  29.583  29.842  1.00  0.00    -0.354 N 
ATOM     53  N   UNL A   1      44.470  26.837  28.936  1.00  0.00    -0.248 NA
ATOM     54  C   UNL A   1      45.222  24.697  28.370  1.00  0.00     0.031 C 
ATOM     55  C   UNL A   1      47.131  30.139  30.270  1.00  0.00     0.029 A 
ATOM     56  C   UNL A   1      46.316  29.092  29.871  1.00  0.00     0.049 A 
ATOM     57  H   UNL A   1      44.228  29.066  29.579  1.00  0.00     0.167 HD
ATOM     58  C   UNL A   1      45.845  26.771  29.125  1.00  0.00     0.074 A 
ATOM     59  C   UNL A   1      46.254  25.426  28.777  1.00  0.00     0.031 C 
ATOM     60  C   UNL A   1      46.693  27.741  29.546  1.00  0.00     0.037 A 
BRANCH  47  61
ATOM     61  C   UNL A   1      43.976  33.160  30.750  1.00  0.00     0.058 A 
ATOM     62  C   UNL A   1      43.944  33.549  32.097  1.00  0.00     0.135 A 
ATOM     63  C   UNL A   1      44.141  34.160  29.778  1.00  0.00     0.135 A 
ATOM     64  F   UNL A   1      43.768  32.632  33.062  1.00  0.00    -0.206 F 
ATOM     65  C   UNL A   1      44.033  34.887  32.468  1.00  0.00     0.059 A 
ATOM     66  C   UNL A   1      44.254  35.503  30.128  1.00  0.00     0.059 A 
ATOM     67  F   UNL A   1      44.175  33.839  28.476  1.00  0.00    -0.206 F 
ATOM     68  C   UNL A   1      44.177  35.857  31.475  1.00  0.00     0.060 A 
BRANCH  68  69
ATOM     69  S   UNL A   1      44.265  37.594  31.957  1.00  0.00     0.124 S 
ATOM     70  O   UNL A   1      43.378  37.615  33.117  1.00  0.00    -0.237 OA
ATOM     71  O   UNL A   1      45.684  37.776  32.244  1.00  0.00    -0.237 OA
ATOM     72  O   UNL A   1      43.774  38.296  30.776  1.00  0.00    -0.744 OA
ENDBRANCH  68  69
ENDBRANCH  47  61
BRANCH  48  73
ATOM     73  C   UNL A   1      42.533  23.770  27.659  1.00  0.00     0.058 A 
ATOM     74  C   UNL A   1      42.420  23.522  26.284  1.00  0.00     0.135 A 
ATOM     75  C   UNL A   1      42.471  22.674  28.532  1.00  0.00     0.135 A 
ATOM     76  F   UNL A   1      42.470  24.543  25.414  1.00  0.00    -0.206 F 
ATOM     77  C   UNL A   1      42.243  22.236  25.788  1.00  0.00     0.059 A 
ATOM     78  C   UNL A   1      42.310  21.376  28.059  1.00  0.00     0.059 A 
ATOM     79  F   UNL A   1      42.592  22.861  29.855  1.00  0.00    -0.206 F 
ATOM     80  C   UNL A   1      42.188  21.168  26.684  1.00  0.00     0.060 A 
BRANCH  80  81
ATOM     81  S   UNL A   1      42.012  19.492  26.033  1.00  0.00     0.124 S 
ATOM     82  O   UNL A   1      40.580  19.435  25.758  1.00  0.00    -0.237 OA
ATOM     83  O   UNL A   1      42.886  19.519  24.864  1.00  0.00    -0.237 OA
ATOM     84  O   UNL A   1      42.480  18.658  27.135  1.00  0.00    -0.744 OA
ENDBRANCH  80  81
ENDBRANCH  48  73
BRANCH  60  85
ATOM     85  C   UNL A   1      48.139  27.376  29.696  1.00  0.00     0.058 A 
ATOM     86  C   UNL A   1      49.078  27.691  28.704  1.00  0.00     0.135 A 
ATOM     87  C   UNL A   1      48.601  26.789  30.884  1.00  0.00     0.135 A 
ATOM     88  F   UNL A   1      48.679  28.247  27.549  1.00  0.00    -0.206 F 
ATOM     89  C   UNL A   1      50.433  27.437  28.885  1.00  0.00     0.059 A 
ATOM     90  C   UNL A   1      49.954  26.539  31.092  1.00  0.00     0.059 A 
ATOM     91  F   UNL A   1      47.738  26.476  31.864  1.00  0.00    -0.206 F 
ATOM     92  C   UNL A   1      50.862  26.865  30.085  1.00  0.00     0.060 A 
BRANCH  92  93
ATOM     93  S   UNL A   1      52.630  26.608  30.345  1.00  0.00     0.124 S 
ATOM     94  O   UNL A   1      52.628  25.640  31.437  1.00  0.00    -0.237 OA
ATOM     95  O   UNL A   1      53.071  26.101  29.049  1.00  0.00    -0.237 OA
ATOM     96  O   UNL A   1      53.117  27.941  30.686  1.00  0.00    -0.744 OA
ENDBRANCH  92  93
ENDBRANCH  60  85
ENDBRANCH  34  35
ENDBRANCH  26  29
ENDBRANCH  24  25
ENDBRANCH  23  24
ENDBRANCH   1  23
TORSDOF 20
ENDMDL
