MODEL 1
REMARK VINA RESULT:     -11.6      0.000      0.000
REMARK SMILES Cc1cc(NS(=O)(=O)CC(=O)NCCCCNC(=O)c2ccc(-c3c4nc(c(-c5c(F)cc(S(=O)(=O)[O-])cc5F)c5ccc([nH]5)c(-c5c(F)cc(S(=O)(=O)[O-])cc5F)c5nc(c(-c6c(F)cc(S(=O)(=O)[O-])cc6F)c6ccc3[nH]6)C=C5)C=C4)cc2)ccn1
REMARK SMILES IDX 14 1 13 2 12 3 10 4 11 5 9 7 6 8 7 9 8 10 5 11 4 13 1 14
REMARK SMILES IDX 2 15 3 16 88 17 87 18 86 19 15 20 16 21 17 22 18 23 19 25
REMARK SMILES IDX 20 26 21 27 85 28 22 29 84 30 23 31 24 32 25 33 78 34 26 35
REMARK SMILES IDX 83 36 77 37 79 38 27 39 82 40 76 41 75 42 28 44 62 45 41 46
REMARK SMILES IDX 61 47 42 48 45 49 60 50 80 51 43 52 44 53 59 55 81 56 46 57
REMARK SMILES IDX 29 58 30 59 39 60 31 61 32 62 38 63 40 64 33 65 34 66 35 67
REMARK SMILES IDX 36 68 37 69 63 70 64 71 73 72 65 73 66 74 72 75 74 76 67 77
REMARK SMILES IDX 68 78 69 79 70 80 71 81 47 82 48 83 57 84 49 85 50 86 56 87
REMARK SMILES IDX 58 88 51 89 52 90 53 91 54 92 55 93
REMARK H PARENT 12 6 5 12 17 24 79 43 45 54
REMARK Flexibility Score: inf
ROOT
ATOM      1  C   UNL A   1      38.007  22.808  25.919  1.00  0.00     0.023 C 
ENDROOT
BRANCH   1   2
ATOM      2  C   UNL A   1      37.023  21.712  25.527  1.00  0.00     0.116 C 
BRANCH   2   3
ATOM      3  N   UNL A   1      36.002  21.530  26.535  1.00  0.00    -0.355 N 
ATOM      4  C   UNL A   1      34.654  21.635  26.418  1.00  0.00     0.237 C 
ATOM      5  O   UNL A   1      33.976  21.360  27.411  1.00  0.00    -0.274 OA
ATOM      6  H   UNL A   1      36.331  21.298  27.434  1.00  0.00     0.163 HD
BRANCH   4   7
ATOM      7  C   UNL A   1      34.009  21.945  25.107  1.00  0.00     0.259 C 
BRANCH   7   8
ATOM      8  S   UNL A   1      32.451  21.128  24.838  1.00  0.00     0.241 S 
ATOM      9  O   UNL A   1      32.305  20.872  23.418  1.00  0.00    -0.206 OA
ATOM     10  O   UNL A   1      31.438  21.903  25.527  1.00  0.00    -0.206 OA
BRANCH   8  11
ATOM     11  N   UNL A   1      32.469  19.669  25.638  1.00  0.00    -0.283 N 
ATOM     12  H   UNL A   1      32.072  19.629  26.538  1.00  0.00     0.180 HD
BRANCH  11  13
ATOM     13  C   UNL A   1      33.029  18.468  25.093  1.00  0.00     0.052 A 
ATOM     14  C   UNL A   1      32.518  14.735  25.496  1.00  0.00     0.067 C 
ATOM     15  C   UNL A   1      33.099  16.067  25.134  1.00  0.00     0.039 A 
ATOM     16  C   UNL A   1      32.447  17.254  25.459  1.00  0.00     0.050 A 
ATOM     17  N   UNL A   1      34.308  16.043  24.531  1.00  0.00    -0.261 NA
ATOM     18  C   UNL A   1      34.858  17.227  24.204  1.00  0.00     0.113 A 
ATOM     19  C   UNL A   1      34.247  18.447  24.429  1.00  0.00     0.047 A 
ENDBRANCH  11  13
ENDBRANCH   8  11
ENDBRANCH   7   8
ENDBRANCH   4   7
ENDBRANCH   2   3
ENDBRANCH   1   2
BRANCH   1  20
ATOM     20  C   UNL A   1      39.323  22.302  26.515  1.00  0.00     0.023 C 
BRANCH  20  21
ATOM     21  C   UNL A   1      40.223  23.377  27.112  1.00  0.00     0.116 C 
BRANCH  21  22
ATOM     22  N   UNL A   1      41.014  24.074  26.110  1.00  0.00    -0.352 N 
ATOM     23  C   UNL A   1      41.458  25.372  26.103  1.00  0.00     0.251 C 
ATOM     24  H   UNL A   1      41.266  23.536  25.323  1.00  0.00     0.163 HD
ATOM     25  O   UNL A   1      42.000  25.823  25.100  1.00  0.00    -0.269 OA
BRANCH  23  26
ATOM     26  C   UNL A   1      41.256  26.225  27.293  1.00  0.00     0.039 A 
ATOM     27  C   UNL A   1      42.142  27.278  27.521  1.00  0.00     0.014 A 
ATOM     28  C   UNL A   1      40.200  25.989  28.179  1.00  0.00     0.014 A 
ATOM     29  C   UNL A   1      41.947  28.118  28.617  1.00  0.00     0.010 A 
ATOM     30  C   UNL A   1      39.954  26.883  29.216  1.00  0.00     0.010 A 
ATOM     31  C   UNL A   1      40.837  27.942  29.463  1.00  0.00    -0.014 A 
BRANCH  31  32
ATOM     32  C   UNL A   1      40.620  28.837  30.628  1.00  0.00     0.031 A 
ATOM     33  C   UNL A   1      41.467  28.685  31.864  1.00  0.00     0.074 A 
ATOM     34  C   UNL A   1      39.647  29.769  30.581  1.00  0.00     0.049 A 
ATOM     35  N   UNL A   1      41.437  29.376  32.975  1.00  0.00    -0.248 NA
ATOM     36  C   UNL A   1      42.460  27.598  31.865  1.00  0.00     0.031 C 
ATOM     37  C   UNL A   1      38.722  29.971  29.464  1.00  0.00     0.029 A 
ATOM     38  N   UNL A   1      39.277  30.724  31.494  1.00  0.00    -0.354 N 
ATOM     39  C   UNL A   1      42.394  28.803  33.805  1.00  0.00     0.074 A 
ATOM     40  C   UNL A   1      42.938  27.665  33.098  1.00  0.00     0.031 C 
ATOM     41  C   UNL A   1      37.918  31.010  29.740  1.00  0.00     0.029 A 
ATOM     42  C   UNL A   1      38.245  31.526  31.066  1.00  0.00     0.049 A 
ATOM     43  H   UNL A   1      39.709  30.825  32.373  1.00  0.00     0.167 HD
ATOM     44  C   UNL A   1      42.808  29.207  35.030  1.00  0.00     0.037 A 
ATOM     45  C   UNL A   1      37.636  32.564  31.671  1.00  0.00     0.037 A 
ATOM     46  C   UNL A   1      42.278  30.356  35.716  1.00  0.00     0.049 A 
ATOM     47  C   UNL A   1      38.120  33.002  33.028  1.00  0.00     0.074 A 
ATOM     48  C   UNL A   1      42.664  30.885  36.934  1.00  0.00     0.029 A 
ATOM     49  N   UNL A   1      41.244  31.153  35.244  1.00  0.00    -0.354 N 
ATOM     50  N   UNL A   1      39.079  32.493  33.766  1.00  0.00    -0.248 NA
ATOM     51  C   UNL A   1      37.453  34.165  33.625  1.00  0.00     0.031 C 
ATOM     52  C   UNL A   1      41.830  31.970  37.224  1.00  0.00     0.029 A 
ATOM     53  C   UNL A   1      40.965  32.157  36.156  1.00  0.00     0.049 A 
ATOM     54  H   UNL A   1      40.779  31.024  34.386  1.00  0.00     0.167 HD
ATOM     55  C   UNL A   1      39.149  33.292  34.902  1.00  0.00     0.074 A 
ATOM     56  C   UNL A   1      38.149  34.329  34.742  1.00  0.00     0.031 C 
ATOM     57  C   UNL A   1      39.965  33.181  35.981  1.00  0.00     0.037 A 
BRANCH  44  58
ATOM     58  C   UNL A   1      43.891  28.403  35.701  1.00  0.00     0.058 A 
ATOM     59  C   UNL A   1      45.253  28.667  35.481  1.00  0.00     0.135 A 
ATOM     60  C   UNL A   1      43.564  27.374  36.600  1.00  0.00     0.135 A 
ATOM     61  F   UNL A   1      45.627  29.627  34.619  1.00  0.00    -0.206 F 
ATOM     62  C   UNL A   1      46.251  27.920  36.099  1.00  0.00     0.059 A 
ATOM     63  C   UNL A   1      44.545  26.636  37.255  1.00  0.00     0.059 A 
ATOM     64  F   UNL A   1      42.279  27.075  36.848  1.00  0.00    -0.206 F 
ATOM     65  C   UNL A   1      45.886  26.906  36.987  1.00  0.00     0.060 A 
BRANCH  65  66
ATOM     66  S   UNL A   1      47.193  25.953  37.787  1.00  0.00     0.124 S 
ATOM     67  O   UNL A   1      46.891  26.171  39.198  1.00  0.00    -0.237 OA
ATOM     68  O   UNL A   1      46.945  24.604  37.288  1.00  0.00    -0.237 OA
ATOM     69  O   UNL A   1      48.418  26.581  37.304  1.00  0.00    -0.744 OA
ENDBRANCH  65  66
ENDBRANCH  44  58
BRANCH  45  70
ATOM     70  C   UNL A   1      36.526  33.280  30.987  1.00  0.00     0.058 A 
ATOM     71  C   UNL A   1      36.773  34.136  29.903  1.00  0.00     0.135 A 
ATOM     72  C   UNL A   1      35.193  33.119  31.398  1.00  0.00     0.135 A 
ATOM     73  F   UNL A   1      38.030  34.327  29.473  1.00  0.00    -0.206 F 
ATOM     74  C   UNL A   1      35.745  34.824  29.266  1.00  0.00     0.059 A 
ATOM     75  C   UNL A   1      34.144  33.773  30.758  1.00  0.00     0.059 A 
ATOM     76  F   UNL A   1      34.898  32.298  32.418  1.00  0.00    -0.206 F 
ATOM     77  C   UNL A   1      34.432  34.633  29.699  1.00  0.00     0.060 A 
BRANCH  77  78
ATOM     78  S   UNL A   1      33.101  35.496  28.837  1.00  0.00     0.124 S 
ATOM     79  O   UNL A   1      32.461  34.403  28.114  1.00  0.00    -0.237 OA
ATOM     80  O   UNL A   1      32.338  36.064  29.945  1.00  0.00    -0.237 OA
ATOM     81  O   UNL A   1      33.812  36.469  28.012  1.00  0.00    -0.744 OA
ENDBRANCH  77  78
ENDBRANCH  45  70
BRANCH  57  82
ATOM     82  C   UNL A   1      39.836  34.231  37.053  1.00  0.00     0.058 A 
ATOM     83  C   UNL A   1      38.957  34.081  38.137  1.00  0.00     0.135 A 
ATOM     84  C   UNL A   1      40.618  35.396  37.001  1.00  0.00     0.135 A 
ATOM     85  F   UNL A   1      38.185  32.988  38.236  1.00  0.00    -0.206 F 
ATOM     86  C   UNL A   1      38.824  35.071  39.106  1.00  0.00     0.059 A 
ATOM     87  C   UNL A   1      40.527  36.382  37.977  1.00  0.00     0.059 A 
ATOM     88  F   UNL A   1      41.488  35.584  35.995  1.00  0.00    -0.206 F 
ATOM     89  C   UNL A   1      39.611  36.220  39.014  1.00  0.00     0.060 A 
BRANCH  89  90
ATOM     90  S   UNL A   1      39.423  37.499  40.274  1.00  0.00     0.124 S 
ATOM     91  O   UNL A   1      38.297  38.264  39.750  1.00  0.00    -0.237 OA
ATOM     92  O   UNL A   1      39.156  36.717  41.476  1.00  0.00    -0.237 OA
ATOM     93  O   UNL A   1      40.712  38.187  40.255  1.00  0.00    -0.744 OA
ENDBRANCH  89  90
ENDBRANCH  57  82
ENDBRANCH  31  32
ENDBRANCH  23  26
ENDBRANCH  21  22
ENDBRANCH  20  21
ENDBRANCH   1  20
TORSDOF 17
ENDMDL
MODEL 2
REMARK VINA RESULT:     -11.5      6.904     13.915
REMARK SMILES Cc1cc(NS(=O)(=O)CC(=O)NCCCCNC(=O)c2ccc(-c3c4nc(c(-c5c(F)cc(S(=O)(=O)[O-])cc5F)c5ccc([nH]5)c(-c5c(F)cc(S(=O)(=O)[O-])cc5F)c5nc(c(-c6c(F)cc(S(=O)(=O)[O-])cc6F)c6ccc3[nH]6)C=C5)C=C4)cc2)ccn1
REMARK SMILES IDX 14 1 13 2 12 3 10 4 11 5 9 7 6 8 7 9 8 10 5 11 4 13 1 14
REMARK SMILES IDX 2 15 3 16 88 17 87 18 86 19 15 20 16 21 17 22 18 23 19 25
REMARK SMILES IDX 20 26 21 27 85 28 22 29 84 30 23 31 24 32 25 33 78 34 26 35
REMARK SMILES IDX 83 36 77 37 79 38 27 39 82 40 76 41 75 42 28 44 62 45 41 46
REMARK SMILES IDX 61 47 42 48 45 49 60 50 80 51 43 52 44 53 59 55 81 56 46 57
REMARK SMILES IDX 29 58 30 59 39 60 31 61 32 62 38 63 40 64 33 65 34 66 35 67
REMARK SMILES IDX 36 68 37 69 63 70 64 71 73 72 65 73 66 74 72 75 74 76 67 77
REMARK SMILES IDX 68 78 69 79 70 80 71 81 47 82 48 83 57 84 49 85 50 86 56 87
REMARK SMILES IDX 58 88 51 89 52 90 53 91 54 92 55 93
REMARK H PARENT 12 6 5 12 17 24 79 43 45 54
REMARK Flexibility Score: inf
ROOT
ATOM      1  C   UNL A   1      35.676  34.205  33.338  1.00  0.00     0.023 C 
ENDROOT
BRANCH   1   2
ATOM      2  C   UNL A   1      35.343  35.531  32.665  1.00  0.00     0.116 C 
BRANCH   2   3
ATOM      3  N   UNL A   1      34.074  36.053  33.120  1.00  0.00    -0.355 N 
ATOM      4  C   UNL A   1      33.177  36.827  32.457  1.00  0.00     0.237 C 
ATOM      5  O   UNL A   1      32.120  37.090  33.034  1.00  0.00    -0.274 OA
ATOM      6  H   UNL A   1      33.824  35.814  34.042  1.00  0.00     0.163 HD
BRANCH   4   7
ATOM      7  C   UNL A   1      33.404  37.239  31.040  1.00  0.00     0.259 C 
BRANCH   7   8
ATOM      8  S   UNL A   1      33.087  35.964  29.839  1.00  0.00     0.241 S 
ATOM      9  O   UNL A   1      32.189  36.493  28.832  1.00  0.00    -0.206 OA
ATOM     10  O   UNL A   1      32.708  34.773  30.573  1.00  0.00    -0.206 OA
BRANCH   8  11
ATOM     11  N   UNL A   1      34.524  35.557  29.103  1.00  0.00    -0.283 N 
ATOM     12  H   UNL A   1      35.235  36.236  29.068  1.00  0.00     0.180 HD
BRANCH  11  13
ATOM     13  C   UNL A   1      34.784  34.275  28.519  1.00  0.00     0.052 A 
ATOM     14  C   UNL A   1      32.755  31.316  27.299  1.00  0.00     0.067 C 
ATOM     15  C   UNL A   1      33.891  32.180  27.752  1.00  0.00     0.039 A 
ATOM     16  C   UNL A   1      33.691  33.511  28.110  1.00  0.00     0.050 A 
ATOM     17  N   UNL A   1      35.097  31.577  27.844  1.00  0.00    -0.261 NA
ATOM     18  C   UNL A   1      36.133  32.329  28.258  1.00  0.00     0.113 A 
ATOM     19  C   UNL A   1      36.033  33.673  28.566  1.00  0.00     0.047 A 
ENDBRANCH  11  13
ENDBRANCH   8  11
ENDBRANCH   7   8
ENDBRANCH   4   7
ENDBRANCH   2   3
ENDBRANCH   1   2
BRANCH   1  20
ATOM     20  C   UNL A   1      37.173  33.913  33.470  1.00  0.00     0.023 C 
BRANCH  20  21
ATOM     21  C   UNL A   1      37.706  32.819  32.554  1.00  0.00     0.116 C 
BRANCH  21  22
ATOM     22  N   UNL A   1      36.762  31.729  32.364  1.00  0.00    -0.352 N 
ATOM     23  C   UNL A   1      36.904  30.575  31.636  1.00  0.00     0.251 C 
ATOM     24  H   UNL A   1      35.896  31.836  32.823  1.00  0.00     0.163 HD
ATOM     25  O   UNL A   1      35.939  29.832  31.481  1.00  0.00    -0.269 OA
BRANCH  23  26
ATOM     26  C   UNL A   1      38.206  30.248  31.021  1.00  0.00     0.039 A 
ATOM     27  C   UNL A   1      39.204  29.687  31.820  1.00  0.00     0.014 A 
ATOM     28  C   UNL A   1      38.446  30.493  29.665  1.00  0.00     0.014 A 
ATOM     29  C   UNL A   1      40.427  29.336  31.250  1.00  0.00     0.010 A 
ATOM     30  C   UNL A   1      39.631  30.057  29.081  1.00  0.00     0.010 A 
ATOM     31  C   UNL A   1      40.645  29.498  29.870  1.00  0.00    -0.014 A 
BRANCH  31  32
ATOM     32  C   UNL A   1      41.943  29.119  29.256  1.00  0.00     0.031 A 
ATOM     33  C   UNL A   1      43.050  30.135  29.147  1.00  0.00     0.074 A 
ATOM     34  C   UNL A   1      42.117  27.872  28.777  1.00  0.00     0.049 A 
ATOM     35  N   UNL A   1      44.254  29.994  28.656  1.00  0.00    -0.248 NA
ATOM     36  C   UNL A   1      42.759  31.496  29.628  1.00  0.00     0.031 C 
ATOM     37  C   UNL A   1      41.099  26.819  28.769  1.00  0.00     0.029 A 
ATOM     38  N   UNL A   1      43.213  27.275  28.208  1.00  0.00    -0.354 N 
ATOM     39  C   UNL A   1      44.856  31.243  28.760  1.00  0.00     0.074 A 
ATOM     40  C   UNL A   1      43.863  32.147  29.294  1.00  0.00     0.031 C 
ATOM     41  C   UNL A   1      41.630  25.696  28.259  1.00  0.00     0.029 A 
ATOM     42  C   UNL A   1      43.013  25.957  27.872  1.00  0.00     0.049 A 
ATOM     43  H   UNL A   1      44.064  27.747  28.054  1.00  0.00     0.167 HD
ATOM     44  C   UNL A   1      46.130  31.599  28.469  1.00  0.00     0.037 A 
ATOM     45  C   UNL A   1      43.851  25.058  27.320  1.00  0.00     0.037 A 
ATOM     46  C   UNL A   1      47.120  30.687  27.959  1.00  0.00     0.049 A 
ATOM     47  C   UNL A   1      45.266  25.474  27.015  1.00  0.00     0.074 A 
ATOM     48  C   UNL A   1      48.454  30.930  27.683  1.00  0.00     0.029 A 
ATOM     49  N   UNL A   1      46.884  29.356  27.646  1.00  0.00    -0.354 N 
ATOM     50  N   UNL A   1      45.839  26.641  27.190  1.00  0.00    -0.248 NA
ATOM     51  C   UNL A   1      46.151  24.446  26.455  1.00  0.00     0.031 C 
ATOM     52  C   UNL A   1      49.011  29.761  27.154  1.00  0.00     0.029 A 
ATOM     53  C   UNL A   1      48.042  28.770  27.160  1.00  0.00     0.049 A 
ATOM     54  H   UNL A   1      46.021  28.895  27.755  1.00  0.00     0.167 HD
ATOM     55  C   UNL A   1      47.161  26.480  26.789  1.00  0.00     0.074 A 
ATOM     56  C   UNL A   1      47.304  25.096  26.382  1.00  0.00     0.031 C 
ATOM     57  C   UNL A   1      48.166  27.391  26.759  1.00  0.00     0.037 A 
BRANCH  44  58
ATOM     58  C   UNL A   1      46.525  33.034  28.702  1.00  0.00     0.058 A 
ATOM     59  C   UNL A   1      46.945  33.492  29.962  1.00  0.00     0.135 A 
ATOM     60  C   UNL A   1      46.512  33.959  27.645  1.00  0.00     0.135 A 
ATOM     61  F   UNL A   1      46.961  32.657  31.014  1.00  0.00    -0.206 F 
ATOM     62  C   UNL A   1      47.304  34.819  30.175  1.00  0.00     0.059 A 
ATOM     63  C   UNL A   1      46.900  35.284  27.827  1.00  0.00     0.059 A 
ATOM     64  F   UNL A   1      46.118  33.580  26.418  1.00  0.00    -0.206 F 
ATOM     65  C   UNL A   1      47.280  35.708  29.099  1.00  0.00     0.060 A 
BRANCH  65  66
ATOM     66  S   UNL A   1      47.758  37.424  29.390  1.00  0.00     0.124 S 
ATOM     67  O   UNL A   1      46.456  38.080  29.466  1.00  0.00    -0.237 OA
ATOM     68  O   UNL A   1      48.494  37.332  30.647  1.00  0.00    -0.237 OA
ATOM     69  O   UNL A   1      48.560  37.758  28.219  1.00  0.00    -0.744 OA
ENDBRANCH  65  66
ENDBRANCH  44  58
BRANCH  45  70
ATOM     70  C   UNL A   1      43.386  23.671  27.051  1.00  0.00     0.058 A 
ATOM     71  C   UNL A   1      43.070  23.250  25.750  1.00  0.00     0.135 A 
ATOM     72  C   UNL A   1      43.253  22.734  28.088  1.00  0.00     0.135 A 
ATOM     73  F   UNL A   1      43.176  24.108  24.723  1.00  0.00    -0.206 F 
ATOM     74  C   UNL A   1      42.618  21.960  25.489  1.00  0.00     0.059 A 
ATOM     75  C   UNL A   1      42.832  21.429  27.849  1.00  0.00     0.059 A 
ATOM     76  F   UNL A   1      43.560  23.078  29.349  1.00  0.00    -0.206 F 
ATOM     77  C   UNL A   1      42.505  21.055  26.546  1.00  0.00     0.060 A 
BRANCH  77  78
ATOM     78  S   UNL A   1      41.960  19.371  26.190  1.00  0.00     0.124 S 
ATOM     79  O   UNL A   1      42.314  18.680  27.424  1.00  0.00    -0.237 OA
ATOM     80  O   UNL A   1      40.533  19.557  25.947  1.00  0.00    -0.237 OA
ATOM     81  O   UNL A   1      42.746  19.006  25.014  1.00  0.00    -0.744 OA
ENDBRANCH  77  78
ENDBRANCH  45  70
BRANCH  57  82
ATOM     82  C   UNL A   1      49.519  26.908  26.307  1.00  0.00     0.058 A 
ATOM     83  C   UNL A   1      49.918  26.965  24.962  1.00  0.00     0.135 A 
ATOM     84  C   UNL A   1      50.436  26.397  27.240  1.00  0.00     0.135 A 
ATOM     85  F   UNL A   1      49.080  27.444  24.028  1.00  0.00    -0.206 F 
ATOM     86  C   UNL A   1      51.159  26.488  24.552  1.00  0.00     0.059 A 
ATOM     87  C   UNL A   1      51.695  25.947  26.857  1.00  0.00     0.059 A 
ATOM     88  F   UNL A   1      50.114  26.333  28.542  1.00  0.00    -0.206 F 
ATOM     89  C   UNL A   1      52.039  25.977  25.507  1.00  0.00     0.060 A 
BRANCH  89  90
ATOM     90  S   UNL A   1      53.643  25.357  24.959  1.00  0.00     0.124 S 
ATOM     91  O   UNL A   1      53.701  25.861  23.592  1.00  0.00    -0.237 OA
ATOM     92  O   UNL A   1      54.560  25.983  25.906  1.00  0.00    -0.237 OA
ATOM     93  O   UNL A   1      53.510  23.908  25.090  1.00  0.00    -0.744 OA
ENDBRANCH  89  90
ENDBRANCH  57  82
ENDBRANCH  31  32
ENDBRANCH  23  26
ENDBRANCH  21  22
ENDBRANCH  20  21
ENDBRANCH   1  20
TORSDOF 17
ENDMDL
MODEL 3
REMARK VINA RESULT:     -11.4      6.263      8.542
REMARK SMILES Cc1cc(NS(=O)(=O)CC(=O)NCCCCNC(=O)c2ccc(-c3c4nc(c(-c5c(F)cc(S(=O)(=O)[O-])cc5F)c5ccc([nH]5)c(-c5c(F)cc(S(=O)(=O)[O-])cc5F)c5nc(c(-c6c(F)cc(S(=O)(=O)[O-])cc6F)c6ccc3[nH]6)C=C5)C=C4)cc2)ccn1
REMARK SMILES IDX 14 1 13 2 12 3 10 4 11 5 9 7 6 8 7 9 8 10 5 11 4 13 1 14
REMARK SMILES IDX 2 15 3 16 88 17 87 18 86 19 15 20 16 21 17 22 18 23 19 25
REMARK SMILES IDX 20 26 21 27 85 28 22 29 84 30 23 31 24 32 25 33 78 34 26 35
REMARK SMILES IDX 83 36 77 37 79 38 27 39 82 40 76 41 75 42 28 44 62 45 41 46
REMARK SMILES IDX 61 47 42 48 45 49 60 50 80 51 43 52 44 53 59 55 81 56 46 57
REMARK SMILES IDX 29 58 30 59 39 60 31 61 32 62 38 63 40 64 33 65 34 66 35 67
REMARK SMILES IDX 36 68 37 69 63 70 64 71 73 72 65 73 66 74 72 75 74 76 67 77
REMARK SMILES IDX 68 78 69 79 70 80 71 81 47 82 48 83 57 84 49 85 50 86 56 87
REMARK SMILES IDX 58 88 51 89 52 90 53 91 54 92 55 93
REMARK H PARENT 12 6 5 12 17 24 79 43 45 54
REMARK Flexibility Score: inf
ROOT
ATOM      1  C   UNL A   1      37.743  21.364  24.668  1.00  0.00     0.023 C 
ENDROOT
BRANCH   1   2
ATOM      2  C   UNL A   1      36.219  21.384  24.708  1.00  0.00     0.116 C 
BRANCH   2   3
ATOM      3  N   UNL A   1      35.725  21.390  26.067  1.00  0.00    -0.355 N 
ATOM      4  C   UNL A   1      34.516  21.792  26.537  1.00  0.00     0.237 C 
ATOM      5  O   UNL A   1      34.296  21.634  27.741  1.00  0.00    -0.274 OA
ATOM      6  H   UNL A   1      36.353  21.056  26.748  1.00  0.00     0.163 HD
BRANCH   4   7
ATOM      7  C   UNL A   1      33.450  22.289  25.618  1.00  0.00     0.259 C 
BRANCH   7   8
ATOM      8  S   UNL A   1      32.256  21.059  25.138  1.00  0.00     0.241 S 
ATOM      9  O   UNL A   1      32.312  20.900  23.697  1.00  0.00    -0.206 OA
ATOM     10  O   UNL A   1      30.999  21.419  25.763  1.00  0.00    -0.206 OA
BRANCH   8  11
ATOM     11  N   UNL A   1      32.670  19.610  25.845  1.00  0.00    -0.283 N 
ATOM     12  H   UNL A   1      32.728  19.574  26.828  1.00  0.00     0.180 HD
BRANCH  11  13
ATOM     13  C   UNL A   1      32.946  18.414  25.108  1.00  0.00     0.052 A 
ATOM     14  C   UNL A   1      32.612  14.678  25.653  1.00  0.00     0.067 C 
ATOM     15  C   UNL A   1      33.005  16.012  25.095  1.00  0.00     0.039 A 
ATOM     16  C   UNL A   1      32.554  17.198  25.670  1.00  0.00     0.050 A 
ATOM     17  N   UNL A   1      33.859  15.989  24.049  1.00  0.00    -0.261 NA
ATOM     18  C   UNL A   1      34.237  17.175  23.536  1.00  0.00     0.113 A 
ATOM     19  C   UNL A   1      33.783  18.394  24.002  1.00  0.00     0.047 A 
ENDBRANCH  11  13
ENDBRANCH   8  11
ENDBRANCH   7   8
ENDBRANCH   4   7
ENDBRANCH   2   3
ENDBRANCH   1   2
BRANCH   1  20
ATOM     20  C   UNL A   1      38.378  20.051  25.134  1.00  0.00     0.023 C 
BRANCH  20  21
ATOM     21  C   UNL A   1      39.432  20.189  26.226  1.00  0.00     0.116 C 
BRANCH  21  22
ATOM     22  N   UNL A   1      40.568  19.303  26.031  1.00  0.00    -0.352 N 
ATOM     23  C   UNL A   1      41.905  19.604  25.990  1.00  0.00     0.251 C 
ATOM     24  H   UNL A   1      40.344  18.351  25.909  1.00  0.00     0.163 HD
ATOM     25  O   UNL A   1      42.714  18.735  25.676  1.00  0.00    -0.269 OA
BRANCH  23  26
ATOM     26  C   UNL A   1      42.362  20.975  26.297  1.00  0.00     0.039 A 
ATOM     27  C   UNL A   1      42.660  21.302  27.620  1.00  0.00     0.014 A 
ATOM     28  C   UNL A   1      42.495  21.934  25.288  1.00  0.00     0.014 A 
ATOM     29  C   UNL A   1      43.128  22.581  27.925  1.00  0.00     0.010 A 
ATOM     30  C   UNL A   1      43.049  23.176  25.581  1.00  0.00     0.010 A 
ATOM     31  C   UNL A   1      43.348  23.523  26.905  1.00  0.00    -0.014 A 
BRANCH  31  32
ATOM     32  C   UNL A   1      43.853  24.882  27.223  1.00  0.00     0.031 A 
ATOM     33  C   UNL A   1      45.309  25.214  27.019  1.00  0.00     0.074 A 
ATOM     34  C   UNL A   1      43.009  25.810  27.717  1.00  0.00     0.049 A 
ATOM     35  N   UNL A   1      45.935  26.343  27.227  1.00  0.00    -0.248 NA
ATOM     36  C   UNL A   1      46.182  24.126  26.545  1.00  0.00     0.031 C 
ATOM     37  C   UNL A   1      41.592  25.590  28.016  1.00  0.00     0.029 A 
ATOM     38  N   UNL A   1      43.217  27.124  28.050  1.00  0.00    -0.354 N 
ATOM     39  C   UNL A   1      47.269  26.100  26.919  1.00  0.00     0.074 A 
ATOM     40  C   UNL A   1      47.375  24.699  26.579  1.00  0.00     0.031 C 
ATOM     41  C   UNL A   1      41.050  26.739  28.451  1.00  0.00     0.029 A 
ATOM     42  C   UNL A   1      42.085  27.767  28.494  1.00  0.00     0.049 A 
ATOM     43  H   UNL A   1      44.094  27.566  27.977  1.00  0.00     0.167 HD
ATOM     44  C   UNL A   1      48.306  26.971  26.888  1.00  0.00     0.037 A 
ATOM     45  C   UNL A   1      41.902  29.043  28.887  1.00  0.00     0.037 A 
ATOM     46  C   UNL A   1      48.187  28.370  27.205  1.00  0.00     0.049 A 
ATOM     47  C   UNL A   1      43.067  29.995  28.834  1.00  0.00     0.074 A 
ATOM     48  C   UNL A   1      49.161  29.351  27.153  1.00  0.00     0.029 A 
ATOM     49  N   UNL A   1      47.021  28.988  27.636  1.00  0.00    -0.354 N 
ATOM     50  N   UNL A   1      44.306  29.765  28.468  1.00  0.00    -0.248 NA
ATOM     51  C   UNL A   1      42.805  31.384  29.230  1.00  0.00     0.031 C 
ATOM     52  C   UNL A   1      48.599  30.550  27.602  1.00  0.00     0.029 A 
ATOM     53  C   UNL A   1      47.257  30.332  27.873  1.00  0.00     0.049 A 
ATOM     54  H   UNL A   1      46.154  28.536  27.754  1.00  0.00     0.167 HD
ATOM     55  C   UNL A   1      44.965  30.986  28.562  1.00  0.00     0.074 A 
ATOM     56  C   UNL A   1      43.979  31.955  28.999  1.00  0.00     0.031 C 
ATOM     57  C   UNL A   1      46.265  31.282  28.310  1.00  0.00     0.037 A 
BRANCH  44  58
ATOM     58  C   UNL A   1      49.657  26.434  26.493  1.00  0.00     0.058 A 
ATOM     59  C   UNL A   1      50.101  26.454  25.160  1.00  0.00     0.135 A 
ATOM     60  C   UNL A   1      50.534  25.920  27.463  1.00  0.00     0.135 A 
ATOM     61  F   UNL A   1      49.300  26.918  24.187  1.00  0.00    -0.206 F 
ATOM     62  C   UNL A   1      51.347  25.953  24.798  1.00  0.00     0.059 A 
ATOM     63  C   UNL A   1      51.798  25.445  27.128  1.00  0.00     0.059 A 
ATOM     64  F   UNL A   1      50.163  25.873  28.753  1.00  0.00    -0.206 F 
ATOM     65  C   UNL A   1      52.190  25.451  25.790  1.00  0.00     0.060 A 
BRANCH  65  66
ATOM     66  S   UNL A   1      53.807  24.815  25.304  1.00  0.00     0.124 S 
ATOM     67  O   UNL A   1      54.076  25.593  24.098  1.00  0.00    -0.237 OA
ATOM     68  O   UNL A   1      54.631  25.140  26.464  1.00  0.00    -0.237 OA
ATOM     69  O   UNL A   1      53.563  23.392  25.090  1.00  0.00    -0.744 OA
ENDBRANCH  65  66
ENDBRANCH  44  58
BRANCH  45  70
ATOM     70  C   UNL A   1      40.558  29.501  29.331  1.00  0.00     0.058 A 
ATOM     71  C   UNL A   1      39.519  29.703  28.410  1.00  0.00     0.135 A 
ATOM     72  C   UNL A   1      40.282  29.740  30.687  1.00  0.00     0.135 A 
ATOM     73  F   UNL A   1      39.732  29.492  27.101  1.00  0.00    -0.206 F 
ATOM     74  C   UNL A   1      38.263  30.147  28.811  1.00  0.00     0.059 A 
ATOM     75  C   UNL A   1      39.025  30.156  31.116  1.00  0.00     0.059 A 
ATOM     76  F   UNL A   1      41.235  29.545  31.612  1.00  0.00    -0.206 F 
ATOM     77  C   UNL A   1      38.025  30.369  30.169  1.00  0.00     0.060 A 
BRANCH  77  78
ATOM     78  S   UNL A   1      36.379  30.902  30.684  1.00  0.00     0.124 S 
ATOM     79  O   UNL A   1      36.649  32.242  31.192  1.00  0.00    -0.237 OA
ATOM     80  O   UNL A   1      35.630  30.832  29.433  1.00  0.00    -0.237 OA
ATOM     81  O   UNL A   1      36.003  29.910  31.686  1.00  0.00    -0.744 OA
ENDBRANCH  77  78
ENDBRANCH  45  70
BRANCH  57  82
ATOM     82  C   UNL A   1      46.685  32.720  28.463  1.00  0.00     0.058 A 
ATOM     83  C   UNL A   1      47.227  33.212  29.661  1.00  0.00     0.135 A 
ATOM     84  C   UNL A   1      46.559  33.614  27.387  1.00  0.00     0.135 A 
ATOM     85  F   UNL A   1      47.369  32.402  30.722  1.00  0.00    -0.206 F 
ATOM     86  C   UNL A   1      47.584  34.549  29.802  1.00  0.00     0.059 A 
ATOM     87  C   UNL A   1      46.942  34.946  27.494  1.00  0.00     0.059 A 
ATOM     88  F   UNL A   1      46.062  33.194  26.213  1.00  0.00    -0.206 F 
ATOM     89  C   UNL A   1      47.433  35.409  28.713  1.00  0.00     0.060 A 
BRANCH  89  90
ATOM     90  S   UNL A   1      47.895  37.143  28.910  1.00  0.00     0.124 S 
ATOM     91  O   UNL A   1      47.645  37.353  30.332  1.00  0.00    -0.237 OA
ATOM     92  O   UNL A   1      49.297  37.142  28.506  1.00  0.00    -0.237 OA
ATOM     93  O   UNL A   1      46.989  37.842  28.003  1.00  0.00    -0.744 OA
ENDBRANCH  89  90
ENDBRANCH  57  82
ENDBRANCH  31  32
ENDBRANCH  23  26
ENDBRANCH  21  22
ENDBRANCH  20  21
ENDBRANCH   1  20
TORSDOF 17
ENDMDL
