MODEL 1
REMARK VINA RESULT:     -13.7      0.000      0.000
REMARK SMILES Cc1ccc(CNc2ccc(C(=O)NCCCCNC(=O)c3ccc(-c4c5nc(c(-c6c(F)cc(S(=O)(=O)[O-])cc6F)c6ccc([nH]6)c(-c6c(F)cc(S(=O)(=O)[O-])cc6F)c6nc(c(-c7c(F)cc(S(=O)(=O)[O-])cc7F)c7ccc4[nH]7)C=C6)C=C5)cc3)cc2Br)cc1
REMARK SMILES IDX 16 1 15 2 14 3 12 4 13 5 11 7 8 8 9 9 89 10 10 11 88 12
REMARK SMILES IDX 90 13 7 14 6 16 5 17 1 18 2 19 3 20 92 21 4 22 91 23 17 24
REMARK SMILES IDX 18 25 19 26 20 27 21 29 22 30 23 31 87 32 24 33 86 34 25 35
REMARK SMILES IDX 26 36 27 37 80 38 28 39 85 40 79 41 81 42 29 43 84 44 78 45
REMARK SMILES IDX 77 46 30 48 64 49 43 50 63 51 44 52 47 53 62 54 82 55 45 56
REMARK SMILES IDX 46 57 61 59 83 60 48 61 31 62 32 63 41 64 33 65 34 66 40 67
REMARK SMILES IDX 42 68 35 69 36 70 37 71 38 72 39 73 65 74 66 75 75 76 67 77
REMARK SMILES IDX 68 78 74 79 76 80 69 81 70 82 71 83 72 84 73 85 49 86 50 87
REMARK SMILES IDX 59 88 51 89 52 90 58 91 60 92 53 93 54 94 55 95 56 96 57 97
REMARK H PARENT 14 6 7 15 19 28 81 47 47 58
REMARK Flexibility Score: inf
ROOT
ATOM      1  C   UNL A   1      33.126  29.449  24.931  1.00  0.00     0.023 C 
ENDROOT
BRANCH   1   2
ATOM      2  C   UNL A   1      31.770  29.876  25.499  1.00  0.00     0.116 C 
BRANCH   2   3
ATOM      3  N   UNL A   1      30.752  30.121  24.481  1.00  0.00    -0.352 N 
ATOM      4  C   UNL A   1      30.158  29.326  23.532  1.00  0.00     0.251 C 
ATOM      5  O   UNL A   1      29.381  29.851  22.732  1.00  0.00    -0.269 OA
ATOM      6  H   UNL A   1      30.424  31.049  24.473  1.00  0.00     0.163 HD
BRANCH   4   7
ATOM      7  C   UNL A   1      30.431  27.872  23.399  1.00  0.00     0.041 A 
ATOM      8  C   UNL A   1      31.053  25.113  23.081  1.00  0.00     0.049 A 
ATOM      9  C   UNL A   1      30.196  25.561  24.089  1.00  0.00     0.028 A 
ATOM     10  C   UNL A   1      31.564  26.089  22.201  1.00  0.00     0.041 A 
ATOM     11  C   UNL A   1      29.841  26.908  24.209  1.00  0.00     0.016 A 
ATOM     12  C   UNL A   1      31.266  27.449  22.359  1.00  0.00     0.031 A 
ATOM     13  Br  UNL A   1      32.659  25.590  20.723  1.00  0.00    -0.049 Br
BRANCH   8  14
ATOM     14  N   UNL A   1      31.382  23.776  22.931  1.00  0.00    -0.380 N 
ATOM     15  H   UNL A   1      31.376  23.410  22.016  1.00  0.00     0.160 HD
BRANCH  14  16
ATOM     16  C   UNL A   1      31.735  22.871  24.007  1.00  0.00     0.148 C 
BRANCH  16  17
ATOM     17  C   UNL A   1      33.181  23.068  24.395  1.00  0.00    -0.029 A 
ATOM     18  C   UNL A   1      37.293  23.762  25.503  1.00  0.00     0.044 C 
ATOM     19  C   UNL A   1      35.867  23.529  25.108  1.00  0.00    -0.051 A 
ATOM     20  C   UNL A   1      34.868  23.517  26.087  1.00  0.00     0.004 A 
ATOM     21  C   UNL A   1      35.513  23.319  23.770  1.00  0.00     0.004 A 
ATOM     22  C   UNL A   1      33.538  23.297  25.733  1.00  0.00     0.006 A 
ATOM     23  C   UNL A   1      34.181  23.094  23.416  1.00  0.00     0.006 A 
ENDBRANCH  16  17
ENDBRANCH  14  16
ENDBRANCH   8  14
ENDBRANCH   4   7
ENDBRANCH   2   3
ENDBRANCH   1   2
BRANCH   1  24
ATOM     24  C   UNL A   1      34.135  28.920  25.943  1.00  0.00     0.023 C 
BRANCH  24  25
ATOM     25  C   UNL A   1      34.085  29.604  27.303  1.00  0.00     0.116 C 
BRANCH  25  26
ATOM     26  N   UNL A   1      34.830  30.845  27.396  1.00  0.00    -0.352 N 
ATOM     27  C   UNL A   1      36.076  31.033  27.982  1.00  0.00     0.251 C 
ATOM     28  H   UNL A   1      34.408  31.640  26.999  1.00  0.00     0.163 HD
ATOM     29  O   UNL A   1      36.456  32.127  28.356  1.00  0.00    -0.269 OA
BRANCH  27  30
ATOM     30  C   UNL A   1      36.994  29.870  27.993  1.00  0.00     0.039 A 
ATOM     31  C   UNL A   1      37.084  29.139  29.185  1.00  0.00     0.014 A 
ATOM     32  C   UNL A   1      37.922  29.685  26.974  1.00  0.00     0.014 A 
ATOM     33  C   UNL A   1      38.213  28.359  29.431  1.00  0.00     0.010 A 
ATOM     34  C   UNL A   1      39.084  28.996  27.259  1.00  0.00     0.010 A 
ATOM     35  C   UNL A   1      39.250  28.365  28.501  1.00  0.00    -0.014 A 
BRANCH  35  36
ATOM     36  C   UNL A   1      40.575  27.805  28.746  1.00  0.00     0.031 A 
ATOM     37  C   UNL A   1      40.870  26.404  28.365  1.00  0.00     0.074 A 
ATOM     38  C   UNL A   1      41.568  28.613  29.174  1.00  0.00     0.049 A 
ATOM     39  N   UNL A   1      41.888  25.725  28.778  1.00  0.00    -0.248 NA
ATOM     40  C   UNL A   1      39.990  25.636  27.493  1.00  0.00     0.031 C 
ATOM     41  C   UNL A   1      43.004  28.363  29.093  1.00  0.00     0.029 A 
ATOM     42  N   UNL A   1      41.463  29.769  29.946  1.00  0.00    -0.354 N 
ATOM     43  C   UNL A   1      41.956  24.566  28.031  1.00  0.00     0.074 A 
ATOM     44  C   UNL A   1      40.719  24.537  27.285  1.00  0.00     0.031 C 
ATOM     45  C   UNL A   1      43.639  29.176  29.951  1.00  0.00     0.029 A 
ATOM     46  C   UNL A   1      42.623  29.856  30.736  1.00  0.00     0.049 A 
ATOM     47  H   UNL A   1      40.715  30.410  29.938  1.00  0.00     0.167 HD
ATOM     48  C   UNL A   1      43.111  23.836  28.029  1.00  0.00     0.037 A 
ATOM     49  C   UNL A   1      42.545  29.801  32.101  1.00  0.00     0.037 A 
ATOM     50  C   UNL A   1      44.082  24.392  28.973  1.00  0.00     0.049 A 
ATOM     51  C   UNL A   1      43.232  28.600  32.711  1.00  0.00     0.074 A 
ATOM     52  C   UNL A   1      45.156  25.252  28.808  1.00  0.00     0.029 A 
ATOM     53  N   UNL A   1      43.830  24.334  30.340  1.00  0.00    -0.354 N 
ATOM     54  N   UNL A   1      43.605  27.548  32.035  1.00  0.00    -0.248 NA
ATOM     55  C   UNL A   1      43.534  28.479  34.135  1.00  0.00     0.031 C 
ATOM     56  C   UNL A   1      45.498  25.777  30.079  1.00  0.00     0.029 A 
ATOM     57  C   UNL A   1      44.648  25.219  31.020  1.00  0.00     0.049 A 
ATOM     58  H   UNL A   1      43.165  23.746  30.764  1.00  0.00     0.167 HD
ATOM     59  C   UNL A   1      44.132  26.615  32.889  1.00  0.00     0.074 A 
ATOM     60  C   UNL A   1      44.097  27.258  34.189  1.00  0.00     0.031 C 
ATOM     61  C   UNL A   1      44.540  25.384  32.461  1.00  0.00     0.037 A 
BRANCH  48  62
ATOM     62  C   UNL A   1      43.471  22.825  26.949  1.00  0.00     0.058 A 
ATOM     63  C   UNL A   1      42.798  21.585  26.865  1.00  0.00     0.135 A 
ATOM     64  C   UNL A   1      44.515  22.979  26.014  1.00  0.00     0.135 A 
ATOM     65  F   UNL A   1      41.706  21.328  27.598  1.00  0.00    -0.206 F 
ATOM     66  C   UNL A   1      43.212  20.542  26.031  1.00  0.00     0.059 A 
ATOM     67  C   UNL A   1      44.986  21.934  25.211  1.00  0.00     0.059 A 
ATOM     68  F   UNL A   1      45.082  24.171  25.794  1.00  0.00    -0.206 F 
ATOM     69  C   UNL A   1      44.338  20.709  25.238  1.00  0.00     0.060 A 
BRANCH  69  70
ATOM     70  S   UNL A   1      44.918  19.323  24.241  1.00  0.00     0.124 S 
ATOM     71  O   UNL A   1      44.499  19.713  22.898  1.00  0.00    -0.237 OA
ATOM     72  O   UNL A   1      46.355  19.348  24.491  1.00  0.00    -0.237 OA
ATOM     73  O   UNL A   1      44.204  18.179  24.801  1.00  0.00    -0.744 OA
ENDBRANCH  69  70
ENDBRANCH  48  62
BRANCH  49  74
ATOM     74  C   UNL A   1      41.325  30.464  32.639  1.00  0.00     0.058 A 
ATOM     75  C   UNL A   1      40.236  29.638  32.972  1.00  0.00     0.135 A 
ATOM     76  C   UNL A   1      41.393  31.728  33.244  1.00  0.00     0.135 A 
ATOM     77  F   UNL A   1      40.114  28.427  32.403  1.00  0.00    -0.206 F 
ATOM     78  C   UNL A   1      39.358  29.967  33.996  1.00  0.00     0.059 A 
ATOM     79  C   UNL A   1      40.517  32.082  34.272  1.00  0.00     0.059 A 
ATOM     80  F   UNL A   1      42.405  32.562  32.958  1.00  0.00    -0.206 F 
ATOM     81  C   UNL A   1      39.559  31.158  34.691  1.00  0.00     0.060 A 
BRANCH  81  82
ATOM     82  S   UNL A   1      38.683  31.368  36.260  1.00  0.00     0.124 S 
ATOM     83  O   UNL A   1      38.365  29.991  36.619  1.00  0.00    -0.237 OA
ATOM     84  O   UNL A   1      39.710  32.012  37.081  1.00  0.00    -0.237 OA
ATOM     85  O   UNL A   1      37.546  32.205  35.898  1.00  0.00    -0.744 OA
ENDBRANCH  81  82
ENDBRANCH  49  74
BRANCH  61  86
ATOM     86  C   UNL A   1      44.963  24.255  33.363  1.00  0.00     0.058 A 
ATOM     87  C   UNL A   1      46.278  24.081  33.829  1.00  0.00     0.135 A 
ATOM     88  C   UNL A   1      43.999  23.368  33.897  1.00  0.00     0.135 A 
ATOM     89  F   UNL A   1      47.256  24.928  33.478  1.00  0.00    -0.206 F 
ATOM     90  C   UNL A   1      46.629  23.052  34.703  1.00  0.00     0.059 A 
ATOM     91  C   UNL A   1      44.319  22.366  34.810  1.00  0.00     0.059 A 
ATOM     92  F   UNL A   1      42.706  23.454  33.549  1.00  0.00    -0.206 F 
ATOM     93  C   UNL A   1      45.644  22.195  35.185  1.00  0.00     0.060 A 
BRANCH  93  94
ATOM     94  S   UNL A   1      46.080  20.886  36.345  1.00  0.00     0.124 S 
ATOM     95  O   UNL A   1      47.525  20.807  36.163  1.00  0.00    -0.237 OA
ATOM     96  O   UNL A   1      45.636  21.427  37.628  1.00  0.00    -0.237 OA
ATOM     97  O   UNL A   1      45.316  19.744  35.858  1.00  0.00    -0.744 OA
ENDBRANCH  93  94
ENDBRANCH  61  86
ENDBRANCH  35  36
ENDBRANCH  27  30
ENDBRANCH  25  26
ENDBRANCH  24  25
ENDBRANCH   1  24
TORSDOF 17
ENDMDL
MODEL 2
REMARK VINA RESULT:     -13.3      4.922     11.313
REMARK SMILES Cc1ccc(CNc2ccc(C(=O)NCCCCNC(=O)c3ccc(-c4c5nc(c(-c6c(F)cc(S(=O)(=O)[O-])cc6F)c6ccc([nH]6)c(-c6c(F)cc(S(=O)(=O)[O-])cc6F)c6nc(c(-c7c(F)cc(S(=O)(=O)[O-])cc7F)c7ccc4[nH]7)C=C6)C=C5)cc3)cc2Br)cc1
REMARK SMILES IDX 16 1 15 2 14 3 12 4 13 5 11 7 8 8 9 9 89 10 10 11 88 12
REMARK SMILES IDX 90 13 7 14 6 16 5 17 1 18 2 19 3 20 92 21 4 22 91 23 17 24
REMARK SMILES IDX 18 25 19 26 20 27 21 29 22 30 23 31 87 32 24 33 86 34 25 35
REMARK SMILES IDX 26 36 27 37 80 38 28 39 85 40 79 41 81 42 29 43 84 44 78 45
REMARK SMILES IDX 77 46 30 48 64 49 43 50 63 51 44 52 47 53 62 54 82 55 45 56
REMARK SMILES IDX 46 57 61 59 83 60 48 61 31 62 32 63 41 64 33 65 34 66 40 67
REMARK SMILES IDX 42 68 35 69 36 70 37 71 38 72 39 73 65 74 66 75 75 76 67 77
REMARK SMILES IDX 68 78 74 79 76 80 69 81 70 82 71 83 72 84 73 85 49 86 50 87
REMARK SMILES IDX 59 88 51 89 52 90 58 91 60 92 53 93 54 94 55 95 56 96 57 97
REMARK H PARENT 14 6 7 15 19 28 81 47 47 58
REMARK Flexibility Score: inf
ROOT
ATOM      1  C   UNL A   1      36.722  21.877  24.421  1.00  0.00     0.023 C 
ENDROOT
BRANCH   1   2
ATOM      2  C   UNL A   1      35.978  21.203  25.576  1.00  0.00     0.116 C 
BRANCH   2   3
ATOM      3  N   UNL A   1      35.185  20.044  25.172  1.00  0.00    -0.352 N 
ATOM      4  C   UNL A   1      33.898  19.895  24.718  1.00  0.00     0.251 C 
ATOM      5  O   UNL A   1      33.467  18.754  24.544  1.00  0.00    -0.269 OA
ATOM      6  H   UNL A   1      35.676  19.193  25.240  1.00  0.00     0.163 HD
BRANCH   4   7
ATOM      7  C   UNL A   1      32.987  21.039  24.460  1.00  0.00     0.041 A 
ATOM      8  C   UNL A   1      31.240  23.255  24.084  1.00  0.00     0.049 A 
ATOM      9  C   UNL A   1      32.000  22.733  23.034  1.00  0.00     0.028 A 
ATOM     10  C   UNL A   1      31.347  22.606  25.330  1.00  0.00     0.041 A 
ATOM     11  C   UNL A   1      32.813  21.607  23.203  1.00  0.00     0.016 A 
ATOM     12  C   UNL A   1      32.212  21.519  25.522  1.00  0.00     0.031 A 
ATOM     13  Br  UNL A   1      30.281  23.159  26.810  1.00  0.00    -0.049 Br
BRANCH   8  14
ATOM     14  N   UNL A   1      30.405  24.347  23.918  1.00  0.00    -0.380 N 
ATOM     15  H   UNL A   1      29.468  24.245  24.202  1.00  0.00     0.160 HD
BRANCH  14  16
ATOM     16  C   UNL A   1      30.796  25.628  23.362  1.00  0.00     0.148 C 
BRANCH  16  17
ATOM     17  C   UNL A   1      31.595  26.410  24.377  1.00  0.00    -0.029 A 
ATOM     18  C   UNL A   1      33.891  28.746  27.186  1.00  0.00     0.044 C 
ATOM     19  C   UNL A   1      33.104  27.936  26.201  1.00  0.00    -0.051 A 
ATOM     20  C   UNL A   1      31.732  28.163  26.055  1.00  0.00     0.004 A 
ATOM     21  C   UNL A   1      33.719  26.949  25.422  1.00  0.00     0.004 A 
ATOM     22  C   UNL A   1      30.987  27.414  25.146  1.00  0.00     0.006 A 
ATOM     23  C   UNL A   1      32.972  26.195  24.515  1.00  0.00     0.006 A 
ENDBRANCH  16  17
ENDBRANCH  14  16
ENDBRANCH   8  14
ENDBRANCH   4   7
ENDBRANCH   2   3
ENDBRANCH   1   2
BRANCH   1  24
ATOM     24  C   UNL A   1      37.594  23.070  24.797  1.00  0.00     0.023 C 
BRANCH  24  25
ATOM     25  C   UNL A   1      37.763  23.282  26.296  1.00  0.00     0.116 C 
BRANCH  25  26
ATOM     26  N   UNL A   1      39.099  23.034  26.805  1.00  0.00    -0.352 N 
ATOM     27  C   UNL A   1      40.110  23.967  26.997  1.00  0.00     0.251 C 
ATOM     28  H   UNL A   1      39.312  22.102  27.039  1.00  0.00     0.163 HD
ATOM     29  O   UNL A   1      41.283  23.648  27.055  1.00  0.00    -0.269 OA
BRANCH  27  30
ATOM     30  C   UNL A   1      39.690  25.359  27.288  1.00  0.00     0.039 A 
ATOM     31  C   UNL A   1      40.250  26.372  26.498  1.00  0.00     0.014 A 
ATOM     32  C   UNL A   1      39.002  25.667  28.456  1.00  0.00     0.014 A 
ATOM     33  C   UNL A   1      40.283  27.680  26.978  1.00  0.00     0.010 A 
ATOM     34  C   UNL A   1      39.123  26.940  28.976  1.00  0.00     0.010 A 
ATOM     35  C   UNL A   1      39.797  27.939  28.258  1.00  0.00    -0.014 A 
BRANCH  35  36
ATOM     36  C   UNL A   1      39.998  29.196  28.973  1.00  0.00     0.031 A 
ATOM     37  C   UNL A   1      38.938  30.230  28.967  1.00  0.00     0.074 A 
ATOM     38  C   UNL A   1      41.083  29.342  29.763  1.00  0.00     0.049 A 
ATOM     39  N   UNL A   1      39.106  31.462  29.315  1.00  0.00    -0.248 NA
ATOM     40  C   UNL A   1      37.580  29.946  28.521  1.00  0.00     0.031 C 
ATOM     41  C   UNL A   1      41.263  30.310  30.841  1.00  0.00     0.029 A 
ATOM     42  N   UNL A   1      42.335  28.745  29.625  1.00  0.00    -0.354 N 
ATOM     43  C   UNL A   1      37.861  32.050  29.411  1.00  0.00     0.074 A 
ATOM     44  C   UNL A   1      36.952  31.077  28.852  1.00  0.00     0.031 C 
ATOM     45  C   UNL A   1      42.571  30.416  31.120  1.00  0.00     0.029 A 
ATOM     46  C   UNL A   1      43.291  29.650  30.118  1.00  0.00     0.049 A 
ATOM     47  H   UNL A   1      42.516  27.851  29.252  1.00  0.00     0.167 HD
ATOM     48  C   UNL A   1      37.728  33.236  30.076  1.00  0.00     0.037 A 
ATOM     49  C   UNL A   1      44.247  30.176  29.293  1.00  0.00     0.037 A 
ATOM     50  C   UNL A   1      39.034  33.754  30.486  1.00  0.00     0.049 A 
ATOM     51  C   UNL A   1      44.151  31.674  29.111  1.00  0.00     0.074 A 
ATOM     52  C   UNL A   1      39.734  33.679  31.681  1.00  0.00     0.029 A 
ATOM     53  N   UNL A   1      39.943  34.183  29.525  1.00  0.00    -0.354 N 
ATOM     54  N   UNL A   1      43.108  32.385  29.438  1.00  0.00    -0.248 NA
ATOM     55  C   UNL A   1      45.216  32.487  28.528  1.00  0.00     0.031 C 
ATOM     56  C   UNL A   1      41.091  33.987  31.416  1.00  0.00     0.029 A 
ATOM     57  C   UNL A   1      41.213  34.272  30.066  1.00  0.00     0.049 A 
ATOM     58  H   UNL A   1      39.715  34.394  28.591  1.00  0.00     0.167 HD
ATOM     59  C   UNL A   1      43.313  33.693  29.084  1.00  0.00     0.074 A 
ATOM     60  C   UNL A   1      44.661  33.712  28.548  1.00  0.00     0.031 C 
ATOM     61  C   UNL A   1      42.353  34.651  29.245  1.00  0.00     0.037 A 
BRANCH  48  62
ATOM     62  C   UNL A   1      36.407  33.754  30.627  1.00  0.00     0.058 A 
ATOM     63  C   UNL A   1      35.391  34.214  29.759  1.00  0.00     0.135 A 
ATOM     64  C   UNL A   1      36.102  33.896  31.996  1.00  0.00     0.135 A 
ATOM     65  F   UNL A   1      35.470  34.040  28.432  1.00  0.00    -0.206 F 
ATOM     66  C   UNL A   1      34.245  34.880  30.203  1.00  0.00     0.059 A 
ATOM     67  C   UNL A   1      34.994  34.609  32.466  1.00  0.00     0.059 A 
ATOM     68  F   UNL A   1      36.836  33.291  32.938  1.00  0.00    -0.206 F 
ATOM     69  C   UNL A   1      34.076  35.115  31.559  1.00  0.00     0.060 A 
BRANCH  69  70
ATOM     70  S   UNL A   1      32.643  36.061  32.110  1.00  0.00     0.124 S 
ATOM     71  O   UNL A   1      33.200  36.858  33.199  1.00  0.00    -0.237 OA
ATOM     72  O   UNL A   1      32.283  36.798  30.904  1.00  0.00    -0.237 OA
ATOM     73  O   UNL A   1      31.693  35.031  32.522  1.00  0.00    -0.744 OA
ENDBRANCH  69  70
ENDBRANCH  48  62
BRANCH  49  74
ATOM     74  C   UNL A   1      44.719  29.209  28.263  1.00  0.00     0.058 A 
ATOM     75  C   UNL A   1      45.728  28.303  28.643  1.00  0.00     0.135 A 
ATOM     76  C   UNL A   1      43.913  28.864  27.168  1.00  0.00     0.135 A 
ATOM     77  F   UNL A   1      46.540  28.597  29.672  1.00  0.00    -0.206 F 
ATOM     78  C   UNL A   1      45.813  27.034  28.087  1.00  0.00     0.059 A 
ATOM     79  C   UNL A   1      43.987  27.595  26.590  1.00  0.00     0.059 A 
ATOM     80  F   UNL A   1      42.941  29.692  26.756  1.00  0.00    -0.206 F 
ATOM     81  C   UNL A   1      44.885  26.665  27.116  1.00  0.00     0.060 A 
BRANCH  81  82
ATOM     82  S   UNL A   1      44.750  24.907  26.713  1.00  0.00     0.124 S 
ATOM     83  O   UNL A   1      43.914  24.930  25.518  1.00  0.00    -0.237 OA
ATOM     84  O   UNL A   1      46.153  24.551  26.494  1.00  0.00    -0.237 OA
ATOM     85  O   UNL A   1      44.133  24.337  27.905  1.00  0.00    -0.744 OA
ENDBRANCH  81  82
ENDBRANCH  49  74
BRANCH  61  86
ATOM     86  C   UNL A   1      42.445  36.060  28.721  1.00  0.00     0.058 A 
ATOM     87  C   UNL A   1      43.038  37.118  29.433  1.00  0.00     0.135 A 
ATOM     88  C   UNL A   1      42.040  36.359  27.400  1.00  0.00     0.135 A 
ATOM     89  F   UNL A   1      43.558  36.927  30.654  1.00  0.00    -0.206 F 
ATOM     90  C   UNL A   1      43.151  38.403  28.901  1.00  0.00     0.059 A 
ATOM     91  C   UNL A   1      42.190  37.621  26.831  1.00  0.00     0.059 A 
ATOM     92  F   UNL A   1      41.487  35.422  26.614  1.00  0.00    -0.206 F 
ATOM     93  C   UNL A   1      42.720  38.647  27.601  1.00  0.00     0.060 A 
BRANCH  93  94
ATOM     94  S   UNL A   1      42.897  40.293  26.890  1.00  0.00     0.124 S 
ATOM     95  O   UNL A   1      41.561  40.521  26.349  1.00  0.00    -0.237 OA
ATOM     96  O   UNL A   1      43.256  41.111  28.046  1.00  0.00    -0.237 OA
ATOM     97  O   UNL A   1      43.957  40.117  25.904  1.00  0.00    -0.744 OA
ENDBRANCH  93  94
ENDBRANCH  61  86
ENDBRANCH  35  36
ENDBRANCH  27  30
ENDBRANCH  25  26
ENDBRANCH  24  25
ENDBRANCH   1  24
TORSDOF 17
ENDMDL
MODEL 3
REMARK VINA RESULT:     -13.3      1.275      1.994
REMARK SMILES Cc1ccc(CNc2ccc(C(=O)NCCCCNC(=O)c3ccc(-c4c5nc(c(-c6c(F)cc(S(=O)(=O)[O-])cc6F)c6ccc([nH]6)c(-c6c(F)cc(S(=O)(=O)[O-])cc6F)c6nc(c(-c7c(F)cc(S(=O)(=O)[O-])cc7F)c7ccc4[nH]7)C=C6)C=C5)cc3)cc2Br)cc1
REMARK SMILES IDX 16 1 15 2 14 3 12 4 13 5 11 7 8 8 9 9 89 10 10 11 88 12
REMARK SMILES IDX 90 13 7 14 6 16 5 17 1 18 2 19 3 20 92 21 4 22 91 23 17 24
REMARK SMILES IDX 18 25 19 26 20 27 21 29 22 30 23 31 87 32 24 33 86 34 25 35
REMARK SMILES IDX 26 36 27 37 80 38 28 39 85 40 79 41 81 42 29 43 84 44 78 45
REMARK SMILES IDX 77 46 30 48 64 49 43 50 63 51 44 52 47 53 62 54 82 55 45 56
REMARK SMILES IDX 46 57 61 59 83 60 48 61 31 62 32 63 41 64 33 65 34 66 40 67
REMARK SMILES IDX 42 68 35 69 36 70 37 71 38 72 39 73 65 74 66 75 75 76 67 77
REMARK SMILES IDX 68 78 74 79 76 80 69 81 70 82 71 83 72 84 73 85 49 86 50 87
REMARK SMILES IDX 59 88 51 89 52 90 58 91 60 92 53 93 54 94 55 95 56 96 57 97
REMARK H PARENT 14 6 7 15 19 28 81 47 47 58
REMARK Flexibility Score: inf
ROOT
ATOM      1  C   UNL A   1      32.190  30.193  25.873  1.00  0.00     0.023 C 
ENDROOT
BRANCH   1   2
ATOM      2  C   UNL A   1      32.715  29.455  24.639  1.00  0.00     0.116 C 
BRANCH   2   3
ATOM      3  N   UNL A   1      31.723  29.296  23.578  1.00  0.00    -0.352 N 
ATOM      4  C   UNL A   1      30.971  28.233  23.143  1.00  0.00     0.251 C 
ATOM      5  O   UNL A   1      30.271  28.382  22.140  1.00  0.00    -0.269 OA
ATOM      6  H   UNL A   1      31.560  30.123  23.070  1.00  0.00     0.163 HD
BRANCH   4   7
ATOM      7  C   UNL A   1      30.985  26.901  23.800  1.00  0.00     0.041 A 
ATOM      8  C   UNL A   1      31.110  24.319  24.993  1.00  0.00     0.049 A 
ATOM      9  C   UNL A   1      30.422  25.375  25.597  1.00  0.00     0.028 A 
ATOM     10  C   UNL A   1      31.706  24.582  23.744  1.00  0.00     0.041 A 
ATOM     11  C   UNL A   1      30.308  26.626  24.983  1.00  0.00     0.016 A 
ATOM     12  C   UNL A   1      31.654  25.853  23.156  1.00  0.00     0.031 A 
ATOM     13  Br  UNL A   1      32.582  23.196  22.773  1.00  0.00    -0.049 Br
BRANCH   8  14
ATOM     14  N   UNL A   1      31.197  23.066  25.576  1.00  0.00    -0.380 N 
ATOM     15  H   UNL A   1      30.647  22.349  25.186  1.00  0.00     0.160 HD
BRANCH  14  16
ATOM     16  C   UNL A   1      32.032  22.722  26.710  1.00  0.00     0.148 C 
BRANCH  16  17
ATOM     17  C   UNL A   1      33.417  22.345  26.239  1.00  0.00    -0.029 A 
ATOM     18  C   UNL A   1      37.343  21.321  24.771  1.00  0.00     0.044 C 
ATOM     19  C   UNL A   1      35.974  21.670  25.271  1.00  0.00    -0.051 A 
ATOM     20  C   UNL A   1      35.719  22.956  25.757  1.00  0.00     0.004 A 
ATOM     21  C   UNL A   1      34.939  20.727  25.261  1.00  0.00     0.004 A 
ATOM     22  C   UNL A   1      34.452  23.293  26.228  1.00  0.00     0.006 A 
ATOM     23  C   UNL A   1      33.671  21.063  25.738  1.00  0.00     0.006 A 
ENDBRANCH  16  17
ENDBRANCH  14  16
ENDBRANCH   8  14
ENDBRANCH   4   7
ENDBRANCH   2   3
ENDBRANCH   1   2
BRANCH   1  24
ATOM     24  C   UNL A   1      32.678  29.668  27.219  1.00  0.00     0.023 C 
BRANCH  24  25
ATOM     25  C   UNL A   1      34.187  29.490  27.319  1.00  0.00     0.116 C 
BRANCH  25  26
ATOM     26  N   UNL A   1      34.942  30.718  27.474  1.00  0.00    -0.352 N 
ATOM     27  C   UNL A   1      36.119  30.895  28.191  1.00  0.00     0.251 C 
ATOM     28  H   UNL A   1      34.582  31.514  27.021  1.00  0.00     0.163 HD
ATOM     29  O   UNL A   1      36.478  31.987  28.588  1.00  0.00    -0.269 OA
BRANCH  27  30
ATOM     30  C   UNL A   1      37.008  29.716  28.321  1.00  0.00     0.039 A 
ATOM     31  C   UNL A   1      37.167  29.174  29.604  1.00  0.00     0.014 A 
ATOM     32  C   UNL A   1      37.854  29.343  27.283  1.00  0.00     0.014 A 
ATOM     33  C   UNL A   1      38.291  28.403  29.892  1.00  0.00     0.010 A 
ATOM     34  C   UNL A   1      39.017  28.665  27.591  1.00  0.00     0.010 A 
ATOM     35  C   UNL A   1      39.257  28.228  28.903  1.00  0.00    -0.014 A 
BRANCH  35  36
ATOM     36  C   UNL A   1      40.583  27.666  29.142  1.00  0.00     0.031 A 
ATOM     37  C   UNL A   1      40.898  26.291  28.689  1.00  0.00     0.074 A 
ATOM     38  C   UNL A   1      41.560  28.458  29.632  1.00  0.00     0.049 A 
ATOM     39  N   UNL A   1      41.914  25.599  29.083  1.00  0.00    -0.248 NA
ATOM     40  C   UNL A   1      40.042  25.566  27.760  1.00  0.00     0.031 C 
ATOM     41  C   UNL A   1      43.000  28.225  29.565  1.00  0.00     0.029 A 
ATOM     42  N   UNL A   1      41.431  29.569  30.464  1.00  0.00    -0.354 N 
ATOM     43  C   UNL A   1      42.008  24.485  28.275  1.00  0.00     0.074 A 
ATOM     44  C   UNL A   1      40.785  24.486  27.506  1.00  0.00     0.031 C 
ATOM     45  C   UNL A   1      43.611  28.995  30.477  1.00  0.00     0.029 A 
ATOM     46  C   UNL A   1      42.575  29.622  31.280  1.00  0.00     0.049 A 
ATOM     47  H   UNL A   1      40.677  30.203  30.478  1.00  0.00     0.167 HD
ATOM     48  C   UNL A   1      43.169  23.765  28.254  1.00  0.00     0.037 A 
ATOM     49  C   UNL A   1      42.474  29.490  32.637  1.00  0.00     0.037 A 
ATOM     50  C   UNL A   1      44.117  24.275  29.245  1.00  0.00     0.049 A 
ATOM     51  C   UNL A   1      43.160  28.263  33.193  1.00  0.00     0.074 A 
ATOM     52  C   UNL A   1      45.186  25.153  29.148  1.00  0.00     0.029 A 
ATOM     53  N   UNL A   1      43.841  24.140  30.602  1.00  0.00    -0.354 N 
ATOM     54  N   UNL A   1      43.555  27.253  32.467  1.00  0.00    -0.248 NA
ATOM     55  C   UNL A   1      43.438  28.066  34.614  1.00  0.00     0.031 C 
ATOM     56  C   UNL A   1      45.500  25.609  30.452  1.00  0.00     0.029 A 
ATOM     57  C   UNL A   1      44.638  24.993  31.344  1.00  0.00     0.049 A 
ATOM     58  H   UNL A   1      43.174  23.524  30.980  1.00  0.00     0.167 HD
ATOM     59  C   UNL A   1      44.075  26.279  33.278  1.00  0.00     0.074 A 
ATOM     60  C   UNL A   1      44.011  26.849  34.610  1.00  0.00     0.031 C 
ATOM     61  C   UNL A   1      44.502  25.077  32.791  1.00  0.00     0.037 A 
BRANCH  48  62
ATOM     62  C   UNL A   1      43.558  22.818  27.126  1.00  0.00     0.058 A 
ATOM     63  C   UNL A   1      42.877  21.594  26.942  1.00  0.00     0.135 A 
ATOM     64  C   UNL A   1      44.636  23.018  26.240  1.00  0.00     0.135 A 
ATOM     65  F   UNL A   1      41.758  21.304  27.620  1.00  0.00    -0.206 F 
ATOM     66  C   UNL A   1      43.312  20.600  26.060  1.00  0.00     0.059 A 
ATOM     67  C   UNL A   1      45.126  22.019  25.390  1.00  0.00     0.059 A 
ATOM     68  F   UNL A   1      45.221  24.215  26.114  1.00  0.00    -0.206 F 
ATOM     69  C   UNL A   1      44.466  20.803  25.319  1.00  0.00     0.060 A 
BRANCH  69  70
ATOM     70  S   UNL A   1      45.068  19.474  24.259  1.00  0.00     0.124 S 
ATOM     71  O   UNL A   1      44.554  18.285  24.932  1.00  0.00    -0.237 OA
ATOM     72  O   UNL A   1      44.447  19.799  22.980  1.00  0.00    -0.237 OA
ATOM     73  O   UNL A   1      46.520  19.632  24.308  1.00  0.00    -0.744 OA
ENDBRANCH  69  70
ENDBRANCH  48  62
BRANCH  49  74
ATOM     74  C   UNL A   1      41.238  30.113  33.188  1.00  0.00     0.058 A 
ATOM     75  C   UNL A   1      41.238  31.511  33.350  1.00  0.00     0.135 A 
ATOM     76  C   UNL A   1      39.995  29.468  33.094  1.00  0.00     0.135 A 
ATOM     77  F   UNL A   1      42.400  32.173  33.467  1.00  0.00    -0.206 F 
ATOM     78  C   UNL A   1      40.072  32.257  33.234  1.00  0.00     0.059 A 
ATOM     79  C   UNL A   1      38.811  30.199  32.982  1.00  0.00     0.059 A 
ATOM     80  F   UNL A   1      39.934  28.136  32.947  1.00  0.00    -0.206 F 
ATOM     81  C   UNL A   1      38.876  31.593  32.970  1.00  0.00     0.060 A 
BRANCH  81  82
ATOM     82  S   UNL A   1      37.471  32.589  32.417  1.00  0.00     0.124 S 
ATOM     83  O   UNL A   1      37.386  33.603  33.462  1.00  0.00    -0.237 OA
ATOM     84  O   UNL A   1      37.946  33.062  31.116  1.00  0.00    -0.237 OA
ATOM     85  O   UNL A   1      36.376  31.628  32.379  1.00  0.00    -0.744 OA
ENDBRANCH  81  82
ENDBRANCH  49  74
BRANCH  61  86
ATOM     86  C   UNL A   1      44.919  23.903  33.637  1.00  0.00     0.058 A 
ATOM     87  C   UNL A   1      44.043  22.874  34.027  1.00  0.00     0.135 A 
ATOM     88  C   UNL A   1      46.278  23.716  33.979  1.00  0.00     0.135 A 
ATOM     89  F   UNL A   1      42.752  22.888  33.665  1.00  0.00    -0.206 F 
ATOM     90  C   UNL A   1      44.470  21.774  34.771  1.00  0.00     0.059 A 
ATOM     91  C   UNL A   1      46.734  22.600  34.677  1.00  0.00     0.059 A 
ATOM     92  F   UNL A   1      47.212  24.616  33.636  1.00  0.00    -0.206 F 
ATOM     93  C   UNL A   1      45.817  21.647  35.096  1.00  0.00     0.060 A 
BRANCH  93  94
ATOM     94  S   UNL A   1      46.386  20.211  36.024  1.00  0.00     0.124 S 
ATOM     95  O   UNL A   1      47.835  20.358  35.927  1.00  0.00    -0.237 OA
ATOM     96  O   UNL A   1      45.819  20.434  37.352  1.00  0.00    -0.237 OA
ATOM     97  O   UNL A   1      45.813  19.091  35.286  1.00  0.00    -0.744 OA
ENDBRANCH  93  94
ENDBRANCH  61  86
ENDBRANCH  35  36
ENDBRANCH  27  30
ENDBRANCH  25  26
ENDBRANCH  24  25
ENDBRANCH   1  24
TORSDOF 17
ENDMDL
