MODEL 1
REMARK VINA RESULT:     -11.8      0.000      0.000
REMARK SMILES O=C(COc1ccccc1/C=C1\C(=O)Nc2ccccc21)NCCCCNC(=O)c1ccc(-c2c3nc(c(-c4c(F)cc(S(=O)(=O)[O-])cc4F)c4ccc([nH]4)c(-c4c(F)cc(S(=O)(=O)[O-])cc4F)c4nc(c(-c5c(F)cc(S(=O)(=O)[O-])cc5F)c5ccc2[nH]5)C=C4)C=C3)cc1
REMARK SMILES IDX 24 1 23 2 22 3 1 4 2 5 3 7 4 8 5 9 6 10 10 11 7 12 9 13 8 14
REMARK SMILES IDX 11 15 12 16 13 17 21 18 14 19 15 20 16 21 20 22 17 24 19 25
REMARK SMILES IDX 18 26 25 27 26 28 27 29 28 30 29 32 30 33 31 34 95 35 32 36
REMARK SMILES IDX 94 37 33 38 34 39 35 40 88 41 36 42 93 43 87 44 89 45 37 46
REMARK SMILES IDX 92 47 86 48 85 49 38 51 72 52 51 53 71 54 52 55 55 56 70 57
REMARK SMILES IDX 90 58 53 59 54 60 69 62 91 63 56 64 39 65 40 66 49 67 41 68
REMARK SMILES IDX 42 69 48 70 50 71 43 72 44 73 45 74 46 75 47 76 73 77 74 78
REMARK SMILES IDX 83 79 75 80 76 81 82 82 84 83 77 84 78 85 79 86 80 87 81 88
REMARK SMILES IDX 57 89 58 90 67 91 59 92 60 93 66 94 68 95 61 96 62 97 63 98
REMARK SMILES IDX 64 99 65 100
REMARK H PARENT 22 6 15 23 27 31 89 50 55 61
REMARK Flexibility Score: inf
ROOT
ATOM      1  C   UNL A   1      32.742  28.355  24.536  1.00  0.00     0.023 C 
ENDROOT
BRANCH   1   2
ATOM      2  C   UNL A   1      32.801  27.258  23.489  1.00  0.00     0.116 C 
BRANCH   2   3
ATOM      3  N   UNL A   1      32.698  25.909  23.979  1.00  0.00    -0.353 N 
ATOM      4  O   UNL A   1      34.115  24.937  22.434  1.00  0.00    -0.271 OA
ATOM      5  C   UNL A   1      33.562  24.920  23.528  1.00  0.00     0.257 C 
ATOM      6  H   UNL A   1      32.006  25.684  24.643  1.00  0.00     0.163 HD
BRANCH   5   7
ATOM      7  C   UNL A   1      33.795  23.822  24.558  1.00  0.00     0.329 C 
BRANCH   7   8
ATOM      8  O   UNL A   1      34.891  23.058  24.039  1.00  0.00    -0.483 OA
BRANCH   8   9
ATOM      9  C   UNL A   1      35.949  22.944  24.904  1.00  0.00     0.127 A 
ATOM     10  C   UNL A   1      36.494  24.140  25.392  1.00  0.00     0.047 A 
ATOM     11  C   UNL A   1      36.591  21.704  25.110  1.00  0.00     0.017 A 
ATOM     12  C   UNL A   1      37.718  24.129  26.055  1.00  0.00     0.004 A 
ATOM     13  C   UNL A   1      37.874  21.748  25.671  1.00  0.00     0.012 A 
ATOM     14  C   UNL A   1      38.423  22.937  26.162  1.00  0.00     0.001 A 
BRANCH  11  15
ATOM     15  C   UNL A   1      35.993  20.402  24.703  1.00  0.00     0.026 C 
ATOM     16  C   UNL A   1      34.862  19.814  25.157  1.00  0.00     0.050 C 
ATOM     17  C   UNL A   1      33.913  20.341  26.220  1.00  0.00     0.256 C 
ATOM     18  C   UNL A   1      34.284  18.517  24.724  1.00  0.00     0.011 A 
ATOM     19  O   UNL A   1      33.913  21.407  26.811  1.00  0.00    -0.269 OA
ATOM     20  N   UNL A   1      32.973  19.348  26.406  1.00  0.00    -0.321 N 
ATOM     21  C   UNL A   1      33.157  18.298  25.522  1.00  0.00     0.049 A 
ATOM     22  C   UNL A   1      34.591  17.578  23.755  1.00  0.00     0.011 A 
ATOM     23  H   UNL A   1      32.259  19.382  27.084  1.00  0.00     0.170 HD
ATOM     24  C   UNL A   1      32.329  17.196  25.398  1.00  0.00     0.027 A 
ATOM     25  C   UNL A   1      33.750  16.467  23.578  1.00  0.00     0.001 A 
ATOM     26  C   UNL A   1      32.629  16.275  24.398  1.00  0.00     0.002 A 
ENDBRANCH  11  15
ENDBRANCH   8   9
ENDBRANCH   7   8
ENDBRANCH   5   7
ENDBRANCH   2   3
ENDBRANCH   1   2
BRANCH   1  27
ATOM     27  C   UNL A   1      33.888  28.349  25.550  1.00  0.00     0.023 C 
BRANCH  27  28
ATOM     28  C   UNL A   1      33.495  28.513  27.018  1.00  0.00     0.116 C 
BRANCH  28  29
ATOM     29  N   UNL A   1      33.452  29.900  27.457  1.00  0.00    -0.352 N 
ATOM     30  C   UNL A   1      34.408  30.652  28.103  1.00  0.00     0.251 C 
ATOM     31  H   UNL A   1      32.611  30.372  27.263  1.00  0.00     0.163 HD
ATOM     32  O   UNL A   1      34.118  31.771  28.518  1.00  0.00    -0.269 OA
BRANCH  30  33
ATOM     33  C   UNL A   1      35.767  30.110  28.329  1.00  0.00     0.039 A 
ATOM     34  C   UNL A   1      36.693  30.143  27.282  1.00  0.00     0.014 A 
ATOM     35  C   UNL A   1      36.136  29.570  29.563  1.00  0.00     0.014 A 
ATOM     36  C   UNL A   1      38.007  29.719  27.500  1.00  0.00     0.010 A 
ATOM     37  C   UNL A   1      37.465  29.222  29.802  1.00  0.00     0.010 A 
ATOM     38  C   UNL A   1      38.419  29.298  28.776  1.00  0.00    -0.014 A 
BRANCH  38  39
ATOM     39  C   UNL A   1      39.842  28.958  29.057  1.00  0.00     0.031 A 
ATOM     40  C   UNL A   1      40.770  29.987  29.647  1.00  0.00     0.074 A 
ATOM     41  C   UNL A   1      40.318  27.742  28.719  1.00  0.00     0.049 A 
ATOM     42  N   UNL A   1      42.052  29.897  29.898  1.00  0.00    -0.248 NA
ATOM     43  C   UNL A   1      40.188  31.299  29.975  1.00  0.00     0.031 C 
ATOM     44  C   UNL A   1      39.536  26.669  28.099  1.00  0.00     0.029 A 
ATOM     45  N   UNL A   1      41.575  27.203  28.839  1.00  0.00    -0.354 N 
ATOM     46  C   UNL A   1      42.432  31.138  30.398  1.00  0.00     0.074 A 
ATOM     47  C   UNL A   1      41.256  31.981  30.366  1.00  0.00     0.031 C 
ATOM     48  C   UNL A   1      40.322  25.597  27.918  1.00  0.00     0.029 A 
ATOM     49  C   UNL A   1      41.674  25.915  28.364  1.00  0.00     0.049 A 
ATOM     50  H   UNL A   1      42.336  27.692  29.227  1.00  0.00     0.167 HD
ATOM     51  C   UNL A   1      43.642  31.532  30.860  1.00  0.00     0.037 A 
ATOM     52  C   UNL A   1      42.734  25.086  28.286  1.00  0.00     0.037 A 
ATOM     53  C   UNL A   1      44.804  30.683  30.911  1.00  0.00     0.049 A 
ATOM     54  C   UNL A   1      44.073  25.553  28.793  1.00  0.00     0.074 A 
ATOM     55  C   UNL A   1      46.058  30.972  31.421  1.00  0.00     0.029 A 
ATOM     56  N   UNL A   1      44.860  29.383  30.431  1.00  0.00    -0.354 N 
ATOM     57  N   UNL A   1      44.395  26.707  29.328  1.00  0.00    -0.248 NA
ATOM     58  C   UNL A   1      45.191  24.606  28.692  1.00  0.00     0.031 C 
ATOM     59  C   UNL A   1      46.888  29.868  31.198  1.00  0.00     0.029 A 
ATOM     60  C   UNL A   1      46.135  28.867  30.606  1.00  0.00     0.049 A 
ATOM     61  H   UNL A   1      44.106  28.897  30.025  1.00  0.00     0.167 HD
ATOM     62  C   UNL A   1      45.744  26.611  29.655  1.00  0.00     0.074 A 
ATOM     63  C   UNL A   1      46.174  25.283  29.269  1.00  0.00     0.031 C 
ATOM     64  C   UNL A   1      46.551  27.539  30.226  1.00  0.00     0.037 A 
BRANCH  51  65
ATOM     65  C   UNL A   1      43.779  32.950  31.350  1.00  0.00     0.058 A 
ATOM     66  C   UNL A   1      44.098  34.006  30.482  1.00  0.00     0.135 A 
ATOM     67  C   UNL A   1      43.539  33.264  32.698  1.00  0.00     0.135 A 
ATOM     68  F   UNL A   1      44.352  33.763  29.186  1.00  0.00    -0.206 F 
ATOM     69  C   UNL A   1      44.201  35.317  30.936  1.00  0.00     0.059 A 
ATOM     70  C   UNL A   1      43.605  34.573  33.169  1.00  0.00     0.059 A 
ATOM     71  F   UNL A   1      43.228  32.295  33.574  1.00  0.00    -0.206 F 
ATOM     72  C   UNL A   1      43.951  35.591  32.281  1.00  0.00     0.060 A 
BRANCH  72  73
ATOM     73  S   UNL A   1      44.077  37.300  32.850  1.00  0.00     0.124 S 
ATOM     74  O   UNL A   1      45.392  37.300  33.482  1.00  0.00    -0.237 OA
ATOM     75  O   UNL A   1      43.975  38.050  31.602  1.00  0.00    -0.237 OA
ATOM     76  O   UNL A   1      42.945  37.442  33.758  1.00  0.00    -0.744 OA
ENDBRANCH  72  73
ENDBRANCH  51  65
BRANCH  52  77
ATOM     77  C   UNL A   1      42.574  23.717  27.721  1.00  0.00     0.058 A 
ATOM     78  C   UNL A   1      42.396  22.606  28.559  1.00  0.00     0.135 A 
ATOM     79  C   UNL A   1      42.594  23.491  26.336  1.00  0.00     0.135 A 
ATOM     80  F   UNL A   1      42.377  22.767  29.891  1.00  0.00    -0.206 F 
ATOM     81  C   UNL A   1      42.266  21.318  28.048  1.00  0.00     0.059 A 
ATOM     82  C   UNL A   1      42.437  22.216  25.799  1.00  0.00     0.059 A 
ATOM     83  F   UNL A   1      42.745  24.520  25.488  1.00  0.00    -0.206 F 
ATOM     84  C   UNL A   1      42.287  21.135  26.665  1.00  0.00     0.060 A 
BRANCH  84  85
ATOM     85  S   UNL A   1      42.078  19.463  26.011  1.00  0.00     0.124 S 
ATOM     86  O   UNL A   1      40.636  19.410  25.797  1.00  0.00    -0.237 OA
ATOM     87  O   UNL A   1      42.902  19.502  24.807  1.00  0.00    -0.237 OA
ATOM     88  O   UNL A   1      42.589  18.618  27.085  1.00  0.00    -0.744 OA
ENDBRANCH  84  85
ENDBRANCH  52  77
BRANCH  64  89
ATOM     89  C   UNL A   1      47.975  27.142  30.513  1.00  0.00     0.058 A 
ATOM     90  C   UNL A   1      49.013  27.394  29.602  1.00  0.00     0.135 A 
ATOM     91  C   UNL A   1      48.312  26.549  31.741  1.00  0.00     0.135 A 
ATOM     92  F   UNL A   1      48.747  27.954  28.411  1.00  0.00    -0.206 F 
ATOM     93  C   UNL A   1      50.330  27.050  29.889  1.00  0.00     0.059 A 
ATOM     94  C   UNL A   1      49.627  26.225  32.061  1.00  0.00     0.059 A 
ATOM     95  F   UNL A   1      47.360  26.295  32.653  1.00  0.00    -0.206 F 
ATOM     96  C   UNL A   1      50.628  26.469  31.123  1.00  0.00     0.060 A 
BRANCH  96  97
ATOM     97  S   UNL A   1      52.347  26.060  31.495  1.00  0.00     0.124 S 
ATOM     98  O   UNL A   1      52.964  26.157  30.176  1.00  0.00    -0.237 OA
ATOM     99  O   UNL A   1      52.717  27.102  32.447  1.00  0.00    -0.237 OA
ATOM    100  O   UNL A   1      52.263  24.712  32.051  1.00  0.00    -0.744 OA
ENDBRANCH  96  97
ENDBRANCH  64  89
ENDBRANCH  38  39
ENDBRANCH  30  33
ENDBRANCH  28  29
ENDBRANCH  27  28
ENDBRANCH   1  27
TORSDOF 17
ENDMDL
MODEL 2
REMARK VINA RESULT:     -11.8      4.672     10.154
REMARK SMILES O=C(COc1ccccc1/C=C1\C(=O)Nc2ccccc21)NCCCCNC(=O)c1ccc(-c2c3nc(c(-c4c(F)cc(S(=O)(=O)[O-])cc4F)c4ccc([nH]4)c(-c4c(F)cc(S(=O)(=O)[O-])cc4F)c4nc(c(-c5c(F)cc(S(=O)(=O)[O-])cc5F)c5ccc2[nH]5)C=C4)C=C3)cc1
REMARK SMILES IDX 24 1 23 2 22 3 1 4 2 5 3 7 4 8 5 9 6 10 10 11 7 12 9 13 8 14
REMARK SMILES IDX 11 15 12 16 13 17 21 18 14 19 15 20 16 21 20 22 17 24 19 25
REMARK SMILES IDX 18 26 25 27 26 28 27 29 28 30 29 32 30 33 31 34 95 35 32 36
REMARK SMILES IDX 94 37 33 38 34 39 35 40 88 41 36 42 93 43 87 44 89 45 37 46
REMARK SMILES IDX 92 47 86 48 85 49 38 51 72 52 51 53 71 54 52 55 55 56 70 57
REMARK SMILES IDX 90 58 53 59 54 60 69 62 91 63 56 64 39 65 40 66 49 67 41 68
REMARK SMILES IDX 42 69 48 70 50 71 43 72 44 73 45 74 46 75 47 76 73 77 74 78
REMARK SMILES IDX 83 79 75 80 76 81 82 82 84 83 77 84 78 85 79 86 80 87 81 88
REMARK SMILES IDX 57 89 58 90 67 91 59 92 60 93 66 94 68 95 61 96 62 97 63 98
REMARK SMILES IDX 64 99 65 100
REMARK H PARENT 22 6 15 23 27 31 89 50 55 61
REMARK Flexibility Score: inf
ROOT
ATOM      1  C   UNL A   1      40.269  21.361  26.132  1.00  0.00     0.023 C 
ENDROOT
BRANCH   1   2
ATOM      2  C   UNL A   1      38.773  21.377  25.881  1.00  0.00     0.116 C 
BRANCH   2   3
ATOM      3  N   UNL A   1      38.172  22.675  25.722  1.00  0.00    -0.353 N 
ATOM      4  O   UNL A   1      36.446  22.018  24.332  1.00  0.00    -0.271 OA
ATOM      5  C   UNL A   1      36.919  22.811  25.139  1.00  0.00     0.257 C 
ATOM      6  H   UNL A   1      38.655  23.475  26.031  1.00  0.00     0.163 HD
BRANCH   5   7
ATOM      7  C   UNL A   1      36.162  24.034  25.641  1.00  0.00     0.329 C 
BRANCH   7   8
ATOM      8  O   UNL A   1      35.298  24.403  24.558  1.00  0.00    -0.483 OA
BRANCH   8   9
ATOM      9  C   UNL A   1      34.112  24.963  24.959  1.00  0.00     0.127 A 
ATOM     10  C   UNL A   1      34.171  26.273  25.456  1.00  0.00     0.047 A 
ATOM     11  C   UNL A   1      32.941  24.183  25.073  1.00  0.00     0.017 A 
ATOM     12  C   UNL A   1      33.076  26.815  26.122  1.00  0.00     0.004 A 
ATOM     13  C   UNL A   1      31.906  24.717  25.853  1.00  0.00     0.012 A 
ATOM     14  C   UNL A   1      31.957  26.023  26.350  1.00  0.00     0.001 A 
BRANCH  11  15
ATOM     15  C   UNL A   1      32.802  22.831  24.463  1.00  0.00     0.026 C 
ATOM     16  C   UNL A   1      32.936  21.622  25.054  1.00  0.00     0.050 C 
ATOM     17  C   UNL A   1      33.279  21.339  26.506  1.00  0.00     0.256 C 
ATOM     18  C   UNL A   1      32.781  20.287  24.421  1.00  0.00     0.011 A 
ATOM     19  O   UNL A   1      33.416  22.108  27.443  1.00  0.00    -0.269 OA
ATOM     20  N   UNL A   1      33.401  19.967  26.601  1.00  0.00    -0.321 N 
ATOM     21  C   UNL A   1      33.084  19.343  25.407  1.00  0.00     0.049 A 
ATOM     22  C   UNL A   1      32.403  19.830  23.171  1.00  0.00     0.011 A 
ATOM     23  H   UNL A   1      33.680  19.492  27.417  1.00  0.00     0.170 HD
ATOM     24  C   UNL A   1      33.024  17.975  25.205  1.00  0.00     0.027 A 
ATOM     25  C   UNL A   1      32.296  18.447  22.944  1.00  0.00     0.001 A 
ATOM     26  C   UNL A   1      32.610  17.527  23.953  1.00  0.00     0.002 A 
ENDBRANCH  11  15
ENDBRANCH   8   9
ENDBRANCH   7   8
ENDBRANCH   5   7
ENDBRANCH   2   3
ENDBRANCH   1   2
BRANCH   1  27
ATOM     27  C   UNL A   1      40.719  22.035  27.429  1.00  0.00     0.023 C 
BRANCH  27  28
ATOM     28  C   UNL A   1      41.884  23.018  27.315  1.00  0.00     0.116 C 
BRANCH  28  29
ATOM     29  N   UNL A   1      41.790  23.899  26.160  1.00  0.00    -0.352 N 
ATOM     30  C   UNL A   1      41.528  25.249  26.097  1.00  0.00     0.251 C 
ATOM     31  H   UNL A   1      41.933  23.461  25.290  1.00  0.00     0.163 HD
ATOM     32  O   UNL A   1      41.347  25.780  25.005  1.00  0.00    -0.269 OA
BRANCH  30  33
ATOM     33  C   UNL A   1      41.433  26.056  27.335  1.00  0.00     0.039 A 
ATOM     34  C   UNL A   1      42.442  26.978  27.623  1.00  0.00     0.014 A 
ATOM     35  C   UNL A   1      40.355  25.910  28.213  1.00  0.00     0.014 A 
ATOM     36  C   UNL A   1      42.327  27.813  28.739  1.00  0.00     0.010 A 
ATOM     37  C   UNL A   1      40.202  26.797  29.279  1.00  0.00     0.010 A 
ATOM     38  C   UNL A   1      41.182  27.762  29.552  1.00  0.00    -0.014 A 
BRANCH  38  39
ATOM     39  C   UNL A   1      40.985  28.724  30.673  1.00  0.00     0.031 A 
ATOM     40  C   UNL A   1      41.819  28.621  31.923  1.00  0.00     0.074 A 
ATOM     41  C   UNL A   1      40.009  29.651  30.594  1.00  0.00     0.049 A 
ATOM     42  N   UNL A   1      41.747  29.323  33.025  1.00  0.00    -0.248 NA
ATOM     43  C   UNL A   1      42.854  27.575  31.948  1.00  0.00     0.031 C 
ATOM     44  C   UNL A   1      39.100  29.829  29.459  1.00  0.00     0.029 A 
ATOM     45  N   UNL A   1      39.607  30.614  31.488  1.00  0.00    -0.354 N 
ATOM     46  C   UNL A   1      42.712  28.797  33.877  1.00  0.00     0.074 A 
ATOM     47  C   UNL A   1      43.322  27.684  33.184  1.00  0.00     0.031 C 
ATOM     48  C   UNL A   1      38.268  30.851  29.713  1.00  0.00     0.029 A 
ATOM     49  C   UNL A   1      38.550  31.376  31.046  1.00  0.00     0.049 A 
ATOM     50  H   UNL A   1      40.036  30.746  32.364  1.00  0.00     0.167 HD
ATOM     51  C   UNL A   1      43.071  29.217  35.114  1.00  0.00     0.037 A 
ATOM     52  C   UNL A   1      37.875  32.376  31.646  1.00  0.00     0.037 A 
ATOM     53  C   UNL A   1      42.477  30.340  35.791  1.00  0.00     0.049 A 
ATOM     54  C   UNL A   1      38.284  32.814  33.028  1.00  0.00     0.074 A 
ATOM     55  C   UNL A   1      42.816  30.881  37.020  1.00  0.00     0.029 A 
ATOM     56  N   UNL A   1      41.416  31.091  35.305  1.00  0.00    -0.354 N 
ATOM     57  N   UNL A   1      39.247  32.350  33.789  1.00  0.00    -0.248 NA
ATOM     58  C   UNL A   1      37.520  33.914  33.631  1.00  0.00     0.031 C 
ATOM     59  C   UNL A   1      41.926  31.922  37.302  1.00  0.00     0.029 A 
ATOM     60  C   UNL A   1      41.071  32.072  36.222  1.00  0.00     0.049 A 
ATOM     61  H   UNL A   1      40.974  30.949  34.437  1.00  0.00     0.167 HD
ATOM     62  C   UNL A   1      39.224  33.123  34.945  1.00  0.00     0.074 A 
ATOM     63  C   UNL A   1      38.160  34.091  34.779  1.00  0.00     0.031 C 
ATOM     64  C   UNL A   1      40.015  33.038  36.044  1.00  0.00     0.037 A 
BRANCH  51  65
ATOM     65  C   UNL A   1      44.161  28.458  35.824  1.00  0.00     0.058 A 
ATOM     66  C   UNL A   1      43.878  27.380  36.678  1.00  0.00     0.135 A 
ATOM     67  C   UNL A   1      45.512  28.781  35.608  1.00  0.00     0.135 A 
ATOM     68  F   UNL A   1      42.605  27.035  36.932  1.00  0.00    -0.206 F 
ATOM     69  C   UNL A   1      44.890  26.668  37.313  1.00  0.00     0.059 A 
ATOM     70  C   UNL A   1      46.542  28.062  36.209  1.00  0.00     0.059 A 
ATOM     71  F   UNL A   1      45.843  29.801  34.801  1.00  0.00    -0.206 F 
ATOM     72  C   UNL A   1      46.219  27.015  37.071  1.00  0.00     0.060 A 
BRANCH  72  73
ATOM     73  S   UNL A   1      47.520  26.072  37.895  1.00  0.00     0.124 S 
ATOM     74  O   UNL A   1      46.738  25.136  38.697  1.00  0.00    -0.237 OA
ATOM     75  O   UNL A   1      48.243  25.491  36.769  1.00  0.00    -0.237 OA
ATOM     76  O   UNL A   1      48.250  27.085  38.650  1.00  0.00    -0.744 OA
ENDBRANCH  72  73
ENDBRANCH  51  65
BRANCH  52  77
ATOM     77  C   UNL A   1      36.749  33.049  30.940  1.00  0.00     0.058 A 
ATOM     78  C   UNL A   1      36.992  33.988  29.926  1.00  0.00     0.135 A 
ATOM     79  C   UNL A   1      35.412  32.769  31.261  1.00  0.00     0.135 A 
ATOM     80  F   UNL A   1      38.253  34.297  29.586  1.00  0.00    -0.206 F 
ATOM     81  C   UNL A   1      35.953  34.642  29.272  1.00  0.00     0.059 A 
ATOM     82  C   UNL A   1      34.355  33.388  30.601  1.00  0.00     0.059 A 
ATOM     83  F   UNL A   1      35.124  31.868  32.213  1.00  0.00    -0.206 F 
ATOM     84  C   UNL A   1      34.637  34.333  29.616  1.00  0.00     0.060 A 
BRANCH  84  85
ATOM     85  S   UNL A   1      33.294  35.159  28.732  1.00  0.00     0.124 S 
ATOM     86  O   UNL A   1      32.525  35.727  29.832  1.00  0.00    -0.237 OA
ATOM     87  O   UNL A   1      34.020  36.113  27.899  1.00  0.00    -0.237 OA
ATOM     88  O   UNL A   1      32.650  34.068  28.008  1.00  0.00    -0.744 OA
ENDBRANCH  84  85
ENDBRANCH  52  77
BRANCH  64  89
ATOM     89  C   UNL A   1      39.794  34.046  37.140  1.00  0.00     0.058 A 
ATOM     90  C   UNL A   1      39.034  33.746  38.281  1.00  0.00     0.135 A 
ATOM     91  C   UNL A   1      40.399  35.313  37.071  1.00  0.00     0.135 A 
ATOM     92  F   UNL A   1      38.429  32.554  38.397  1.00  0.00    -0.206 F 
ATOM     93  C   UNL A   1      38.860  34.675  39.303  1.00  0.00     0.059 A 
ATOM     94  C   UNL A   1      40.264  36.245  38.095  1.00  0.00     0.059 A 
ATOM     95  F   UNL A   1      41.145  35.648  36.007  1.00  0.00    -0.206 F 
ATOM     96  C   UNL A   1      39.482  35.921  39.202  1.00  0.00     0.060 A 
BRANCH  96  97
ATOM     97  S   UNL A   1      39.276  37.103  40.552  1.00  0.00     0.124 S 
ATOM     98  O   UNL A   1      38.537  36.309  41.527  1.00  0.00    -0.237 OA
ATOM     99  O   UNL A   1      40.658  37.416  40.904  1.00  0.00    -0.237 OA
ATOM    100  O   UNL A   1      38.529  38.196  39.935  1.00  0.00    -0.744 OA
ENDBRANCH  96  97
ENDBRANCH  64  89
ENDBRANCH  38  39
ENDBRANCH  30  33
ENDBRANCH  28  29
ENDBRANCH  27  28
ENDBRANCH   1  27
TORSDOF 17
ENDMDL
MODEL 3
REMARK VINA RESULT:     -11.7      3.362      8.941
REMARK SMILES O=C(COc1ccccc1/C=C1\C(=O)Nc2ccccc21)NCCCCNC(=O)c1ccc(-c2c3nc(c(-c4c(F)cc(S(=O)(=O)[O-])cc4F)c4ccc([nH]4)c(-c4c(F)cc(S(=O)(=O)[O-])cc4F)c4nc(c(-c5c(F)cc(S(=O)(=O)[O-])cc5F)c5ccc2[nH]5)C=C4)C=C3)cc1
REMARK SMILES IDX 24 1 23 2 22 3 1 4 2 5 3 7 4 8 5 9 6 10 10 11 7 12 9 13 8 14
REMARK SMILES IDX 11 15 12 16 13 17 21 18 14 19 15 20 16 21 20 22 17 24 19 25
REMARK SMILES IDX 18 26 25 27 26 28 27 29 28 30 29 32 30 33 31 34 95 35 32 36
REMARK SMILES IDX 94 37 33 38 34 39 35 40 88 41 36 42 93 43 87 44 89 45 37 46
REMARK SMILES IDX 92 47 86 48 85 49 38 51 72 52 51 53 71 54 52 55 55 56 70 57
REMARK SMILES IDX 90 58 53 59 54 60 69 62 91 63 56 64 39 65 40 66 49 67 41 68
REMARK SMILES IDX 42 69 48 70 50 71 43 72 44 73 45 74 46 75 47 76 73 77 74 78
REMARK SMILES IDX 83 79 75 80 76 81 82 82 84 83 77 84 78 85 79 86 80 87 81 88
REMARK SMILES IDX 57 89 58 90 67 91 59 92 60 93 66 94 68 95 61 96 62 97 63 98
REMARK SMILES IDX 64 99 65 100
REMARK H PARENT 22 6 15 23 27 31 89 50 55 61
REMARK Flexibility Score: inf
ROOT
ATOM      1  C   UNL A   1      37.378  20.989  24.665  1.00  0.00     0.023 C 
ENDROOT
BRANCH   1   2
ATOM      2  C   UNL A   1      36.379  21.287  25.767  1.00  0.00     0.116 C 
BRANCH   2   3
ATOM      3  N   UNL A   1      35.455  22.360  25.511  1.00  0.00    -0.353 N 
ATOM      4  O   UNL A   1      36.861  24.092  26.114  1.00  0.00    -0.271 OA
ATOM      5  C   UNL A   1      35.886  23.680  25.497  1.00  0.00     0.257 C 
ATOM      6  H   UNL A   1      34.507  22.155  25.345  1.00  0.00     0.163 HD
BRANCH   5   7
ATOM      7  C   UNL A   1      35.043  24.567  24.589  1.00  0.00     0.329 C 
BRANCH   7   8
ATOM      8  O   UNL A   1      34.361  23.658  23.716  1.00  0.00    -0.483 OA
BRANCH   8   9
ATOM      9  C   UNL A   1      33.085  24.044  23.398  1.00  0.00     0.127 A 
ATOM     10  C   UNL A   1      32.824  25.422  23.405  1.00  0.00     0.047 A 
ATOM     11  C   UNL A   1      32.043  23.098  23.291  1.00  0.00     0.017 A 
ATOM     12  C   UNL A   1      31.512  25.883  23.355  1.00  0.00     0.004 A 
ATOM     13  C   UNL A   1      30.734  23.594  23.366  1.00  0.00     0.012 A 
ATOM     14  C   UNL A   1      30.467  24.967  23.371  1.00  0.00     0.001 A 
BRANCH  11  15
ATOM     15  C   UNL A   1      32.285  21.633  23.170  1.00  0.00     0.026 C 
ATOM     16  C   UNL A   1      32.511  20.732  24.153  1.00  0.00     0.050 C 
ATOM     17  C   UNL A   1      32.587  20.997  25.647  1.00  0.00     0.256 C 
ATOM     18  C   UNL A   1      32.739  19.272  24.003  1.00  0.00     0.011 A 
ATOM     19  O   UNL A   1      32.382  22.024  26.272  1.00  0.00    -0.269 OA
ATOM     20  N   UNL A   1      32.936  19.793  26.223  1.00  0.00    -0.321 N 
ATOM     21  C   UNL A   1      32.995  18.776  25.285  1.00  0.00     0.049 A 
ATOM     22  C   UNL A   1      32.722  18.378  22.947  1.00  0.00     0.011 A 
ATOM     23  H   UNL A   1      33.119  19.671  27.183  1.00  0.00     0.170 HD
ATOM     24  C   UNL A   1      33.231  17.440  25.560  1.00  0.00     0.027 A 
ATOM     25  C   UNL A   1      32.920  17.010  23.197  1.00  0.00     0.001 A 
ATOM     26  C   UNL A   1      33.178  16.545  24.494  1.00  0.00     0.002 A 
ENDBRANCH  11  15
ENDBRANCH   8   9
ENDBRANCH   7   8
ENDBRANCH   5   7
ENDBRANCH   2   3
ENDBRANCH   1   2
BRANCH   1  27
ATOM     27  C   UNL A   1      38.386  19.882  24.982  1.00  0.00     0.023 C 
BRANCH  27  28
ATOM     28  C   UNL A   1      39.512  20.247  25.949  1.00  0.00     0.116 C 
BRANCH  28  29
ATOM     29  N   UNL A   1      40.516  19.203  26.093  1.00  0.00    -0.352 N 
ATOM     30  C   UNL A   1      41.876  19.306  26.277  1.00  0.00     0.251 C 
ATOM     31  H   UNL A   1      40.169  18.283  26.050  1.00  0.00     0.163 HD
ATOM     32  O   UNL A   1      42.572  18.294  26.228  1.00  0.00    -0.269 OA
BRANCH  30  33
ATOM     33  C   UNL A   1      42.509  20.626  26.500  1.00  0.00     0.039 A 
ATOM     34  C   UNL A   1      43.018  21.327  25.403  1.00  0.00     0.014 A 
ATOM     35  C   UNL A   1      42.604  21.178  27.780  1.00  0.00     0.014 A 
ATOM     36  C   UNL A   1      43.538  22.614  25.578  1.00  0.00     0.010 A 
ATOM     37  C   UNL A   1      43.048  22.490  27.942  1.00  0.00     0.010 A 
ATOM     38  C   UNL A   1      43.516  23.226  26.843  1.00  0.00    -0.014 A 
BRANCH  38  39
ATOM     39  C   UNL A   1      43.953  24.638  27.027  1.00  0.00     0.031 A 
ATOM     40  C   UNL A   1      45.400  25.018  26.852  1.00  0.00     0.074 A 
ATOM     41  C   UNL A   1      43.059  25.569  27.418  1.00  0.00     0.049 A 
ATOM     42  N   UNL A   1      45.978  26.178  27.035  1.00  0.00    -0.248 NA
ATOM     43  C   UNL A   1      46.324  23.948  26.442  1.00  0.00     0.031 C 
ATOM     44  C   UNL A   1      41.636  25.324  27.667  1.00  0.00     0.029 A 
ATOM     45  N   UNL A   1      43.212  26.908  27.686  1.00  0.00    -0.354 N 
ATOM     46  C   UNL A   1      47.330  25.977  26.778  1.00  0.00     0.074 A 
ATOM     47  C   UNL A   1      47.494  24.571  26.476  1.00  0.00     0.031 C 
ATOM     48  C   UNL A   1      41.045  26.475  28.024  1.00  0.00     0.029 A 
ATOM     49  C   UNL A   1      42.049  27.532  28.075  1.00  0.00     0.049 A 
ATOM     50  H   UNL A   1      44.074  27.377  27.607  1.00  0.00     0.167 HD
ATOM     51  C   UNL A   1      48.337  26.882  26.772  1.00  0.00     0.037 A 
ATOM     52  C   UNL A   1      41.817  28.808  28.443  1.00  0.00     0.037 A 
ATOM     53  C   UNL A   1      48.165  28.285  27.051  1.00  0.00     0.049 A 
ATOM     54  C   UNL A   1      42.957  29.793  28.443  1.00  0.00     0.074 A 
ATOM     55  C   UNL A   1      49.113  29.292  27.008  1.00  0.00     0.029 A 
ATOM     56  N   UNL A   1      46.970  28.879  27.431  1.00  0.00    -0.354 N 
ATOM     57  N   UNL A   1      44.215  29.598  28.128  1.00  0.00    -0.248 NA
ATOM     58  C   UNL A   1      42.646  31.172  28.844  1.00  0.00     0.031 C 
ATOM     59  C   UNL A   1      48.506  30.484  27.416  1.00  0.00     0.029 A 
ATOM     60  C   UNL A   1      47.164  30.233  27.654  1.00  0.00     0.049 A 
ATOM     61  H   UNL A   1      46.111  28.408  27.529  1.00  0.00     0.167 HD
ATOM     62  C   UNL A   1      44.837  30.835  28.261  1.00  0.00     0.074 A 
ATOM     63  C   UNL A   1      43.814  31.774  28.674  1.00  0.00     0.031 C 
ATOM     64  C   UNL A   1      46.137  31.163  28.056  1.00  0.00     0.037 A 
BRANCH  51  65
ATOM     65  C   UNL A   1      49.724  26.389  26.455  1.00  0.00     0.058 A 
ATOM     66  C   UNL A   1      50.553  25.827  27.439  1.00  0.00     0.135 A 
ATOM     67  C   UNL A   1      50.212  26.432  25.139  1.00  0.00     0.135 A 
ATOM     68  F   UNL A   1      50.144  25.772  28.717  1.00  0.00    -0.206 F 
ATOM     69  C   UNL A   1      51.825  25.351  27.136  1.00  0.00     0.059 A 
ATOM     70  C   UNL A   1      51.469  25.933  24.806  1.00  0.00     0.059 A 
ATOM     71  F   UNL A   1      49.464  26.956  24.156  1.00  0.00    -0.206 F 
ATOM     72  C   UNL A   1      52.274  25.407  25.817  1.00  0.00     0.060 A 
BRANCH  72  73
ATOM     73  S   UNL A   1      53.922  24.774  25.440  1.00  0.00     0.124 S 
ATOM     74  O   UNL A   1      54.608  24.974  26.712  1.00  0.00    -0.237 OA
ATOM     75  O   UNL A   1      53.647  23.387  25.080  1.00  0.00    -0.237 OA
ATOM     76  O   UNL A   1      54.372  25.626  24.344  1.00  0.00    -0.744 OA
ENDBRANCH  72  73
ENDBRANCH  51  65
BRANCH  52  77
ATOM     77  C   UNL A   1      40.444  29.239  28.827  1.00  0.00     0.058 A 
ATOM     78  C   UNL A   1      40.094  29.423  30.173  1.00  0.00     0.135 A 
ATOM     79  C   UNL A   1      39.454  29.475  27.860  1.00  0.00     0.135 A 
ATOM     80  F   UNL A   1      41.002  29.202  31.137  1.00  0.00    -0.206 F 
ATOM     81  C   UNL A   1      38.811  29.803  30.550  1.00  0.00     0.059 A 
ATOM     82  C   UNL A   1      38.171  29.885  28.210  1.00  0.00     0.059 A 
ATOM     83  F   UNL A   1      39.739  29.329  26.557  1.00  0.00    -0.206 F 
ATOM     84  C   UNL A   1      37.856  30.033  29.559  1.00  0.00     0.060 A 
BRANCH  84  85
ATOM     85  S   UNL A   1      36.203  30.566  30.057  1.00  0.00     0.124 S 
ATOM     86  O   UNL A   1      35.440  30.337  28.836  1.00  0.00    -0.237 OA
ATOM     87  O   UNL A   1      35.915  29.666  31.170  1.00  0.00    -0.237 OA
ATOM     88  O   UNL A   1      36.399  31.964  30.427  1.00  0.00    -0.744 OA
ENDBRANCH  84  85
ENDBRANCH  52  77
BRANCH  64  89
ATOM     89  C   UNL A   1      46.527  32.606  28.232  1.00  0.00     0.058 A 
ATOM     90  C   UNL A   1      47.085  33.083  29.428  1.00  0.00     0.135 A 
ATOM     91  C   UNL A   1      46.390  33.512  27.167  1.00  0.00     0.135 A 
ATOM     92  F   UNL A   1      47.234  32.263  30.480  1.00  0.00    -0.206 F 
ATOM     93  C   UNL A   1      47.470  34.413  29.570  1.00  0.00     0.059 A 
ATOM     94  C   UNL A   1      46.797  34.838  27.277  1.00  0.00     0.059 A 
ATOM     95  F   UNL A   1      45.872  33.107  25.997  1.00  0.00    -0.206 F 
ATOM     96  C   UNL A   1      47.325  35.282  28.488  1.00  0.00     0.060 A 
BRANCH  96  97
ATOM     97  S   UNL A   1      47.861  36.996  28.676  1.00  0.00     0.124 S 
ATOM     98  O   UNL A   1      49.302  36.838  28.838  1.00  0.00    -0.237 OA
ATOM     99  O   UNL A   1      47.426  37.599  27.420  1.00  0.00    -0.237 OA
ATOM    100  O   UNL A   1      47.141  37.449  29.864  1.00  0.00    -0.744 OA
ENDBRANCH  96  97
ENDBRANCH  64  89
ENDBRANCH  38  39
ENDBRANCH  30  33
ENDBRANCH  28  29
ENDBRANCH  27  28
ENDBRANCH   1  27
TORSDOF 17
ENDMDL
