MODEL 1
REMARK VINA RESULT:     -11.1      0.000      0.000
REMARK SMILES COc1ccc(OCc2nc(C)no2)c(/C=C/C(=O)NCCCCNC(=O)c2ccc(-c3c4nc(c(-c5c(F)cc(S(=O)(=O)[O-])cc5F)c5ccc([nH]5)c(-c5c(F)cc(S(=O)(=O)[O-])cc5F)c5nc(c(-c6c(F)cc(S(=O)(=O)[O-])cc6F)c6ccc3[nH]6)C=C5)C=C4)cc2)c1
REMARK SMILES IDX 22 1 21 2 20 3 18 4 19 5 17 7 16 8 15 9 3 10 4 11 94 12 5 13
REMARK SMILES IDX 6 14 2 15 1 16 7 17 8 18 9 19 10 20 14 21 11 22 13 23 12 24
REMARK SMILES IDX 23 25 24 26 25 27 26 28 27 30 28 31 29 32 93 33 30 34 92 35
REMARK SMILES IDX 31 36 32 37 33 38 86 39 34 40 91 41 85 42 87 43 35 44 90 45
REMARK SMILES IDX 84 46 83 47 36 49 70 50 49 51 69 52 50 53 53 54 68 55 88 56
REMARK SMILES IDX 51 57 52 58 67 60 89 61 54 62 37 63 38 64 47 65 39 66 40 67
REMARK SMILES IDX 46 68 48 69 41 70 42 71 43 72 44 73 45 74 71 75 72 76 81 77
REMARK SMILES IDX 73 78 74 79 80 80 82 81 75 82 76 83 77 84 78 85 79 86 55 87
REMARK SMILES IDX 56 88 65 89 57 90 58 91 64 92 66 93 59 94 60 95 61 96 62 97
REMARK SMILES IDX 63 98
REMARK H PARENT 20 6 25 29 87 48 53 59
REMARK Flexibility Score: inf
ROOT
ATOM      1  C   UNL A   1      31.479  27.454  26.855  1.00  0.00     0.023 C 
ENDROOT
BRANCH   1   2
ATOM      2  C   UNL A   1      30.611  26.586  25.949  1.00  0.00     0.116 C 
BRANCH   2   3
ATOM      3  N   UNL A   1      30.144  25.393  26.627  1.00  0.00    -0.353 N 
ATOM      4  C   UNL A   1      30.737  24.195  26.857  1.00  0.00     0.244 C 
ATOM      5  O   UNL A   1      30.070  23.282  27.343  1.00  0.00    -0.270 OA
ATOM      6  H   UNL A   1      29.231  25.466  26.986  1.00  0.00     0.163 HD
BRANCH   4   7
ATOM      7  C   UNL A   1      32.170  23.924  26.568  1.00  0.00     0.072 C 
ATOM      8  C   UNL A   1      32.603  23.449  25.395  1.00  0.00     0.018 C 
BRANCH   8   9
ATOM      9  C   UNL A   1      33.976  23.505  24.878  1.00  0.00     0.020 A 
ATOM     10  C   UNL A   1      36.322  23.690  25.536  1.00  0.00     0.119 A 
ATOM     11  C   UNL A   1      36.715  23.397  24.238  1.00  0.00     0.050 A 
ATOM     12  C   UNL A   1      34.965  23.795  25.842  1.00  0.00     0.058 A 
ATOM     13  C   UNL A   1      35.748  23.115  23.275  1.00  0.00     0.051 A 
ATOM     14  C   UNL A   1      34.378  23.107  23.590  1.00  0.00     0.127 A 
BRANCH  10  15
ATOM     15  O   UNL A   1      37.322  23.882  26.451  1.00  0.00    -0.497 OA
ATOM     16  C   UNL A   1      38.485  23.098  26.175  1.00  0.00     0.278 C 
ENDBRANCH  10  15
BRANCH  14  17
ATOM     17  O   UNL A   1      33.651  22.611  22.544  1.00  0.00    -0.483 OA
BRANCH  17  18
ATOM     18  C   UNL A   1      33.088  23.401  21.493  1.00  0.00     0.329 C 
BRANCH  18  19
ATOM     19  C   UNL A   1      32.914  24.840  21.841  1.00  0.00     0.264 A 
ATOM     20  N   UNL A   1      33.777  25.828  21.723  1.00  0.00    -0.193 NA
ATOM     21  O   UNL A   1      31.758  25.225  22.458  1.00  0.00    -0.336 OA
ATOM     22  C   UNL A   1      33.126  26.861  22.349  1.00  0.00     0.169 A 
ATOM     23  N   UNL A   1      31.914  26.558  22.825  1.00  0.00    -0.063 NA
ATOM     24  C   UNL A   1      33.709  28.207  22.477  1.00  0.00     0.093 C 
ENDBRANCH  18  19
ENDBRANCH  17  18
ENDBRANCH  14  17
ENDBRANCH   8   9
ENDBRANCH   4   7
ENDBRANCH   2   3
ENDBRANCH   1   2
BRANCH   1  25
ATOM     25  C   UNL A   1      32.724  28.002  26.155  1.00  0.00     0.023 C 
BRANCH  25  26
ATOM     26  C   UNL A   1      33.839  28.451  27.095  1.00  0.00     0.116 C 
BRANCH  26  27
ATOM     27  N   UNL A   1      33.683  29.822  27.559  1.00  0.00    -0.352 N 
ATOM     28  C   UNL A   1      34.610  30.602  28.206  1.00  0.00     0.251 C 
ATOM     29  H   UNL A   1      32.809  30.240  27.390  1.00  0.00     0.163 HD
ATOM     30  O   UNL A   1      34.305  31.709  28.636  1.00  0.00    -0.269 OA
BRANCH  28  31
ATOM     31  C   UNL A   1      35.967  30.061  28.408  1.00  0.00     0.039 A 
ATOM     32  C   UNL A   1      36.886  30.139  27.361  1.00  0.00     0.014 A 
ATOM     33  C   UNL A   1      36.340  29.545  29.652  1.00  0.00     0.014 A 
ATOM     34  C   UNL A   1      38.208  29.752  27.582  1.00  0.00     0.010 A 
ATOM     35  C   UNL A   1      37.672  29.220  29.887  1.00  0.00     0.010 A 
ATOM     36  C   UNL A   1      38.616  29.322  28.855  1.00  0.00    -0.014 A 
BRANCH  36  37
ATOM     37  C   UNL A   1      40.033  28.975  29.128  1.00  0.00     0.031 A 
ATOM     38  C   UNL A   1      40.945  29.993  29.754  1.00  0.00     0.074 A 
ATOM     39  C   UNL A   1      40.507  27.771  28.749  1.00  0.00     0.049 A 
ATOM     40  N   UNL A   1      42.225  29.908  30.006  1.00  0.00    -0.248 NA
ATOM     41  C   UNL A   1      40.346  31.289  30.118  1.00  0.00     0.031 C 
ATOM     42  C   UNL A   1      39.728  26.725  28.082  1.00  0.00     0.029 A 
ATOM     43  N   UNL A   1      41.761  27.228  28.858  1.00  0.00    -0.354 N 
ATOM     44  C   UNL A   1      42.589  31.139  30.538  1.00  0.00     0.074 A 
ATOM     45  C   UNL A   1      41.406  31.970  30.532  1.00  0.00     0.031 C 
ATOM     46  C   UNL A   1      40.517  25.660  27.861  1.00  0.00     0.029 A 
ATOM     47  C   UNL A   1      41.863  25.958  28.339  1.00  0.00     0.049 A 
ATOM     48  H   UNL A   1      42.519  27.703  29.271  1.00  0.00     0.167 HD
ATOM     49  C   UNL A   1      43.795  31.531  31.009  1.00  0.00     0.037 A 
ATOM     50  C   UNL A   1      42.924  25.132  28.255  1.00  0.00     0.037 A 
ATOM     51  C   UNL A   1      44.956  30.681  31.054  1.00  0.00     0.049 A 
ATOM     52  C   UNL A   1      44.248  25.588  28.808  1.00  0.00     0.074 A 
ATOM     53  C   UNL A   1      46.203  30.957  31.584  1.00  0.00     0.029 A 
ATOM     54  N   UNL A   1      45.010  29.389  30.551  1.00  0.00    -0.354 N 
ATOM     55  N   UNL A   1      44.555  26.729  29.378  1.00  0.00    -0.248 NA
ATOM     56  C   UNL A   1      45.369  24.642  28.713  1.00  0.00     0.031 C 
ATOM     57  C   UNL A   1      47.024  29.844  31.370  1.00  0.00     0.029 A 
ATOM     58  C   UNL A   1      46.275  28.861  30.744  1.00  0.00     0.049 A 
ATOM     59  H   UNL A   1      44.260  28.917  30.122  1.00  0.00     0.167 HD
ATOM     60  C   UNL A   1      45.894  26.626  29.737  1.00  0.00     0.074 A 
ATOM     61  C   UNL A   1      46.336  25.308  29.331  1.00  0.00     0.031 C 
ATOM     62  C   UNL A   1      46.687  27.538  30.349  1.00  0.00     0.037 A 
BRANCH  49  63
ATOM     63  C   UNL A   1      43.925  32.934  31.531  1.00  0.00     0.058 A 
ATOM     64  C   UNL A   1      44.192  34.015  30.677  1.00  0.00     0.135 A 
ATOM     65  C   UNL A   1      43.721  33.209  32.894  1.00  0.00     0.135 A 
ATOM     66  F   UNL A   1      44.413  33.805  29.370  1.00  0.00    -0.206 F 
ATOM     67  C   UNL A   1      44.264  35.318  31.156  1.00  0.00     0.059 A 
ATOM     68  C   UNL A   1      43.764  34.508  33.390  1.00  0.00     0.059 A 
ATOM     69  F   UNL A   1      43.468  32.210  33.754  1.00  0.00    -0.206 F 
ATOM     70  C   UNL A   1      44.045  35.555  32.514  1.00  0.00     0.060 A 
BRANCH  70  71
ATOM     71  S   UNL A   1      44.110  37.258  33.113  1.00  0.00     0.124 S 
ATOM     72  O   UNL A   1      45.318  37.232  33.930  1.00  0.00    -0.237 OA
ATOM     73  O   UNL A   1      44.200  38.021  31.872  1.00  0.00    -0.237 OA
ATOM     74  O   UNL A   1      42.858  37.408  33.848  1.00  0.00    -0.744 OA
ENDBRANCH  70  71
ENDBRANCH  49  63
BRANCH  50  75
ATOM     75  C   UNL A   1      42.782  23.784  27.645  1.00  0.00     0.058 A 
ATOM     76  C   UNL A   1      42.449  22.669  28.431  1.00  0.00     0.135 A 
ATOM     77  C   UNL A   1      42.996  23.575  26.274  1.00  0.00     0.135 A 
ATOM     78  F   UNL A   1      42.237  22.818  29.747  1.00  0.00    -0.206 F 
ATOM     79  C   UNL A   1      42.365  21.392  27.887  1.00  0.00     0.059 A 
ATOM     80  C   UNL A   1      42.894  22.311  25.703  1.00  0.00     0.059 A 
ATOM     81  F   UNL A   1      43.297  24.610  25.476  1.00  0.00    -0.206 F 
ATOM     82  C   UNL A   1      42.596  21.222  26.521  1.00  0.00     0.060 A 
BRANCH  82  83
ATOM     83  S   UNL A   1      42.473  19.562  25.820  1.00  0.00     0.124 S 
ATOM     84  O   UNL A   1      43.431  19.636  24.723  1.00  0.00    -0.237 OA
ATOM     85  O   UNL A   1      42.858  18.720  26.949  1.00  0.00    -0.237 OA
ATOM     86  O   UNL A   1      41.069  19.469  25.429  1.00  0.00    -0.744 OA
ENDBRANCH  82  83
ENDBRANCH  50  75
BRANCH  62  87
ATOM     87  C   UNL A   1      48.100  27.130  30.657  1.00  0.00     0.058 A 
ATOM     88  C   UNL A   1      49.181  27.566  29.875  1.00  0.00     0.135 A 
ATOM     89  C   UNL A   1      48.379  26.338  31.783  1.00  0.00     0.135 A 
ATOM     90  F   UNL A   1      48.966  28.320  28.786  1.00  0.00    -0.206 F 
ATOM     91  C   UNL A   1      50.489  27.214  30.187  1.00  0.00     0.059 A 
ATOM     92  C   UNL A   1      49.682  25.995  32.127  1.00  0.00     0.059 A 
ATOM     93  F   UNL A   1      47.381  25.905  32.569  1.00  0.00    -0.206 F 
ATOM     94  C   UNL A   1      50.730  26.429  31.317  1.00  0.00     0.060 A 
BRANCH  94  95
ATOM     95  S   UNL A   1      52.436  26.009  31.733  1.00  0.00     0.124 S 
ATOM     96  O   UNL A   1      53.004  25.749  30.414  1.00  0.00    -0.237 OA
ATOM     97  O   UNL A   1      52.904  27.221  32.398  1.00  0.00    -0.237 OA
ATOM     98  O   UNL A   1      52.295  24.841  32.598  1.00  0.00    -0.744 OA
ENDBRANCH  94  95
ENDBRANCH  62  87
ENDBRANCH  36  37
ENDBRANCH  28  31
ENDBRANCH  26  27
ENDBRANCH  25  26
ENDBRANCH   1  25
TORSDOF 19
ENDMDL
MODEL 2
REMARK VINA RESULT:     -10.8      3.337      4.595
REMARK SMILES COc1ccc(OCc2nc(C)no2)c(/C=C/C(=O)NCCCCNC(=O)c2ccc(-c3c4nc(c(-c5c(F)cc(S(=O)(=O)[O-])cc5F)c5ccc([nH]5)c(-c5c(F)cc(S(=O)(=O)[O-])cc5F)c5nc(c(-c6c(F)cc(S(=O)(=O)[O-])cc6F)c6ccc3[nH]6)C=C5)C=C4)cc2)c1
REMARK SMILES IDX 22 1 21 2 20 3 18 4 19 5 17 7 16 8 15 9 3 10 4 11 94 12 5 13
REMARK SMILES IDX 6 14 2 15 1 16 7 17 8 18 9 19 10 20 14 21 11 22 13 23 12 24
REMARK SMILES IDX 23 25 24 26 25 27 26 28 27 30 28 31 29 32 93 33 30 34 92 35
REMARK SMILES IDX 31 36 32 37 33 38 86 39 34 40 91 41 85 42 87 43 35 44 90 45
REMARK SMILES IDX 84 46 83 47 36 49 70 50 49 51 69 52 50 53 53 54 68 55 88 56
REMARK SMILES IDX 51 57 52 58 67 60 89 61 54 62 37 63 38 64 47 65 39 66 40 67
REMARK SMILES IDX 46 68 48 69 41 70 42 71 43 72 44 73 45 74 71 75 72 76 81 77
REMARK SMILES IDX 73 78 74 79 80 80 82 81 75 82 76 83 77 84 78 85 79 86 55 87
REMARK SMILES IDX 56 88 65 89 57 90 58 91 64 92 66 93 59 94 60 95 61 96 62 97
REMARK SMILES IDX 63 98
REMARK H PARENT 20 6 25 29 87 48 53 59
REMARK Flexibility Score: inf
ROOT
ATOM      1  C   UNL A   1      34.172  33.048  28.642  1.00  0.00     0.023 C 
ENDROOT
BRANCH   1   2
ATOM      2  C   UNL A   1      33.846  31.930  27.656  1.00  0.00     0.116 C 
BRANCH   2   3
ATOM      3  N   UNL A   1      34.863  30.897  27.655  1.00  0.00    -0.353 N 
ATOM      4  C   UNL A   1      34.833  29.603  27.248  1.00  0.00     0.244 C 
ATOM      5  O   UNL A   1      35.803  28.881  27.482  1.00  0.00    -0.270 OA
ATOM      6  H   UNL A   1      35.732  31.186  28.014  1.00  0.00     0.163 HD
BRANCH   4   7
ATOM      7  C   UNL A   1      33.690  29.004  26.509  1.00  0.00     0.072 C 
ATOM      8  C   UNL A   1      33.750  27.809  25.912  1.00  0.00     0.018 C 
BRANCH   8   9
ATOM      9  C   UNL A   1      32.614  26.975  25.502  1.00  0.00     0.020 A 
ATOM     10  C   UNL A   1      31.125  25.178  26.228  1.00  0.00     0.119 A 
ATOM     11  C   UNL A   1      30.315  25.395  25.123  1.00  0.00     0.050 A 
ATOM     12  C   UNL A   1      32.293  25.926  26.389  1.00  0.00     0.058 A 
ATOM     13  C   UNL A   1      30.625  26.424  24.236  1.00  0.00     0.051 A 
ATOM     14  C   UNL A   1      31.736  27.261  24.440  1.00  0.00     0.127 A 
BRANCH  10  15
ATOM     15  O   UNL A   1      30.725  24.203  27.101  1.00  0.00    -0.497 OA
ATOM     16  C   UNL A   1      30.766  22.895  26.527  1.00  0.00     0.278 C 
ENDBRANCH  10  15
BRANCH  14  17
ATOM     17  O   UNL A   1      31.714  28.306  23.559  1.00  0.00    -0.483 OA
BRANCH  17  18
ATOM     18  C   UNL A   1      30.914  28.361  22.374  1.00  0.00     0.329 C 
BRANCH  18  19
ATOM     19  C   UNL A   1      29.835  29.387  22.417  1.00  0.00     0.264 A 
ATOM     20  N   UNL A   1      29.317  29.997  23.464  1.00  0.00    -0.193 NA
ATOM     21  O   UNL A   1      29.192  29.706  21.255  1.00  0.00    -0.336 OA
ATOM     22  C   UNL A   1      28.269  30.688  22.910  1.00  0.00     0.169 A 
ATOM     23  N   UNL A   1      28.133  30.543  21.588  1.00  0.00    -0.063 NA
ATOM     24  C   UNL A   1      27.368  31.538  23.706  1.00  0.00     0.093 C 
ENDBRANCH  18  19
ENDBRANCH  17  18
ENDBRANCH  14  17
ENDBRANCH   8   9
ENDBRANCH   4   7
ENDBRANCH   2   3
ENDBRANCH   1   2
BRANCH   1  25
ATOM     25  C   UNL A   1      35.612  33.551  28.531  1.00  0.00     0.023 C 
BRANCH  25  26
ATOM     26  C   UNL A   1      36.505  33.197  29.717  1.00  0.00     0.116 C 
BRANCH  26  27
ATOM     27  N   UNL A   1      35.974  32.114  30.533  1.00  0.00    -0.352 N 
ATOM     28  C   UNL A   1      36.566  30.908  30.818  1.00  0.00     0.251 C 
ATOM     29  H   UNL A   1      35.084  32.263  30.926  1.00  0.00     0.163 HD
ATOM     30  O   UNL A   1      35.954  30.042  31.435  1.00  0.00    -0.269 OA
BRANCH  28  31
ATOM     31  C   UNL A   1      37.935  30.662  30.330  1.00  0.00     0.039 A 
ATOM     32  C   UNL A   1      38.968  30.536  31.260  1.00  0.00     0.014 A 
ATOM     33  C   UNL A   1      38.174  30.491  28.965  1.00  0.00     0.014 A 
ATOM     34  C   UNL A   1      40.242  30.174  30.821  1.00  0.00     0.010 A 
ATOM     35  C   UNL A   1      39.429  30.068  28.537  1.00  0.00     0.010 A 
ATOM     36  C   UNL A   1      40.472  29.905  29.461  1.00  0.00    -0.014 A 
BRANCH  36  37
ATOM     37  C   UNL A   1      41.801  29.449  28.985  1.00  0.00     0.031 A 
ATOM     38  C   UNL A   1      42.933  30.434  28.873  1.00  0.00     0.074 A 
ATOM     39  C   UNL A   1      41.965  28.170  28.594  1.00  0.00     0.049 A 
ATOM     40  N   UNL A   1      44.143  30.249  28.414  1.00  0.00    -0.248 NA
ATOM     41  C   UNL A   1      42.659  31.815  29.305  1.00  0.00     0.031 C 
ATOM     42  C   UNL A   1      40.924  27.140  28.606  1.00  0.00     0.029 A 
ATOM     43  N   UNL A   1      43.065  27.519  28.098  1.00  0.00    -0.354 N 
ATOM     44  C   UNL A   1      44.767  31.488  28.484  1.00  0.00     0.074 A 
ATOM     45  C   UNL A   1      43.790  32.428  28.986  1.00  0.00     0.031 C 
ATOM     46  C   UNL A   1      41.440  25.983  28.159  1.00  0.00     0.029 A 
ATOM     47  C   UNL A   1      42.838  26.196  27.797  1.00  0.00     0.049 A 
ATOM     48  H   UNL A   1      43.938  27.958  27.969  1.00  0.00     0.167 HD
ATOM     49  C   UNL A   1      46.046  31.807  28.177  1.00  0.00     0.037 A 
ATOM     50  C   UNL A   1      43.664  25.263  27.284  1.00  0.00     0.037 A 
ATOM     51  C   UNL A   1      47.025  30.855  27.721  1.00  0.00     0.049 A 
ATOM     52  C   UNL A   1      45.088  25.643  26.973  1.00  0.00     0.074 A 
ATOM     53  C   UNL A   1      48.367  31.061  27.459  1.00  0.00     0.029 A 
ATOM     54  N   UNL A   1      46.766  29.516  27.463  1.00  0.00    -0.354 N 
ATOM     55  N   UNL A   1      45.682  26.803  27.118  1.00  0.00    -0.248 NA
ATOM     56  C   UNL A   1      45.955  24.584  26.437  1.00  0.00     0.031 C 
ATOM     57  C   UNL A   1      48.913  29.855  27.007  1.00  0.00     0.029 A 
ATOM     58  C   UNL A   1      47.920  28.889  27.029  1.00  0.00     0.049 A 
ATOM     59  H   UNL A   1      45.892  29.078  27.574  1.00  0.00     0.167 HD
ATOM     60  C   UNL A   1      47.000  26.606  26.720  1.00  0.00     0.074 A 
ATOM     61  C   UNL A   1      47.118  25.213  26.340  1.00  0.00     0.031 C 
ATOM     62  C   UNL A   1      48.021  27.496  26.674  1.00  0.00     0.037 A 
BRANCH  49  63
ATOM     63  C   UNL A   1      46.473  33.238  28.337  1.00  0.00     0.058 A 
ATOM     64  C   UNL A   1      46.374  34.158  27.281  1.00  0.00     0.135 A 
ATOM     65  C   UNL A   1      46.930  33.711  29.578  1.00  0.00     0.135 A 
ATOM     66  F   UNL A   1      45.960  33.754  26.070  1.00  0.00    -0.206 F 
ATOM     67  C   UNL A   1      46.724  35.494  27.446  1.00  0.00     0.059 A 
ATOM     68  C   UNL A   1      47.263  35.049  29.772  1.00  0.00     0.059 A 
ATOM     69  F   UNL A   1      47.048  32.872  30.619  1.00  0.00    -0.206 F 
ATOM     70  C   UNL A   1      47.164  35.930  28.697  1.00  0.00     0.060 A 
BRANCH  70  71
ATOM     71  S   UNL A   1      47.584  37.675  28.902  1.00  0.00     0.124 S 
ATOM     72  O   UNL A   1      46.526  38.321  28.131  1.00  0.00    -0.237 OA
ATOM     73  O   UNL A   1      47.508  37.845  30.350  1.00  0.00    -0.237 OA
ATOM     74  O   UNL A   1      48.924  37.771  28.332  1.00  0.00    -0.744 OA
ENDBRANCH  70  71
ENDBRANCH  49  63
BRANCH  50  75
ATOM     75  C   UNL A   1      43.180  23.877  27.049  1.00  0.00     0.058 A 
ATOM     76  C   UNL A   1      43.066  22.965  28.110  1.00  0.00     0.135 A 
ATOM     77  C   UNL A   1      42.846  23.428  25.762  1.00  0.00     0.135 A 
ATOM     78  F   UNL A   1      43.377  23.347  29.357  1.00  0.00    -0.206 F 
ATOM     79  C   UNL A   1      42.668  21.649  27.901  1.00  0.00     0.059 A 
ATOM     80  C   UNL A   1      42.421  22.123  25.532  1.00  0.00     0.059 A 
ATOM     81  F   UNL A   1      42.919  24.265  24.717  1.00  0.00    -0.206 F 
ATOM     82  C   UNL A   1      42.354  21.235  26.605  1.00  0.00     0.060 A 
BRANCH  82  83
ATOM     83  S   UNL A   1      41.825  19.528  26.344  1.00  0.00     0.124 S 
ATOM     84  O   UNL A   1      42.584  19.167  25.152  1.00  0.00    -0.237 OA
ATOM     85  O   UNL A   1      42.240  18.882  27.585  1.00  0.00    -0.237 OA
ATOM     86  O   UNL A   1      40.382  19.650  26.162  1.00  0.00    -0.744 OA
ENDBRANCH  82  83
ENDBRANCH  50  75
BRANCH  62  87
ATOM     87  C   UNL A   1      49.365  26.985  26.239  1.00  0.00     0.058 A 
ATOM     88  C   UNL A   1      49.810  27.114  24.914  1.00  0.00     0.135 A 
ATOM     89  C   UNL A   1      50.240  26.408  27.175  1.00  0.00     0.135 A 
ATOM     90  F   UNL A   1      49.008  27.652  23.982  1.00  0.00    -0.206 F 
ATOM     91  C   UNL A   1      51.069  26.670  24.527  1.00  0.00     0.059 A 
ATOM     92  C   UNL A   1      51.513  25.982  26.814  1.00  0.00     0.059 A 
ATOM     93  F   UNL A   1      49.866  26.273  28.456  1.00  0.00    -0.206 F 
ATOM     94  C   UNL A   1      51.916  26.107  25.484  1.00  0.00     0.060 A 
BRANCH  94  95
ATOM     95  S   UNL A   1      53.562  25.569  24.977  1.00  0.00     0.124 S 
ATOM     96  O   UNL A   1      53.685  24.297  25.681  1.00  0.00    -0.237 OA
ATOM     97  O   UNL A   1      53.430  25.482  23.526  1.00  0.00    -0.237 OA
ATOM     98  O   UNL A   1      54.430  26.640  25.457  1.00  0.00    -0.744 OA
ENDBRANCH  94  95
ENDBRANCH  62  87
ENDBRANCH  36  37
ENDBRANCH  28  31
ENDBRANCH  26  27
ENDBRANCH  25  26
ENDBRANCH   1  25
TORSDOF 19
ENDMDL
MODEL 3
REMARK VINA RESULT:     -10.8      3.210      5.094
REMARK SMILES COc1ccc(OCc2nc(C)no2)c(/C=C/C(=O)NCCCCNC(=O)c2ccc(-c3c4nc(c(-c5c(F)cc(S(=O)(=O)[O-])cc5F)c5ccc([nH]5)c(-c5c(F)cc(S(=O)(=O)[O-])cc5F)c5nc(c(-c6c(F)cc(S(=O)(=O)[O-])cc6F)c6ccc3[nH]6)C=C5)C=C4)cc2)c1
REMARK SMILES IDX 22 1 21 2 20 3 18 4 19 5 17 7 16 8 15 9 3 10 4 11 94 12 5 13
REMARK SMILES IDX 6 14 2 15 1 16 7 17 8 18 9 19 10 20 14 21 11 22 13 23 12 24
REMARK SMILES IDX 23 25 24 26 25 27 26 28 27 30 28 31 29 32 93 33 30 34 92 35
REMARK SMILES IDX 31 36 32 37 33 38 86 39 34 40 91 41 85 42 87 43 35 44 90 45
REMARK SMILES IDX 84 46 83 47 36 49 70 50 49 51 69 52 50 53 53 54 68 55 88 56
REMARK SMILES IDX 51 57 52 58 67 60 89 61 54 62 37 63 38 64 47 65 39 66 40 67
REMARK SMILES IDX 46 68 48 69 41 70 42 71 43 72 44 73 45 74 71 75 72 76 81 77
REMARK SMILES IDX 73 78 74 79 80 80 82 81 75 82 76 83 77 84 78 85 79 86 55 87
REMARK SMILES IDX 56 88 65 89 57 90 58 91 64 92 66 93 59 94 60 95 61 96 62 97
REMARK SMILES IDX 63 98
REMARK H PARENT 20 6 25 29 87 48 53 59
REMARK Flexibility Score: inf
ROOT
ATOM      1  C   UNL A   1      34.189  33.233  29.089  1.00  0.00     0.023 C 
ENDROOT
BRANCH   1   2
ATOM      2  C   UNL A   1      33.748  32.464  27.847  1.00  0.00     0.116 C 
BRANCH   2   3
ATOM      3  N   UNL A   1      34.422  31.186  27.733  1.00  0.00    -0.353 N 
ATOM      4  C   UNL A   1      34.091  30.046  27.078  1.00  0.00     0.244 C 
ATOM      5  O   UNL A   1      34.774  29.037  27.252  1.00  0.00    -0.270 OA
ATOM      6  H   UNL A   1      35.276  31.137  28.220  1.00  0.00     0.163 HD
BRANCH   4   7
ATOM      7  C   UNL A   1      32.945  29.949  26.135  1.00  0.00     0.072 C 
ATOM      8  C   UNL A   1      32.723  28.881  25.360  1.00  0.00     0.018 C 
BRANCH   8   9
ATOM      9  C   UNL A   1      31.461  28.523  24.701  1.00  0.00     0.020 A 
ATOM     10  C   UNL A   1      29.660  29.385  23.292  1.00  0.00     0.119 A 
ATOM     11  C   UNL A   1      29.165  28.099  23.128  1.00  0.00     0.050 A 
ATOM     12  C   UNL A   1      30.767  29.602  24.114  1.00  0.00     0.058 A 
ATOM     13  C   UNL A   1      29.839  27.025  23.708  1.00  0.00     0.051 A 
ATOM     14  C   UNL A   1      31.019  27.211  24.448  1.00  0.00     0.127 A 
BRANCH  10  15
ATOM     15  O   UNL A   1      28.997  30.386  22.635  1.00  0.00    -0.497 OA
ATOM     16  C   UNL A   1      28.165  31.161  23.500  1.00  0.00     0.278 C 
ENDBRANCH  10  15
BRANCH  14  17
ATOM     17  O   UNL A   1      31.594  26.006  24.739  1.00  0.00    -0.483 OA
BRANCH  17  18
ATOM     18  C   UNL A   1      30.908  24.890  25.315  1.00  0.00     0.329 C 
BRANCH  18  19
ATOM     19  C   UNL A   1      31.773  24.011  26.151  1.00  0.00     0.264 A 
ATOM     20  N   UNL A   1      32.820  23.297  25.788  1.00  0.00    -0.193 NA
ATOM     21  O   UNL A   1      31.425  23.803  27.455  1.00  0.00    -0.336 OA
ATOM     22  C   UNL A   1      33.091  22.578  26.925  1.00  0.00     0.169 A 
ATOM     23  N   UNL A   1      32.279  22.827  27.958  1.00  0.00    -0.063 NA
ATOM     24  C   UNL A   1      34.200  21.614  27.010  1.00  0.00     0.093 C 
ENDBRANCH  18  19
ENDBRANCH  17  18
ENDBRANCH  14  17
ENDBRANCH   8   9
ENDBRANCH   4   7
ENDBRANCH   2   3
ENDBRANCH   1   2
BRANCH   1  25
ATOM     25  C   UNL A   1      35.605  33.801  28.977  1.00  0.00     0.023 C 
BRANCH  25  26
ATOM     26  C   UNL A   1      36.650  33.082  29.826  1.00  0.00     0.116 C 
BRANCH  26  27
ATOM     27  N   UNL A   1      36.104  31.968  30.588  1.00  0.00    -0.352 N 
ATOM     28  C   UNL A   1      36.681  30.742  30.816  1.00  0.00     0.251 C 
ATOM     29  H   UNL A   1      35.215  32.108  30.986  1.00  0.00     0.163 HD
ATOM     30  O   UNL A   1      36.057  29.855  31.389  1.00  0.00    -0.269 OA
BRANCH  28  31
ATOM     31  C   UNL A   1      38.049  30.505  30.320  1.00  0.00     0.039 A 
ATOM     32  C   UNL A   1      39.095  30.427  31.240  1.00  0.00     0.014 A 
ATOM     33  C   UNL A   1      38.275  30.292  28.958  1.00  0.00     0.014 A 
ATOM     34  C   UNL A   1      40.369  30.073  30.797  1.00  0.00     0.010 A 
ATOM     35  C   UNL A   1      39.532  29.878  28.529  1.00  0.00     0.010 A 
ATOM     36  C   UNL A   1      40.588  29.763  29.445  1.00  0.00    -0.014 A 
BRANCH  36  37
ATOM     37  C   UNL A   1      41.920  29.315  28.968  1.00  0.00     0.031 A 
ATOM     38  C   UNL A   1      43.043  30.308  28.845  1.00  0.00     0.074 A 
ATOM     39  C   UNL A   1      42.093  28.034  28.584  1.00  0.00     0.049 A 
ATOM     40  N   UNL A   1      44.253  30.130  28.385  1.00  0.00    -0.248 NA
ATOM     41  C   UNL A   1      42.759  31.690  29.269  1.00  0.00     0.031 C 
ATOM     42  C   UNL A   1      41.060  26.996  28.607  1.00  0.00     0.029 A 
ATOM     43  N   UNL A   1      43.197  27.390  28.089  1.00  0.00    -0.354 N 
ATOM     44  C   UNL A   1      44.867  31.375  28.444  1.00  0.00     0.074 A 
ATOM     45  C   UNL A   1      43.884  32.310  28.943  1.00  0.00     0.031 C 
ATOM     46  C   UNL A   1      41.585  25.841  28.165  1.00  0.00     0.029 A 
ATOM     47  C   UNL A   1      42.980  26.063  27.799  1.00  0.00     0.049 A 
ATOM     48  H   UNL A   1      44.065  27.835  27.955  1.00  0.00     0.167 HD
ATOM     49  C   UNL A   1      46.143  31.702  28.131  1.00  0.00     0.037 A 
ATOM     50  C   UNL A   1      43.812  25.134  27.289  1.00  0.00     0.037 A 
ATOM     51  C   UNL A   1      47.128  30.755  27.679  1.00  0.00     0.049 A 
ATOM     52  C   UNL A   1      45.232  25.522  26.971  1.00  0.00     0.074 A 
ATOM     53  C   UNL A   1      48.468  30.970  27.411  1.00  0.00     0.029 A 
ATOM     54  N   UNL A   1      46.879  29.413  27.431  1.00  0.00    -0.354 N 
ATOM     55  N   UNL A   1      45.817  26.688  27.106  1.00  0.00    -0.248 NA
ATOM     56  C   UNL A   1      46.106  24.467  26.440  1.00  0.00     0.031 C 
ATOM     57  C   UNL A   1      49.022  29.766  26.965  1.00  0.00     0.029 A 
ATOM     58  C   UNL A   1      48.038  28.792  26.997  1.00  0.00     0.049 A 
ATOM     59  H   UNL A   1      46.009  28.968  27.546  1.00  0.00     0.167 HD
ATOM     60  C   UNL A   1      47.135  26.499  26.706  1.00  0.00     0.074 A 
ATOM     61  C   UNL A   1      47.264  25.105  26.335  1.00  0.00     0.031 C 
ATOM     62  C   UNL A   1      48.148  27.397  26.651  1.00  0.00     0.037 A 
BRANCH  49  63
ATOM     63  C   UNL A   1      46.558  33.138  28.280  1.00  0.00     0.058 A 
ATOM     64  C   UNL A   1      46.386  34.066  27.241  1.00  0.00     0.135 A 
ATOM     65  C   UNL A   1      47.080  33.606  29.497  1.00  0.00     0.135 A 
ATOM     66  F   UNL A   1      45.909  33.667  26.052  1.00  0.00    -0.206 F 
ATOM     67  C   UNL A   1      46.727  35.405  27.399  1.00  0.00     0.059 A 
ATOM     68  C   UNL A   1      47.404  34.946  29.685  1.00  0.00     0.059 A 
ATOM     69  F   UNL A   1      47.269  32.760  30.521  1.00  0.00    -0.206 F 
ATOM     70  C   UNL A   1      47.232  35.836  28.626  1.00  0.00     0.060 A 
BRANCH  70  71
ATOM     71  S   UNL A   1      47.639  37.585  28.824  1.00  0.00     0.124 S 
ATOM     72  O   UNL A   1      46.329  38.208  28.660  1.00  0.00    -0.237 OA
ATOM     73  O   UNL A   1      48.195  37.624  30.173  1.00  0.00    -0.237 OA
ATOM     74  O   UNL A   1      48.593  37.835  27.748  1.00  0.00    -0.744 OA
ENDBRANCH  70  71
ENDBRANCH  49  63
BRANCH  50  75
ATOM     75  C   UNL A   1      43.339  23.742  27.064  1.00  0.00     0.058 A 
ATOM     76  C   UNL A   1      42.977  23.302  25.781  1.00  0.00     0.135 A 
ATOM     77  C   UNL A   1      43.216  22.832  28.125  1.00  0.00     0.135 A 
ATOM     78  F   UNL A   1      43.074  24.137  24.736  1.00  0.00    -0.206 F 
ATOM     79  C   UNL A   1      42.481  22.022  25.562  1.00  0.00     0.059 A 
ATOM     80  C   UNL A   1      42.746  21.537  27.926  1.00  0.00     0.059 A 
ATOM     81  F   UNL A   1      43.568  23.196  29.367  1.00  0.00    -0.206 F 
ATOM     82  C   UNL A   1      42.363  21.147  26.644  1.00  0.00     0.060 A 
BRANCH  82  83
ATOM     83  S   UNL A   1      41.730  19.482  26.349  1.00  0.00     0.124 S 
ATOM     84  O   UNL A   1      42.450  19.107  25.137  1.00  0.00    -0.237 OA
ATOM     85  O   UNL A   1      42.123  18.781  27.568  1.00  0.00    -0.237 OA
ATOM     86  O   UNL A   1      40.294  19.693  26.192  1.00  0.00    -0.744 OA
ENDBRANCH  82  83
ENDBRANCH  50  75
BRANCH  62  87
ATOM     87  C   UNL A   1      49.495  26.895  26.215  1.00  0.00     0.058 A 
ATOM     88  C   UNL A   1      49.946  27.042  24.894  1.00  0.00     0.135 A 
ATOM     89  C   UNL A   1      50.367  26.307  27.147  1.00  0.00     0.135 A 
ATOM     90  F   UNL A   1      49.148  27.592  23.966  1.00  0.00    -0.206 F 
ATOM     91  C   UNL A   1      51.208  26.606  24.507  1.00  0.00     0.059 A 
ATOM     92  C   UNL A   1      51.643  25.887  26.786  1.00  0.00     0.059 A 
ATOM     93  F   UNL A   1      49.988  26.153  28.425  1.00  0.00    -0.206 F 
ATOM     94  C   UNL A   1      52.051  26.031  25.461  1.00  0.00     0.060 A 
BRANCH  94  95
ATOM     95  S   UNL A   1      53.700  25.503  24.954  1.00  0.00     0.124 S 
ATOM     96  O   UNL A   1      54.543  26.211  25.912  1.00  0.00    -0.237 OA
ATOM     97  O   UNL A   1      53.630  24.054  25.119  1.00  0.00    -0.237 OA
ATOM     98  O   UNL A   1      53.794  25.966  23.572  1.00  0.00    -0.744 OA
ENDBRANCH  94  95
ENDBRANCH  62  87
ENDBRANCH  36  37
ENDBRANCH  28  31
ENDBRANCH  26  27
ENDBRANCH  25  26
ENDBRANCH   1  25
TORSDOF 19
ENDMDL
