MODEL 1
REMARK VINA RESULT:     -13.6      0.000      0.000
REMARK SMILES COc1ccccc1[C@@H]1C[N@@H+](Cc2cn3cc(C)ccc3n2)C[C@H]1C(=O)NCCCCNC(=O)c1ccc(-c2c3nc(c(-c4c(F)cc(S(=O)(=O)[O-])cc4F)c4ccc([nH]4)c(-c4c(F)cc(S(=O)(=O)[O-])cc4F)c4nc(c(-c5c(F)cc(S(=O)(=O)[O-])cc5F)c5ccc2[nH]5)C=C4)C=C3)cc1
REMARK SMILES IDX 30 1 29 2 28 3 27 4 25 5 26 6 24 8 9 9 10 10 11 11 23 12
REMARK SMILES IDX 8 14 3 15 4 16 5 17 7 18 6 19 2 20 1 21 12 22 13 23 14 24
REMARK SMILES IDX 22 25 15 26 21 27 16 28 20 29 17 30 19 31 18 32 31 33 32 34
REMARK SMILES IDX 33 35 34 37 35 38 36 39 100 40 37 41 99 42 38 43 39 44 40 45
REMARK SMILES IDX 93 46 41 47 98 48 92 49 94 50 42 51 97 52 91 53 90 54 43 56
REMARK SMILES IDX 77 57 56 58 76 59 57 60 60 61 75 62 95 63 58 64 59 65 74 67
REMARK SMILES IDX 96 68 61 69 44 70 45 71 54 72 46 73 47 74 53 75 55 76 48 77
REMARK SMILES IDX 49 78 50 79 51 80 52 81 78 82 79 83 88 84 80 85 81 86 87 87
REMARK SMILES IDX 89 88 82 89 83 90 84 91 85 92 86 93 62 94 63 95 72 96 64 97
REMARK SMILES IDX 65 98 71 99 73 100 66 101 67 102 68 103 69 104 70 105
REMARK H PARENT 27 7 11 13 32 36 94 55 60 66
REMARK Flexibility Score: inf
ROOT
ATOM      1  C   UNL A   1      33.928  27.975  26.658  1.00  0.00     0.023 C 
ENDROOT
BRANCH   1   2
ATOM      2  C   UNL A   1      34.002  27.110  25.394  1.00  0.00     0.023 C 
BRANCH   2   3
ATOM      3  C   UNL A   1      33.957  25.576  25.595  1.00  0.00     0.116 C 
BRANCH   3   4
ATOM      4  N   UNL A   1      34.787  24.762  24.714  1.00  0.00    -0.356 N 
ATOM      5  C   UNL A   1      34.643  23.920  23.659  1.00  0.00     0.229 C 
ATOM      6  O   UNL A   1      35.731  23.494  23.228  1.00  0.00    -0.275 OA
ATOM      7  H   UNL A   1      35.737  24.851  24.958  1.00  0.00     0.163 HD
BRANCH   5   8
ATOM      8  C   UNL A   1      33.368  23.471  22.916  1.00  0.00     0.146 C 
ATOM      9  C   UNL A   1      32.503  22.464  23.737  1.00  0.00     0.096 C 
ATOM     10  C   UNL A   1      31.054  22.775  23.341  1.00  0.00     0.272 C 
ATOM     11  N   UNL A   1      31.033  24.215  23.058  1.00  0.00    -0.329 N 
ATOM     12  C   UNL A   1      32.334  24.485  22.421  1.00  0.00     0.276 C 
ATOM     13  H   UNL A   1      30.255  24.444  22.442  1.00  0.00     0.348 HD
BRANCH   9  14
ATOM     14  C   UNL A   1      32.848  21.005  23.959  1.00  0.00     0.004 A 
ATOM     15  C   UNL A   1      33.846  20.504  24.796  1.00  0.00     0.122 A 
ATOM     16  C   UNL A   1      34.212  19.149  24.733  1.00  0.00     0.047 A 
ATOM     17  C   UNL A   1      33.580  18.271  23.849  1.00  0.00     0.004 A 
ATOM     18  C   UNL A   1      32.198  20.079  23.101  1.00  0.00     0.008 A 
ATOM     19  C   UNL A   1      32.563  18.739  23.032  1.00  0.00     0.001 A 
BRANCH  15  20
ATOM     20  O   UNL A   1      34.608  21.297  25.605  1.00  0.00    -0.496 OA
ATOM     21  C   UNL A   1      34.055  21.404  26.916  1.00  0.00     0.278 C 
ENDBRANCH  15  20
ENDBRANCH   9  14
BRANCH  11  22
ATOM     22  C   UNL A   1      30.672  25.115  24.185  1.00  0.00     0.321 C 
BRANCH  22  23
ATOM     23  C   UNL A   1      30.138  26.494  23.875  1.00  0.00     0.114 A 
ATOM     24  C   UNL A   1      30.789  27.703  23.673  1.00  0.00     0.122 A 
ATOM     25  N   UNL A   1      28.792  26.722  23.827  1.00  0.00    -0.228 NA
ATOM     26  N   UNL A   1      29.800  28.645  23.451  1.00  0.00    -0.306 N 
ATOM     27  C   UNL A   1      28.612  27.946  23.404  1.00  0.00     0.137 A 
ATOM     28  C   UNL A   1      29.846  30.036  23.350  1.00  0.00     0.096 A 
ATOM     29  C   UNL A   1      27.428  28.638  23.035  1.00  0.00     0.048 A 
ATOM     30  C   UNL A   1      28.700  30.723  23.139  1.00  0.00    -0.034 A 
ATOM     31  C   UNL A   1      27.464  29.974  22.907  1.00  0.00     0.009 A 
ATOM     32  C   UNL A   1      28.579  32.212  23.182  1.00  0.00     0.046 C 
ENDBRANCH  22  23
ENDBRANCH  11  22
ENDBRANCH   5   8
ENDBRANCH   3   4
ENDBRANCH   2   3
ENDBRANCH   1   2
BRANCH   1  33
ATOM     33  C   UNL A   1      35.035  29.022  26.821  1.00  0.00     0.116 C 
BRANCH  33  34
ATOM     34  N   UNL A   1      34.586  30.414  26.855  1.00  0.00    -0.352 N 
ATOM     35  C   UNL A   1      34.825  31.353  27.856  1.00  0.00     0.251 C 
ATOM     36  H   UNL A   1      34.054  30.721  26.085  1.00  0.00     0.163 HD
ATOM     37  O   UNL A   1      34.199  32.380  27.949  1.00  0.00    -0.269 OA
BRANCH  35  38
ATOM     38  C   UNL A   1      35.921  31.023  28.791  1.00  0.00     0.039 A 
ATOM     39  C   UNL A   1      35.977  29.764  29.382  1.00  0.00     0.014 A 
ATOM     40  C   UNL A   1      37.033  31.857  28.748  1.00  0.00     0.014 A 
ATOM     41  C   UNL A   1      37.220  29.279  29.794  1.00  0.00     0.010 A 
ATOM     42  C   UNL A   1      38.275  31.323  29.051  1.00  0.00     0.010 A 
ATOM     43  C   UNL A   1      38.393  30.020  29.550  1.00  0.00    -0.014 A 
BRANCH  43  44
ATOM     44  C   UNL A   1      39.701  29.347  29.676  1.00  0.00     0.031 A 
ATOM     45  C   UNL A   1      40.196  29.055  31.066  1.00  0.00     0.074 A 
ATOM     46  C   UNL A   1      40.423  28.786  28.681  1.00  0.00     0.049 A 
ATOM     47  N   UNL A   1      41.211  29.580  31.677  1.00  0.00    -0.248 NA
ATOM     48  C   UNL A   1      39.457  28.084  31.886  1.00  0.00     0.031 C 
ATOM     49  C   UNL A   1      40.083  28.604  27.266  1.00  0.00     0.029 A 
ATOM     50  N   UNL A   1      41.639  28.167  28.782  1.00  0.00    -0.354 N 
ATOM     51  C   UNL A   1      41.352  28.898  32.888  1.00  0.00     0.074 A 
ATOM     52  C   UNL A   1      40.184  28.061  33.006  1.00  0.00     0.031 C 
ATOM     53  C   UNL A   1      40.950  27.737  26.701  1.00  0.00     0.029 A 
ATOM     54  C   UNL A   1      42.013  27.466  27.651  1.00  0.00     0.049 A 
ATOM     55  H   UNL A   1      42.199  28.218  29.590  1.00  0.00     0.167 HD
ATOM     56  C   UNL A   1      42.494  28.962  33.634  1.00  0.00     0.037 A 
ATOM     57  C   UNL A   1      43.129  26.725  27.473  1.00  0.00     0.037 A 
ATOM     58  C   UNL A   1      43.372  30.008  33.178  1.00  0.00     0.049 A 
ATOM     59  C   UNL A   1      44.158  27.230  28.412  1.00  0.00     0.074 A 
ATOM     60  C   UNL A   1      43.288  31.380  33.049  1.00  0.00     0.029 A 
ATOM     61  N   UNL A   1      44.488  29.641  32.469  1.00  0.00    -0.354 N 
ATOM     62  N   UNL A   1      44.690  28.420  28.342  1.00  0.00    -0.248 NA
ATOM     63  C   UNL A   1      44.383  26.523  29.663  1.00  0.00     0.031 C 
ATOM     64  C   UNL A   1      44.058  31.693  31.889  1.00  0.00     0.029 A 
ATOM     65  C   UNL A   1      44.575  30.493  31.398  1.00  0.00     0.049 A 
ATOM     66  H   UNL A   1      45.107  28.907  32.687  1.00  0.00     0.167 HD
ATOM     67  C   UNL A   1      44.958  28.770  29.654  1.00  0.00     0.074 A 
ATOM     68  C   UNL A   1      44.887  27.518  30.397  1.00  0.00     0.031 C 
ATOM     69  C   UNL A   1      44.941  30.075  30.061  1.00  0.00     0.037 A 
BRANCH  56  70
ATOM     70  C   UNL A   1      42.990  27.908  34.605  1.00  0.00     0.058 A 
ATOM     71  C   UNL A   1      43.240  28.263  35.951  1.00  0.00     0.135 A 
ATOM     72  C   UNL A   1      43.502  26.658  34.203  1.00  0.00     0.135 A 
ATOM     73  F   UNL A   1      42.798  29.431  36.445  1.00  0.00    -0.206 F 
ATOM     74  C   UNL A   1      44.014  27.476  36.806  1.00  0.00     0.059 A 
ATOM     75  C   UNL A   1      44.234  25.832  35.055  1.00  0.00     0.059 A 
ATOM     76  F   UNL A   1      43.399  26.229  32.938  1.00  0.00    -0.206 F 
ATOM     77  C   UNL A   1      44.530  26.272  36.337  1.00  0.00     0.060 A 
BRANCH  77  78
ATOM     78  S   UNL A   1      45.650  25.322  37.385  1.00  0.00     0.124 S 
ATOM     79  O   UNL A   1      45.116  23.975  37.226  1.00  0.00    -0.237 OA
ATOM     80  O   UNL A   1      46.946  25.574  36.762  1.00  0.00    -0.237 OA
ATOM     81  O   UNL A   1      45.466  25.927  38.701  1.00  0.00    -0.744 OA
ENDBRANCH  77  78
ENDBRANCH  56  70
BRANCH  57  82
ATOM     82  C   UNL A   1      43.267  25.487  26.676  1.00  0.00     0.058 A 
ATOM     83  C   UNL A   1      44.100  25.426  25.550  1.00  0.00     0.135 A 
ATOM     84  C   UNL A   1      42.772  24.258  27.161  1.00  0.00     0.135 A 
ATOM     85  F   UNL A   1      44.631  26.547  25.041  1.00  0.00    -0.206 F 
ATOM     86  C   UNL A   1      44.456  24.210  24.960  1.00  0.00     0.059 A 
ATOM     87  C   UNL A   1      43.104  23.036  26.583  1.00  0.00     0.059 A 
ATOM     88  F   UNL A   1      42.019  24.205  28.272  1.00  0.00    -0.206 F 
ATOM     89  C   UNL A   1      43.969  23.019  25.497  1.00  0.00     0.060 A 
BRANCH  89  90
ATOM     90  S   UNL A   1      44.573  21.443  24.850  1.00  0.00     0.124 S 
ATOM     91  O   UNL A   1      44.592  21.694  23.414  1.00  0.00    -0.237 OA
ATOM     92  O   UNL A   1      45.876  21.326  25.495  1.00  0.00    -0.237 OA
ATOM     93  O   UNL A   1      43.568  20.484  25.304  1.00  0.00    -0.744 OA
ENDBRANCH  89  90
ENDBRANCH  57  82
BRANCH  69  94
ATOM     94  C   UNL A   1      45.012  31.154  29.013  1.00  0.00     0.058 A 
ATOM     95  C   UNL A   1      46.208  31.613  28.434  1.00  0.00     0.135 A 
ATOM     96  C   UNL A   1      43.812  31.630  28.461  1.00  0.00     0.135 A 
ATOM     97  F   UNL A   1      47.394  31.129  28.826  1.00  0.00    -0.206 F 
ATOM     98  C   UNL A   1      46.212  32.530  27.381  1.00  0.00     0.059 A 
ATOM     99  C   UNL A   1      43.791  32.522  27.392  1.00  0.00     0.059 A 
ATOM    100  F   UNL A   1      42.634  31.181  28.926  1.00  0.00    -0.206 F 
ATOM    101  C   UNL A   1      44.997  32.977  26.864  1.00  0.00     0.060 A 
BRANCH 101 102
ATOM    102  S   UNL A   1      45.006  34.086  25.437  1.00  0.00     0.124 S 
ATOM    103  O   UNL A   1      44.479  33.229  24.381  1.00  0.00    -0.237 OA
ATOM    104  O   UNL A   1      44.129  35.171  25.868  1.00  0.00    -0.237 OA
ATOM    105  O   UNL A   1      46.413  34.453  25.301  1.00  0.00    -0.744 OA
ENDBRANCH 101 102
ENDBRANCH  69  94
ENDBRANCH  43  44
ENDBRANCH  35  38
ENDBRANCH  33  34
ENDBRANCH   1  33
TORSDOF 18
ENDMDL
MODEL 2
REMARK VINA RESULT:     -13.5      1.855      4.899
REMARK SMILES COc1ccccc1[C@@H]1C[N@@H+](Cc2cn3cc(C)ccc3n2)C[C@H]1C(=O)NCCCCNC(=O)c1ccc(-c2c3nc(c(-c4c(F)cc(S(=O)(=O)[O-])cc4F)c4ccc([nH]4)c(-c4c(F)cc(S(=O)(=O)[O-])cc4F)c4nc(c(-c5c(F)cc(S(=O)(=O)[O-])cc5F)c5ccc2[nH]5)C=C4)C=C3)cc1
REMARK SMILES IDX 30 1 29 2 28 3 27 4 25 5 26 6 24 8 9 9 10 10 11 11 23 12
REMARK SMILES IDX 8 14 3 15 4 16 5 17 7 18 6 19 2 20 1 21 12 22 13 23 14 24
REMARK SMILES IDX 22 25 15 26 21 27 16 28 20 29 17 30 19 31 18 32 31 33 32 34
REMARK SMILES IDX 33 35 34 37 35 38 36 39 100 40 37 41 99 42 38 43 39 44 40 45
REMARK SMILES IDX 93 46 41 47 98 48 92 49 94 50 42 51 97 52 91 53 90 54 43 56
REMARK SMILES IDX 77 57 56 58 76 59 57 60 60 61 75 62 95 63 58 64 59 65 74 67
REMARK SMILES IDX 96 68 61 69 44 70 45 71 54 72 46 73 47 74 53 75 55 76 48 77
REMARK SMILES IDX 49 78 50 79 51 80 52 81 78 82 79 83 88 84 80 85 81 86 87 87
REMARK SMILES IDX 89 88 82 89 83 90 84 91 85 92 86 93 62 94 63 95 72 96 64 97
REMARK SMILES IDX 65 98 71 99 73 100 66 101 67 102 68 103 69 104 70 105
REMARK H PARENT 27 7 11 13 32 36 94 55 60 66
REMARK Flexibility Score: inf
ROOT
ATOM      1  C   UNL A   1      33.270  31.129  27.500  1.00  0.00     0.023 C 
ENDROOT
BRANCH   1   2
ATOM      2  C   UNL A   1      31.989  31.307  26.673  1.00  0.00     0.023 C 
BRANCH   2   3
ATOM      3  C   UNL A   1      31.669  30.204  25.637  1.00  0.00     0.116 C 
BRANCH   3   4
ATOM      4  N   UNL A   1      32.795  29.454  25.090  1.00  0.00    -0.356 N 
ATOM      5  C   UNL A   1      33.197  28.165  24.948  1.00  0.00     0.229 C 
ATOM      6  O   UNL A   1      34.281  28.059  24.345  1.00  0.00    -0.275 OA
ATOM      7  H   UNL A   1      33.465  30.068  24.709  1.00  0.00     0.163 HD
BRANCH   5   8
ATOM      8  C   UNL A   1      32.498  26.857  25.374  1.00  0.00     0.146 C 
ATOM      9  C   UNL A   1      31.633  26.226  24.238  1.00  0.00     0.096 C 
ATOM     10  C   UNL A   1      31.737  24.712  24.457  1.00  0.00     0.272 C 
ATOM     11  N   UNL A   1      33.074  24.497  25.023  1.00  0.00    -0.329 N 
ATOM     12  C   UNL A   1      33.297  25.661  25.898  1.00  0.00     0.276 C 
ATOM     13  H   UNL A   1      33.102  23.621  25.543  1.00  0.00     0.348 HD
BRANCH   9  14
ATOM     14  C   UNL A   1      30.289  26.755  23.778  1.00  0.00     0.004 A 
ATOM     15  C   UNL A   1      30.062  27.903  23.017  1.00  0.00     0.122 A 
ATOM     16  C   UNL A   1      28.760  28.403  22.857  1.00  0.00     0.047 A 
ATOM     17  C   UNL A   1      27.664  27.760  23.437  1.00  0.00     0.004 A 
ATOM     18  C   UNL A   1      29.151  26.103  24.320  1.00  0.00     0.008 A 
ATOM     19  C   UNL A   1      27.860  26.600  24.169  1.00  0.00     0.001 A 
BRANCH  15  20
ATOM     20  O   UNL A   1      31.071  28.673  22.511  1.00  0.00    -0.496 OA
ATOM     21  C   UNL A   1      30.583  29.904  21.981  1.00  0.00     0.278 C 
ENDBRANCH  15  20
ENDBRANCH   9  14
BRANCH  11  22
ATOM     22  C   UNL A   1      34.169  24.197  24.064  1.00  0.00     0.321 C 
BRANCH  22  23
ATOM     23  C   UNL A   1      35.488  23.687  24.596  1.00  0.00     0.114 A 
ATOM     24  C   UNL A   1      36.186  22.515  24.340  1.00  0.00     0.122 A 
ATOM     25  N   UNL A   1      36.167  24.388  25.552  1.00  0.00    -0.228 NA
ATOM     26  N   UNL A   1      37.325  22.561  25.127  1.00  0.00    -0.306 N 
ATOM     27  C   UNL A   1      37.325  23.805  25.724  1.00  0.00     0.137 A 
ATOM     28  C   UNL A   1      38.302  21.605  25.404  1.00  0.00     0.096 A 
ATOM     29  C   UNL A   1      38.462  24.198  26.477  1.00  0.00     0.048 A 
ATOM     30  C   UNL A   1      39.320  21.922  26.237  1.00  0.00    -0.034 A 
ATOM     31  C   UNL A   1      39.425  23.296  26.729  1.00  0.00     0.009 A 
ATOM     32  C   UNL A   1      40.332  20.950  26.753  1.00  0.00     0.046 C 
ENDBRANCH  22  23
ENDBRANCH  11  22
ENDBRANCH   5   8
ENDBRANCH   3   4
ENDBRANCH   2   3
ENDBRANCH   1   2
BRANCH   1  33
ATOM     33  C   UNL A   1      33.975  32.419  27.931  1.00  0.00     0.116 C 
BRANCH  33  34
ATOM     34  N   UNL A   1      34.141  32.594  29.375  1.00  0.00    -0.352 N 
ATOM     35  C   UNL A   1      35.101  32.000  30.191  1.00  0.00     0.251 C 
ATOM     36  H   UNL A   1      33.502  33.197  29.819  1.00  0.00     0.163 HD
ATOM     37  O   UNL A   1      35.006  31.970  31.393  1.00  0.00    -0.269 OA
BRANCH  35  38
ATOM     38  C   UNL A   1      36.268  31.426  29.488  1.00  0.00     0.039 A 
ATOM     39  C   UNL A   1      37.453  32.149  29.399  1.00  0.00     0.014 A 
ATOM     40  C   UNL A   1      36.235  30.053  29.272  1.00  0.00     0.014 A 
ATOM     41  C   UNL A   1      38.650  31.446  29.246  1.00  0.00     0.010 A 
ATOM     42  C   UNL A   1      37.433  29.358  29.238  1.00  0.00     0.010 A 
ATOM     43  C   UNL A   1      38.658  30.037  29.253  1.00  0.00    -0.014 A 
BRANCH  43  44
ATOM     44  C   UNL A   1      39.941  29.331  29.437  1.00  0.00     0.031 A 
ATOM     45  C   UNL A   1      40.410  29.108  30.848  1.00  0.00     0.074 A 
ATOM     46  C   UNL A   1      40.654  28.687  28.487  1.00  0.00     0.049 A 
ATOM     47  N   UNL A   1      41.435  29.636  31.440  1.00  0.00    -0.248 NA
ATOM     48  C   UNL A   1      39.628  28.214  31.716  1.00  0.00     0.031 C 
ATOM     49  C   UNL A   1      40.325  28.430  27.082  1.00  0.00     0.029 A 
ATOM     50  N   UNL A   1      41.847  28.035  28.642  1.00  0.00    -0.354 N 
ATOM     51  C   UNL A   1      41.539  29.024  32.692  1.00  0.00     0.074 A 
ATOM     52  C   UNL A   1      40.342  28.235  32.845  1.00  0.00     0.031 C 
ATOM     53  C   UNL A   1      41.168  27.501  26.582  1.00  0.00     0.029 A 
ATOM     54  C   UNL A   1      42.210  27.254  27.561  1.00  0.00     0.049 A 
ATOM     55  H   UNL A   1      42.400  28.117  29.453  1.00  0.00     0.167 HD
ATOM     56  C   UNL A   1      42.674  29.096  33.448  1.00  0.00     0.037 A 
ATOM     57  C   UNL A   1      43.302  26.467  27.443  1.00  0.00     0.037 A 
ATOM     58  C   UNL A   1      43.592  30.083  32.942  1.00  0.00     0.049 A 
ATOM     59  C   UNL A   1      44.338  26.994  28.364  1.00  0.00     0.074 A 
ATOM     60  C   UNL A   1      43.556  31.447  32.728  1.00  0.00     0.029 A 
ATOM     61  N   UNL A   1      44.703  29.636  32.271  1.00  0.00    -0.354 N 
ATOM     62  N   UNL A   1      44.910  28.159  28.229  1.00  0.00    -0.248 NA
ATOM     63  C   UNL A   1      44.524  26.358  29.658  1.00  0.00     0.031 C 
ATOM     64  C   UNL A   1      44.349  31.662  31.562  1.00  0.00     0.029 A 
ATOM     65  C   UNL A   1      44.831  30.418  31.151  1.00  0.00     0.049 A 
ATOM     66  H   UNL A   1      45.294  28.897  32.542  1.00  0.00     0.167 HD
ATOM     67  C   UNL A   1      45.175  28.580  29.521  1.00  0.00     0.074 A 
ATOM     68  C   UNL A   1      45.054  27.378  30.337  1.00  0.00     0.031 C 
ATOM     69  C   UNL A   1      45.198  29.907  29.847  1.00  0.00     0.037 A 
BRANCH  56  70
ATOM     70  C   UNL A   1      43.123  28.088  34.488  1.00  0.00     0.058 A 
ATOM     71  C   UNL A   1      43.376  28.518  35.811  1.00  0.00     0.135 A 
ATOM     72  C   UNL A   1      43.589  26.797  34.169  1.00  0.00     0.135 A 
ATOM     73  F   UNL A   1      42.976  29.730  36.226  1.00  0.00    -0.206 F 
ATOM     74  C   UNL A   1      44.114  27.757  36.720  1.00  0.00     0.059 A 
ATOM     75  C   UNL A   1      44.283  25.999  35.079  1.00  0.00     0.059 A 
ATOM     76  F   UNL A   1      43.478  26.293  32.934  1.00  0.00    -0.206 F 
ATOM     77  C   UNL A   1      44.587  26.508  36.333  1.00  0.00     0.060 A 
BRANCH  77  78
ATOM     78  S   UNL A   1      45.664  25.585  37.449  1.00  0.00     0.124 S 
ATOM     79  O   UNL A   1      46.090  26.635  38.368  1.00  0.00    -0.237 OA
ATOM     80  O   UNL A   1      44.755  24.584  37.999  1.00  0.00    -0.237 OA
ATOM     81  O   UNL A   1      46.696  25.064  36.558  1.00  0.00    -0.744 OA
ENDBRANCH  77  78
ENDBRANCH  56  70
BRANCH  57  82
ATOM     82  C   UNL A   1      43.408  25.179  26.725  1.00  0.00     0.058 A 
ATOM     83  C   UNL A   1      44.074  25.074  25.495  1.00  0.00     0.135 A 
ATOM     84  C   UNL A   1      43.070  23.967  27.364  1.00  0.00     0.135 A 
ATOM     85  F   UNL A   1      44.451  26.179  24.835  1.00  0.00    -0.206 F 
ATOM     86  C   UNL A   1      44.423  23.837  24.947  1.00  0.00     0.059 A 
ATOM     87  C   UNL A   1      43.397  22.723  26.832  1.00  0.00     0.059 A 
ATOM     88  F   UNL A   1      42.488  23.962  28.574  1.00  0.00    -0.206 F 
ATOM     89  C   UNL A   1      44.097  22.667  25.634  1.00  0.00     0.060 A 
BRANCH  89  90
ATOM     90  S   UNL A   1      44.707  21.081  25.020  1.00  0.00     0.124 S 
ATOM     91  O   UNL A   1      46.057  21.044  25.570  1.00  0.00    -0.237 OA
ATOM     92  O   UNL A   1      43.755  20.140  25.600  1.00  0.00    -0.237 OA
ATOM     93  O   UNL A   1      44.627  21.227  23.568  1.00  0.00    -0.744 OA
ENDBRANCH  89  90
ENDBRANCH  57  82
BRANCH  69  94
ATOM     94  C   UNL A   1      45.317  30.917  28.736  1.00  0.00     0.058 A 
ATOM     95  C   UNL A   1      44.237  31.361  27.954  1.00  0.00     0.135 A 
ATOM     96  C   UNL A   1      46.544  31.577  28.563  1.00  0.00     0.135 A 
ATOM     97  F   UNL A   1      43.006  30.860  28.132  1.00  0.00    -0.206 F 
ATOM     98  C   UNL A   1      44.378  32.386  27.018  1.00  0.00     0.059 A 
ATOM     99  C   UNL A   1      46.701  32.622  27.655  1.00  0.00     0.059 A 
ATOM    100  F   UNL A   1      47.600  31.245  29.325  1.00  0.00    -0.206 F 
ATOM    101  C   UNL A   1      45.614  33.014  26.876  1.00  0.00     0.060 A 
BRANCH 101 102
ATOM    102  S   UNL A   1      45.766  34.406  25.735  1.00  0.00     0.124 S 
ATOM    103  O   UNL A   1      44.820  34.045  24.685  1.00  0.00    -0.237 OA
ATOM    104  O   UNL A   1      45.386  35.545  26.566  1.00  0.00    -0.237 OA
ATOM    105  O   UNL A   1      47.174  34.374  25.346  1.00  0.00    -0.744 OA
ENDBRANCH 101 102
ENDBRANCH  69  94
ENDBRANCH  43  44
ENDBRANCH  35  38
ENDBRANCH  33  34
ENDBRANCH   1  33
TORSDOF 18
ENDMDL
MODEL 3
REMARK VINA RESULT:     -13.0      2.951      9.597
REMARK SMILES COc1ccccc1[C@@H]1C[N@@H+](Cc2cn3cc(C)ccc3n2)C[C@H]1C(=O)NCCCCNC(=O)c1ccc(-c2c3nc(c(-c4c(F)cc(S(=O)(=O)[O-])cc4F)c4ccc([nH]4)c(-c4c(F)cc(S(=O)(=O)[O-])cc4F)c4nc(c(-c5c(F)cc(S(=O)(=O)[O-])cc5F)c5ccc2[nH]5)C=C4)C=C3)cc1
REMARK SMILES IDX 30 1 29 2 28 3 27 4 25 5 26 6 24 8 9 9 10 10 11 11 23 12
REMARK SMILES IDX 8 14 3 15 4 16 5 17 7 18 6 19 2 20 1 21 12 22 13 23 14 24
REMARK SMILES IDX 22 25 15 26 21 27 16 28 20 29 17 30 19 31 18 32 31 33 32 34
REMARK SMILES IDX 33 35 34 37 35 38 36 39 100 40 37 41 99 42 38 43 39 44 40 45
REMARK SMILES IDX 93 46 41 47 98 48 92 49 94 50 42 51 97 52 91 53 90 54 43 56
REMARK SMILES IDX 77 57 56 58 76 59 57 60 60 61 75 62 95 63 58 64 59 65 74 67
REMARK SMILES IDX 96 68 61 69 44 70 45 71 54 72 46 73 47 74 53 75 55 76 48 77
REMARK SMILES IDX 49 78 50 79 51 80 52 81 78 82 79 83 88 84 80 85 81 86 87 87
REMARK SMILES IDX 89 88 82 89 83 90 84 91 85 92 86 93 62 94 63 95 72 96 64 97
REMARK SMILES IDX 65 98 71 99 73 100 66 101 67 102 68 103 69 104 70 105
REMARK H PARENT 27 7 11 13 32 36 94 55 60 66
REMARK Flexibility Score: inf
ROOT
ATOM      1  C   UNL A   1      36.382  23.219  25.166  1.00  0.00     0.023 C 
ENDROOT
BRANCH   1   2
ATOM      2  C   UNL A   1      35.358  24.340  25.384  1.00  0.00     0.023 C 
BRANCH   2   3
ATOM      3  C   UNL A   1      34.126  23.998  26.256  1.00  0.00     0.116 C 
BRANCH   3   4
ATOM      4  N   UNL A   1      33.218  25.092  26.586  1.00  0.00    -0.356 N 
ATOM      5  C   UNL A   1      31.958  25.502  26.291  1.00  0.00     0.229 C 
ATOM      6  O   UNL A   1      31.631  26.539  26.899  1.00  0.00    -0.275 OA
ATOM      7  H   UNL A   1      33.648  25.720  27.209  1.00  0.00     0.163 HD
BRANCH   5   8
ATOM      8  C   UNL A   1      30.893  24.858  25.377  1.00  0.00     0.146 C 
ATOM      9  C   UNL A   1      30.908  25.428  23.924  1.00  0.00     0.096 C 
ATOM     10  C   UNL A   1      30.506  24.246  23.033  1.00  0.00     0.272 C 
ATOM     11  N   UNL A   1      31.025  23.056  23.717  1.00  0.00    -0.329 N 
ATOM     12  C   UNL A   1      30.847  23.346  25.150  1.00  0.00     0.276 C 
ATOM     13  H   UNL A   1      30.505  22.228  23.430  1.00  0.00     0.348 HD
BRANCH   9  14
ATOM     14  C   UNL A   1      30.381  26.791  23.523  1.00  0.00     0.004 A 
ATOM     15  C   UNL A   1      31.130  27.956  23.351  1.00  0.00     0.122 A 
ATOM     16  C   UNL A   1      30.491  29.198  23.204  1.00  0.00     0.047 A 
ATOM     17  C   UNL A   1      29.097  29.296  23.209  1.00  0.00     0.004 A 
ATOM     18  C   UNL A   1      28.968  26.920  23.483  1.00  0.00     0.008 A 
ATOM     19  C   UNL A   1      28.332  28.149  23.345  1.00  0.00     0.001 A 
BRANCH  15  20
ATOM     20  O   UNL A   1      32.492  27.988  23.452  1.00  0.00    -0.496 OA
ATOM     21  C   UNL A   1      32.924  28.810  24.535  1.00  0.00     0.278 C 
ENDBRANCH  15  20
ENDBRANCH   9  14
BRANCH  11  22
ATOM     22  C   UNL A   1      32.380  22.591  23.320  1.00  0.00     0.321 C 
BRANCH  22  23
ATOM     23  C   UNL A   1      32.798  21.180  23.663  1.00  0.00     0.114 A 
ATOM     24  C   UNL A   1      33.743  20.697  24.557  1.00  0.00     0.122 A 
ATOM     25  N   UNL A   1      32.266  20.117  22.991  1.00  0.00    -0.228 NA
ATOM     26  N   UNL A   1      33.722  19.318  24.438  1.00  0.00    -0.306 N 
ATOM     27  C   UNL A   1      32.686  19.026  23.576  1.00  0.00     0.137 A 
ATOM     28  C   UNL A   1      34.554  18.327  24.961  1.00  0.00     0.096 A 
ATOM     29  C   UNL A   1      32.325  17.667  23.381  1.00  0.00     0.048 A 
ATOM     30  C   UNL A   1      34.305  17.031  24.667  1.00  0.00    -0.034 A 
ATOM     31  C   UNL A   1      33.101  16.702  23.902  1.00  0.00     0.009 A 
ATOM     32  C   UNL A   1      35.206  15.890  25.013  1.00  0.00     0.046 C 
ENDBRANCH  22  23
ENDBRANCH  11  22
ENDBRANCH   5   8
ENDBRANCH   3   4
ENDBRANCH   2   3
ENDBRANCH   1   2
BRANCH   1  33
ATOM     33  C   UNL A   1      37.808  23.510  25.645  1.00  0.00     0.116 C 
BRANCH  33  34
ATOM     34  N   UNL A   1      38.420  22.467  26.469  1.00  0.00    -0.352 N 
ATOM     35  C   UNL A   1      39.704  22.464  27.010  1.00  0.00     0.251 C 
ATOM     36  H   UNL A   1      37.863  21.678  26.661  1.00  0.00     0.163 HD
ATOM     37  O   UNL A   1      40.230  21.466  27.436  1.00  0.00    -0.269 OA
BRANCH  35  38
ATOM     38  C   UNL A   1      40.379  23.779  27.055  1.00  0.00     0.039 A 
ATOM     39  C   UNL A   1      39.777  24.892  26.475  1.00  0.00     0.014 A 
ATOM     40  C   UNL A   1      41.403  23.908  27.987  1.00  0.00     0.014 A 
ATOM     41  C   UNL A   1      40.108  26.156  26.965  1.00  0.00     0.010 A 
ATOM     42  C   UNL A   1      41.638  25.154  28.545  1.00  0.00     0.010 A 
ATOM     43  C   UNL A   1      40.977  26.292  28.066  1.00  0.00    -0.014 A 
BRANCH  43  44
ATOM     44  C   UNL A   1      41.038  27.586  28.773  1.00  0.00     0.031 A 
ATOM     45  C   UNL A   1      42.094  28.563  28.335  1.00  0.00     0.074 A 
ATOM     46  C   UNL A   1      40.128  28.078  29.643  1.00  0.00     0.049 A 
ATOM     47  N   UNL A   1      43.132  28.965  28.998  1.00  0.00    -0.248 NA
ATOM     48  C   UNL A   1      42.001  29.141  26.986  1.00  0.00     0.031 C 
ATOM     49  C   UNL A   1      38.826  27.534  30.043  1.00  0.00     0.029 A 
ATOM     50  N   UNL A   1      40.175  29.270  30.311  1.00  0.00    -0.354 N 
ATOM     51  C   UNL A   1      43.737  29.967  28.236  1.00  0.00     0.074 A 
ATOM     52  C   UNL A   1      43.057  29.960  26.965  1.00  0.00     0.031 C 
ATOM     53  C   UNL A   1      38.120  28.484  30.693  1.00  0.00     0.029 A 
ATOM     54  C   UNL A   1      38.990  29.620  30.930  1.00  0.00     0.049 A 
ATOM     55  H   UNL A   1      40.984  29.831  30.348  1.00  0.00     0.167 HD
ATOM     56  C   UNL A   1      44.656  30.831  28.761  1.00  0.00     0.037 A 
ATOM     57  C   UNL A   1      38.723  30.752  31.620  1.00  0.00     0.037 A 
ATOM     58  C   UNL A   1      45.113  30.401  30.057  1.00  0.00     0.049 A 
ATOM     59  C   UNL A   1      40.012  31.289  32.118  1.00  0.00     0.074 A 
ATOM     60  C   UNL A   1      45.760  29.288  30.556  1.00  0.00     0.029 A 
ATOM     61  N   UNL A   1      44.639  31.072  31.157  1.00  0.00    -0.354 N 
ATOM     62  N   UNL A   1      40.763  30.685  32.998  1.00  0.00    -0.248 NA
ATOM     63  C   UNL A   1      40.656  32.371  31.391  1.00  0.00     0.031 C 
ATOM     64  C   UNL A   1      45.224  29.101  31.865  1.00  0.00     0.029 A 
ATOM     65  C   UNL A   1      44.298  30.122  32.085  1.00  0.00     0.049 A 
ATOM     66  H   UNL A   1      44.558  32.048  31.258  1.00  0.00     0.167 HD
ATOM     67  C   UNL A   1      42.061  31.027  32.657  1.00  0.00     0.074 A 
ATOM     68  C   UNL A   1      41.922  32.172  31.765  1.00  0.00     0.031 C 
ATOM     69  C   UNL A   1      43.108  30.186  32.907  1.00  0.00     0.037 A 
BRANCH  56  70
ATOM     70  C   UNL A   1      44.955  32.231  28.264  1.00  0.00     0.058 A 
ATOM     71  C   UNL A   1      46.274  32.566  27.877  1.00  0.00     0.135 A 
ATOM     72  C   UNL A   1      44.077  33.321  28.430  1.00  0.00     0.135 A 
ATOM     73  F   UNL A   1      47.196  31.609  27.689  1.00  0.00    -0.206 F 
ATOM     74  C   UNL A   1      46.708  33.887  27.750  1.00  0.00     0.059 A 
ATOM     75  C   UNL A   1      44.476  34.646  28.257  1.00  0.00     0.059 A 
ATOM     76  F   UNL A   1      42.820  33.153  28.860  1.00  0.00    -0.206 F 
ATOM     77  C   UNL A   1      45.805  34.921  27.970  1.00  0.00     0.060 A 
BRANCH  77  78
ATOM     78  S   UNL A   1      46.393  36.628  27.953  1.00  0.00     0.124 S 
ATOM     79  O   UNL A   1      46.118  37.010  26.572  1.00  0.00    -0.237 OA
ATOM     80  O   UNL A   1      45.554  37.255  28.968  1.00  0.00    -0.237 OA
ATOM     81  O   UNL A   1      47.803  36.496  28.307  1.00  0.00    -0.744 OA
ENDBRANCH  77  78
ENDBRANCH  56  70
BRANCH  57  82
ATOM     82  C   UNL A   1      37.438  31.479  31.689  1.00  0.00     0.058 A 
ATOM     83  C   UNL A   1      36.789  31.712  32.910  1.00  0.00     0.135 A 
ATOM     84  C   UNL A   1      36.947  32.185  30.570  1.00  0.00     0.135 A 
ATOM     85  F   UNL A   1      37.209  31.098  34.026  1.00  0.00    -0.206 F 
ATOM     86  C   UNL A   1      35.737  32.625  33.025  1.00  0.00     0.059 A 
ATOM     87  C   UNL A   1      35.894  33.091  30.659  1.00  0.00     0.059 A 
ATOM     88  F   UNL A   1      37.541  32.079  29.370  1.00  0.00    -0.206 F 
ATOM     89  C   UNL A   1      35.310  33.324  31.897  1.00  0.00     0.060 A 
BRANCH  89  90
ATOM     90  S   UNL A   1      34.078  34.633  32.080  1.00  0.00     0.124 S 
ATOM     91  O   UNL A   1      33.591  34.781  30.713  1.00  0.00    -0.237 OA
ATOM     92  O   UNL A   1      33.142  34.044  33.031  1.00  0.00    -0.237 OA
ATOM     93  O   UNL A   1      34.855  35.760  32.591  1.00  0.00    -0.744 OA
ENDBRANCH  89  90
ENDBRANCH  57  82
BRANCH  69  94
ATOM     94  C   UNL A   1      42.909  29.066  33.894  1.00  0.00     0.058 A 
ATOM     95  C   UNL A   1      43.103  29.193  35.280  1.00  0.00     0.135 A 
ATOM     96  C   UNL A   1      42.349  27.863  33.435  1.00  0.00     0.135 A 
ATOM     97  F   UNL A   1      43.531  30.345  35.813  1.00  0.00    -0.206 F 
ATOM     98  C   UNL A   1      42.790  28.159  36.165  1.00  0.00     0.059 A 
ATOM     99  C   UNL A   1      42.002  26.829  34.302  1.00  0.00     0.059 A 
ATOM    100  F   UNL A   1      42.079  27.702  32.128  1.00  0.00    -0.206 F 
ATOM    101  C   UNL A   1      42.237  26.981  35.667  1.00  0.00     0.060 A 
BRANCH 101 102
ATOM    102  S   UNL A   1      41.741  25.686  36.825  1.00  0.00     0.124 S 
ATOM    103  O   UNL A   1      42.921  25.568  37.675  1.00  0.00    -0.237 OA
ATOM    104  O   UNL A   1      40.557  26.259  37.460  1.00  0.00    -0.237 OA
ATOM    105  O   UNL A   1      41.478  24.539  35.959  1.00  0.00    -0.744 OA
ENDBRANCH 101 102
ENDBRANCH  69  94
ENDBRANCH  43  44
ENDBRANCH  35  38
ENDBRANCH  33  34
ENDBRANCH   1  33
TORSDOF 18
ENDMDL
