MODEL 1
REMARK VINA RESULT:     -11.0      0.000      0.000
REMARK SMILES O=C(CCC(=O)c1c[nH]c2ccccc12)NCCCCNC(=O)c1ccc(-c2c3nc(c(-c4c(F)cc(S(=O)(=O)[O-])cc4F)c4ccc([nH]4)c(-c4c(F)cc(S(=O)(=O)[O-])cc4F)c4nc(c(-c5c(F)cc(S(=O)(=O)[O-])cc5F)c5ccc2[nH]5)C=C4)C=C3)cc1
REMARK SMILES IDX 18 1 17 2 16 3 1 4 2 5 3 7 4 8 5 9 6 10 7 11 8 12 15 13 9 14
REMARK SMILES IDX 10 15 14 16 11 18 13 19 12 20 19 21 20 22 21 23 22 24 23 26
REMARK SMILES IDX 24 27 25 28 89 29 26 30 88 31 27 32 28 33 29 34 82 35 30 36
REMARK SMILES IDX 87 37 81 38 83 39 31 40 86 41 80 42 79 43 32 45 66 46 45 47
REMARK SMILES IDX 65 48 46 49 49 50 64 51 84 52 47 53 48 54 63 56 85 57 50 58
REMARK SMILES IDX 33 59 34 60 43 61 35 62 36 63 42 64 44 65 37 66 38 67 39 68
REMARK SMILES IDX 40 69 41 70 67 71 68 72 77 73 69 74 70 75 76 76 78 77 71 78
REMARK SMILES IDX 72 79 73 80 74 81 75 82 51 83 52 84 61 85 53 86 54 87 60 88
REMARK SMILES IDX 62 89 55 90 56 91 57 92 58 93 59 94
REMARK H PARENT 16 6 9 17 21 25 83 44 49 55
REMARK Flexibility Score: inf
ROOT
ATOM      1  C   UNL A   1      33.260  34.752  28.072  1.00  0.00     0.023 C 
ENDROOT
BRANCH   1   2
ATOM      2  C   UNL A   1      32.910  36.073  29.795  1.00  0.00     0.116 C 
BRANCH   2   3
ATOM      3  N   UNL A   1      33.140  35.871  31.376  1.00  0.00    -0.356 N 
ATOM      4  O   UNL A   1      33.057  37.980  32.264  1.00  0.00    -0.275 OA
ATOM      5  C   UNL A   1      33.482  36.827  32.294  1.00  0.00     0.220 C 
ATOM      6  H   UNL A   1      33.023  34.957  31.720  1.00  0.00     0.163 HD
BRANCH   5   7
ATOM      7  C   UNL A   1      34.614  36.430  33.244  1.00  0.00     0.108 C 
BRANCH   7   8
ATOM      8  C   UNL A   1      34.334  35.404  34.340  1.00  0.00     0.091 C 
BRANCH   8   9
ATOM      9  C   UNL A   1      35.335  34.239  34.422  1.00  0.00     0.165 C 
ATOM     10  O   UNL A   1      35.833  33.900  35.491  1.00  0.00    -0.294 OA
BRANCH   9  11
ATOM     11  C   UNL A   1      35.565  33.483  33.194  1.00  0.00     0.043 A 
ATOM     12  C   UNL A   1      34.578  32.763  32.517  1.00  0.00     0.095 A 
ATOM     13  C   UNL A   1      36.698  33.602  32.337  1.00  0.00     0.010 A 
ATOM     14  N   UNL A   1      34.872  32.471  31.188  1.00  0.00    -0.360 N 
ATOM     15  C   UNL A   1      36.086  32.990  30.810  1.00  0.00     0.046 A 
ATOM     16  C   UNL A   1      38.268  34.525  32.356  1.00  0.00     0.011 A 
ATOM     17  H   UNL A   1      34.280  31.957  30.592  1.00  0.00     0.166 HD
ATOM     18  C   UNL A   1      36.985  33.262  29.271  1.00  0.00     0.027 A 
ATOM     19  C   UNL A   1      39.159  34.863  30.822  1.00  0.00     0.001 A 
ATOM     20  C   UNL A   1      38.514  34.216  29.291  1.00  0.00     0.002 A 
ENDBRANCH   9  11
ENDBRANCH   8   9
ENDBRANCH   7   8
ENDBRANCH   5   7
ENDBRANCH   2   3
ENDBRANCH   1   2
BRANCH   1  21
ATOM     21  C   UNL A   1      32.964  33.124  27.627  1.00  0.00     0.023 C 
BRANCH  21  22
ATOM     22  C   UNL A   1      34.032  32.045  27.779  1.00  0.00     0.116 C 
BRANCH  22  23
ATOM     23  N   UNL A   1      33.712  30.741  27.217  1.00  0.00    -0.352 N 
ATOM     24  C   UNL A   1      34.478  29.599  27.275  1.00  0.00     0.251 C 
ATOM     25  H   UNL A   1      32.852  30.669  26.742  1.00  0.00     0.163 HD
ATOM     26  O   UNL A   1      34.121  28.566  26.721  1.00  0.00    -0.269 OA
BRANCH  24  27
ATOM     27  C   UNL A   1      35.775  29.673  27.978  1.00  0.00     0.039 A 
ATOM     28  C   UNL A   1      35.827  29.340  29.332  1.00  0.00     0.014 A 
ATOM     29  C   UNL A   1      36.944  29.941  27.263  1.00  0.00     0.014 A 
ATOM     30  C   UNL A   1      37.069  29.192  29.950  1.00  0.00     0.010 A 
ATOM     31  C   UNL A   1      38.177  29.708  27.856  1.00  0.00     0.010 A 
ATOM     32  C   UNL A   1      38.252  29.327  29.205  1.00  0.00    -0.014 A 
BRANCH  32  33
ATOM     33  C   UNL A   1      39.579  29.063  29.815  1.00  0.00     0.031 A 
ATOM     34  C   UNL A   1      40.065  29.924  30.947  1.00  0.00     0.074 A 
ATOM     35  C   UNL A   1      40.369  28.099  29.302  1.00  0.00     0.049 A 
ATOM     36  N   UNL A   1      41.210  29.889  31.578  1.00  0.00    -0.248 NA
ATOM     37  C   UNL A   1      39.156  30.985  31.411  1.00  0.00     0.031 C 
ATOM     38  C   UNL A   1      40.034  27.247  28.157  1.00  0.00     0.029 A 
ATOM     39  N   UNL A   1      41.622  27.677  29.671  1.00  0.00    -0.354 N 
ATOM     40  C   UNL A   1      41.163  30.925  32.502  1.00  0.00     0.074 A 
ATOM     41  C   UNL A   1      39.905  31.611  32.308  1.00  0.00     0.031 C 
ATOM     42  C   UNL A   1      41.043  26.389  27.936  1.00  0.00     0.029 A 
ATOM     43  C   UNL A   1      42.109  26.647  28.900  1.00  0.00     0.049 A 
ATOM     44  H   UNL A   1      42.126  28.074  30.418  1.00  0.00     0.167 HD
ATOM     45  C   UNL A   1      42.073  31.257  33.448  1.00  0.00     0.037 A 
ATOM     46  C   UNL A   1      43.280  25.987  28.964  1.00  0.00     0.037 A 
ATOM     47  C   UNL A   1      43.309  30.552  33.653  1.00  0.00     0.049 A 
ATOM     48  C   UNL A   1      44.268  26.358  30.037  1.00  0.00     0.074 A 
ATOM     49  C   UNL A   1      44.275  30.767  34.620  1.00  0.00     0.029 A 
ATOM     50  N   UNL A   1      43.750  29.488  32.877  1.00  0.00    -0.354 N 
ATOM     51  N   UNL A   1      44.175  27.294  30.953  1.00  0.00    -0.248 NA
ATOM     52  C   UNL A   1      45.513  25.581  30.096  1.00  0.00     0.031 C 
ATOM     53  C   UNL A   1      45.317  29.859  34.406  1.00  0.00     0.029 A 
ATOM     54  C   UNL A   1      44.980  29.047  33.334  1.00  0.00     0.049 A 
ATOM     55  H   UNL A   1      43.261  29.106  32.113  1.00  0.00     0.167 HD
ATOM     56  C   UNL A   1      45.337  27.201  31.711  1.00  0.00     0.074 A 
ATOM     57  C   UNL A   1      46.110  26.109  31.156  1.00  0.00     0.031 C 
ATOM     58  C   UNL A   1      45.728  27.951  32.771  1.00  0.00     0.037 A 
BRANCH  45  59
ATOM     59  C   UNL A   1      41.750  32.424  34.340  1.00  0.00     0.058 A 
ATOM     60  C   UNL A   1      41.119  32.247  35.582  1.00  0.00     0.135 A 
ATOM     61  C   UNL A   1      42.086  33.733  33.958  1.00  0.00     0.135 A 
ATOM     62  F   UNL A   1      40.759  31.019  35.989  1.00  0.00    -0.206 F 
ATOM     63  C   UNL A   1      40.800  33.327  36.398  1.00  0.00     0.059 A 
ATOM     64  C   UNL A   1      41.803  34.826  34.772  1.00  0.00     0.059 A 
ATOM     65  F   UNL A   1      42.689  33.961  32.780  1.00  0.00    -0.206 F 
ATOM     66  C   UNL A   1      41.144  34.614  35.982  1.00  0.00     0.060 A 
BRANCH  66  67
ATOM     67  S   UNL A   1      40.717  36.006  37.049  1.00  0.00     0.124 S 
ATOM     68  O   UNL A   1      42.019  36.644  37.226  1.00  0.00    -0.237 OA
ATOM     69  O   UNL A   1      39.757  36.743  36.232  1.00  0.00    -0.237 OA
ATOM     70  O   UNL A   1      40.164  35.368  38.238  1.00  0.00    -0.744 OA
ENDBRANCH  66  67
ENDBRANCH  45  59
BRANCH  46  71
ATOM     71  C   UNL A   1      43.570  24.885  28.006  1.00  0.00     0.058 A 
ATOM     72  C   UNL A   1      44.284  25.127  26.824  1.00  0.00     0.135 A 
ATOM     73  C   UNL A   1      43.150  23.570  28.257  1.00  0.00     0.135 A 
ATOM     74  F   UNL A   1      44.704  26.368  26.536  1.00  0.00    -0.206 F 
ATOM     75  C   UNL A   1      44.560  24.109  25.916  1.00  0.00     0.059 A 
ATOM     76  C   UNL A   1      43.433  22.530  27.376  1.00  0.00     0.059 A 
ATOM     77  F   UNL A   1      42.477  23.282  29.383  1.00  0.00    -0.206 F 
ATOM     78  C   UNL A   1      44.130  22.812  26.202  1.00  0.00     0.060 A 
BRANCH  78  79
ATOM     79  S   UNL A   1      44.533  21.489  25.039  1.00  0.00     0.124 S 
ATOM     80  O   UNL A   1      43.519  20.492  25.366  1.00  0.00    -0.237 OA
ATOM     81  O   UNL A   1      44.378  22.157  23.750  1.00  0.00    -0.237 OA
ATOM     82  O   UNL A   1      45.904  21.138  25.393  1.00  0.00    -0.744 OA
ENDBRANCH  78  79
ENDBRANCH  46  71
BRANCH  58  83
ATOM     83  C   UNL A   1      47.036  27.597  33.421  1.00  0.00     0.058 A 
ATOM     84  C   UNL A   1      47.113  26.649  34.452  1.00  0.00     0.135 A 
ATOM     85  C   UNL A   1      48.233  28.171  32.964  1.00  0.00     0.135 A 
ATOM     86  F   UNL A   1      45.997  26.076  34.928  1.00  0.00    -0.206 F 
ATOM     87  C   UNL A   1      48.332  26.296  35.023  1.00  0.00     0.059 A 
ATOM     88  C   UNL A   1      49.465  27.812  33.501  1.00  0.00     0.059 A 
ATOM     89  F   UNL A   1      48.214  29.075  31.972  1.00  0.00    -0.206 F 
ATOM     90  C   UNL A   1      49.503  26.881  34.538  1.00  0.00     0.060 A 
BRANCH  90  91
ATOM     91  S   UNL A   1      51.082  26.384  35.257  1.00  0.00     0.124 S 
ATOM     92  O   UNL A   1      52.020  26.783  34.214  1.00  0.00    -0.237 OA
ATOM     93  O   UNL A   1      51.129  27.172  36.486  1.00  0.00    -0.237 OA
ATOM     94  O   UNL A   1      50.930  24.945  35.449  1.00  0.00    -0.744 OA
ENDBRANCH  90  91
ENDBRANCH  58  83
ENDBRANCH  32  33
ENDBRANCH  24  27
ENDBRANCH  22  23
ENDBRANCH  21  22
ENDBRANCH   1  21
TORSDOF 17
ENDMDL
MODEL 2
REMARK VINA RESULT:     -11.0      4.670      7.612
REMARK SMILES O=C(CCC(=O)c1c[nH]c2ccccc12)NCCCCNC(=O)c1ccc(-c2c3nc(c(-c4c(F)cc(S(=O)(=O)[O-])cc4F)c4ccc([nH]4)c(-c4c(F)cc(S(=O)(=O)[O-])cc4F)c4nc(c(-c5c(F)cc(S(=O)(=O)[O-])cc5F)c5ccc2[nH]5)C=C4)C=C3)cc1
REMARK SMILES IDX 18 1 17 2 16 3 1 4 2 5 3 7 4 8 5 9 6 10 7 11 8 12 15 13 9 14
REMARK SMILES IDX 10 15 14 16 11 18 13 19 12 20 19 21 20 22 21 23 22 24 23 26
REMARK SMILES IDX 24 27 25 28 89 29 26 30 88 31 27 32 28 33 29 34 82 35 30 36
REMARK SMILES IDX 87 37 81 38 83 39 31 40 86 41 80 42 79 43 32 45 66 46 45 47
REMARK SMILES IDX 65 48 46 49 49 50 64 51 84 52 47 53 48 54 63 56 85 57 50 58
REMARK SMILES IDX 33 59 34 60 43 61 35 62 36 63 42 64 44 65 37 66 38 67 39 68
REMARK SMILES IDX 40 69 41 70 67 71 68 72 77 73 69 74 70 75 76 76 78 77 71 78
REMARK SMILES IDX 72 79 73 80 74 81 75 82 51 83 52 84 61 85 53 86 54 87 60 88
REMARK SMILES IDX 62 89 55 90 56 91 57 92 58 93 59 94
REMARK H PARENT 16 6 9 17 21 25 83 44 49 55
REMARK Flexibility Score: inf
ROOT
ATOM      1  C   UNL A   1      32.033  27.934  24.935  1.00  0.00     0.023 C 
ENDROOT
BRANCH   1   2
ATOM      2  C   UNL A   1      30.481  26.411  25.272  1.00  0.00     0.116 C 
BRANCH   2   3
ATOM      3  N   UNL A   1      30.517  24.802  25.216  1.00  0.00    -0.356 N 
ATOM      4  O   UNL A   1      29.632  24.117  27.214  1.00  0.00    -0.275 OA
ATOM      5  C   UNL A   1      30.392  23.931  26.265  1.00  0.00     0.220 C 
ATOM      6  H   UNL A   1      30.643  24.399  24.327  1.00  0.00     0.163 HD
BRANCH   5   7
ATOM      7  C   UNL A   1      31.429  22.808  26.296  1.00  0.00     0.108 C 
BRANCH   7   8
ATOM      8  C   UNL A   1      32.899  23.152  26.058  1.00  0.00     0.091 C 
BRANCH   8   9
ATOM      9  C   UNL A   1      33.437  22.807  24.659  1.00  0.00     0.165 C 
ATOM     10  O   UNL A   1      34.500  23.266  24.254  1.00  0.00    -0.294 OA
BRANCH   9  11
ATOM     11  C   UNL A   1      32.688  21.815  23.893  1.00  0.00     0.043 A 
ATOM     12  C   UNL A   1      32.032  22.081  22.689  1.00  0.00     0.095 A 
ATOM     13  C   UNL A   1      32.761  20.401  24.058  1.00  0.00     0.010 A 
ATOM     14  N   UNL A   1      31.746  20.960  21.915  1.00  0.00    -0.360 N 
ATOM     15  C   UNL A   1      32.205  19.806  22.502  1.00  0.00     0.046 A 
ATOM     16  C   UNL A   1      33.599  19.252  25.196  1.00  0.00     0.011 A 
ATOM     17  H   UNL A   1      31.273  20.991  21.052  1.00  0.00     0.166 HD
ATOM     18  C   UNL A   1      32.453  18.087  22.020  1.00  0.00     0.027 A 
ATOM     19  C   UNL A   1      33.914  17.540  24.716  1.00  0.00     0.001 A 
ATOM     20  C   UNL A   1      33.326  16.969  23.133  1.00  0.00     0.002 A 
ENDBRANCH   9  11
ENDBRANCH   8   9
ENDBRANCH   7   8
ENDBRANCH   5   7
ENDBRANCH   2   3
ENDBRANCH   1   2
BRANCH   1  21
ATOM     21  C   UNL A   1      33.463  28.493  25.695  1.00  0.00     0.023 C 
BRANCH  21  22
ATOM     22  C   UNL A   1      33.561  28.639  27.211  1.00  0.00     0.116 C 
BRANCH  22  23
ATOM     23  N   UNL A   1      33.499  29.997  27.729  1.00  0.00    -0.352 N 
ATOM     24  C   UNL A   1      34.523  30.717  28.302  1.00  0.00     0.251 C 
ATOM     25  H   UNL A   1      32.627  30.450  27.664  1.00  0.00     0.163 HD
ATOM     26  O   UNL A   1      34.336  31.844  28.746  1.00  0.00    -0.269 OA
BRANCH  24  27
ATOM     27  C   UNL A   1      35.843  30.067  28.418  1.00  0.00     0.039 A 
ATOM     28  C   UNL A   1      36.717  30.117  27.331  1.00  0.00     0.014 A 
ATOM     29  C   UNL A   1      36.254  29.531  29.640  1.00  0.00     0.014 A 
ATOM     30  C   UNL A   1      38.039  29.704  27.499  1.00  0.00     0.010 A 
ATOM     31  C   UNL A   1      37.590  29.203  29.828  1.00  0.00     0.010 A 
ATOM     32  C   UNL A   1      38.497  29.291  28.761  1.00  0.00    -0.014 A 
BRANCH  32  33
ATOM     33  C   UNL A   1      39.925  28.955  28.988  1.00  0.00     0.031 A 
ATOM     34  C   UNL A   1      40.861  30.000  29.527  1.00  0.00     0.074 A 
ATOM     35  C   UNL A   1      40.387  27.737  28.642  1.00  0.00     0.049 A 
ATOM     36  N   UNL A   1      42.147  29.922  29.746  1.00  0.00    -0.248 NA
ATOM     37  C   UNL A   1      40.279  31.318  29.832  1.00  0.00     0.031 C 
ATOM     38  C   UNL A   1      39.587  26.665  28.042  1.00  0.00     0.029 A 
ATOM     39  N   UNL A   1      41.645  27.196  28.736  1.00  0.00    -0.354 N 
ATOM     40  C   UNL A   1      42.530  31.177  30.201  1.00  0.00     0.074 A 
ATOM     41  C   UNL A   1      41.353  32.018  30.167  1.00  0.00     0.031 C 
ATOM     42  C   UNL A   1      40.367  25.589  27.848  1.00  0.00     0.029 A 
ATOM     43  C   UNL A   1      41.726  25.901  28.279  1.00  0.00     0.049 A 
ATOM     44  H   UNL A   1      42.417  27.689  29.097  1.00  0.00     0.167 HD
ATOM     45  C   UNL A   1      43.745  31.585  30.638  1.00  0.00     0.037 A 
ATOM     46  C   UNL A   1      42.778  25.063  28.215  1.00  0.00     0.037 A 
ATOM     47  C   UNL A   1      44.902  30.734  30.694  1.00  0.00     0.049 A 
ATOM     48  C   UNL A   1      44.114  25.530  28.726  1.00  0.00     0.074 A 
ATOM     49  C   UNL A   1      46.167  31.029  31.173  1.00  0.00     0.029 A 
ATOM     50  N   UNL A   1      44.937  29.416  30.259  1.00  0.00    -0.354 N 
ATOM     51  N   UNL A   1      44.441  26.700  29.224  1.00  0.00    -0.248 NA
ATOM     52  C   UNL A   1      45.222  24.566  28.678  1.00  0.00     0.031 C 
ATOM     53  C   UNL A   1      46.975  29.902  30.994  1.00  0.00     0.029 A 
ATOM     54  C   UNL A   1      46.204  28.890  30.445  1.00  0.00     0.049 A 
ATOM     55  H   UNL A   1      44.174  28.930  29.873  1.00  0.00     0.167 HD
ATOM     56  C   UNL A   1      45.785  26.603  29.571  1.00  0.00     0.074 A 
ATOM     57  C   UNL A   1      46.205  25.257  29.238  1.00  0.00     0.031 C 
ATOM     58  C   UNL A   1      46.597  27.542  30.115  1.00  0.00     0.037 A 
BRANCH  45  59
ATOM     59  C   UNL A   1      43.871  33.010  31.101  1.00  0.00     0.058 A 
ATOM     60  C   UNL A   1      44.328  34.024  30.243  1.00  0.00     0.135 A 
ATOM     61  C   UNL A   1      43.521  33.371  32.412  1.00  0.00     0.135 A 
ATOM     62  F   UNL A   1      44.694  33.731  28.985  1.00  0.00    -0.206 F 
ATOM     63  C   UNL A   1      44.467  35.338  30.677  1.00  0.00     0.059 A 
ATOM     64  C   UNL A   1      43.624  34.686  32.859  1.00  0.00     0.059 A 
ATOM     65  F   UNL A   1      43.081  32.443  33.276  1.00  0.00    -0.206 F 
ATOM     66  C   UNL A   1      44.115  35.659  31.988  1.00  0.00     0.060 A 
BRANCH  66  67
ATOM     67  S   UNL A   1      44.308  37.367  32.539  1.00  0.00     0.124 S 
ATOM     68  O   UNL A   1      43.801  38.101  31.383  1.00  0.00    -0.237 OA
ATOM     69  O   UNL A   1      43.468  37.408  33.732  1.00  0.00    -0.237 OA
ATOM     70  O   UNL A   1      45.741  37.488  32.779  1.00  0.00    -0.744 OA
ENDBRANCH  66  67
ENDBRANCH  45  59
BRANCH  46  71
ATOM     71  C   UNL A   1      42.603  23.685  27.680  1.00  0.00     0.058 A 
ATOM     72  C   UNL A   1      42.654  23.436  26.301  1.00  0.00     0.135 A 
ATOM     73  C   UNL A   1      42.393  22.591  28.533  1.00  0.00     0.135 A 
ATOM     74  F   UNL A   1      42.847  24.450  25.442  1.00  0.00    -0.206 F 
ATOM     75  C   UNL A   1      42.488  22.155  25.783  1.00  0.00     0.059 A 
ATOM     76  C   UNL A   1      42.248  21.297  28.041  1.00  0.00     0.059 A 
ATOM     77  F   UNL A   1      42.353  22.773  29.863  1.00  0.00    -0.206 F 
ATOM     78  C   UNL A   1      42.286  21.091  26.663  1.00  0.00     0.060 A 
BRANCH  78  79
ATOM     79  S   UNL A   1      42.118  19.425  25.984  1.00  0.00     0.124 S 
ATOM     80  O   UNL A   1      42.675  18.612  27.060  1.00  0.00    -0.237 OA
ATOM     81  O   UNL A   1      40.675  19.319  25.786  1.00  0.00    -0.237 OA
ATOM     82  O   UNL A   1      42.909  19.481  24.759  1.00  0.00    -0.744 OA
ENDBRANCH  78  79
ENDBRANCH  46  71
BRANCH  58  83
ATOM     83  C   UNL A   1      48.013  27.140  30.416  1.00  0.00     0.058 A 
ATOM     84  C   UNL A   1      49.063  27.422  29.530  1.00  0.00     0.135 A 
ATOM     85  C   UNL A   1      48.329  26.518  31.635  1.00  0.00     0.135 A 
ATOM     86  F   UNL A   1      48.812  28.011  28.351  1.00  0.00    -0.206 F 
ATOM     87  C   UNL A   1      50.379  27.083  29.834  1.00  0.00     0.059 A 
ATOM     88  C   UNL A   1      49.640  26.195  31.970  1.00  0.00     0.059 A 
ATOM     89  F   UNL A   1      47.362  26.237  32.522  1.00  0.00    -0.206 F 
ATOM     90  C   UNL A   1      50.657  26.473  31.058  1.00  0.00     0.060 A 
BRANCH  90  91
ATOM     91  S   UNL A   1      52.372  26.075  31.457  1.00  0.00     0.124 S 
ATOM     92  O   UNL A   1      53.006  26.158  30.146  1.00  0.00    -0.237 OA
ATOM     93  O   UNL A   1      52.727  27.131  32.401  1.00  0.00    -0.237 OA
ATOM     94  O   UNL A   1      52.285  24.736  32.029  1.00  0.00    -0.744 OA
ENDBRANCH  90  91
ENDBRANCH  58  83
ENDBRANCH  32  33
ENDBRANCH  24  27
ENDBRANCH  22  23
ENDBRANCH  21  22
ENDBRANCH   1  21
TORSDOF 17
ENDMDL
MODEL 3
REMARK VINA RESULT:     -10.8      4.734     11.817
REMARK SMILES O=C(CCC(=O)c1c[nH]c2ccccc12)NCCCCNC(=O)c1ccc(-c2c3nc(c(-c4c(F)cc(S(=O)(=O)[O-])cc4F)c4ccc([nH]4)c(-c4c(F)cc(S(=O)(=O)[O-])cc4F)c4nc(c(-c5c(F)cc(S(=O)(=O)[O-])cc5F)c5ccc2[nH]5)C=C4)C=C3)cc1
REMARK SMILES IDX 18 1 17 2 16 3 1 4 2 5 3 7 4 8 5 9 6 10 7 11 8 12 15 13 9 14
REMARK SMILES IDX 10 15 14 16 11 18 13 19 12 20 19 21 20 22 21 23 22 24 23 26
REMARK SMILES IDX 24 27 25 28 89 29 26 30 88 31 27 32 28 33 29 34 82 35 30 36
REMARK SMILES IDX 87 37 81 38 83 39 31 40 86 41 80 42 79 43 32 45 66 46 45 47
REMARK SMILES IDX 65 48 46 49 49 50 64 51 84 52 47 53 48 54 63 56 85 57 50 58
REMARK SMILES IDX 33 59 34 60 43 61 35 62 36 63 42 64 44 65 37 66 38 67 39 68
REMARK SMILES IDX 40 69 41 70 67 71 68 72 77 73 69 74 70 75 76 76 78 77 71 78
REMARK SMILES IDX 72 79 73 80 74 81 75 82 51 83 52 84 61 85 53 86 54 87 60 88
REMARK SMILES IDX 62 89 55 90 56 91 57 92 58 93 59 94
REMARK H PARENT 16 6 9 17 21 25 83 44 49 55
REMARK Flexibility Score: inf
ROOT
ATOM      1  C   UNL A   1      40.660  20.778  26.153  1.00  0.00     0.023 C 
ENDROOT
BRANCH   1   2
ATOM      2  C   UNL A   1      38.572  20.840  25.464  1.00  0.00     0.116 C 
BRANCH   2   3
ATOM      3  N   UNL A   1      37.588  22.064  25.107  1.00  0.00    -0.356 N 
ATOM      4  O   UNL A   1      38.249  23.778  26.474  1.00  0.00    -0.275 OA
ATOM      5  C   UNL A   1      37.367  23.195  25.846  1.00  0.00     0.220 C 
ATOM      6  H   UNL A   1      37.087  21.989  24.263  1.00  0.00     0.163 HD
BRANCH   5   7
ATOM      7  C   UNL A   1      35.895  23.569  26.026  1.00  0.00     0.108 C 
BRANCH   7   8
ATOM      8  C   UNL A   1      35.156  24.240  24.869  1.00  0.00     0.091 C 
BRANCH   8   9
ATOM      9  C   UNL A   1      35.018  23.388  23.595  1.00  0.00     0.165 C 
ATOM     10  O   UNL A   1      35.913  23.344  22.757  1.00  0.00    -0.294 OA
BRANCH   9  11
ATOM     11  C   UNL A   1      33.830  22.544  23.495  1.00  0.00     0.043 A 
ATOM     12  C   UNL A   1      32.721  22.837  22.700  1.00  0.00     0.095 A 
ATOM     13  C   UNL A   1      33.732  21.185  23.914  1.00  0.00     0.010 A 
ATOM     14  N   UNL A   1      31.901  21.751  22.410  1.00  0.00    -0.360 N 
ATOM     15  C   UNL A   1      32.386  20.588  22.958  1.00  0.00     0.046 A 
ATOM     16  C   UNL A   1      34.813  19.990  24.764  1.00  0.00     0.011 A 
ATOM     17  H   UNL A   1      31.076  21.807  21.876  1.00  0.00     0.166 HD
ATOM     18  C   UNL A   1      32.063  18.821  22.807  1.00  0.00     0.027 A 
ATOM     19  C   UNL A   1      34.549  18.213  24.581  1.00  0.00     0.001 A 
ATOM     20  C   UNL A   1      33.166  17.644  23.612  1.00  0.00     0.002 A 
ENDBRANCH   9  11
ENDBRANCH   8   9
ENDBRANCH   7   8
ENDBRANCH   5   7
ENDBRANCH   2   3
ENDBRANCH   1   2
BRANCH   1  21
ATOM     21  C   UNL A   1      41.691  21.667  27.194  1.00  0.00     0.023 C 
BRANCH  21  22
ATOM     22  C   UNL A   1      41.481  23.157  27.449  1.00  0.00     0.116 C 
BRANCH  22  23
ATOM     23  N   UNL A   1      41.401  24.005  26.270  1.00  0.00    -0.352 N 
ATOM     24  C   UNL A   1      41.307  25.378  26.237  1.00  0.00     0.251 C 
ATOM     25  H   UNL A   1      41.415  23.546  25.399  1.00  0.00     0.163 HD
ATOM     26  O   UNL A   1      41.199  25.982  25.177  1.00  0.00    -0.269 OA
BRANCH  24  27
ATOM     27  C   UNL A   1      41.282  26.099  27.526  1.00  0.00     0.039 A 
ATOM     28  C   UNL A   1      42.326  26.974  27.829  1.00  0.00     0.014 A 
ATOM     29  C   UNL A   1      40.166  26.004  28.359  1.00  0.00     0.014 A 
ATOM     30  C   UNL A   1      42.207  27.821  28.931  1.00  0.00     0.010 A 
ATOM     31  C   UNL A   1      40.012  26.906  29.402  1.00  0.00     0.010 A 
ATOM     32  C   UNL A   1      41.029  27.827  29.696  1.00  0.00    -0.014 A 
BRANCH  32  33
ATOM     33  C   UNL A   1      40.836  28.798  30.803  1.00  0.00     0.031 A 
ATOM     34  C   UNL A   1      41.676  28.691  32.044  1.00  0.00     0.074 A 
ATOM     35  C   UNL A   1      39.861  29.725  30.715  1.00  0.00     0.049 A 
ATOM     36  N   UNL A   1      41.627  29.405  33.138  1.00  0.00    -0.248 NA
ATOM     37  C   UNL A   1      42.684  27.618  32.074  1.00  0.00     0.031 C 
ATOM     38  C   UNL A   1      38.936  29.879  29.588  1.00  0.00     0.029 A 
ATOM     39  N   UNL A   1      39.479  30.708  31.592  1.00  0.00    -0.354 N 
ATOM     40  C   UNL A   1      42.584  28.864  33.987  1.00  0.00     0.074 A 
ATOM     41  C   UNL A   1      43.156  27.722  33.307  1.00  0.00     0.031 C 
ATOM     42  C   UNL A   1      38.114  30.912  29.832  1.00  0.00     0.029 A 
ATOM     43  C   UNL A   1      38.429  31.474  31.141  1.00  0.00     0.049 A 
ATOM     44  H   UNL A   1      39.915  30.852  32.463  1.00  0.00     0.167 HD
ATOM     45  C   UNL A   1      42.975  29.297  35.208  1.00  0.00     0.037 A 
ATOM     46  C   UNL A   1      37.794  32.512  31.719  1.00  0.00     0.037 A 
ATOM     47  C   UNL A   1      42.420  30.450  35.864  1.00  0.00     0.049 A 
ATOM     48  C   UNL A   1      38.259  32.990  33.068  1.00  0.00     0.074 A 
ATOM     49  C   UNL A   1      42.783  31.011  37.076  1.00  0.00     0.029 A 
ATOM     50  N   UNL A   1      41.384  31.225  35.359  1.00  0.00    -0.354 N 
ATOM     51  N   UNL A   1      39.219  32.511  33.825  1.00  0.00    -0.248 NA
ATOM     52  C   UNL A   1      37.566  34.153  33.639  1.00  0.00     0.031 C 
ATOM     53  C   UNL A   1      41.942  32.102  37.321  1.00  0.00     0.029 A 
ATOM     54  C   UNL A   1      41.086  32.249  36.242  1.00  0.00     0.049 A 
ATOM     55  H   UNL A   1      40.929  31.067  34.501  1.00  0.00     0.167 HD
ATOM     56  C   UNL A   1      39.261  33.329  34.949  1.00  0.00     0.074 A 
ATOM     57  C   UNL A   1      38.239  34.340  34.766  1.00  0.00     0.031 C 
ATOM     58  C   UNL A   1      40.070  33.251  36.034  1.00  0.00     0.037 A 
BRANCH  45  59
ATOM     59  C   UNL A   1      44.063  28.526  35.901  1.00  0.00     0.058 A 
ATOM     60  C   UNL A   1      45.420  28.833  35.705  1.00  0.00     0.135 A 
ATOM     61  C   UNL A   1      43.751  27.477  36.781  1.00  0.00     0.135 A 
ATOM     62  F   UNL A   1      45.776  29.814  34.861  1.00  0.00    -0.206 F 
ATOM     63  C   UNL A   1      46.429  28.106  36.328  1.00  0.00     0.059 A 
ATOM     64  C   UNL A   1      44.743  26.755  37.438  1.00  0.00     0.059 A 
ATOM     65  F   UNL A   1      42.471  27.139  37.004  1.00  0.00    -0.206 F 
ATOM     66  C   UNL A   1      46.080  27.066  37.191  1.00  0.00     0.060 A 
BRANCH  66  67
ATOM     67  S   UNL A   1      47.401  26.127  37.986  1.00  0.00     0.124 S 
ATOM     68  O   UNL A   1      48.588  26.776  37.437  1.00  0.00    -0.237 OA
ATOM     69  O   UNL A   1      47.146  26.367  39.403  1.00  0.00    -0.237 OA
ATOM     70  O   UNL A   1      47.168  24.760  37.533  1.00  0.00    -0.744 OA
ENDBRANCH  66  67
ENDBRANCH  45  59
BRANCH  46  71
ATOM     71  C   UNL A   1      36.676  33.191  31.010  1.00  0.00     0.058 A 
ATOM     72  C   UNL A   1      35.346  33.005  31.417  1.00  0.00     0.135 A 
ATOM     73  C   UNL A   1      36.911  34.045  29.923  1.00  0.00     0.135 A 
ATOM     74  F   UNL A   1      35.068  32.194  32.449  1.00  0.00    -0.206 F 
ATOM     75  C   UNL A   1      34.288  33.629  30.764  1.00  0.00     0.059 A 
ATOM     76  C   UNL A   1      35.872  34.700  29.267  1.00  0.00     0.059 A 
ATOM     77  F   UNL A   1      38.167  34.270  29.504  1.00  0.00    -0.206 F 
ATOM     78  C   UNL A   1      34.563  34.476  29.689  1.00  0.00     0.060 A 
BRANCH  78  79
ATOM     79  S   UNL A   1      33.185  35.318  28.875  1.00  0.00     0.124 S 
ATOM     80  O   UNL A   1      32.629  34.245  28.058  1.00  0.00    -0.237 OA
ATOM     81  O   UNL A   1      32.372  35.742  30.010  1.00  0.00    -0.237 OA
ATOM     82  O   UNL A   1      33.839  36.397  28.143  1.00  0.00    -0.744 OA
ENDBRANCH  78  79
ENDBRANCH  46  71
BRANCH  58  83
ATOM     83  C   UNL A   1      39.909  34.305  37.093  1.00  0.00     0.058 A 
ATOM     84  C   UNL A   1      39.092  34.102  38.215  1.00  0.00     0.135 A 
ATOM     85  C   UNL A   1      40.630  35.507  37.012  1.00  0.00     0.135 A 
ATOM     86  F   UNL A   1      38.378  32.972  38.336  1.00  0.00    -0.206 F 
ATOM     87  C   UNL A   1      38.979  35.066  39.213  1.00  0.00     0.059 A 
ATOM     88  C   UNL A   1      40.553  36.472  38.012  1.00  0.00     0.059 A 
ATOM     89  F   UNL A   1      41.435  35.744  35.965  1.00  0.00    -0.206 F 
ATOM     90  C   UNL A   1      39.716  36.246  39.103  1.00  0.00     0.060 A 
BRANCH  90  91
ATOM     91  S   UNL A   1      39.593  37.470  40.424  1.00  0.00     0.124 S 
ATOM     92  O   UNL A   1      38.286  38.061  40.156  1.00  0.00    -0.237 OA
ATOM     93  O   UNL A   1      39.680  36.645  41.626  1.00  0.00    -0.237 OA
ATOM     94  O   UNL A   1      40.738  38.343  40.186  1.00  0.00    -0.744 OA
ENDBRANCH  90  91
ENDBRANCH  58  83
ENDBRANCH  32  33
ENDBRANCH  24  27
ENDBRANCH  22  23
ENDBRANCH  21  22
ENDBRANCH   1  21
TORSDOF 17
ENDMDL
