MODEL 1
REMARK VINA RESULT:     -12.1      0.000      0.000
REMARK SMILES Cc1cc(Cl)cc2c1O[C@H](C(F)(F)F)C(C(=O)NCCCCNC(=O)c1ccc(-c3c4nc(c(-c5c(F)cc(S(=O)(=O)[O-])cc5F)c5ccc([nH]5)c(-c5c(F)cc(S(=O)(=O)[O-])cc5F)c5nc(c(-c6c(F)cc(S(=O)(=O)[O-])cc6F)c6ccc3[nH]6)C=C5)C=C4)cc1)=C2
REMARK SMILES IDX 21 1 20 2 19 3 18 4 16 5 17 6 15 8 1 9 2 10 3 11 8 12 4 13
REMARK SMILES IDX 7 14 9 15 5 16 6 17 92 18 10 19 11 20 12 21 13 22 14 23
REMARK SMILES IDX 22 24 23 25 24 26 25 28 26 29 27 30 91 31 28 32 90 33 29 34
REMARK SMILES IDX 30 35 31 36 84 37 32 38 89 39 83 40 85 41 33 42 88 43 82 44
REMARK SMILES IDX 81 45 34 47 68 48 47 49 67 50 48 51 51 52 66 53 86 54 49 55
REMARK SMILES IDX 50 56 65 58 87 59 52 60 35 61 36 62 45 63 37 64 38 65 44 66
REMARK SMILES IDX 46 67 39 68 40 69 41 70 42 71 43 72 69 73 70 74 79 75 71 76
REMARK SMILES IDX 72 77 78 78 80 79 73 80 74 81 75 82 76 83 77 84 53 85 54 86
REMARK SMILES IDX 63 87 55 88 56 89 62 90 64 91 57 92 58 93 59 94 60 95 61 96
REMARK H PARENT 18 7 23 27 85 46 51 57
REMARK Flexibility Score: inf
ROOT
ATOM      1  C   UNL A   1      33.854  28.273  25.935  1.00  0.00     0.023 C 
ENDROOT
BRANCH   1   2
ATOM      2  C   UNL A   1      32.844  28.727  24.879  1.00  0.00     0.023 C 
BRANCH   2   3
ATOM      3  C   UNL A   1      32.057  27.587  24.237  1.00  0.00     0.116 C 
BRANCH   3   4
ATOM      4  N   UNL A   1      31.146  26.958  25.177  1.00  0.00    -0.352 N 
ATOM      5  C   UNL A   1      31.016  25.747  25.764  1.00  0.00     0.251 C 
ATOM      6  O   UNL A   1      30.053  25.634  26.531  1.00  0.00    -0.270 OA
ATOM      7  H   UNL A   1      30.437  27.578  25.463  1.00  0.00     0.163 HD
BRANCH   5   8
ATOM      8  C   UNL A   1      31.926  24.582  25.557  1.00  0.00     0.067 C 
ATOM      9  C   UNL A   1      34.109  19.981  24.852  1.00  0.00     0.048 C 
ATOM     10  C   UNL A   1      34.604  21.353  25.208  1.00  0.00    -0.007 A 
ATOM     11  C   UNL A   1      35.973  21.585  25.397  1.00  0.00     0.027 A 
ATOM     12  C   UNL A   1      33.711  22.419  25.385  1.00  0.00     0.131 A 
ATOM     13  C   UNL A   1      36.429  22.856  25.748  1.00  0.00     0.042 A 
ATOM     14  C   UNL A   1      34.167  23.693  25.742  1.00  0.00     0.019 A 
ATOM     15  O   UNL A   1      32.376  22.151  25.246  1.00  0.00    -0.475 OA
ATOM     16  Cl  UNL A   1      38.115  23.120  25.976  1.00  0.00    -0.084 Cl
ATOM     17  C   UNL A   1      35.534  23.910  25.922  1.00  0.00     0.032 A 
ATOM     18  C   UNL A   1      33.202  24.766  25.950  1.00  0.00     0.025 C 
ATOM     19  C   UNL A   1      31.524  23.284  24.916  1.00  0.00     0.314 C 
BRANCH  19  20
ATOM     20  C   UNL A   1      31.391  23.391  23.386  1.00  0.00     0.429 C 
ATOM     21  F   UNL A   1      30.136  23.783  23.046  1.00  0.00    -0.167 F 
ATOM     22  F   UNL A   1      32.235  24.303  22.851  1.00  0.00    -0.167 F 
ATOM     23  F   UNL A   1      31.630  22.217  22.758  1.00  0.00    -0.167 F 
ENDBRANCH  19  20
ENDBRANCH   5   8
ENDBRANCH   3   4
ENDBRANCH   2   3
ENDBRANCH   1   2
BRANCH   1  24
ATOM     24  C   UNL A   1      33.449  28.525  27.387  1.00  0.00     0.116 C 
BRANCH  24  25
ATOM     25  N   UNL A   1      33.419  29.935  27.755  1.00  0.00    -0.352 N 
ATOM     26  C   UNL A   1      34.457  30.702  28.232  1.00  0.00     0.251 C 
ATOM     27  H   UNL A   1      32.555  30.393  27.650  1.00  0.00     0.163 HD
ATOM     28  O   UNL A   1      34.274  31.867  28.566  1.00  0.00    -0.269 OA
BRANCH  26  29
ATOM     29  C   UNL A   1      35.782  30.073  28.377  1.00  0.00     0.039 A 
ATOM     30  C   UNL A   1      36.674  30.133  27.305  1.00  0.00     0.014 A 
ATOM     31  C   UNL A   1      36.168  29.525  29.603  1.00  0.00     0.014 A 
ATOM     32  C   UNL A   1      37.991  29.716  27.489  1.00  0.00     0.010 A 
ATOM     33  C   UNL A   1      37.496  29.160  29.800  1.00  0.00     0.010 A 
ATOM     34  C   UNL A   1      38.420  29.268  28.750  1.00  0.00    -0.014 A 
BRANCH  34  35
ATOM     35  C   UNL A   1      39.841  28.927  28.994  1.00  0.00     0.031 A 
ATOM     36  C   UNL A   1      40.765  29.946  29.594  1.00  0.00     0.074 A 
ATOM     37  C   UNL A   1      40.308  27.719  28.622  1.00  0.00     0.049 A 
ATOM     38  N   UNL A   1      42.048  29.858  29.829  1.00  0.00    -0.248 NA
ATOM     39  C   UNL A   1      40.172  31.243  29.957  1.00  0.00     0.031 C 
ATOM     40  C   UNL A   1      39.513  26.662  27.990  1.00  0.00     0.029 A 
ATOM     41  N   UNL A   1      41.564  27.176  28.718  1.00  0.00    -0.354 N 
ATOM     42  C   UNL A   1      42.418  31.087  30.360  1.00  0.00     0.074 A 
ATOM     43  C   UNL A   1      41.234  31.920  30.366  1.00  0.00     0.031 C 
ATOM     44  C   UNL A   1      40.293  25.587  27.787  1.00  0.00     0.029 A 
ATOM     45  C   UNL A   1      41.647  25.887  28.245  1.00  0.00     0.049 A 
ATOM     46  H   UNL A   1      42.334  27.663  29.090  1.00  0.00     0.167 HD
ATOM     47  C   UNL A   1      43.628  31.476  30.826  1.00  0.00     0.037 A 
ATOM     48  C   UNL A   1      42.695  25.043  28.192  1.00  0.00     0.037 A 
ATOM     49  C   UNL A   1      44.795  30.636  30.840  1.00  0.00     0.049 A 
ATOM     50  C   UNL A   1      44.029  25.499  28.712  1.00  0.00     0.074 A 
ATOM     51  C   UNL A   1      46.059  30.925  31.323  1.00  0.00     0.029 A 
ATOM     52  N   UNL A   1      44.838  29.337  30.354  1.00  0.00    -0.354 N 
ATOM     53  N   UNL A   1      44.355  26.654  29.240  1.00  0.00    -0.248 NA
ATOM     54  C   UNL A   1      45.139  24.538  28.628  1.00  0.00     0.031 C 
ATOM     55  C   UNL A   1      46.873  29.807  31.108  1.00  0.00     0.029 A 
ATOM     56  C   UNL A   1      46.109  28.813  30.518  1.00  0.00     0.049 A 
ATOM     57  H   UNL A   1      44.077  28.859  29.951  1.00  0.00     0.167 HD
ATOM     58  C   UNL A   1      45.702  26.556  29.566  1.00  0.00     0.074 A 
ATOM     59  C   UNL A   1      46.129  25.224  29.184  1.00  0.00     0.031 C 
ATOM     60  C   UNL A   1      46.512  27.484  30.130  1.00  0.00     0.037 A 
BRANCH  47  61
ATOM     61  C   UNL A   1      43.735  32.869  31.374  1.00  0.00     0.058 A 
ATOM     62  C   UNL A   1      43.522  33.132  32.737  1.00  0.00     0.135 A 
ATOM     63  C   UNL A   1      44.056  33.948  30.537  1.00  0.00     0.135 A 
ATOM     64  F   UNL A   1      43.193  32.136  33.574  1.00  0.00    -0.206 F 
ATOM     65  C   UNL A   1      43.592  34.424  33.246  1.00  0.00     0.059 A 
ATOM     66  C   UNL A   1      44.153  35.247  31.029  1.00  0.00     0.059 A 
ATOM     67  F   UNL A   1      44.265  33.750  29.226  1.00  0.00    -0.206 F 
ATOM     68  C   UNL A   1      43.902  35.476  32.383  1.00  0.00     0.060 A 
BRANCH  68  69
ATOM     69  S   UNL A   1      43.975  37.150  33.055  1.00  0.00     0.124 S 
ATOM     70  O   UNL A   1      43.918  37.953  31.837  1.00  0.00    -0.237 OA
ATOM     71  O   UNL A   1      42.787  37.200  33.902  1.00  0.00    -0.237 OA
ATOM     72  O   UNL A   1      45.249  37.175  33.766  1.00  0.00    -0.744 OA
ENDBRANCH  68  69
ENDBRANCH  47  61
BRANCH  48  73
ATOM     73  C   UNL A   1      42.508  23.668  27.666  1.00  0.00     0.058 A 
ATOM     74  C   UNL A   1      42.527  23.425  26.285  1.00  0.00     0.135 A 
ATOM     75  C   UNL A   1      42.347  22.570  28.523  1.00  0.00     0.135 A 
ATOM     76  F   UNL A   1      42.672  24.446  25.427  1.00  0.00    -0.206 F 
ATOM     77  C   UNL A   1      42.389  22.141  25.770  1.00  0.00     0.059 A 
ATOM     78  C   UNL A   1      42.225  21.273  28.033  1.00  0.00     0.059 A 
ATOM     79  F   UNL A   1      42.339  22.751  29.853  1.00  0.00    -0.206 F 
ATOM     80  C   UNL A   1      42.245  21.069  26.653  1.00  0.00     0.060 A 
BRANCH  80  81
ATOM     81  S   UNL A   1      42.139  19.399  25.976  1.00  0.00     0.124 S 
ATOM     82  O   UNL A   1      42.958  19.515  24.774  1.00  0.00    -0.237 OA
ATOM     83  O   UNL A   1      42.700  18.594  27.056  1.00  0.00    -0.237 OA
ATOM     84  O   UNL A   1      40.708  19.219  25.751  1.00  0.00    -0.744 OA
ENDBRANCH  80  81
ENDBRANCH  48  73
BRANCH  60  85
ATOM     85  C   UNL A   1      47.940  27.095  30.380  1.00  0.00     0.058 A 
ATOM     86  C   UNL A   1      48.943  27.365  29.438  1.00  0.00     0.135 A 
ATOM     87  C   UNL A   1      48.317  26.516  31.602  1.00  0.00     0.135 A 
ATOM     88  F   UNL A   1      48.629  27.911  28.252  1.00  0.00    -0.206 F 
ATOM     89  C   UNL A   1      50.277  27.070  29.697  1.00  0.00     0.059 A 
ATOM     90  C   UNL A   1      49.648  26.228  31.890  1.00  0.00     0.059 A 
ATOM     91  F   UNL A   1      47.392  26.245  32.536  1.00  0.00    -0.206 F 
ATOM     92  C   UNL A   1      50.619  26.504  30.928  1.00  0.00     0.060 A 
BRANCH  92  93
ATOM     93  S   UNL A   1      52.361  26.178  31.275  1.00  0.00     0.124 S 
ATOM     94  O   UNL A   1      52.295  24.858  31.892  1.00  0.00    -0.237 OA
ATOM     95  O   UNL A   1      52.961  26.227  29.945  1.00  0.00    -0.237 OA
ATOM     96  O   UNL A   1      52.739  27.271  32.166  1.00  0.00    -0.744 OA
ENDBRANCH  92  93
ENDBRANCH  60  85
ENDBRANCH  34  35
ENDBRANCH  26  29
ENDBRANCH  24  25
ENDBRANCH   1  24
TORSDOF 15
ENDMDL
MODEL 2
REMARK VINA RESULT:     -11.8      2.171      3.609
REMARK SMILES Cc1cc(Cl)cc2c1O[C@H](C(F)(F)F)C(C(=O)NCCCCNC(=O)c1ccc(-c3c4nc(c(-c5c(F)cc(S(=O)(=O)[O-])cc5F)c5ccc([nH]5)c(-c5c(F)cc(S(=O)(=O)[O-])cc5F)c5nc(c(-c6c(F)cc(S(=O)(=O)[O-])cc6F)c6ccc3[nH]6)C=C5)C=C4)cc1)=C2
REMARK SMILES IDX 21 1 20 2 19 3 18 4 16 5 17 6 15 8 1 9 2 10 3 11 8 12 4 13
REMARK SMILES IDX 7 14 9 15 5 16 6 17 92 18 10 19 11 20 12 21 13 22 14 23
REMARK SMILES IDX 22 24 23 25 24 26 25 28 26 29 27 30 91 31 28 32 90 33 29 34
REMARK SMILES IDX 30 35 31 36 84 37 32 38 89 39 83 40 85 41 33 42 88 43 82 44
REMARK SMILES IDX 81 45 34 47 68 48 47 49 67 50 48 51 51 52 66 53 86 54 49 55
REMARK SMILES IDX 50 56 65 58 87 59 52 60 35 61 36 62 45 63 37 64 38 65 44 66
REMARK SMILES IDX 46 67 39 68 40 69 41 70 42 71 43 72 69 73 70 74 79 75 71 76
REMARK SMILES IDX 72 77 78 78 80 79 73 80 74 81 75 82 76 83 77 84 53 85 54 86
REMARK SMILES IDX 63 87 55 88 56 89 62 90 64 91 57 92 58 93 59 94 60 95 61 96
REMARK H PARENT 18 7 23 27 85 46 51 57
REMARK Flexibility Score: inf
ROOT
ATOM      1  C   UNL A   1      33.258  28.698  25.598  1.00  0.00     0.023 C 
ENDROOT
BRANCH   1   2
ATOM      2  C   UNL A   1      34.035  27.784  24.649  1.00  0.00     0.023 C 
BRANCH   2   3
ATOM      3  C   UNL A   1      33.869  26.295  24.939  1.00  0.00     0.116 C 
BRANCH   3   4
ATOM      4  N   UNL A   1      33.494  25.548  23.752  1.00  0.00    -0.352 N 
ATOM      5  C   UNL A   1      32.413  25.455  22.945  1.00  0.00     0.251 C 
ATOM      6  O   UNL A   1      32.521  24.658  22.007  1.00  0.00    -0.270 OA
ATOM      7  H   UNL A   1      34.219  24.951  23.456  1.00  0.00     0.163 HD
BRANCH   5   8
ATOM      8  C   UNL A   1      31.144  26.228  23.105  1.00  0.00     0.067 C 
ATOM      9  C   UNL A   1      26.328  27.876  23.829  1.00  0.00     0.048 C 
ATOM     10  C   UNL A   1      27.597  28.484  23.303  1.00  0.00    -0.007 A 
ATOM     11  C   UNL A   1      27.624  29.827  22.901  1.00  0.00     0.027 A 
ATOM     12  C   UNL A   1      28.765  27.721  23.178  1.00  0.00     0.131 A 
ATOM     13  C   UNL A   1      28.798  30.385  22.394  1.00  0.00     0.042 A 
ATOM     14  C   UNL A   1      29.942  28.278  22.665  1.00  0.00     0.019 A 
ATOM     15  O   UNL A   1      28.696  26.400  23.529  1.00  0.00    -0.475 OA
ATOM     16  Cl  UNL A   1      28.811  32.035  21.905  1.00  0.00    -0.084 Cl
ATOM     17  C   UNL A   1      29.956  29.618  22.272  1.00  0.00     0.032 A 
ATOM     18  C   UNL A   1      31.126  27.441  22.519  1.00  0.00     0.025 C 
ATOM     19  C   UNL A   1      29.953  25.763  23.892  1.00  0.00     0.314 C 
BRANCH  19  20
ATOM     20  C   UNL A   1      30.161  25.882  25.414  1.00  0.00     0.429 C 
ATOM     21  F   UNL A   1      31.047  24.948  25.845  1.00  0.00    -0.167 F 
ATOM     22  F   UNL A   1      30.662  27.084  25.780  1.00  0.00    -0.167 F 
ATOM     23  F   UNL A   1      29.017  25.703  26.112  1.00  0.00    -0.167 F 
ENDBRANCH  19  20
ENDBRANCH   5   8
ENDBRANCH   3   4
ENDBRANCH   2   3
ENDBRANCH   1   2
BRANCH   1  24
ATOM     24  C   UNL A   1      33.750  28.718  27.045  1.00  0.00     0.116 C 
BRANCH  24  25
ATOM     25  N   UNL A   1      33.642  30.021  27.687  1.00  0.00    -0.352 N 
ATOM     26  C   UNL A   1      34.615  30.701  28.383  1.00  0.00     0.251 C 
ATOM     27  H   UNL A   1      32.768  30.468  27.616  1.00  0.00     0.163 HD
ATOM     28  O   UNL A   1      34.365  31.768  28.931  1.00  0.00    -0.269 OA
BRANCH  26  29
ATOM     29  C   UNL A   1      35.952  30.089  28.491  1.00  0.00     0.039 A 
ATOM     30  C   UNL A   1      36.821  30.178  27.402  1.00  0.00     0.014 A 
ATOM     31  C   UNL A   1      36.371  29.531  29.702  1.00  0.00     0.014 A 
ATOM     32  C   UNL A   1      38.147  29.777  27.553  1.00  0.00     0.010 A 
ATOM     33  C   UNL A   1      37.708  29.183  29.866  1.00  0.00     0.010 A 
ATOM     34  C   UNL A   1      38.609  29.319  28.799  1.00  0.00    -0.014 A 
BRANCH  34  35
ATOM     35  C   UNL A   1      40.039  28.995  29.009  1.00  0.00     0.031 A 
ATOM     36  C   UNL A   1      40.966  30.029  29.576  1.00  0.00     0.074 A 
ATOM     37  C   UNL A   1      40.510  27.790  28.633  1.00  0.00     0.049 A 
ATOM     38  N   UNL A   1      42.256  29.958  29.779  1.00  0.00    -0.248 NA
ATOM     39  C   UNL A   1      40.368  31.323  29.944  1.00  0.00     0.031 C 
ATOM     40  C   UNL A   1      39.711  26.719  28.031  1.00  0.00     0.029 A 
ATOM     41  N   UNL A   1      41.774  27.262  28.701  1.00  0.00    -0.354 N 
ATOM     42  C   UNL A   1      42.625  31.195  30.291  1.00  0.00     0.074 A 
ATOM     43  C   UNL A   1      41.433  32.015  30.321  1.00  0.00     0.031 C 
ATOM     44  C   UNL A   1      40.498  25.652  27.817  1.00  0.00     0.029 A 
ATOM     45  C   UNL A   1      41.859  25.970  28.237  1.00  0.00     0.049 A 
ATOM     46  H   UNL A   1      42.548  27.760  29.050  1.00  0.00     0.167 HD
ATOM     47  C   UNL A   1      43.843  31.601  30.722  1.00  0.00     0.037 A 
ATOM     48  C   UNL A   1      42.915  25.138  28.163  1.00  0.00     0.037 A 
ATOM     49  C   UNL A   1      45.019  30.774  30.712  1.00  0.00     0.049 A 
ATOM     50  C   UNL A   1      44.257  25.612  28.645  1.00  0.00     0.074 A 
ATOM     51  C   UNL A   1      46.292  31.081  31.161  1.00  0.00     0.029 A 
ATOM     52  N   UNL A   1      45.065  29.472  30.236  1.00  0.00    -0.354 N 
ATOM     53  N   UNL A   1      44.584  26.775  29.156  1.00  0.00    -0.248 NA
ATOM     54  C   UNL A   1      45.375  24.663  28.539  1.00  0.00     0.031 C 
ATOM     55  C   UNL A   1      47.113  29.971  30.934  1.00  0.00     0.029 A 
ATOM     56  C   UNL A   1      46.345  28.964  30.371  1.00  0.00     0.049 A 
ATOM     57  H   UNL A   1      44.299  28.983  29.857  1.00  0.00     0.167 HD
ATOM     58  C   UNL A   1      45.940  26.695  29.447  1.00  0.00     0.074 A 
ATOM     59  C   UNL A   1      46.371  25.365  29.065  1.00  0.00     0.031 C 
ATOM     60  C   UNL A   1      46.753  27.636  29.984  1.00  0.00     0.037 A 
BRANCH  47  61
ATOM     61  C   UNL A   1      43.948  33.000  31.257  1.00  0.00     0.058 A 
ATOM     62  C   UNL A   1      43.706  33.280  32.611  1.00  0.00     0.135 A 
ATOM     63  C   UNL A   1      44.296  34.067  30.415  1.00  0.00     0.135 A 
ATOM     64  F   UNL A   1      43.351  32.296  33.452  1.00  0.00    -0.206 F 
ATOM     65  C   UNL A   1      43.775  34.577  33.107  1.00  0.00     0.059 A 
ATOM     66  C   UNL A   1      44.392  35.370  30.894  1.00  0.00     0.059 A 
ATOM     67  F   UNL A   1      44.533  33.852  29.111  1.00  0.00    -0.206 F 
ATOM     68  C   UNL A   1      44.112  35.617  32.239  1.00  0.00     0.060 A 
BRANCH  68  69
ATOM     69  S   UNL A   1      44.183  37.298  32.893  1.00  0.00     0.124 S 
ATOM     70  O   UNL A   1      43.073  37.285  33.842  1.00  0.00    -0.237 OA
ATOM     71  O   UNL A   1      45.517  37.349  33.482  1.00  0.00    -0.237 OA
ATOM     72  O   UNL A   1      43.990  38.131  31.711  1.00  0.00    -0.744 OA
ENDBRANCH  68  69
ENDBRANCH  47  61
BRANCH  48  73
ATOM     73  C   UNL A   1      42.731  23.756  27.653  1.00  0.00     0.058 A 
ATOM     74  C   UNL A   1      42.530  22.690  28.542  1.00  0.00     0.135 A 
ATOM     75  C   UNL A   1      42.712  23.477  26.279  1.00  0.00     0.135 A 
ATOM     76  F   UNL A   1      42.545  22.910  29.865  1.00  0.00    -0.206 F 
ATOM     77  C   UNL A   1      42.320  21.393  28.087  1.00  0.00     0.059 A 
ATOM     78  C   UNL A   1      42.487  22.190  25.799  1.00  0.00     0.059 A 
ATOM     79  F   UNL A   1      42.884  24.467  25.389  1.00  0.00    -0.206 F 
ATOM     80  C   UNL A   1      42.294  21.154  26.712  1.00  0.00     0.060 A 
BRANCH  80  81
ATOM     81  S   UNL A   1      41.949  19.479  26.132  1.00  0.00     0.124 S 
ATOM     82  O   UNL A   1      42.374  18.677  27.275  1.00  0.00    -0.237 OA
ATOM     83  O   UNL A   1      40.512  19.529  25.886  1.00  0.00    -0.237 OA
ATOM     84  O   UNL A   1      42.777  19.362  24.936  1.00  0.00    -0.744 OA
ENDBRANCH  80  81
ENDBRANCH  48  73
BRANCH  60  85
ATOM     85  C   UNL A   1      48.191  27.265  30.199  1.00  0.00     0.058 A 
ATOM     86  C   UNL A   1      49.170  27.557  29.239  1.00  0.00     0.135 A 
ATOM     87  C   UNL A   1      48.602  26.681  31.408  1.00  0.00     0.135 A 
ATOM     88  F   UNL A   1      48.823  28.109  28.065  1.00  0.00    -0.206 F 
ATOM     89  C   UNL A   1      50.514  27.279  29.467  1.00  0.00     0.059 A 
ATOM     90  C   UNL A   1      49.943  26.409  31.664  1.00  0.00     0.059 A 
ATOM     91  F   UNL A   1      47.701  26.388  32.359  1.00  0.00    -0.206 F 
ATOM     92  C   UNL A   1      50.890  26.707  30.685  1.00  0.00     0.060 A 
BRANCH  92  93
ATOM     93  S   UNL A   1      52.643  26.403  30.992  1.00  0.00     0.124 S 
ATOM     94  O   UNL A   1      53.023  27.600  31.733  1.00  0.00    -0.237 OA
ATOM     95  O   UNL A   1      52.616  25.163  31.762  1.00  0.00    -0.237 OA
ATOM     96  O   UNL A   1      53.206  26.286  29.650  1.00  0.00    -0.744 OA
ENDBRANCH  92  93
ENDBRANCH  60  85
ENDBRANCH  34  35
ENDBRANCH  26  29
ENDBRANCH  24  25
ENDBRANCH   1  24
TORSDOF 15
ENDMDL
MODEL 3
REMARK VINA RESULT:     -11.8      4.897     10.389
REMARK SMILES Cc1cc(Cl)cc2c1O[C@H](C(F)(F)F)C(C(=O)NCCCCNC(=O)c1ccc(-c3c4nc(c(-c5c(F)cc(S(=O)(=O)[O-])cc5F)c5ccc([nH]5)c(-c5c(F)cc(S(=O)(=O)[O-])cc5F)c5nc(c(-c6c(F)cc(S(=O)(=O)[O-])cc6F)c6ccc3[nH]6)C=C5)C=C4)cc1)=C2
REMARK SMILES IDX 21 1 20 2 19 3 18 4 16 5 17 6 15 8 1 9 2 10 3 11 8 12 4 13
REMARK SMILES IDX 7 14 9 15 5 16 6 17 92 18 10 19 11 20 12 21 13 22 14 23
REMARK SMILES IDX 22 24 23 25 24 26 25 28 26 29 27 30 91 31 28 32 90 33 29 34
REMARK SMILES IDX 30 35 31 36 84 37 32 38 89 39 83 40 85 41 33 42 88 43 82 44
REMARK SMILES IDX 81 45 34 47 68 48 47 49 67 50 48 51 51 52 66 53 86 54 49 55
REMARK SMILES IDX 50 56 65 58 87 59 52 60 35 61 36 62 45 63 37 64 38 65 44 66
REMARK SMILES IDX 46 67 39 68 40 69 41 70 42 71 43 72 69 73 70 74 79 75 71 76
REMARK SMILES IDX 72 77 78 78 80 79 73 80 74 81 75 82 76 83 77 84 53 85 54 86
REMARK SMILES IDX 63 87 55 88 56 89 62 90 64 91 57 92 58 93 59 94 60 95 61 96
REMARK H PARENT 18 7 23 27 85 46 51 57
REMARK Flexibility Score: inf
ROOT
ATOM      1  C   UNL A   1      40.242  22.619  27.502  1.00  0.00     0.023 C 
ENDROOT
BRANCH   1   2
ATOM      2  C   UNL A   1      39.421  22.163  26.293  1.00  0.00     0.023 C 
BRANCH   2   3
ATOM      3  C   UNL A   1      38.131  22.952  26.081  1.00  0.00     0.116 C 
BRANCH   3   4
ATOM      4  N   UNL A   1      37.684  22.902  24.701  1.00  0.00    -0.352 N 
ATOM      5  C   UNL A   1      36.529  23.109  24.029  1.00  0.00     0.251 C 
ATOM      6  O   UNL A   1      36.593  22.948  22.806  1.00  0.00    -0.270 OA
ATOM      7  H   UNL A   1      38.417  22.652  24.092  1.00  0.00     0.163 HD
BRANCH   5   8
ATOM      8  C   UNL A   1      35.228  23.507  24.647  1.00  0.00     0.067 C 
ATOM      9  C   UNL A   1      30.408  23.882  26.394  1.00  0.00     0.048 C 
ATOM     10  C   UNL A   1      31.555  24.834  26.217  1.00  0.00    -0.007 A 
ATOM     11  C   UNL A   1      31.428  26.175  26.604  1.00  0.00     0.027 A 
ATOM     12  C   UNL A   1      32.760  24.412  25.638  1.00  0.00     0.131 A 
ATOM     13  C   UNL A   1      32.489  27.063  26.419  1.00  0.00     0.042 A 
ATOM     14  C   UNL A   1      33.822  25.303  25.448  1.00  0.00     0.019 A 
ATOM     15  O   UNL A   1      32.837  23.111  25.222  1.00  0.00    -0.475 OA
ATOM     16  Cl  UNL A   1      32.314  28.707  26.900  1.00  0.00    -0.084 Cl
ATOM     17  C   UNL A   1      33.684  26.635  25.843  1.00  0.00     0.032 A 
ATOM     18  C   UNL A   1      35.046  24.832  24.812  1.00  0.00     0.025 C 
ATOM     19  C   UNL A   1      34.175  22.546  25.118  1.00  0.00     0.314 C 
BRANCH  19  20
ATOM     20  C   UNL A   1      34.542  21.864  26.449  1.00  0.00     0.429 C 
ATOM     21  F   UNL A   1      35.563  20.988  26.265  1.00  0.00    -0.167 F 
ATOM     22  F   UNL A   1      34.957  22.744  27.390  1.00  0.00    -0.167 F 
ATOM     23  F   UNL A   1      33.510  21.173  26.983  1.00  0.00    -0.167 F 
ENDBRANCH  19  20
ENDBRANCH   5   8
ENDBRANCH   3   4
ENDBRANCH   2   3
ENDBRANCH   1   2
BRANCH   1  24
ATOM     24  C   UNL A   1      41.630  23.173  27.185  1.00  0.00     0.116 C 
BRANCH  24  25
ATOM     25  N   UNL A   1      41.660  24.066  26.034  1.00  0.00    -0.352 N 
ATOM     26  C   UNL A   1      41.573  25.439  26.031  1.00  0.00     0.251 C 
ATOM     27  H   UNL A   1      41.752  23.636  25.153  1.00  0.00     0.163 HD
ATOM     28  O   UNL A   1      41.545  26.065  24.977  1.00  0.00    -0.269 OA
BRANCH  26  29
ATOM     29  C   UNL A   1      41.466  26.135  27.326  1.00  0.00     0.039 A 
ATOM     30  C   UNL A   1      42.531  26.933  27.749  1.00  0.00     0.014 A 
ATOM     31  C   UNL A   1      40.276  26.078  28.056  1.00  0.00     0.014 A 
ATOM     32  C   UNL A   1      42.370  27.745  28.871  1.00  0.00     0.010 A 
ATOM     33  C   UNL A   1      40.100  26.929  29.142  1.00  0.00     0.010 A 
ATOM     34  C   UNL A   1      41.139  27.780  29.548  1.00  0.00    -0.014 A 
BRANCH  34  35
ATOM     35  C   UNL A   1      40.915  28.719  30.672  1.00  0.00     0.031 A 
ATOM     36  C   UNL A   1      41.762  28.625  31.907  1.00  0.00     0.074 A 
ATOM     37  C   UNL A   1      39.912  29.614  30.599  1.00  0.00     0.049 A 
ATOM     38  N   UNL A   1      41.682  29.314  33.015  1.00  0.00    -0.248 NA
ATOM     39  C   UNL A   1      42.825  27.608  31.905  1.00  0.00     0.031 C 
ATOM     40  C   UNL A   1      38.995  29.769  29.466  1.00  0.00     0.029 A 
ATOM     41  N   UNL A   1      39.492  30.563  31.496  1.00  0.00    -0.354 N 
ATOM     42  C   UNL A   1      42.676  28.812  33.843  1.00  0.00     0.074 A 
ATOM     43  C   UNL A   1      43.314  27.726  33.130  1.00  0.00     0.031 C 
ATOM     44  C   UNL A   1      38.144  30.777  29.723  1.00  0.00     0.029 A 
ATOM     45  C   UNL A   1      38.433  31.318  31.047  1.00  0.00     0.049 A 
ATOM     46  H   UNL A   1      39.909  30.692  32.378  1.00  0.00     0.167 HD
ATOM     47  C   UNL A   1      43.043  29.235  35.076  1.00  0.00     0.037 A 
ATOM     48  C   UNL A   1      37.775  32.335  31.637  1.00  0.00     0.037 A 
ATOM     49  C   UNL A   1      42.422  30.330  35.771  1.00  0.00     0.049 A 
ATOM     50  C   UNL A   1      38.198  32.785  33.007  1.00  0.00     0.074 A 
ATOM     51  C   UNL A   1      42.743  30.859  37.008  1.00  0.00     0.029 A 
ATOM     52  N   UNL A   1      41.355  31.070  35.283  1.00  0.00    -0.354 N 
ATOM     53  N   UNL A   1      39.162  32.319  33.765  1.00  0.00    -0.248 NA
ATOM     54  C   UNL A   1      37.444  33.897  33.604  1.00  0.00     0.031 C 
ATOM     55  C   UNL A   1      41.854  31.906  37.279  1.00  0.00     0.029 A 
ATOM     56  C   UNL A   1      40.999  32.047  36.198  1.00  0.00     0.049 A 
ATOM     57  H   UNL A   1      40.915  30.922  34.414  1.00  0.00     0.167 HD
ATOM     58  C   UNL A   1      39.142  33.089  34.921  1.00  0.00     0.074 A 
ATOM     59  C   UNL A   1      38.076  34.058  34.759  1.00  0.00     0.031 C 
ATOM     60  C   UNL A   1      39.934  33.001  36.017  1.00  0.00     0.037 A 
BRANCH  47  61
ATOM     61  C   UNL A   1      44.182  28.515  35.736  1.00  0.00     0.058 A 
ATOM     62  C   UNL A   1      43.954  27.435  36.605  1.00  0.00     0.135 A 
ATOM     63  C   UNL A   1      45.510  28.901  35.500  1.00  0.00     0.135 A 
ATOM     64  F   UNL A   1      42.701  27.042  36.878  1.00  0.00    -0.206 F 
ATOM     65  C   UNL A   1      45.003  26.782  37.241  1.00  0.00     0.059 A 
ATOM     66  C   UNL A   1      46.577  28.246  36.109  1.00  0.00     0.059 A 
ATOM     67  F   UNL A   1      45.781  29.929  34.681  1.00  0.00    -0.206 F 
ATOM     68  C   UNL A   1      46.311  27.198  36.992  1.00  0.00     0.060 A 
BRANCH  68  69
ATOM     69  S   UNL A   1      47.662  26.351  37.837  1.00  0.00     0.124 S 
ATOM     70  O   UNL A   1      48.071  27.358  38.812  1.00  0.00    -0.237 OA
ATOM     71  O   UNL A   1      46.998  25.172  38.386  1.00  0.00    -0.237 OA
ATOM     72  O   UNL A   1      48.619  26.086  36.768  1.00  0.00    -0.744 OA
ENDBRANCH  68  69
ENDBRANCH  47  61
BRANCH  48  73
ATOM     73  C   UNL A   1      36.678  33.022  30.911  1.00  0.00     0.058 A 
ATOM     74  C   UNL A   1      35.339  32.775  31.245  1.00  0.00     0.135 A 
ATOM     75  C   UNL A   1      36.940  33.962  29.903  1.00  0.00     0.135 A 
ATOM     76  F   UNL A   1      35.041  31.880  32.199  1.00  0.00    -0.206 F 
ATOM     77  C   UNL A   1      34.295  33.433  30.604  1.00  0.00     0.059 A 
ATOM     78  C   UNL A   1      35.914  34.646  29.259  1.00  0.00     0.059 A 
ATOM     79  F   UNL A   1      38.206  34.243  29.560  1.00  0.00    -0.206 F 
ATOM     80  C   UNL A   1      34.593  34.372  29.615  1.00  0.00     0.060 A 
BRANCH  80  81
ATOM     81  S   UNL A   1      33.233  35.272  28.839  1.00  0.00     0.124 S 
ATOM     82  O   UNL A   1      32.458  35.693  30.001  1.00  0.00    -0.237 OA
ATOM     83  O   UNL A   1      33.936  36.331  28.122  1.00  0.00    -0.237 OA
ATOM     84  O   UNL A   1      32.605  34.263  27.991  1.00  0.00    -0.744 OA
ENDBRANCH  80  81
ENDBRANCH  48  73
BRANCH  60  85
ATOM     85  C   UNL A   1      39.689  33.982  37.126  1.00  0.00     0.058 A 
ATOM     86  C   UNL A   1      38.860  33.662  38.211  1.00  0.00     0.135 A 
ATOM     87  C   UNL A   1      40.349  35.221  37.140  1.00  0.00     0.135 A 
ATOM     88  F   UNL A   1      38.203  32.492  38.237  1.00  0.00    -0.206 F 
ATOM     89  C   UNL A   1      38.689  34.542  39.274  1.00  0.00     0.059 A 
ATOM     90  C   UNL A   1      40.206  36.109  38.201  1.00  0.00     0.059 A 
ATOM     91  F   UNL A   1      41.157  35.569  36.126  1.00  0.00    -0.206 F 
ATOM     92  C   UNL A   1      39.369  35.761  39.261  1.00  0.00     0.060 A 
BRANCH  92  93
ATOM     93  S   UNL A   1      39.183  36.870  40.674  1.00  0.00     0.124 S 
ATOM     94  O   UNL A   1      40.567  37.253  40.932  1.00  0.00    -0.237 OA
ATOM     95  O   UNL A   1      38.324  37.922  40.138  1.00  0.00    -0.237 OA
ATOM     96  O   UNL A   1      38.564  36.023  41.690  1.00  0.00    -0.744 OA
ENDBRANCH  92  93
ENDBRANCH  60  85
ENDBRANCH  34  35
ENDBRANCH  26  29
ENDBRANCH  24  25
ENDBRANCH   1  24
TORSDOF 15
ENDMDL
