MODEL 1
REMARK VINA RESULT:     -10.9      0.000      0.000
REMARK SMILES CSCC[C@@H](Nc1nc(C)nc2sc3c(c12)CCC3)C(=O)NCCCCNC(=O)c1ccc(-c2c3nc(c(-c4c(F)cc(S(=O)(=O)[O-])cc4F)c4ccc([nH]4)c(-c4c(F)cc(S(=O)(=O)[O-])cc4F)c4nc(c(-c5c(F)cc(S(=O)(=O)[O-])cc5F)c5ccc2[nH]5)C=C4)C=C3)cc1
REMARK SMILES IDX 24 1 23 2 22 3 20 4 21 5 5 7 4 8 3 9 2 10 1 11 6 12 7 14
REMARK SMILES IDX 8 15 16 16 9 17 12 18 15 19 10 20 11 21 13 22 14 23 17 24
REMARK SMILES IDX 19 25 18 26 25 27 26 28 27 29 28 30 29 32 30 33 31 34 95 35
REMARK SMILES IDX 32 36 94 37 33 38 34 39 35 40 88 41 36 42 93 43 87 44 89 45
REMARK SMILES IDX 37 46 92 47 86 48 85 49 38 51 72 52 51 53 71 54 52 55 55 56
REMARK SMILES IDX 70 57 90 58 53 59 54 60 69 62 91 63 56 64 39 65 40 66 49 67
REMARK SMILES IDX 41 68 42 69 48 70 50 71 43 72 44 73 45 74 46 75 47 76 73 77
REMARK SMILES IDX 74 78 83 79 75 80 76 81 82 82 84 83 77 84 78 85 79 86 80 87
REMARK SMILES IDX 81 88 57 89 58 90 67 91 59 92 60 93 66 94 68 95 61 96 62 97
REMARK SMILES IDX 63 98 64 99 65 100
REMARK H PARENT 22 6 6 13 27 31 89 50 55 61
REMARK Flexibility Score: inf
ROOT
ATOM      1  C   UNL A   1      32.138  29.463  27.229  1.00  0.00     0.023 C 
ENDROOT
BRANCH   1   2
ATOM      2  C   UNL A   1      32.855  28.341  26.487  1.00  0.00     0.116 C 
BRANCH   2   3
ATOM      3  N   UNL A   1      33.216  28.734  25.138  1.00  0.00    -0.354 N 
ATOM      4  C   UNL A   1      32.477  28.792  23.990  1.00  0.00     0.242 C 
ATOM      5  O   UNL A   1      33.056  29.221  22.983  1.00  0.00    -0.273 OA
ATOM      6  H   UNL A   1      34.156  29.006  25.032  1.00  0.00     0.163 HD
BRANCH   4   7
ATOM      7  C   UNL A   1      31.031  28.239  23.874  1.00  0.00     0.171 C 
BRANCH   7   8
ATOM      8  C   UNL A   1      30.305  28.988  22.737  1.00  0.00     0.046 C 
BRANCH   8   9
ATOM      9  C   UNL A   1      29.305  30.078  23.136  1.00  0.00     0.072 C 
BRANCH   9  10
ATOM     10  S   UNL A   1      28.146  30.601  21.834  1.00  0.00    -0.165 SA
ATOM     11  C   UNL A   1      28.446  32.385  21.811  1.00  0.00     0.085 C 
ENDBRANCH   9  10
ENDBRANCH   8   9
ENDBRANCH   7   8
BRANCH   7  12
ATOM     12  N   UNL A   1      30.899  26.792  23.694  1.00  0.00    -0.358 N 
ATOM     13  H   UNL A   1      30.144  26.344  24.139  1.00  0.00     0.162 HD
BRANCH  12  14
ATOM     14  C   UNL A   1      31.751  26.013  22.948  1.00  0.00     0.139 A 
ATOM     15  N   UNL A   1      31.882  26.194  21.624  1.00  0.00    -0.216 NA
ATOM     16  C   UNL A   1      32.381  24.911  23.548  1.00  0.00     0.057 A 
ATOM     17  C   UNL A   1      32.602  25.310  20.901  1.00  0.00     0.129 A 
ATOM     18  C   UNL A   1      33.053  24.045  22.691  1.00  0.00     0.129 A 
ATOM     19  C   UNL A   1      32.376  24.381  24.867  1.00  0.00    -0.021 A 
ATOM     20  C   UNL A   1      32.666  25.535  19.420  1.00  0.00     0.090 C 
ATOM     21  N   UNL A   1      33.202  24.205  21.368  1.00  0.00    -0.222 NA
ATOM     22  S   UNL A   1      33.626  22.630  23.490  1.00  0.00    -0.120 S 
ATOM     23  C   UNL A   1      32.970  23.153  24.937  1.00  0.00     0.011 A 
ATOM     24  C   UNL A   1      31.797  24.770  26.179  1.00  0.00     0.038 C 
ATOM     25  C   UNL A   1      32.866  22.511  26.269  1.00  0.00     0.047 C 
ATOM     26  C   UNL A   1      32.434  23.728  27.145  1.00  0.00     0.010 C 
ENDBRANCH  12  14
ENDBRANCH   7  12
ENDBRANCH   4   7
ENDBRANCH   2   3
ENDBRANCH   1   2
BRANCH   1  27
ATOM     27  C   UNL A   1      32.761  30.858  27.044  1.00  0.00     0.023 C 
BRANCH  27  28
ATOM     28  C   UNL A   1      34.064  31.119  27.820  1.00  0.00     0.116 C 
BRANCH  28  29
ATOM     29  N   UNL A   1      34.411  32.526  27.779  1.00  0.00    -0.352 N 
ATOM     30  C   UNL A   1      35.304  33.261  28.509  1.00  0.00     0.251 C 
ATOM     31  H   UNL A   1      33.916  33.047  27.106  1.00  0.00     0.163 HD
ATOM     32  O   UNL A   1      35.146  34.481  28.535  1.00  0.00    -0.269 OA
BRANCH  30  33
ATOM     33  C   UNL A   1      36.446  32.659  29.237  1.00  0.00     0.039 A 
ATOM     34  C   UNL A   1      37.363  31.921  28.478  1.00  0.00     0.014 A 
ATOM     35  C   UNL A   1      36.541  32.652  30.633  1.00  0.00     0.014 A 
ATOM     36  C   UNL A   1      38.367  31.186  29.106  1.00  0.00     0.010 A 
ATOM     37  C   UNL A   1      37.557  31.918  31.262  1.00  0.00     0.010 A 
ATOM     38  C   UNL A   1      38.474  31.179  30.503  1.00  0.00    -0.014 A 
BRANCH  38  39
ATOM     39  C   UNL A   1      39.610  30.438  31.087  1.00  0.00     0.031 A 
ATOM     40  C   UNL A   1      39.762  29.015  30.654  1.00  0.00     0.074 A 
ATOM     41  C   UNL A   1      40.712  31.083  31.529  1.00  0.00     0.049 A 
ATOM     42  N   UNL A   1      40.336  28.669  29.539  1.00  0.00    -0.248 NA
ATOM     43  C   UNL A   1      39.071  27.917  31.327  1.00  0.00     0.031 C 
ATOM     44  C   UNL A   1      41.283  32.258  30.860  1.00  0.00     0.029 A 
ATOM     45  N   UNL A   1      41.665  30.720  32.454  1.00  0.00    -0.354 N 
ATOM     46  C   UNL A   1      40.073  27.324  29.340  1.00  0.00     0.074 A 
ATOM     47  C   UNL A   1      39.281  26.901  30.474  1.00  0.00     0.031 C 
ATOM     48  C   UNL A   1      42.554  32.421  31.283  1.00  0.00     0.029 A 
ATOM     49  C   UNL A   1      42.839  31.466  32.353  1.00  0.00     0.049 A 
ATOM     50  H   UNL A   1      41.531  30.006  33.119  1.00  0.00     0.167 HD
ATOM     51  C   UNL A   1      40.529  26.634  28.260  1.00  0.00     0.037 A 
ATOM     52  C   UNL A   1      44.083  31.008  32.667  1.00  0.00     0.037 A 
ATOM     53  C   UNL A   1      41.361  27.383  27.367  1.00  0.00     0.049 A 
ATOM     54  C   UNL A   1      44.326  30.054  31.526  1.00  0.00     0.074 A 
ATOM     55  C   UNL A   1      41.212  28.117  26.211  1.00  0.00     0.029 A 
ATOM     56  N   UNL A   1      42.689  27.521  27.700  1.00  0.00    -0.354 N 
ATOM     57  N   UNL A   1      44.691  30.393  30.318  1.00  0.00    -0.248 NA
ATOM     58  C   UNL A   1      43.771  28.703  31.637  1.00  0.00     0.031 C 
ATOM     59  C   UNL A   1      42.326  29.012  26.181  1.00  0.00     0.029 A 
ATOM     60  C   UNL A   1      43.062  28.791  27.344  1.00  0.00     0.049 A 
ATOM     61  H   UNL A   1      43.263  26.837  28.117  1.00  0.00     0.167 HD
ATOM     62  C   UNL A   1      44.143  29.420  29.480  1.00  0.00     0.074 A 
ATOM     63  C   UNL A   1      43.619  28.392  30.357  1.00  0.00     0.031 C 
ATOM     64  C   UNL A   1      43.967  29.593  28.138  1.00  0.00     0.037 A 
BRANCH  51  65
ATOM     65  C   UNL A   1      40.378  25.180  28.045  1.00  0.00     0.058 A 
ATOM     66  C   UNL A   1      41.441  24.342  28.418  1.00  0.00     0.135 A 
ATOM     67  C   UNL A   1      39.347  24.636  27.271  1.00  0.00     0.135 A 
ATOM     68  F   UNL A   1      42.451  24.830  29.157  1.00  0.00    -0.206 F 
ATOM     69  C   UNL A   1      41.515  23.025  27.987  1.00  0.00     0.059 A 
ATOM     70  C   UNL A   1      39.395  23.312  26.832  1.00  0.00     0.059 A 
ATOM     71  F   UNL A   1      38.314  25.401  26.883  1.00  0.00    -0.206 F 
ATOM     72  C   UNL A   1      40.499  22.525  27.172  1.00  0.00     0.060 A 
BRANCH  72  73
ATOM     73  S   UNL A   1      40.685  20.849  26.526  1.00  0.00     0.124 S 
ATOM     74  O   UNL A   1      40.832  20.070  27.750  1.00  0.00    -0.237 OA
ATOM     75  O   UNL A   1      39.430  20.666  25.802  1.00  0.00    -0.237 OA
ATOM     76  O   UNL A   1      41.879  20.938  25.691  1.00  0.00    -0.744 OA
ENDBRANCH  72  73
ENDBRANCH  51  65
BRANCH  52  77
ATOM     77  C   UNL A   1      44.300  30.675  34.112  1.00  0.00     0.058 A 
ATOM     78  C   UNL A   1      45.483  29.985  34.461  1.00  0.00     0.135 A 
ATOM     79  C   UNL A   1      43.443  30.994  35.176  1.00  0.00     0.135 A 
ATOM     80  F   UNL A   1      46.298  29.514  33.502  1.00  0.00    -0.206 F 
ATOM     81  C   UNL A   1      45.871  29.781  35.781  1.00  0.00     0.059 A 
ATOM     82  C   UNL A   1      43.819  30.822  36.512  1.00  0.00     0.059 A 
ATOM     83  F   UNL A   1      42.224  31.503  34.955  1.00  0.00    -0.206 F 
ATOM     84  C   UNL A   1      45.055  30.253  36.803  1.00  0.00     0.060 A 
BRANCH  84  85
ATOM     85  S   UNL A   1      45.668  30.180  38.498  1.00  0.00     0.124 S 
ATOM     86  O   UNL A   1      46.836  29.311  38.363  1.00  0.00    -0.237 OA
ATOM     87  O   UNL A   1      45.956  31.589  38.767  1.00  0.00    -0.237 OA
ATOM     88  O   UNL A   1      44.550  29.621  39.242  1.00  0.00    -0.744 OA
ENDBRANCH  84  85
ENDBRANCH  52  77
BRANCH  64  89
ATOM     89  C   UNL A   1      44.566  30.827  27.552  1.00  0.00     0.058 A 
ATOM     90  C   UNL A   1      43.889  32.049  27.640  1.00  0.00     0.135 A 
ATOM     91  C   UNL A   1      45.843  30.823  26.968  1.00  0.00     0.135 A 
ATOM     92  F   UNL A   1      42.667  32.110  28.195  1.00  0.00    -0.206 F 
ATOM     93  C   UNL A   1      44.474  33.235  27.206  1.00  0.00     0.059 A 
ATOM     94  C   UNL A   1      46.458  31.999  26.548  1.00  0.00     0.059 A 
ATOM     95  F   UNL A   1      46.532  29.677  26.832  1.00  0.00    -0.206 F 
ATOM     96  C   UNL A   1      45.768  33.203  26.682  1.00  0.00     0.060 A 
BRANCH  96  97
ATOM     97  S   UNL A   1      46.563  34.767  26.258  1.00  0.00     0.124 S 
ATOM     98  O   UNL A   1      46.778  34.622  24.822  1.00  0.00    -0.237 OA
ATOM     99  O   UNL A   1      45.552  35.745  26.652  1.00  0.00    -0.237 OA
ATOM    100  O   UNL A   1      47.773  34.770  27.076  1.00  0.00    -0.744 OA
ENDBRANCH  96  97
ENDBRANCH  64  89
ENDBRANCH  38  39
ENDBRANCH  30  33
ENDBRANCH  28  29
ENDBRANCH  27  28
ENDBRANCH   1  27
TORSDOF 19
ENDMDL
MODEL 2
REMARK VINA RESULT:     -10.5      7.170     14.606
REMARK SMILES CSCC[C@@H](Nc1nc(C)nc2sc3c(c12)CCC3)C(=O)NCCCCNC(=O)c1ccc(-c2c3nc(c(-c4c(F)cc(S(=O)(=O)[O-])cc4F)c4ccc([nH]4)c(-c4c(F)cc(S(=O)(=O)[O-])cc4F)c4nc(c(-c5c(F)cc(S(=O)(=O)[O-])cc5F)c5ccc2[nH]5)C=C4)C=C3)cc1
REMARK SMILES IDX 24 1 23 2 22 3 20 4 21 5 5 7 4 8 3 9 2 10 1 11 6 12 7 14
REMARK SMILES IDX 8 15 16 16 9 17 12 18 15 19 10 20 11 21 13 22 14 23 17 24
REMARK SMILES IDX 19 25 18 26 25 27 26 28 27 29 28 30 29 32 30 33 31 34 95 35
REMARK SMILES IDX 32 36 94 37 33 38 34 39 35 40 88 41 36 42 93 43 87 44 89 45
REMARK SMILES IDX 37 46 92 47 86 48 85 49 38 51 72 52 51 53 71 54 52 55 55 56
REMARK SMILES IDX 70 57 90 58 53 59 54 60 69 62 91 63 56 64 39 65 40 66 49 67
REMARK SMILES IDX 41 68 42 69 48 70 50 71 43 72 44 73 45 74 46 75 47 76 73 77
REMARK SMILES IDX 74 78 83 79 75 80 76 81 82 82 84 83 77 84 78 85 79 86 80 87
REMARK SMILES IDX 81 88 57 89 58 90 67 91 59 92 60 93 66 94 68 95 61 96 62 97
REMARK SMILES IDX 63 98 64 99 65 100
REMARK H PARENT 22 6 6 13 27 31 89 50 55 61
REMARK Flexibility Score: inf
ROOT
ATOM      1  C   UNL A   1      47.101  39.313  24.895  1.00  0.00     0.023 C 
ENDROOT
BRANCH   1   2
ATOM      2  C   UNL A   1      46.808  40.627  24.181  1.00  0.00     0.116 C 
BRANCH   2   3
ATOM      3  N   UNL A   1      47.327  40.631  22.827  1.00  0.00    -0.354 N 
ATOM      4  C   UNL A   1      47.238  41.563  21.832  1.00  0.00     0.242 C 
ATOM      5  O   UNL A   1      47.834  41.304  20.778  1.00  0.00    -0.273 OA
ATOM      6  H   UNL A   1      47.832  39.821  22.583  1.00  0.00     0.163 HD
BRANCH   4   7
ATOM      7  C   UNL A   1      46.341  42.827  21.921  1.00  0.00     0.171 C 
BRANCH   7   8
ATOM      8  C   UNL A   1      47.248  44.075  21.957  1.00  0.00     0.046 C 
BRANCH   8   9
ATOM      9  C   UNL A   1      48.495  44.016  22.844  1.00  0.00     0.072 C 
BRANCH   9  10
ATOM     10  S   UNL A   1      48.309  44.714  24.515  1.00  0.00    -0.165 SA
ATOM     11  C   UNL A   1      49.865  45.623  24.676  1.00  0.00     0.085 C 
ENDBRANCH   9  10
ENDBRANCH   8   9
ENDBRANCH   7   8
BRANCH   7  12
ATOM     12  N   UNL A   1      45.316  42.974  20.887  1.00  0.00    -0.358 N 
ATOM     13  H   UNL A   1      45.614  42.995  19.949  1.00  0.00     0.162 HD
BRANCH  12  14
ATOM     14  C   UNL A   1      43.968  43.084  21.127  1.00  0.00     0.139 A 
ATOM     15  N   UNL A   1      43.411  42.557  22.231  1.00  0.00    -0.216 NA
ATOM     16  C   UNL A   1      43.131  43.619  20.136  1.00  0.00     0.057 A 
ATOM     17  C   UNL A   1      42.067  42.543  22.355  1.00  0.00     0.129 A 
ATOM     18  C   UNL A   1      41.762  43.501  20.356  1.00  0.00     0.129 A 
ATOM     19  C   UNL A   1      43.370  44.154  18.840  1.00  0.00    -0.021 A 
ATOM     20  C   UNL A   1      41.504  41.893  23.584  1.00  0.00     0.090 C 
ATOM     21  N   UNL A   1      41.182  42.985  21.450  1.00  0.00    -0.222 NA
ATOM     22  S   UNL A   1      40.825  44.010  19.003  1.00  0.00    -0.120 S 
ATOM     23  C   UNL A   1      42.215  44.354  18.139  1.00  0.00     0.011 A 
ATOM     24  C   UNL A   1      44.561  44.456  18.005  1.00  0.00     0.038 C 
ATOM     25  C   UNL A   1      42.431  44.786  16.737  1.00  0.00     0.047 C 
ATOM     26  C   UNL A   1      43.934  45.200  16.789  1.00  0.00     0.010 C 
ENDBRANCH  12  14
ENDBRANCH   7  12
ENDBRANCH   4   7
ENDBRANCH   2   3
ENDBRANCH   1   2
BRANCH   1  27
ATOM     27  C   UNL A   1      46.675  39.275  26.374  1.00  0.00     0.023 C 
BRANCH  27  28
ATOM     28  C   UNL A   1      45.458  38.391  26.698  1.00  0.00     0.116 C 
BRANCH  28  29
ATOM     29  N   UNL A   1      44.387  39.183  27.272  1.00  0.00    -0.352 N 
ATOM     30  C   UNL A   1      43.229  38.822  27.901  1.00  0.00     0.251 C 
ATOM     31  H   UNL A   1      44.517  40.156  27.194  1.00  0.00     0.163 HD
ATOM     32  O   UNL A   1      42.331  39.662  27.962  1.00  0.00    -0.269 OA
BRANCH  30  33
ATOM     33  C   UNL A   1      43.025  37.492  28.523  1.00  0.00     0.039 A 
ATOM     34  C   UNL A   1      42.081  36.649  27.921  1.00  0.00     0.014 A 
ATOM     35  C   UNL A   1      43.590  37.130  29.750  1.00  0.00     0.014 A 
ATOM     36  C   UNL A   1      41.708  35.456  28.536  1.00  0.00     0.010 A 
ATOM     37  C   UNL A   1      43.220  35.925  30.363  1.00  0.00     0.010 A 
ATOM     38  C   UNL A   1      42.276  35.082  29.762  1.00  0.00    -0.014 A 
BRANCH  38  39
ATOM     39  C   UNL A   1      41.885  33.767  30.311  1.00  0.00     0.031 A 
ATOM     40  C   UNL A   1      42.440  33.422  31.655  1.00  0.00     0.074 A 
ATOM     41  C   UNL A   1      40.737  33.165  29.930  1.00  0.00     0.049 A 
ATOM     42  N   UNL A   1      41.920  33.846  32.769  1.00  0.00    -0.248 NA
ATOM     43  C   UNL A   1      43.744  32.782  31.819  1.00  0.00     0.031 C 
ATOM     44  C   UNL A   1      39.489  33.893  29.669  1.00  0.00     0.029 A 
ATOM     45  N   UNL A   1      40.363  31.840  29.937  1.00  0.00    -0.354 N 
ATOM     46  C   UNL A   1      42.821  33.557  33.781  1.00  0.00     0.074 A 
ATOM     47  C   UNL A   1      43.939  32.900  33.142  1.00  0.00     0.031 C 
ATOM     48  C   UNL A   1      38.463  33.019  29.703  1.00  0.00     0.029 A 
ATOM     49  C   UNL A   1      38.983  31.659  29.836  1.00  0.00     0.049 A 
ATOM     50  H   UNL A   1      41.004  31.096  30.007  1.00  0.00     0.167 HD
ATOM     51  C   UNL A   1      42.590  33.867  35.085  1.00  0.00     0.037 A 
ATOM     52  C   UNL A   1      38.292  30.618  30.379  1.00  0.00     0.037 A 
ATOM     53  C   UNL A   1      41.314  34.459  35.354  1.00  0.00     0.049 A 
ATOM     54  C   UNL A   1      38.365  30.966  31.844  1.00  0.00     0.074 A 
ATOM     55  C   UNL A   1      40.785  35.725  35.478  1.00  0.00     0.029 A 
ATOM     56  N   UNL A   1      40.235  33.614  35.480  1.00  0.00    -0.354 N 
ATOM     57  N   UNL A   1      37.622  31.853  32.450  1.00  0.00    -0.248 NA
ATOM     58  C   UNL A   1      39.573  30.581  32.576  1.00  0.00     0.031 C 
ATOM     59  C   UNL A   1      39.389  35.582  35.206  1.00  0.00     0.029 A 
ATOM     60  C   UNL A   1      39.165  34.241  34.896  1.00  0.00     0.049 A 
ATOM     61  H   UNL A   1      40.233  32.727  35.907  1.00  0.00     0.167 HD
ATOM     62  C   UNL A   1      38.412  32.349  33.489  1.00  0.00     0.074 A 
ATOM     63  C   UNL A   1      39.587  31.501  33.531  1.00  0.00     0.031 C 
ATOM     64  C   UNL A   1      38.169  33.532  34.123  1.00  0.00     0.037 A 
BRANCH  51  65
ATOM     65  C   UNL A   1      43.456  33.490  36.222  1.00  0.00     0.058 A 
ATOM     66  C   UNL A   1      44.462  34.388  36.614  1.00  0.00     0.135 A 
ATOM     67  C   UNL A   1      43.482  32.196  36.753  1.00  0.00     0.135 A 
ATOM     68  F   UNL A   1      44.473  35.638  36.120  1.00  0.00    -0.206 F 
ATOM     69  C   UNL A   1      45.496  34.001  37.453  1.00  0.00     0.059 A 
ATOM     70  C   UNL A   1      44.507  31.787  37.607  1.00  0.00     0.059 A 
ATOM     71  F   UNL A   1      42.545  31.300  36.402  1.00  0.00    -0.206 F 
ATOM     72  C   UNL A   1      45.525  32.690  37.925  1.00  0.00     0.060 A 
BRANCH  72  73
ATOM     73  S   UNL A   1      46.948  32.180  38.915  1.00  0.00     0.124 S 
ATOM     74  O   UNL A   1      47.866  33.296  38.716  1.00  0.00    -0.237 OA
ATOM     75  O   UNL A   1      46.362  32.067  40.247  1.00  0.00    -0.237 OA
ATOM     76  O   UNL A   1      47.352  30.918  38.302  1.00  0.00    -0.744 OA
ENDBRANCH  72  73
ENDBRANCH  51  65
BRANCH  52  77
ATOM     77  C   UNL A   1      38.611  29.268  29.811  1.00  0.00     0.058 A 
ATOM     78  C   UNL A   1      38.797  29.167  28.414  1.00  0.00     0.135 A 
ATOM     79  C   UNL A   1      38.760  28.076  30.535  1.00  0.00     0.135 A 
ATOM     80  F   UNL A   1      38.539  30.219  27.619  1.00  0.00    -0.206 F 
ATOM     81  C   UNL A   1      39.266  28.009  27.801  1.00  0.00     0.059 A 
ATOM     82  C   UNL A   1      39.254  26.906  29.950  1.00  0.00     0.059 A 
ATOM     83  F   UNL A   1      38.455  28.013  31.838  1.00  0.00    -0.206 F 
ATOM     84  C   UNL A   1      39.544  26.897  28.589  1.00  0.00     0.060 A 
BRANCH  84  85
ATOM     85  S   UNL A   1      40.356  25.480  27.822  1.00  0.00     0.124 S 
ATOM     86  O   UNL A   1      40.679  25.996  26.493  1.00  0.00    -0.237 OA
ATOM     87  O   UNL A   1      41.497  25.277  28.714  1.00  0.00    -0.237 OA
ATOM     88  O   UNL A   1      39.340  24.440  27.864  1.00  0.00    -0.744 OA
ENDBRANCH  84  85
ENDBRANCH  52  77
BRANCH  64  89
ATOM     89  C   UNL A   1      36.885  34.209  33.778  1.00  0.00     0.058 A 
ATOM     90  C   UNL A   1      36.769  34.935  32.586  1.00  0.00     0.135 A 
ATOM     91  C   UNL A   1      35.743  34.082  34.585  1.00  0.00     0.135 A 
ATOM     92  F   UNL A   1      37.829  35.081  31.775  1.00  0.00    -0.206 F 
ATOM     93  C   UNL A   1      35.553  35.477  32.184  1.00  0.00     0.059 A 
ATOM     94  C   UNL A   1      34.510  34.596  34.192  1.00  0.00     0.059 A 
ATOM     95  F   UNL A   1      35.798  33.419  35.752  1.00  0.00    -0.206 F 
ATOM     96  C   UNL A   1      34.423  35.284  32.982  1.00  0.00     0.060 A 
BRANCH  96  97
ATOM     97  S   UNL A   1      32.829  35.872  32.375  1.00  0.00     0.124 S 
ATOM     98  O   UNL A   1      32.671  37.130  33.097  1.00  0.00    -0.237 OA
ATOM     99  O   UNL A   1      33.069  35.991  30.939  1.00  0.00    -0.237 OA
ATOM    100  O   UNL A   1      31.902  34.810  32.757  1.00  0.00    -0.744 OA
ENDBRANCH  96  97
ENDBRANCH  64  89
ENDBRANCH  38  39
ENDBRANCH  30  33
ENDBRANCH  28  29
ENDBRANCH  27  28
ENDBRANCH   1  27
TORSDOF 19
ENDMDL
MODEL 3
REMARK VINA RESULT:     -10.2      2.808      7.923
REMARK SMILES CSCC[C@@H](Nc1nc(C)nc2sc3c(c12)CCC3)C(=O)NCCCCNC(=O)c1ccc(-c2c3nc(c(-c4c(F)cc(S(=O)(=O)[O-])cc4F)c4ccc([nH]4)c(-c4c(F)cc(S(=O)(=O)[O-])cc4F)c4nc(c(-c5c(F)cc(S(=O)(=O)[O-])cc5F)c5ccc2[nH]5)C=C4)C=C3)cc1
REMARK SMILES IDX 24 1 23 2 22 3 20 4 21 5 5 7 4 8 3 9 2 10 1 11 6 12 7 14
REMARK SMILES IDX 8 15 16 16 9 17 12 18 15 19 10 20 11 21 13 22 14 23 17 24
REMARK SMILES IDX 19 25 18 26 25 27 26 28 27 29 28 30 29 32 30 33 31 34 95 35
REMARK SMILES IDX 32 36 94 37 33 38 34 39 35 40 88 41 36 42 93 43 87 44 89 45
REMARK SMILES IDX 37 46 92 47 86 48 85 49 38 51 72 52 51 53 71 54 52 55 55 56
REMARK SMILES IDX 70 57 90 58 53 59 54 60 69 62 91 63 56 64 39 65 40 66 49 67
REMARK SMILES IDX 41 68 42 69 48 70 50 71 43 72 44 73 45 74 46 75 47 76 73 77
REMARK SMILES IDX 74 78 83 79 75 80 76 81 82 82 84 83 77 84 78 85 79 86 80 87
REMARK SMILES IDX 81 88 57 89 58 90 67 91 59 92 60 93 66 94 68 95 61 96 62 97
REMARK SMILES IDX 63 98 64 99 65 100
REMARK H PARENT 22 6 6 13 27 31 89 50 55 61
REMARK Flexibility Score: inf
ROOT
ATOM      1  C   UNL A   1      34.135  29.564  27.609  1.00  0.00     0.023 C 
ENDROOT
BRANCH   1   2
ATOM      2  C   UNL A   1      33.296  29.696  26.343  1.00  0.00     0.116 C 
BRANCH   2   3
ATOM      3  N   UNL A   1      33.843  28.913  25.252  1.00  0.00    -0.354 N 
ATOM      4  C   UNL A   1      33.428  27.738  24.691  1.00  0.00     0.242 C 
ATOM      5  O   UNL A   1      34.081  27.327  23.723  1.00  0.00    -0.273 OA
ATOM      6  H   UNL A   1      34.654  29.294  24.844  1.00  0.00     0.163 HD
BRANCH   4   7
ATOM      7  C   UNL A   1      32.290  26.863  25.283  1.00  0.00     0.171 C 
BRANCH   7   8
ATOM      8  C   UNL A   1      31.370  26.403  24.132  1.00  0.00     0.046 C 
BRANCH   8   9
ATOM      9  C   UNL A   1      29.880  26.736  24.243  1.00  0.00     0.072 C 
BRANCH   9  10
ATOM     10  S   UNL A   1      29.277  28.044  23.129  1.00  0.00    -0.165 SA
ATOM     11  C   UNL A   1      30.326  29.428  23.636  1.00  0.00     0.085 C 
ENDBRANCH   9  10
ENDBRANCH   8   9
ENDBRANCH   7   8
BRANCH   7  12
ATOM     12  N   UNL A   1      32.703  25.715  26.092  1.00  0.00    -0.358 N 
ATOM     13  H   UNL A   1      33.440  25.850  26.731  1.00  0.00     0.162 HD
BRANCH  12  14
ATOM     14  C   UNL A   1      32.137  24.465  26.029  1.00  0.00     0.139 A 
ATOM     15  N   UNL A   1      30.936  24.215  26.577  1.00  0.00    -0.216 NA
ATOM     16  C   UNL A   1      32.886  23.394  25.519  1.00  0.00     0.057 A 
ATOM     17  C   UNL A   1      30.485  22.944  26.636  1.00  0.00     0.129 A 
ATOM     18  C   UNL A   1      32.337  22.126  25.682  1.00  0.00     0.129 A 
ATOM     19  C   UNL A   1      34.195  23.289  24.972  1.00  0.00    -0.021 A 
ATOM     20  C   UNL A   1      29.163  22.722  27.308  1.00  0.00     0.090 C 
ATOM     21  N   UNL A   1      31.140  21.849  26.221  1.00  0.00    -0.222 NA
ATOM     22  S   UNL A   1      33.412  20.868  25.201  1.00  0.00    -0.120 S 
ATOM     23  C   UNL A   1      34.588  21.991  24.808  1.00  0.00     0.011 A 
ATOM     24  C   UNL A   1      35.293  24.227  24.628  1.00  0.00     0.038 C 
ATOM     25  C   UNL A   1      35.994  21.841  24.365  1.00  0.00     0.047 C 
ATOM     26  C   UNL A   1      36.309  23.297  23.901  1.00  0.00     0.010 C 
ENDBRANCH  12  14
ENDBRANCH   7  12
ENDBRANCH   4   7
ENDBRANCH   2   3
ENDBRANCH   1   2
BRANCH   1  27
ATOM     27  C   UNL A   1      35.594  30.035  27.466  1.00  0.00     0.023 C 
BRANCH  27  28
ATOM     28  C   UNL A   1      36.617  29.330  28.375  1.00  0.00     0.116 C 
BRANCH  28  29
ATOM     29  N   UNL A   1      36.295  29.548  29.773  1.00  0.00    -0.352 N 
ATOM     30  C   UNL A   1      37.063  29.479  30.901  1.00  0.00     0.251 C 
ATOM     31  H   UNL A   1      35.354  29.788  29.939  1.00  0.00     0.163 HD
ATOM     32  O   UNL A   1      36.479  29.346  31.976  1.00  0.00    -0.269 OA
BRANCH  30  33
ATOM     33  C   UNL A   1      38.541  29.581  30.883  1.00  0.00     0.039 A 
ATOM     34  C   UNL A   1      39.087  30.840  30.604  1.00  0.00     0.014 A 
ATOM     35  C   UNL A   1      39.382  28.465  30.956  1.00  0.00     0.014 A 
ATOM     36  C   UNL A   1      40.458  30.985  30.403  1.00  0.00     0.010 A 
ATOM     37  C   UNL A   1      40.762  28.615  30.762  1.00  0.00     0.010 A 
ATOM     38  C   UNL A   1      41.308  29.874  30.481  1.00  0.00    -0.014 A 
BRANCH  38  39
ATOM     39  C   UNL A   1      42.757  30.123  30.331  1.00  0.00     0.031 A 
ATOM     40  C   UNL A   1      43.617  29.727  31.487  1.00  0.00     0.074 A 
ATOM     41  C   UNL A   1      43.331  30.187  29.110  1.00  0.00     0.049 A 
ATOM     42  N   UNL A   1      44.026  28.508  31.684  1.00  0.00    -0.248 NA
ATOM     43  C   UNL A   1      43.872  30.622  32.614  1.00  0.00     0.031 C 
ATOM     44  C   UNL A   1      42.940  29.327  27.987  1.00  0.00     0.029 A 
ATOM     45  N   UNL A   1      44.488  30.800  28.683  1.00  0.00    -0.354 N 
ATOM     46  C   UNL A   1      44.569  28.455  32.957  1.00  0.00     0.074 A 
ATOM     47  C   UNL A   1      44.448  29.791  33.497  1.00  0.00     0.031 C 
ATOM     48  C   UNL A   1      43.925  29.344  27.066  1.00  0.00     0.029 A 
ATOM     49  C   UNL A   1      44.942  30.320  27.455  1.00  0.00     0.049 A 
ATOM     50  H   UNL A   1      44.948  31.505  29.194  1.00  0.00     0.167 HD
ATOM     51  C   UNL A   1      45.095  27.319  33.488  1.00  0.00     0.037 A 
ATOM     52  C   UNL A   1      46.248  30.267  27.073  1.00  0.00     0.037 A 
ATOM     53  C   UNL A   1      45.109  26.186  32.612  1.00  0.00     0.049 A 
ATOM     54  C   UNL A   1      46.751  29.148  27.949  1.00  0.00     0.074 A 
ATOM     55  C   UNL A   1      44.309  25.097  32.345  1.00  0.00     0.029 A 
ATOM     56  N   UNL A   1      46.135  26.101  31.699  1.00  0.00    -0.354 N 
ATOM     57  N   UNL A   1      46.574  27.873  27.727  1.00  0.00    -0.248 NA
ATOM     58  C   UNL A   1      47.138  29.479  29.322  1.00  0.00     0.031 C 
ATOM     59  C   UNL A   1      44.644  24.696  31.014  1.00  0.00     0.029 A 
ATOM     60  C   UNL A   1      45.600  25.595  30.543  1.00  0.00     0.049 A 
ATOM     61  H   UNL A   1      47.074  26.356  31.848  1.00  0.00     0.167 HD
ATOM     62  C   UNL A   1      46.536  27.280  28.991  1.00  0.00     0.074 A 
ATOM     63  C   UNL A   1      46.924  28.318  29.926  1.00  0.00     0.031 C 
ATOM     64  C   UNL A   1      46.006  26.046  29.230  1.00  0.00     0.037 A 
BRANCH  51  65
ATOM     65  C   UNL A   1      45.786  27.222  34.791  1.00  0.00     0.058 A 
ATOM     66  C   UNL A   1      45.027  26.863  35.918  1.00  0.00     0.135 A 
ATOM     67  C   UNL A   1      47.083  27.706  34.995  1.00  0.00     0.135 A 
ATOM     68  F   UNL A   1      43.776  26.399  35.762  1.00  0.00    -0.206 F 
ATOM     69  C   UNL A   1      45.511  27.038  37.206  1.00  0.00     0.059 A 
ATOM     70  C   UNL A   1      47.594  27.882  36.282  1.00  0.00     0.059 A 
ATOM     71  F   UNL A   1      47.843  28.069  33.949  1.00  0.00    -0.206 F 
ATOM     72  C   UNL A   1      46.787  27.572  37.380  1.00  0.00     0.060 A 
BRANCH  72  73
ATOM     73  S   UNL A   1      47.341  27.902  39.067  1.00  0.00     0.124 S 
ATOM     74  O   UNL A   1      46.127  28.424  39.684  1.00  0.00    -0.237 OA
ATOM     75  O   UNL A   1      47.762  26.577  39.510  1.00  0.00    -0.237 OA
ATOM     76  O   UNL A   1      48.418  28.871  38.886  1.00  0.00    -0.744 OA
ENDBRANCH  72  73
ENDBRANCH  51  65
BRANCH  52  77
ATOM     77  C   UNL A   1      46.928  31.594  26.919  1.00  0.00     0.058 A 
ATOM     78  C   UNL A   1      48.338  31.629  27.007  1.00  0.00     0.135 A 
ATOM     79  C   UNL A   1      46.300  32.826  26.680  1.00  0.00     0.135 A 
ATOM     80  F   UNL A   1      49.019  30.530  27.372  1.00  0.00    -0.206 F 
ATOM     81  C   UNL A   1      49.080  32.767  26.707  1.00  0.00     0.059 A 
ATOM     82  C   UNL A   1      47.021  33.978  26.351  1.00  0.00     0.059 A 
ATOM     83  F   UNL A   1      44.967  32.947  26.733  1.00  0.00    -0.206 F 
ATOM     84  C   UNL A   1      48.412  33.925  26.326  1.00  0.00     0.060 A 
BRANCH  84  85
ATOM     85  S   UNL A   1      49.384  35.323  25.729  1.00  0.00     0.124 S 
ATOM     86  O   UNL A   1      50.130  35.708  26.925  1.00  0.00    -0.237 OA
ATOM     87  O   UNL A   1      50.172  34.700  24.666  1.00  0.00    -0.237 OA
ATOM     88  O   UNL A   1      48.378  36.273  25.282  1.00  0.00    -0.744 OA
ENDBRANCH  84  85
ENDBRANCH  52  77
BRANCH  64  89
ATOM     89  C   UNL A   1      45.619  25.255  28.026  1.00  0.00     0.058 A 
ATOM     90  C   UNL A   1      46.554  24.420  27.400  1.00  0.00     0.135 A 
ATOM     91  C   UNL A   1      44.305  25.259  27.531  1.00  0.00     0.135 A 
ATOM     92  F   UNL A   1      47.822  24.374  27.838  1.00  0.00    -0.206 F 
ATOM     93  C   UNL A   1      46.190  23.584  26.350  1.00  0.00     0.059 A 
ATOM     94  C   UNL A   1      43.912  24.414  26.496  1.00  0.00     0.059 A 
ATOM     95  F   UNL A   1      43.369  26.056  28.073  1.00  0.00    -0.206 F 
ATOM     96  C   UNL A   1      44.861  23.572  25.918  1.00  0.00     0.060 A 
BRANCH  96  97
ATOM     97  S   UNL A   1      44.379  22.380  24.652  1.00  0.00     0.124 S 
ATOM     98  O   UNL A   1      42.924  22.489  24.666  1.00  0.00    -0.237 OA
ATOM     99  O   UNL A   1      45.043  22.906  23.463  1.00  0.00    -0.237 OA
ATOM    100  O   UNL A   1      44.917  21.115  25.148  1.00  0.00    -0.744 OA
ENDBRANCH  96  97
ENDBRANCH  64  89
ENDBRANCH  38  39
ENDBRANCH  30  33
ENDBRANCH  28  29
ENDBRANCH  27  28
ENDBRANCH   1  27
TORSDOF 19
ENDMDL
