MODEL 1
REMARK VINA RESULT:     -13.2      0.000      0.000
REMARK SMILES Cc1c(NC(=O)[C@@H]2CC=CC[C@@H]2C(=O)NCCCCNC(=O)c2ccc(-c3c4nc(c(-c5c(F)cc(S(=O)(=O)[O-])cc5F)c5ccc([nH]5)c(-c5c(F)cc(S(=O)(=O)[O-])cc5F)c5nc(c(-c6c(F)cc(S(=O)(=O)[O-])cc6F)c6ccc3[nH]6)C=C5)C=C4)cc2)cccc1C(=O)N1CCOCC1
REMARK SMILES IDX 17 1 16 2 15 3 13 4 14 5 12 7 7 8 8 9 9 10 11 11 10 12 5 13
REMARK SMILES IDX 4 14 6 16 3 17 1 18 2 19 92 20 89 21 91 22 90 23 93 24 94 25
REMARK SMILES IDX 95 26 96 27 100 28 97 29 99 30 98 31 18 32 19 33 20 34 21 35
REMARK SMILES IDX 22 37 23 38 24 39 88 40 25 41 87 42 26 43 27 44 28 45 81 46
REMARK SMILES IDX 29 47 86 48 80 49 82 50 30 51 85 52 79 53 78 54 31 56 65 57
REMARK SMILES IDX 44 58 64 59 45 60 48 61 63 62 83 63 46 64 47 65 62 67 84 68
REMARK SMILES IDX 49 69 32 70 33 71 42 72 34 73 35 74 41 75 43 76 36 77 37 78
REMARK SMILES IDX 38 79 39 80 40 81 66 82 67 83 76 84 68 85 69 86 75 87 77 88
REMARK SMILES IDX 70 89 71 90 72 91 73 92 74 93 50 94 51 95 60 96 52 97 53 98
REMARK SMILES IDX 59 99 61 100 54 101 55 102 56 103 57 104 58 105
REMARK H PARENT 15 6 4 15 20 36 82 55 48 66
REMARK Flexibility Score: inf
ROOT
ATOM      1  C   UNL A   1      33.598  30.200  27.394  1.00  0.00     0.023 C 
ENDROOT
BRANCH   1   2
ATOM      2  C   UNL A   1      34.312  28.992  26.670  1.00  0.00     0.116 C 
BRANCH   2   3
ATOM      3  N   UNL A   1      34.309  28.961  25.192  1.00  0.00    -0.356 N 
ATOM      4  C   UNL A   1      33.404  28.478  24.286  1.00  0.00     0.224 C 
ATOM      5  O   UNL A   1      33.282  29.129  23.233  1.00  0.00    -0.275 OA
ATOM      6  H   UNL A   1      35.109  29.364  24.783  1.00  0.00     0.163 HD
BRANCH   4   7
ATOM      7  C   UNL A   1      32.645  27.131  24.356  1.00  0.00     0.095 C 
ATOM      8  C   UNL A   1      32.174  26.401  23.082  1.00  0.00     0.095 C 
ATOM      9  C   UNL A   1      31.162  27.284  22.331  1.00  0.00     0.041 C 
ATOM     10  C   UNL A   1      30.085  27.811  23.231  1.00  0.00    -0.030 C 
ATOM     11  C   UNL A   1      31.419  27.318  25.288  1.00  0.00     0.041 C 
ATOM     12  C   UNL A   1      30.194  27.813  24.567  1.00  0.00    -0.030 C 
BRANCH   8  13
ATOM     13  C   UNL A   1      33.369  25.804  22.351  1.00  0.00     0.228 C 
ATOM     14  N   UNL A   1      34.065  24.711  22.748  1.00  0.00    -0.326 N 
ATOM     15  H   UNL A   1      34.693  24.409  22.053  1.00  0.00     0.169 HD
ATOM     16  O   UNL A   1      33.794  26.334  21.316  1.00  0.00    -0.274 OA
BRANCH  14  17
ATOM     17  C   UNL A   1      34.131  23.893  23.892  1.00  0.00     0.044 A 
ATOM     18  C   UNL A   1      32.269  22.553  22.865  1.00  0.00     0.047 C 
ATOM     19  C   UNL A   1      33.337  22.708  23.906  1.00  0.00    -0.015 A 
ATOM     20  C   UNL A   1      33.475  21.769  24.949  1.00  0.00     0.045 A 
ATOM     21  C   UNL A   1      34.950  24.168  24.982  1.00  0.00     0.026 A 
ATOM     22  C   UNL A   1      34.254  22.122  26.061  1.00  0.00     0.014 A 
ATOM     23  C   UNL A   1      34.963  23.322  26.087  1.00  0.00     0.003 A 
BRANCH  20  24
ATOM     24  C   UNL A   1      32.674  20.507  25.072  1.00  0.00     0.254 C 
ATOM     25  O   UNL A   1      31.481  20.624  25.359  1.00  0.00    -0.269 OA
ATOM     26  N   UNL A   1      33.225  19.259  24.789  1.00  0.00    -0.334 N 
ATOM     27  C   UNL A   1      34.573  18.785  25.139  1.00  0.00     0.148 C 
ATOM     28  C   UNL A   1      32.321  18.203  24.333  1.00  0.00     0.148 C 
ATOM     29  C   UNL A   1      35.145  17.810  24.087  1.00  0.00     0.181 C 
ATOM     30  C   UNL A   1      32.986  17.395  23.218  1.00  0.00     0.181 C 
ATOM     31  O   UNL A   1      34.198  16.798  23.708  1.00  0.00    -0.378 OA
ENDBRANCH  20  24
ENDBRANCH  14  17
ENDBRANCH   8  13
ENDBRANCH   4   7
ENDBRANCH   2   3
ENDBRANCH   1   2
BRANCH   1  32
ATOM     32  C   UNL A   1      34.047  31.755  27.556  1.00  0.00     0.023 C 
BRANCH  32  33
ATOM     33  C   UNL A   1      34.251  32.454  28.984  1.00  0.00     0.116 C 
BRANCH  33  34
ATOM     34  N   UNL A   1      35.485  32.197  29.921  1.00  0.00    -0.352 N 
ATOM     35  C   UNL A   1      36.750  31.519  30.045  1.00  0.00     0.251 C 
ATOM     36  H   UNL A   1      35.335  32.699  30.755  1.00  0.00     0.163 HD
ATOM     37  O   UNL A   1      37.562  32.114  30.777  1.00  0.00    -0.269 OA
BRANCH  35  38
ATOM     38  C   UNL A   1      37.326  30.225  29.421  1.00  0.00     0.039 A 
ATOM     39  C   UNL A   1      37.455  29.021  30.148  1.00  0.00     0.014 A 
ATOM     40  C   UNL A   1      37.746  30.130  28.098  1.00  0.00     0.014 A 
ATOM     41  C   UNL A   1      38.446  28.054  29.782  1.00  0.00     0.010 A 
ATOM     42  C   UNL A   1      38.734  29.177  27.728  1.00  0.00     0.010 A 
ATOM     43  C   UNL A   1      39.229  28.229  28.634  1.00  0.00    -0.014 A 
BRANCH  43  44
ATOM     44  C   UNL A   1      40.585  27.600  28.446  1.00  0.00     0.031 A 
ATOM     45  C   UNL A   1      40.809  26.179  28.196  1.00  0.00     0.074 A 
ATOM     46  C   UNL A   1      41.763  28.265  28.305  1.00  0.00     0.049 A 
ATOM     47  N   UNL A   1      41.665  25.450  28.840  1.00  0.00    -0.248 NA
ATOM     48  C   UNL A   1      40.222  25.546  27.030  1.00  0.00     0.031 C 
ATOM     49  C   UNL A   1      43.141  27.836  28.012  1.00  0.00     0.029 A 
ATOM     50  N   UNL A   1      41.950  29.620  28.388  1.00  0.00    -0.354 N 
ATOM     51  C   UNL A   1      41.995  24.422  27.979  1.00  0.00     0.074 A 
ATOM     52  C   UNL A   1      40.963  24.440  26.955  1.00  0.00     0.031 C 
ATOM     53  C   UNL A   1      44.003  28.808  28.376  1.00  0.00     0.029 A 
ATOM     54  C   UNL A   1      43.220  29.902  28.888  1.00  0.00     0.049 A 
ATOM     55  H   UNL A   1      41.283  30.296  28.131  1.00  0.00     0.167 HD
ATOM     56  C   UNL A   1      43.228  23.822  27.999  1.00  0.00     0.037 A 
ATOM     57  C   UNL A   1      43.293  30.589  30.066  1.00  0.00     0.037 A 
ATOM     58  C   UNL A   1      44.204  24.566  28.821  1.00  0.00     0.049 A 
ATOM     59  C   UNL A   1      43.733  29.679  31.168  1.00  0.00     0.074 A 
ATOM     60  C   UNL A   1      45.342  25.293  28.484  1.00  0.00     0.029 A 
ATOM     61  N   UNL A   1      43.928  24.905  30.147  1.00  0.00    -0.354 N 
ATOM     62  N   UNL A   1      43.940  28.418  30.927  1.00  0.00    -0.248 NA
ATOM     63  C   UNL A   1      44.012  30.008  32.562  1.00  0.00     0.031 C 
ATOM     64  C   UNL A   1      45.698  26.117  29.581  1.00  0.00     0.029 A 
ATOM     65  C   UNL A   1      44.791  25.890  30.601  1.00  0.00     0.049 A 
ATOM     66  H   UNL A   1      43.216  24.496  30.690  1.00  0.00     0.167 HD
ATOM     67  C   UNL A   1      44.381  27.770  32.029  1.00  0.00     0.074 A 
ATOM     68  C   UNL A   1      44.412  28.810  33.042  1.00  0.00     0.031 C 
ATOM     69  C   UNL A   1      44.688  26.443  31.952  1.00  0.00     0.037 A 
BRANCH  56  70
ATOM     70  C   UNL A   1      43.612  22.751  26.980  1.00  0.00     0.058 A 
ATOM     71  C   UNL A   1      43.020  21.470  26.943  1.00  0.00     0.135 A 
ATOM     72  C   UNL A   1      44.564  22.972  25.959  1.00  0.00     0.135 A 
ATOM     73  F   UNL A   1      41.987  21.146  27.731  1.00  0.00    -0.206 F 
ATOM     74  C   UNL A   1      43.430  20.463  26.060  1.00  0.00     0.059 A 
ATOM     75  C   UNL A   1      45.044  21.966  25.116  1.00  0.00     0.059 A 
ATOM     76  F   UNL A   1      45.024  24.205  25.697  1.00  0.00    -0.206 F 
ATOM     77  C   UNL A   1      44.464  20.710  25.169  1.00  0.00     0.060 A 
BRANCH  77  78
ATOM     78  S   UNL A   1      44.966  19.414  24.020  1.00  0.00     0.124 S 
ATOM     79  O   UNL A   1      44.462  19.911  22.744  1.00  0.00    -0.237 OA
ATOM     80  O   UNL A   1      46.417  19.421  24.176  1.00  0.00    -0.237 OA
ATOM     81  O   UNL A   1      44.291  18.224  24.532  1.00  0.00    -0.744 OA
ENDBRANCH  77  78
ENDBRANCH  56  70
BRANCH  57  82
ATOM     82  C   UNL A   1      42.369  31.797  30.036  1.00  0.00     0.058 A 
ATOM     83  C   UNL A   1      41.337  31.581  30.975  1.00  0.00     0.135 A 
ATOM     84  C   UNL A   1      42.924  33.069  30.109  1.00  0.00     0.135 A 
ATOM     85  F   UNL A   1      40.574  30.484  30.857  1.00  0.00    -0.206 F 
ATOM     86  C   UNL A   1      41.347  32.203  32.232  1.00  0.00     0.059 A 
ATOM     87  C   UNL A   1      42.825  33.792  31.317  1.00  0.00     0.059 A 
ATOM     88  F   UNL A   1      43.709  33.529  29.122  1.00  0.00    -0.206 F 
ATOM     89  C   UNL A   1      42.236  33.228  32.465  1.00  0.00     0.060 A 
BRANCH  89  90
ATOM     90  S   UNL A   1      42.894  33.543  34.258  1.00  0.00     0.124 S 
ATOM     91  O   UNL A   1      44.335  33.453  34.223  1.00  0.00    -0.237 OA
ATOM     92  O   UNL A   1      42.459  34.907  34.524  1.00  0.00    -0.237 OA
ATOM     93  O   UNL A   1      42.327  32.494  35.056  1.00  0.00    -0.744 OA
ENDBRANCH  89  90
ENDBRANCH  57  82
BRANCH  69  94
ATOM     94  C   UNL A   1      45.061  25.572  33.110  1.00  0.00     0.058 A 
ATOM     95  C   UNL A   1      44.140  25.094  34.053  1.00  0.00     0.135 A 
ATOM     96  C   UNL A   1      46.385  25.088  33.226  1.00  0.00     0.135 A 
ATOM     97  F   UNL A   1      42.837  25.402  33.977  1.00  0.00    -0.206 F 
ATOM     98  C   UNL A   1      44.523  24.248  35.090  1.00  0.00     0.059 A 
ATOM     99  C   UNL A   1      46.773  24.199  34.217  1.00  0.00     0.059 A 
ATOM    100  F   UNL A   1      47.351  25.461  32.374  1.00  0.00    -0.206 F 
ATOM    101  C   UNL A   1      45.842  23.810  35.165  1.00  0.00     0.060 A 
BRANCH 101 102
ATOM    102  S   UNL A   1      46.334  22.697  36.489  1.00  0.00     0.124 S 
ATOM    103  O   UNL A   1      46.112  23.533  37.664  1.00  0.00    -0.237 OA
ATOM    104  O   UNL A   1      45.410  21.579  36.326  1.00  0.00    -0.237 OA
ATOM    105  O   UNL A   1      47.728  22.400  36.179  1.00  0.00    -0.744 OA
ENDBRANCH 101 102
ENDBRANCH  69  94
ENDBRANCH  43  44
ENDBRANCH  35  38
ENDBRANCH  33  34
ENDBRANCH  32  33
ENDBRANCH   1  32
TORSDOF 17
ENDMDL
MODEL 2
REMARK VINA RESULT:     -13.0      3.797      7.486
REMARK SMILES Cc1c(NC(=O)[C@@H]2CC=CC[C@@H]2C(=O)NCCCCNC(=O)c2ccc(-c3c4nc(c(-c5c(F)cc(S(=O)(=O)[O-])cc5F)c5ccc([nH]5)c(-c5c(F)cc(S(=O)(=O)[O-])cc5F)c5nc(c(-c6c(F)cc(S(=O)(=O)[O-])cc6F)c6ccc3[nH]6)C=C5)C=C4)cc2)cccc1C(=O)N1CCOCC1
REMARK SMILES IDX 17 1 16 2 15 3 13 4 14 5 12 7 7 8 8 9 9 10 11 11 10 12 5 13
REMARK SMILES IDX 4 14 6 16 3 17 1 18 2 19 92 20 89 21 91 22 90 23 93 24 94 25
REMARK SMILES IDX 95 26 96 27 100 28 97 29 99 30 98 31 18 32 19 33 20 34 21 35
REMARK SMILES IDX 22 37 23 38 24 39 88 40 25 41 87 42 26 43 27 44 28 45 81 46
REMARK SMILES IDX 29 47 86 48 80 49 82 50 30 51 85 52 79 53 78 54 31 56 65 57
REMARK SMILES IDX 44 58 64 59 45 60 48 61 63 62 83 63 46 64 47 65 62 67 84 68
REMARK SMILES IDX 49 69 32 70 33 71 42 72 34 73 35 74 41 75 43 76 36 77 37 78
REMARK SMILES IDX 38 79 39 80 40 81 66 82 67 83 76 84 68 85 69 86 75 87 77 88
REMARK SMILES IDX 70 89 71 90 72 91 73 92 74 93 50 94 51 95 60 96 52 97 53 98
REMARK SMILES IDX 59 99 61 100 54 101 55 102 56 103 57 104 58 105
REMARK H PARENT 15 6 4 15 20 36 82 55 48 66
REMARK Flexibility Score: inf
ROOT
ATOM      1  C   UNL A   1      37.293  22.271  24.480  1.00  0.00     0.023 C 
ENDROOT
BRANCH   1   2
ATOM      2  C   UNL A   1      36.608  23.669  24.742  1.00  0.00     0.116 C 
BRANCH   2   3
ATOM      3  N   UNL A   1      35.693  23.796  25.897  1.00  0.00    -0.356 N 
ATOM      4  C   UNL A   1      34.405  23.381  26.098  1.00  0.00     0.224 C 
ATOM      5  O   UNL A   1      34.126  22.999  27.248  1.00  0.00    -0.275 OA
ATOM      6  H   UNL A   1      36.087  24.268  26.667  1.00  0.00     0.163 HD
BRANCH   4   7
ATOM      7  C   UNL A   1      33.226  23.490  25.101  1.00  0.00     0.095 C 
ATOM      8  C   UNL A   1      31.864  22.824  25.384  1.00  0.00     0.095 C 
ATOM      9  C   UNL A   1      32.049  21.299  25.473  1.00  0.00     0.041 C 
ATOM     10  C   UNL A   1      32.831  20.750  24.316  1.00  0.00    -0.030 C 
ATOM     11  C   UNL A   1      33.722  23.007  23.713  1.00  0.00     0.041 C 
ATOM     12  C   UNL A   1      33.574  21.523  23.512  1.00  0.00    -0.030 C 
BRANCH   8  13
ATOM     13  C   UNL A   1      31.133  23.578  26.487  1.00  0.00     0.228 C 
ATOM     14  N   UNL A   1      30.509  24.771  26.340  1.00  0.00    -0.326 N 
ATOM     15  H   UNL A   1      29.972  25.000  27.133  1.00  0.00     0.169 HD
ATOM     16  O   UNL A   1      31.096  23.118  27.636  1.00  0.00    -0.274 OA
BRANCH  14  17
ATOM     17  C   UNL A   1      30.422  25.773  25.354  1.00  0.00     0.044 A 
ATOM     18  C   UNL A   1      31.131  27.394  27.139  1.00  0.00     0.047 C 
ATOM     19  C   UNL A   1      30.876  27.081  25.695  1.00  0.00    -0.015 A 
ATOM     20  C   UNL A   1      30.962  28.086  24.710  1.00  0.00     0.045 A 
ATOM     21  C   UNL A   1      29.949  25.537  24.067  1.00  0.00     0.026 A 
ATOM     22  C   UNL A   1      30.406  27.827  23.448  1.00  0.00     0.014 A 
ATOM     23  C   UNL A   1      29.881  26.573  23.139  1.00  0.00     0.003 A 
BRANCH  20  24
ATOM     24  C   UNL A   1      31.403  29.496  24.966  1.00  0.00     0.254 C 
ATOM     25  O   UNL A   1      30.638  30.397  24.614  1.00  0.00    -0.269 OA
ATOM     26  N   UNL A   1      32.582  29.783  25.651  1.00  0.00    -0.334 N 
ATOM     27  C   UNL A   1      33.874  29.092  25.519  1.00  0.00     0.148 C 
ATOM     28  C   UNL A   1      32.653  31.045  26.386  1.00  0.00     0.148 C 
ATOM     29  C   UNL A   1      34.662  29.061  26.847  1.00  0.00     0.181 C 
ATOM     30  C   UNL A   1      33.362  30.829  27.724  1.00  0.00     0.181 C 
ATOM     31  O   UNL A   1      34.694  30.344  27.494  1.00  0.00    -0.378 OA
ENDBRANCH  20  24
ENDBRANCH  14  17
ENDBRANCH   8  13
ENDBRANCH   4   7
ENDBRANCH   2   3
ENDBRANCH   1   2
BRANCH   1  32
ATOM     32  C   UNL A   1      37.185  20.868  25.294  1.00  0.00     0.023 C 
BRANCH  32  33
ATOM     33  C   UNL A   1      38.187  19.641  25.042  1.00  0.00     0.116 C 
BRANCH  33  34
ATOM     34  N   UNL A   1      39.646  19.564  25.619  1.00  0.00    -0.352 N 
ATOM     35  C   UNL A   1      40.603  20.195  26.489  1.00  0.00     0.251 C 
ATOM     36  H   UNL A   1      40.077  18.767  25.232  1.00  0.00     0.163 HD
ATOM     37  O   UNL A   1      41.413  19.398  26.998  1.00  0.00    -0.269 OA
BRANCH  35  38
ATOM     38  C   UNL A   1      40.810  21.656  26.960  1.00  0.00     0.039 A 
ATOM     39  C   UNL A   1      40.087  22.740  26.417  1.00  0.00     0.014 A 
ATOM     40  C   UNL A   1      41.703  22.021  27.963  1.00  0.00     0.014 A 
ATOM     41  C   UNL A   1      40.640  24.062  26.433  1.00  0.00     0.010 A 
ATOM     42  C   UNL A   1      42.260  23.329  27.983  1.00  0.00     0.010 A 
ATOM     43  C   UNL A   1      41.851  24.325  27.085  1.00  0.00    -0.014 A 
BRANCH  43  44
ATOM     44  C   UNL A   1      42.750  25.482  26.738  1.00  0.00     0.031 A 
ATOM     45  C   UNL A   1      44.170  25.358  26.420  1.00  0.00     0.074 A 
ATOM     46  C   UNL A   1      42.353  26.760  26.498  1.00  0.00     0.049 A 
ATOM     47  N   UNL A   1      45.104  26.086  26.949  1.00  0.00    -0.248 NA
ATOM     48  C   UNL A   1      44.595  24.538  25.301  1.00  0.00     0.031 C 
ATOM     49  C   UNL A   1      43.058  27.975  26.050  1.00  0.00     0.029 A 
ATOM     50  N   UNL A   1      41.079  27.252  26.605  1.00  0.00    -0.354 N 
ATOM     51  C   UNL A   1      46.130  26.096  26.026  1.00  0.00     0.074 A 
ATOM     52  C   UNL A   1      45.832  25.003  25.115  1.00  0.00     0.031 C 
ATOM     53  C   UNL A   1      42.320  29.062  26.355  1.00  0.00     0.029 A 
ATOM     54  C   UNL A   1      41.110  28.594  26.980  1.00  0.00     0.049 A 
ATOM     55  H   UNL A   1      40.261  26.732  26.440  1.00  0.00     0.167 HD
ATOM     56  C   UNL A   1      46.987  27.160  25.899  1.00  0.00     0.037 A 
ATOM     57  C   UNL A   1      40.520  28.929  28.166  1.00  0.00     0.037 A 
ATOM     58  C   UNL A   1      46.520  28.350  26.640  1.00  0.00     0.049 A 
ATOM     59  C   UNL A   1      41.563  29.255  29.186  1.00  0.00     0.074 A 
ATOM     60  C   UNL A   1      46.044  29.585  26.211  1.00  0.00     0.029 A 
ATOM     61  N   UNL A   1      46.202  28.282  27.998  1.00  0.00    -0.354 N 
ATOM     62  N   UNL A   1      42.825  29.152  28.884  1.00  0.00    -0.248 NA
ATOM     63  C   UNL A   1      41.380  29.729  30.554  1.00  0.00     0.031 C 
ATOM     64  C   UNL A   1      45.378  30.217  27.291  1.00  0.00     0.029 A 
ATOM     65  C   UNL A   1      45.456  29.381  28.391  1.00  0.00     0.049 A 
ATOM     66  H   UNL A   1      46.473  27.550  28.597  1.00  0.00     0.167 HD
ATOM     67  C   UNL A   1      43.612  29.537  29.914  1.00  0.00     0.074 A 
ATOM     68  C   UNL A   1      42.660  29.895  30.952  1.00  0.00     0.031 C 
ATOM     69  C   UNL A   1      44.968  29.531  29.763  1.00  0.00     0.037 A 
BRANCH  56  70
ATOM     70  C   UNL A   1      48.059  27.197  24.812  1.00  0.00     0.058 A 
ATOM     71  C   UNL A   1      47.819  27.668  23.504  1.00  0.00     0.135 A 
ATOM     72  C   UNL A   1      49.396  26.802  25.043  1.00  0.00     0.135 A 
ATOM     73  F   UNL A   1      46.655  28.232  23.159  1.00  0.00    -0.206 F 
ATOM     74  C   UNL A   1      48.780  27.627  22.487  1.00  0.00     0.059 A 
ATOM     75  C   UNL A   1      50.353  26.680  24.031  1.00  0.00     0.059 A 
ATOM     76  F   UNL A   1      49.847  26.576  26.287  1.00  0.00    -0.206 F 
ATOM     77  C   UNL A   1      50.038  27.103  22.751  1.00  0.00     0.060 A 
BRANCH  77  78
ATOM     78  S   UNL A   1      51.276  27.077  21.441  1.00  0.00     0.124 S 
ATOM     79  O   UNL A   1      50.720  26.109  20.501  1.00  0.00    -0.237 OA
ATOM     80  O   UNL A   1      51.270  28.468  20.997  1.00  0.00    -0.237 OA
ATOM     81  O   UNL A   1      52.491  26.648  22.127  1.00  0.00    -0.744 OA
ENDBRANCH  77  78
ENDBRANCH  56  70
BRANCH  57  82
ATOM     82  C   UNL A   1      39.139  28.300  28.269  1.00  0.00     0.058 A 
ATOM     83  C   UNL A   1      39.178  27.327  29.292  1.00  0.00     0.135 A 
ATOM     84  C   UNL A   1      38.027  29.129  28.339  1.00  0.00     0.135 A 
ATOM     85  F   UNL A   1      40.072  26.331  29.205  1.00  0.00    -0.206 F 
ATOM     86  C   UNL A   1      38.649  27.582  30.566  1.00  0.00     0.059 A 
ATOM     87  C   UNL A   1      37.372  29.297  29.578  1.00  0.00     0.059 A 
ATOM     88  F   UNL A   1      37.693  29.913  27.300  1.00  0.00    -0.206 F 
ATOM     89  C   UNL A   1      37.860  28.695  30.753  1.00  0.00     0.060 A 
BRANCH  89  90
ATOM     90  S   UNL A   1      37.802  29.554  32.487  1.00  0.00     0.124 S 
ATOM     91  O   UNL A   1      36.744  30.537  32.458  1.00  0.00    -0.237 OA
ATOM     92  O   UNL A   1      37.472  28.453  33.380  1.00  0.00    -0.237 OA
ATOM     93  O   UNL A   1      39.085  30.177  32.640  1.00  0.00    -0.744 OA
ENDBRANCH  89  90
ENDBRANCH  57  82
BRANCH  69  94
ATOM     94  C   UNL A   1      45.960  29.806  30.848  1.00  0.00     0.058 A 
ATOM     95  C   UNL A   1      46.398  28.842  31.766  1.00  0.00     0.135 A 
ATOM     96  C   UNL A   1      46.602  31.066  30.909  1.00  0.00     0.135 A 
ATOM     97  F   UNL A   1      45.936  27.583  31.732  1.00  0.00    -0.206 F 
ATOM     98  C   UNL A   1      47.358  29.129  32.732  1.00  0.00     0.059 A 
ATOM     99  C   UNL A   1      47.602  31.354  31.825  1.00  0.00     0.059 A 
ATOM    100  F   UNL A   1      46.280  32.064  30.073  1.00  0.00    -0.206 F 
ATOM    101  C   UNL A   1      47.951  30.388  32.756  1.00  0.00     0.060 A 
BRANCH 101 102
ATOM    102  S   UNL A   1      49.209  30.755  33.986  1.00  0.00     0.124 S 
ATOM    103  O   UNL A   1      50.405  30.223  33.340  1.00  0.00    -0.237 OA
ATOM    104  O   UNL A   1      49.141  32.210  34.089  1.00  0.00    -0.237 OA
ATOM    105  O   UNL A   1      48.751  30.028  35.165  1.00  0.00    -0.744 OA
ENDBRANCH 101 102
ENDBRANCH  69  94
ENDBRANCH  43  44
ENDBRANCH  35  38
ENDBRANCH  33  34
ENDBRANCH  32  33
ENDBRANCH   1  32
TORSDOF 17
ENDMDL
MODEL 3
REMARK VINA RESULT:     -12.6      3.685     10.318
REMARK SMILES Cc1c(NC(=O)[C@@H]2CC=CC[C@@H]2C(=O)NCCCCNC(=O)c2ccc(-c3c4nc(c(-c5c(F)cc(S(=O)(=O)[O-])cc5F)c5ccc([nH]5)c(-c5c(F)cc(S(=O)(=O)[O-])cc5F)c5nc(c(-c6c(F)cc(S(=O)(=O)[O-])cc6F)c6ccc3[nH]6)C=C5)C=C4)cc2)cccc1C(=O)N1CCOCC1
REMARK SMILES IDX 17 1 16 2 15 3 13 4 14 5 12 7 7 8 8 9 9 10 11 11 10 12 5 13
REMARK SMILES IDX 4 14 6 16 3 17 1 18 2 19 92 20 89 21 91 22 90 23 93 24 94 25
REMARK SMILES IDX 95 26 96 27 100 28 97 29 99 30 98 31 18 32 19 33 20 34 21 35
REMARK SMILES IDX 22 37 23 38 24 39 88 40 25 41 87 42 26 43 27 44 28 45 81 46
REMARK SMILES IDX 29 47 86 48 80 49 82 50 30 51 85 52 79 53 78 54 31 56 65 57
REMARK SMILES IDX 44 58 64 59 45 60 48 61 63 62 83 63 46 64 47 65 62 67 84 68
REMARK SMILES IDX 49 69 32 70 33 71 42 72 34 73 35 74 41 75 43 76 36 77 37 78
REMARK SMILES IDX 38 79 39 80 40 81 66 82 67 83 76 84 68 85 69 86 75 87 77 88
REMARK SMILES IDX 70 89 71 90 72 91 73 92 74 93 50 94 51 95 60 96 52 97 53 98
REMARK SMILES IDX 59 99 61 100 54 101 55 102 56 103 57 104 58 105
REMARK H PARENT 15 6 4 15 20 36 82 55 48 66
REMARK Flexibility Score: inf
ROOT
ATOM      1  C   UNL A   1      37.822  21.946  25.093  1.00  0.00     0.023 C 
ENDROOT
BRANCH   1   2
ATOM      2  C   UNL A   1      36.286  21.612  24.947  1.00  0.00     0.116 C 
BRANCH   2   3
ATOM      3  N   UNL A   1      35.606  21.976  23.685  1.00  0.00    -0.356 N 
ATOM      4  C   UNL A   1      34.388  22.544  23.430  1.00  0.00     0.224 C 
ATOM      5  O   UNL A   1      34.339  23.327  22.465  1.00  0.00    -0.275 OA
ATOM      6  H   UNL A   1      36.130  21.772  22.876  1.00  0.00     0.163 HD
BRANCH   4   7
ATOM      7  C   UNL A   1      33.039  22.194  24.104  1.00  0.00     0.095 C 
ATOM      8  C   UNL A   1      32.974  21.365  25.402  1.00  0.00     0.095 C 
ATOM      9  C   UNL A   1      33.559  19.966  25.145  1.00  0.00     0.041 C 
ATOM     10  C   UNL A   1      32.985  19.324  23.917  1.00  0.00    -0.030 C 
ATOM     11  C   UNL A   1      32.136  21.508  23.046  1.00  0.00     0.041 C 
ATOM     12  C   UNL A   1      32.329  20.018  22.976  1.00  0.00    -0.030 C 
BRANCH   8  13
ATOM     13  C   UNL A   1      33.461  22.200  26.580  1.00  0.00     0.228 C 
ATOM     14  N   UNL A   1      32.852  23.313  27.056  1.00  0.00    -0.326 N 
ATOM     15  H   UNL A   1      33.244  23.602  27.912  1.00  0.00     0.169 HD
ATOM     16  O   UNL A   1      34.505  21.893  27.171  1.00  0.00    -0.274 OA
BRANCH  14  17
ATOM     17  C   UNL A   1      31.808  24.166  26.654  1.00  0.00     0.044 A 
ATOM     18  C   UNL A   1      33.587  25.854  26.107  1.00  0.00     0.047 C 
ATOM     19  C   UNL A   1      32.160  25.399  26.030  1.00  0.00    -0.015 A 
ATOM     20  C   UNL A   1      31.166  26.224  25.465  1.00  0.00     0.045 A 
ATOM     21  C   UNL A   1      30.462  23.850  26.807  1.00  0.00     0.026 A 
ATOM     22  C   UNL A   1      29.822  25.903  25.709  1.00  0.00     0.014 A 
ATOM     23  C   UNL A   1      29.475  24.741  26.396  1.00  0.00     0.003 A 
BRANCH  20  24
ATOM     24  C   UNL A   1      31.426  27.546  24.809  1.00  0.00     0.254 C 
ATOM     25  O   UNL A   1      31.021  28.553  25.394  1.00  0.00    -0.269 OA
ATOM     26  N   UNL A   1      32.169  27.649  23.635  1.00  0.00    -0.334 N 
ATOM     27  C   UNL A   1      32.116  26.750  22.471  1.00  0.00     0.148 C 
ATOM     28  C   UNL A   1      32.890  28.898  23.391  1.00  0.00     0.148 C 
ATOM     29  C   UNL A   1      33.485  26.619  21.767  1.00  0.00     0.181 C 
ATOM     30  C   UNL A   1      34.266  28.597  22.796  1.00  0.00     0.181 C 
ATOM     31  O   UNL A   1      34.114  27.893  21.554  1.00  0.00    -0.378 OA
ENDBRANCH  20  24
ENDBRANCH  14  17
ENDBRANCH   8  13
ENDBRANCH   4   7
ENDBRANCH   2   3
ENDBRANCH   1   2
BRANCH   1  32
ATOM     32  C   UNL A   1      39.048  21.062  25.695  1.00  0.00     0.023 C 
BRANCH  32  33
ATOM     33  C   UNL A   1      40.028  21.608  26.841  1.00  0.00     0.116 C 
BRANCH  33  34
ATOM     34  N   UNL A   1      41.079  22.756  26.627  1.00  0.00    -0.352 N 
ATOM     35  C   UNL A   1      41.366  24.148  26.856  1.00  0.00     0.251 C 
ATOM     36  H   UNL A   1      41.846  22.370  26.144  1.00  0.00     0.163 HD
ATOM     37  O   UNL A   1      42.582  24.393  26.962  1.00  0.00    -0.269 OA
BRANCH  35  38
ATOM     38  C   UNL A   1      40.475  25.400  27.043  1.00  0.00     0.039 A 
ATOM     39  C   UNL A   1      40.783  26.648  26.458  1.00  0.00     0.014 A 
ATOM     40  C   UNL A   1      39.294  25.400  27.779  1.00  0.00     0.014 A 
ATOM     41  C   UNL A   1      40.313  27.863  27.052  1.00  0.00     0.010 A 
ATOM     42  C   UNL A   1      38.824  26.601  28.376  1.00  0.00     0.010 A 
ATOM     43  C   UNL A   1      39.449  27.836  28.154  1.00  0.00    -0.014 A 
BRANCH  43  44
ATOM     44  C   UNL A   1      39.322  28.967  29.141  1.00  0.00     0.031 A 
ATOM     45  C   UNL A   1      38.407  30.095  28.990  1.00  0.00     0.074 A 
ATOM     46  C   UNL A   1      39.889  29.019  30.376  1.00  0.00     0.049 A 
ATOM     47  N   UNL A   1      38.752  31.338  29.130  1.00  0.00    -0.248 NA
ATOM     48  C   UNL A   1      36.979  29.865  28.889  1.00  0.00     0.031 C 
ATOM     49  C   UNL A   1      39.793  29.970  31.497  1.00  0.00     0.029 A 
ATOM     50  N   UNL A   1      40.744  28.097  30.920  1.00  0.00    -0.354 N 
ATOM     51  C   UNL A   1      37.596  32.001  29.493  1.00  0.00     0.074 A 
ATOM     52  C   UNL A   1      36.515  31.083  29.171  1.00  0.00     0.031 C 
ATOM     53  C   UNL A   1      40.844  29.798  32.325  1.00  0.00     0.029 A 
ATOM     54  C   UNL A   1      41.637  28.722  31.790  1.00  0.00     0.049 A 
ATOM     55  H   UNL A   1      40.730  27.133  30.725  1.00  0.00     0.167 HD
ATOM     56  C   UNL A   1      37.616  33.119  30.287  1.00  0.00     0.037 A 
ATOM     57  C   UNL A   1      42.967  28.646  31.487  1.00  0.00     0.037 A 
ATOM     58  C   UNL A   1      38.937  33.345  30.909  1.00  0.00     0.049 A 
ATOM     59  C   UNL A   1      43.463  29.972  31.007  1.00  0.00     0.074 A 
ATOM     60  C   UNL A   1      39.372  33.259  32.227  1.00  0.00     0.029 A 
ATOM     61  N   UNL A   1      40.100  33.409  30.139  1.00  0.00    -0.354 N 
ATOM     62  N   UNL A   1      42.639  30.972  30.889  1.00  0.00    -0.248 NA
ATOM     63  C   UNL A   1      44.824  30.358  30.648  1.00  0.00     0.031 C 
ATOM     64  C   UNL A   1      40.788  33.197  32.238  1.00  0.00     0.029 A 
ATOM     65  C   UNL A   1      41.229  33.259  30.927  1.00  0.00     0.049 A 
ATOM     66  H   UNL A   1      40.116  33.545  29.164  1.00  0.00     0.167 HD
ATOM     67  C   UNL A   1      43.278  32.095  30.493  1.00  0.00     0.074 A 
ATOM     68  C   UNL A   1      44.659  31.666  30.351  1.00  0.00     0.031 C 
ATOM     69  C   UNL A   1      42.576  33.257  30.354  1.00  0.00     0.037 A 
BRANCH  56  70
ATOM     70  C   UNL A   1      36.326  33.787  30.758  1.00  0.00     0.058 A 
ATOM     71  C   UNL A   1      35.407  34.401  29.879  1.00  0.00     0.135 A 
ATOM     72  C   UNL A   1      35.925  33.808  32.113  1.00  0.00     0.135 A 
ATOM     73  F   UNL A   1      35.546  34.331  28.550  1.00  0.00    -0.206 F 
ATOM     74  C   UNL A   1      34.266  35.083  30.320  1.00  0.00     0.059 A 
ATOM     75  C   UNL A   1      34.834  34.543  32.587  1.00  0.00     0.059 A 
ATOM     76  F   UNL A   1      36.548  33.053  33.031  1.00  0.00    -0.206 F 
ATOM     77  C   UNL A   1      34.002  35.176  31.679  1.00  0.00     0.060 A 
BRANCH  77  78
ATOM     78  S   UNL A   1      32.518  36.035  32.233  1.00  0.00     0.124 S 
ATOM     79  O   UNL A   1      31.616  34.933  32.554  1.00  0.00    -0.237 OA
ATOM     80  O   UNL A   1      33.020  36.796  33.372  1.00  0.00    -0.237 OA
ATOM     81  O   UNL A   1      32.132  36.833  31.072  1.00  0.00    -0.744 OA
ENDBRANCH  77  78
ENDBRANCH  56  70
BRANCH  57  82
ATOM     82  C   UNL A   1      43.353  27.215  31.142  1.00  0.00     0.058 A 
ATOM     83  C   UNL A   1      43.765  27.188  29.792  1.00  0.00     0.135 A 
ATOM     84  C   UNL A   1      44.208  26.527  31.994  1.00  0.00     0.135 A 
ATOM     85  F   UNL A   1      42.916  27.617  28.847  1.00  0.00    -0.206 F 
ATOM     86  C   UNL A   1      45.122  27.148  29.441  1.00  0.00     0.059 A 
ATOM     87  C   UNL A   1      45.552  26.334  31.609  1.00  0.00     0.059 A 
ATOM     88  F   UNL A   1      43.825  26.220  33.245  1.00  0.00    -0.206 F 
ATOM     89  C   UNL A   1      46.059  26.880  30.414  1.00  0.00     0.060 A 
BRANCH  89  90
ATOM     90  S   UNL A   1      47.849  27.599  30.253  1.00  0.00     0.124 S 
ATOM     91  O   UNL A   1      48.012  28.079  28.900  1.00  0.00    -0.237 OA
ATOM     92  O   UNL A   1      47.840  28.700  31.204  1.00  0.00    -0.237 OA
ATOM     93  O   UNL A   1      48.723  26.493  30.519  1.00  0.00    -0.744 OA
ENDBRANCH  89  90
ENDBRANCH  57  82
BRANCH  69  94
ATOM     94  C   UNL A   1      43.120  34.537  29.804  1.00  0.00     0.058 A 
ATOM     95  C   UNL A   1      43.336  35.686  30.576  1.00  0.00     0.135 A 
ATOM     96  C   UNL A   1      43.564  34.592  28.462  1.00  0.00     0.135 A 
ATOM     97  F   UNL A   1      43.053  35.712  31.887  1.00  0.00    -0.206 F 
ATOM     98  C   UNL A   1      43.888  36.844  30.033  1.00  0.00     0.059 A 
ATOM     99  C   UNL A   1      44.169  35.714  27.918  1.00  0.00     0.059 A 
ATOM    100  F   UNL A   1      43.427  33.549  27.629  1.00  0.00    -0.206 F 
ATOM    101  C   UNL A   1      44.297  36.848  28.703  1.00  0.00     0.060 A 
BRANCH 101 102
ATOM    102  S   UNL A   1      45.033  38.332  28.005  1.00  0.00     0.124 S 
ATOM    103  O   UNL A   1      43.939  39.287  28.143  1.00  0.00    -0.237 OA
ATOM    104  O   UNL A   1      46.183  38.559  28.877  1.00  0.00    -0.237 OA
ATOM    105  O   UNL A   1      45.360  37.937  26.639  1.00  0.00    -0.744 OA
ENDBRANCH 101 102
ENDBRANCH  69  94
ENDBRANCH  43  44
ENDBRANCH  35  38
ENDBRANCH  33  34
ENDBRANCH  32  33
ENDBRANCH   1  32
TORSDOF 17
ENDMDL
