MODEL 1
REMARK VINA RESULT:     -12.7      0.000      0.000
REMARK SMILES O=C(NCCCCNC(=O)[C@@H]1[C@@H](C(=O)Nc2nc(-c3ccc(F)cc3)cs2)[C@H]2C=C[C@@H]1O2)c1ccc(-c2c3nc(c(-c4c(F)cc(S(=O)(=O)[O-])cc4F)c4ccc([nH]4)c(-c4c(F)cc(S(=O)(=O)[O-])cc4F)c4nc(c(-c5c(F)cc(S(=O)(=O)[O-])cc5F)c5ccc2[nH]5)C=C4)C=C3)cc1
REMARK SMILES IDX 5 1 4 2 3 3 1 4 2 5 33 7 34 8 98 9 35 10 97 11 36 12 37 13
REMARK SMILES IDX 38 14 91 15 39 16 96 17 90 18 92 19 40 20 95 21 89 22 88 23
REMARK SMILES IDX 41 25 75 26 54 27 74 28 55 29 58 30 73 31 93 32 56 33 57 34
REMARK SMILES IDX 72 36 94 37 59 38 42 39 43 40 52 41 44 42 45 43 51 44 53 45
REMARK SMILES IDX 46 46 47 47 48 48 49 49 50 50 76 51 77 52 86 53 78 54 79 55
REMARK SMILES IDX 85 56 87 57 80 58 81 59 82 60 83 61 84 62 60 63 61 64 70 65
REMARK SMILES IDX 62 66 63 67 69 68 71 69 64 70 65 71 66 72 67 73 68 74 6 75
REMARK SMILES IDX 7 76 8 77 9 78 10 80 11 81 12 82 31 83 28 84 30 85 32 86
REMARK SMILES IDX 29 87 13 88 14 89 15 90 16 92 17 93 27 94 18 95 26 96 19 97
REMARK SMILES IDX 20 98 25 99 21 100 24 101 22 102 23 103
REMARK H PARENT 3 6 92 24 58 35 8 79 15 91
REMARK Flexibility Score: inf
ROOT
ATOM      1  C   UNL A   1      31.845  28.058  27.634  1.00  0.00     0.023 C 
ENDROOT
BRANCH   1   2
ATOM      2  C   UNL A   1      33.230  28.622  27.315  1.00  0.00     0.116 C 
BRANCH   2   3
ATOM      3  N   UNL A   1      33.302  30.043  27.582  1.00  0.00    -0.352 N 
ATOM      4  O   UNL A   1      34.098  31.901  28.556  1.00  0.00    -0.269 OA
ATOM      5  C   UNL A   1      34.320  30.758  28.165  1.00  0.00     0.251 C 
ATOM      6  H   UNL A   1      32.516  30.567  27.307  1.00  0.00     0.163 HD
BRANCH   5   7
ATOM      7  C   UNL A   1      35.676  30.174  28.329  1.00  0.00     0.039 A 
ATOM      8  C   UNL A   1      36.605  30.169  27.282  1.00  0.00     0.014 A 
ATOM      9  C   UNL A   1      36.063  29.734  29.600  1.00  0.00     0.014 A 
ATOM     10  C   UNL A   1      37.905  29.697  27.498  1.00  0.00     0.010 A 
ATOM     11  C   UNL A   1      37.372  29.292  29.822  1.00  0.00     0.010 A 
ATOM     12  C   UNL A   1      38.308  29.277  28.776  1.00  0.00    -0.014 A 
BRANCH  12  13
ATOM     13  C   UNL A   1      39.725  28.922  29.063  1.00  0.00     0.031 A 
ATOM     14  C   UNL A   1      40.687  29.947  29.593  1.00  0.00     0.074 A 
ATOM     15  C   UNL A   1      40.166  27.684  28.763  1.00  0.00     0.049 A 
ATOM     16  N   UNL A   1      41.979  29.847  29.778  1.00  0.00    -0.248 NA
ATOM     17  C   UNL A   1      40.125  31.256  29.954  1.00  0.00     0.031 C 
ATOM     18  C   UNL A   1      39.335  26.602  28.235  1.00  0.00     0.029 A 
ATOM     19  N   UNL A   1      41.423  27.133  28.837  1.00  0.00    -0.354 N 
ATOM     20  C   UNL A   1      42.392  31.084  30.257  1.00  0.00     0.074 A 
ATOM     21  C   UNL A   1      41.213  31.922  30.320  1.00  0.00     0.031 C 
ATOM     22  C   UNL A   1      40.100  25.518  28.036  1.00  0.00     0.029 A 
ATOM     23  C   UNL A   1      41.485  25.842  28.367  1.00  0.00     0.049 A 
ATOM     24  H   UNL A   1      42.204  27.616  29.192  1.00  0.00     0.167 HD
ATOM     25  C   UNL A   1      43.639  31.480  30.610  1.00  0.00     0.037 A 
ATOM     26  C   UNL A   1      42.536  25.017  28.188  1.00  0.00     0.037 A 
ATOM     27  C   UNL A   1      44.806  30.636  30.553  1.00  0.00     0.049 A 
ATOM     28  C   UNL A   1      43.916  25.487  28.544  1.00  0.00     0.074 A 
ATOM     29  C   UNL A   1      46.100  30.933  30.944  1.00  0.00     0.029 A 
ATOM     30  N   UNL A   1      44.827  29.338  30.061  1.00  0.00    -0.354 N 
ATOM     31  N   UNL A   1      44.285  26.647  29.032  1.00  0.00    -0.248 NA
ATOM     32  C   UNL A   1      45.025  24.549  28.319  1.00  0.00     0.031 C 
ATOM     33  C   UNL A   1      46.911  29.835  30.643  1.00  0.00     0.029 A 
ATOM     34  C   UNL A   1      46.116  28.833  30.109  1.00  0.00     0.049 A 
ATOM     35  H   UNL A   1      44.040  28.848  29.727  1.00  0.00     0.167 HD
ATOM     36  C   UNL A   1      45.665  26.574  29.188  1.00  0.00     0.074 A 
ATOM     37  C   UNL A   1      46.067  25.256  28.743  1.00  0.00     0.031 C 
ATOM     38  C   UNL A   1      46.512  27.518  29.664  1.00  0.00     0.037 A 
BRANCH  25  39
ATOM     39  C   UNL A   1      43.818  32.901  31.070  1.00  0.00     0.058 A 
ATOM     40  C   UNL A   1      44.109  33.916  30.144  1.00  0.00     0.135 A 
ATOM     41  C   UNL A   1      43.734  33.257  32.426  1.00  0.00     0.135 A 
ATOM     42  F   UNL A   1      44.201  33.631  28.836  1.00  0.00    -0.206 F 
ATOM     43  C   UNL A   1      44.304  35.234  30.543  1.00  0.00     0.059 A 
ATOM     44  C   UNL A   1      43.904  34.573  32.846  1.00  0.00     0.059 A 
ATOM     45  F   UNL A   1      43.445  32.328  33.351  1.00  0.00    -0.206 F 
ATOM     46  C   UNL A   1      44.193  35.555  31.897  1.00  0.00     0.060 A 
BRANCH  46  47
ATOM     47  S   UNL A   1      44.355  37.284  32.393  1.00  0.00     0.124 S 
ATOM     48  O   UNL A   1      43.407  37.371  33.498  1.00  0.00    -0.237 OA
ATOM     49  O   UNL A   1      45.767  37.370  32.756  1.00  0.00    -0.237 OA
ATOM     50  O   UNL A   1      43.987  38.015  31.184  1.00  0.00    -0.744 OA
ENDBRANCH  46  47
ENDBRANCH  25  39
BRANCH  26  51
ATOM     51  C   UNL A   1      42.289  23.657  27.643  1.00  0.00     0.058 A 
ATOM     52  C   UNL A   1      42.216  22.540  28.490  1.00  0.00     0.135 A 
ATOM     53  C   UNL A   1      42.245  23.436  26.260  1.00  0.00     0.135 A 
ATOM     54  F   UNL A   1      42.260  22.701  29.822  1.00  0.00    -0.206 F 
ATOM     55  C   UNL A   1      42.167  21.246  27.984  1.00  0.00     0.059 A 
ATOM     56  C   UNL A   1      42.175  22.152  25.729  1.00  0.00     0.059 A 
ATOM     57  F   UNL A   1      42.296  24.476  25.414  1.00  0.00    -0.206 F 
ATOM     58  C   UNL A   1      42.168  21.062  26.600  1.00  0.00     0.060 A 
BRANCH  58  59
ATOM     59  S   UNL A   1      42.201  19.373  25.961  1.00  0.00     0.124 S 
ATOM     60  O   UNL A   1      40.792  19.154  25.646  1.00  0.00    -0.237 OA
ATOM     61  O   UNL A   1      43.096  19.496  24.816  1.00  0.00    -0.237 OA
ATOM     62  O   UNL A   1      42.720  18.597  27.083  1.00  0.00    -0.744 OA
ENDBRANCH  58  59
ENDBRANCH  26  51
BRANCH  38  63
ATOM     63  C   UNL A   1      47.974  27.181  29.753  1.00  0.00     0.058 A 
ATOM     64  C   UNL A   1      48.512  26.678  30.948  1.00  0.00     0.135 A 
ATOM     65  C   UNL A   1      48.859  27.488  28.709  1.00  0.00     0.135 A 
ATOM     66  F   UNL A   1      47.707  26.369  31.976  1.00  0.00    -0.206 F 
ATOM     67  C   UNL A   1      49.884  26.534  31.122  1.00  0.00     0.059 A 
ATOM     68  C   UNL A   1      50.236  27.331  28.854  1.00  0.00     0.059 A 
ATOM     69  F   UNL A   1      48.391  27.955  27.542  1.00  0.00    -0.206 F 
ATOM     70  C   UNL A   1      50.740  26.880  30.075  1.00  0.00     0.060 A 
BRANCH  70  71
ATOM     71  S   UNL A   1      52.521  26.745  30.341  1.00  0.00     0.124 S 
ATOM     72  O   UNL A   1      53.023  26.684  28.972  1.00  0.00    -0.237 OA
ATOM     73  O   UNL A   1      52.818  27.973  31.073  1.00  0.00    -0.237 OA
ATOM     74  O   UNL A   1      52.657  25.515  31.115  1.00  0.00    -0.744 OA
ENDBRANCH  70  71
ENDBRANCH  38  63
ENDBRANCH  12  13
ENDBRANCH   5   7
ENDBRANCH   2   3
ENDBRANCH   1   2
BRANCH   1  75
ATOM     75  C   UNL A   1      31.304  26.951  26.718  1.00  0.00     0.023 C 
BRANCH  75  76
ATOM     76  C   UNL A   1      31.854  25.530  26.871  1.00  0.00     0.116 C 
BRANCH  76  77
ATOM     77  N   UNL A   1      30.942  24.453  26.524  1.00  0.00    -0.356 N 
ATOM     78  C   UNL A   1      31.155  23.154  26.157  1.00  0.00     0.227 C 
ATOM     79  H   UNL A   1      29.992  24.708  26.559  1.00  0.00     0.163 HD
ATOM     80  O   UNL A   1      30.180  22.404  26.136  1.00  0.00    -0.275 OA
BRANCH  78  81
ATOM     81  C   UNL A   1      32.547  22.675  25.818  1.00  0.00     0.127 C 
ATOM     82  C   UNL A   1      33.077  23.253  24.483  1.00  0.00     0.127 C 
ATOM     83  C   UNL A   1      32.521  21.159  25.488  1.00  0.00     0.155 C 
ATOM     84  C   UNL A   1      33.612  21.979  23.802  1.00  0.00     0.155 C 
ATOM     85  C   UNL A   1      33.921  20.641  25.627  1.00  0.00     0.004 C 
ATOM     86  O   UNL A   1      32.445  21.142  24.033  1.00  0.00    -0.365 OA
ATOM     87  C   UNL A   1      34.603  21.177  24.604  1.00  0.00     0.004 C 
BRANCH  82  88
ATOM     88  C   UNL A   1      34.136  24.319  24.646  1.00  0.00     0.233 C 
ATOM     89  O   UNL A   1      35.126  24.145  25.365  1.00  0.00    -0.274 OA
ATOM     90  N   UNL A   1      34.052  25.507  23.984  1.00  0.00    -0.302 N 
ATOM     91  H   UNL A   1      34.845  26.088  24.033  1.00  0.00     0.172 HD
BRANCH  90  92
ATOM     92  C   UNL A   1      32.999  25.987  23.259  1.00  0.00     0.189 A 
ATOM     93  N   UNL A   1      32.101  26.874  23.593  1.00  0.00    -0.220 NA
ATOM     94  S   UNL A   1      32.906  25.377  21.668  1.00  0.00    -0.105 S 
ATOM     95  C   UNL A   1      31.237  27.086  22.531  1.00  0.00     0.084 A 
ATOM     96  C   UNL A   1      31.513  26.346  21.397  1.00  0.00     0.097 A 
BRANCH  95  97
ATOM     97  C   UNL A   1      30.192  28.095  22.585  1.00  0.00     0.001 A 
ATOM     98  C   UNL A   1      30.431  29.365  22.041  1.00  0.00     0.013 A 
ATOM     99  C   UNL A   1      28.943  27.829  23.152  1.00  0.00     0.013 A 
ATOM    100  C   UNL A   1      29.454  30.357  22.051  1.00  0.00     0.040 A 
ATOM    101  C   UNL A   1      27.959  28.825  23.171  1.00  0.00     0.040 A 
ATOM    102  C   UNL A   1      28.223  30.076  22.620  1.00  0.00     0.123 A 
ATOM    103  F   UNL A   1      27.280  31.026  22.640  1.00  0.00    -0.207 F 
ENDBRANCH  95  97
ENDBRANCH  90  92
ENDBRANCH  82  88
ENDBRANCH  78  81
ENDBRANCH  76  77
ENDBRANCH  75  76
ENDBRANCH   1  75
TORSDOF 17
ENDMDL
MODEL 2
REMARK VINA RESULT:     -12.6      3.092      5.036
REMARK SMILES O=C(NCCCCNC(=O)[C@@H]1[C@@H](C(=O)Nc2nc(-c3ccc(F)cc3)cs2)[C@H]2C=C[C@@H]1O2)c1ccc(-c2c3nc(c(-c4c(F)cc(S(=O)(=O)[O-])cc4F)c4ccc([nH]4)c(-c4c(F)cc(S(=O)(=O)[O-])cc4F)c4nc(c(-c5c(F)cc(S(=O)(=O)[O-])cc5F)c5ccc2[nH]5)C=C4)C=C3)cc1
REMARK SMILES IDX 5 1 4 2 3 3 1 4 2 5 33 7 34 8 98 9 35 10 97 11 36 12 37 13
REMARK SMILES IDX 38 14 91 15 39 16 96 17 90 18 92 19 40 20 95 21 89 22 88 23
REMARK SMILES IDX 41 25 75 26 54 27 74 28 55 29 58 30 73 31 93 32 56 33 57 34
REMARK SMILES IDX 72 36 94 37 59 38 42 39 43 40 52 41 44 42 45 43 51 44 53 45
REMARK SMILES IDX 46 46 47 47 48 48 49 49 50 50 76 51 77 52 86 53 78 54 79 55
REMARK SMILES IDX 85 56 87 57 80 58 81 59 82 60 83 61 84 62 60 63 61 64 70 65
REMARK SMILES IDX 62 66 63 67 69 68 71 69 64 70 65 71 66 72 67 73 68 74 6 75
REMARK SMILES IDX 7 76 8 77 9 78 10 80 11 81 12 82 31 83 28 84 30 85 32 86
REMARK SMILES IDX 29 87 13 88 14 89 15 90 16 92 17 93 27 94 18 95 26 96 19 97
REMARK SMILES IDX 20 98 25 99 21 100 24 101 22 102 23 103
REMARK H PARENT 3 6 92 24 58 35 8 79 15 91
REMARK Flexibility Score: inf
ROOT
ATOM      1  C   UNL A   1      34.359  31.391  27.700  1.00  0.00     0.023 C 
ENDROOT
BRANCH   1   2
ATOM      2  C   UNL A   1      35.682  31.650  28.420  1.00  0.00     0.116 C 
BRANCH   2   3
ATOM      3  N   UNL A   1      35.572  31.409  29.844  1.00  0.00    -0.352 N 
ATOM      4  O   UNL A   1      35.897  30.283  31.756  1.00  0.00    -0.269 OA
ATOM      5  C   UNL A   1      36.307  30.556  30.632  1.00  0.00     0.251 C 
ATOM      6  H   UNL A   1      34.877  31.927  30.310  1.00  0.00     0.163 HD
BRANCH   5   7
ATOM      7  C   UNL A   1      37.580  29.965  30.147  1.00  0.00     0.039 A 
ATOM      8  C   UNL A   1      37.971  30.058  28.806  1.00  0.00     0.014 A 
ATOM      9  C   UNL A   1      38.458  29.410  31.086  1.00  0.00     0.014 A 
ATOM     10  C   UNL A   1      39.220  29.572  28.403  1.00  0.00     0.010 A 
ATOM     11  C   UNL A   1      39.718  28.954  30.686  1.00  0.00     0.010 A 
ATOM     12  C   UNL A   1      40.115  29.038  29.343  1.00  0.00    -0.014 A 
BRANCH  12  13
ATOM     13  C   UNL A   1      41.505  28.663  28.962  1.00  0.00     0.031 A 
ATOM     14  C   UNL A   1      42.595  29.694  28.900  1.00  0.00     0.074 A 
ATOM     15  C   UNL A   1      41.764  27.394  28.589  1.00  0.00     0.049 A 
ATOM     16  N   UNL A   1      43.824  29.570  28.468  1.00  0.00    -0.248 NA
ATOM     17  C   UNL A   1      42.257  31.042  29.378  1.00  0.00     0.031 C 
ATOM     18  C   UNL A   1      40.791  26.301  28.597  1.00  0.00     0.029 A 
ATOM     19  N   UNL A   1      42.913  26.812  28.111  1.00  0.00    -0.354 N 
ATOM     20  C   UNL A   1      44.404  30.825  28.600  1.00  0.00     0.074 A 
ATOM     21  C   UNL A   1      43.385  31.701  29.141  1.00  0.00     0.031 C 
ATOM     22  C   UNL A   1      41.382  25.183  28.149  1.00  0.00     0.029 A 
ATOM     23  C   UNL A   1      42.759  25.490  27.769  1.00  0.00     0.049 A 
ATOM     24  H   UNL A   1      43.767  27.296  28.022  1.00  0.00     0.167 HD
ATOM     25  C   UNL A   1      45.668  31.209  28.299  1.00  0.00     0.037 A 
ATOM     26  C   UNL A   1      43.610  24.622  27.185  1.00  0.00     0.037 A 
ATOM     27  C   UNL A   1      46.679  30.328  27.770  1.00  0.00     0.049 A 
ATOM     28  C   UNL A   1      44.993  25.076  26.818  1.00  0.00     0.074 A 
ATOM     29  C   UNL A   1      48.004  30.614  27.488  1.00  0.00     0.029 A 
ATOM     30  N   UNL A   1      46.478  28.998  27.429  1.00  0.00    -0.354 N 
ATOM     31  N   UNL A   1      45.538  26.256  26.986  1.00  0.00    -0.248 NA
ATOM     32  C   UNL A   1      45.875  24.091  26.176  1.00  0.00     0.031 C 
ATOM     33  C   UNL A   1      48.589  29.473  26.930  1.00  0.00     0.029 A 
ATOM     34  C   UNL A   1      47.644  28.460  26.909  1.00  0.00     0.049 A 
ATOM     35  H   UNL A   1      45.630  28.509  27.539  1.00  0.00     0.167 HD
ATOM     36  C   UNL A   1      46.832  26.154  26.485  1.00  0.00     0.074 A 
ATOM     37  C   UNL A   1      46.989  24.795  26.009  1.00  0.00     0.031 C 
ATOM     38  C   UNL A   1      47.796  27.104  26.435  1.00  0.00     0.037 A 
BRANCH  25  39
ATOM     39  C   UNL A   1      46.030  32.653  28.510  1.00  0.00     0.058 A 
ATOM     40  C   UNL A   1      46.540  33.084  29.745  1.00  0.00     0.135 A 
ATOM     41  C   UNL A   1      45.844  33.618  27.507  1.00  0.00     0.135 A 
ATOM     42  F   UNL A   1      46.737  32.204  30.739  1.00  0.00    -0.206 F 
ATOM     43  C   UNL A   1      46.860  34.418  29.977  1.00  0.00     0.059 A 
ATOM     44  C   UNL A   1      46.178  34.954  27.709  1.00  0.00     0.059 A 
ATOM     45  F   UNL A   1      45.373  33.258  26.302  1.00  0.00    -0.206 F 
ATOM     46  C   UNL A   1      46.681  35.346  28.950  1.00  0.00     0.060 A 
BRANCH  46  47
ATOM     47  S   UNL A   1      47.187  37.057  29.231  1.00  0.00     0.124 S 
ATOM     48  O   UNL A   1      48.432  37.131  28.476  1.00  0.00    -0.237 OA
ATOM     49  O   UNL A   1      46.061  37.806  28.680  1.00  0.00    -0.237 OA
ATOM     50  O   UNL A   1      47.322  37.132  30.683  1.00  0.00    -0.744 OA
ENDBRANCH  46  47
ENDBRANCH  25  39
BRANCH  26  51
ATOM     51  C   UNL A   1      43.148  23.234  26.927  1.00  0.00     0.058 A 
ATOM     52  C   UNL A   1      42.997  22.314  27.977  1.00  0.00     0.135 A 
ATOM     53  C   UNL A   1      42.968  22.771  25.617  1.00  0.00     0.135 A 
ATOM     54  F   UNL A   1      43.165  22.710  29.248  1.00  0.00    -0.206 F 
ATOM     55  C   UNL A   1      42.742  20.970  27.734  1.00  0.00     0.059 A 
ATOM     56  C   UNL A   1      42.691  21.434  25.348  1.00  0.00     0.059 A 
ATOM     57  F   UNL A   1      43.087  23.619  24.584  1.00  0.00    -0.206 F 
ATOM     58  C   UNL A   1      42.611  20.536  26.413  1.00  0.00     0.060 A 
BRANCH  58  59
ATOM     59  S   UNL A   1      42.376  18.770  26.111  1.00  0.00     0.124 S 
ATOM     60  O   UNL A   1      40.962  18.724  25.747  1.00  0.00    -0.237 OA
ATOM     61  O   UNL A   1      43.319  18.515  25.029  1.00  0.00    -0.237 OA
ATOM     62  O   UNL A   1      42.713  18.160  27.393  1.00  0.00    -0.744 OA
ENDBRANCH  58  59
ENDBRANCH  26  51
BRANCH  38  63
ATOM     63  C   UNL A   1      49.132  26.731  25.858  1.00  0.00     0.058 A 
ATOM     64  C   UNL A   1      50.143  26.219  26.687  1.00  0.00     0.135 A 
ATOM     65  C   UNL A   1      49.456  27.012  24.522  1.00  0.00     0.135 A 
ATOM     66  F   UNL A   1      49.884  25.934  27.973  1.00  0.00    -0.206 F 
ATOM     67  C   UNL A   1      51.442  26.041  26.224  1.00  0.00     0.059 A 
ATOM     68  C   UNL A   1      50.745  26.821  24.031  1.00  0.00     0.059 A 
ATOM     69  F   UNL A   1      48.519  27.487  23.686  1.00  0.00    -0.206 F 
ATOM     70  C   UNL A   1      51.738  26.363  24.898  1.00  0.00     0.060 A 
BRANCH  70  71
ATOM     71  S   UNL A   1      53.443  26.184  24.331  1.00  0.00     0.124 S 
ATOM     72  O   UNL A   1      53.333  26.573  22.929  1.00  0.00    -0.237 OA
ATOM     73  O   UNL A   1      54.156  27.119  25.196  1.00  0.00    -0.237 OA
ATOM     74  O   UNL A   1      53.735  24.774  24.570  1.00  0.00    -0.744 OA
ENDBRANCH  70  71
ENDBRANCH  38  63
ENDBRANCH  12  13
ENDBRANCH   5   7
ENDBRANCH   2   3
ENDBRANCH   1   2
BRANCH   1  75
ATOM     75  C   UNL A   1      34.137  29.991  27.109  1.00  0.00     0.023 C 
BRANCH  75  76
ATOM     76  C   UNL A   1      33.192  29.835  25.914  1.00  0.00     0.116 C 
BRANCH  76  77
ATOM     77  N   UNL A   1      33.663  28.980  24.838  1.00  0.00    -0.356 N 
ATOM     78  C   UNL A   1      33.010  28.129  23.991  1.00  0.00     0.227 C 
ATOM     79  H   UNL A   1      34.635  29.021  24.692  1.00  0.00     0.163 HD
ATOM     80  O   UNL A   1      33.639  27.698  23.025  1.00  0.00    -0.275 OA
BRANCH  78  81
ATOM     81  C   UNL A   1      31.565  27.764  24.239  1.00  0.00     0.127 C 
ATOM     82  C   UNL A   1      31.373  26.276  24.619  1.00  0.00     0.127 C 
ATOM     83  C   UNL A   1      30.765  27.831  22.911  1.00  0.00     0.155 C 
ATOM     84  C   UNL A   1      30.215  25.880  23.685  1.00  0.00     0.155 C 
ATOM     85  C   UNL A   1      29.312  27.935  23.263  1.00  0.00     0.004 C 
ATOM     86  O   UNL A   1      30.763  26.444  22.462  1.00  0.00    -0.365 OA
ATOM     87  C   UNL A   1      28.981  26.740  23.774  1.00  0.00     0.004 C 
BRANCH  82  88
ATOM     88  C   UNL A   1      31.054  26.046  26.078  1.00  0.00     0.233 C 
ATOM     89  O   UNL A   1      30.381  26.851  26.730  1.00  0.00    -0.274 OA
ATOM     90  N   UNL A   1      31.476  24.924  26.726  1.00  0.00    -0.302 N 
ATOM     91  H   UNL A   1      31.112  24.781  27.630  1.00  0.00     0.172 HD
BRANCH  90  92
ATOM     92  C   UNL A   1      32.344  23.973  26.272  1.00  0.00     0.189 A 
ATOM     93  N   UNL A   1      33.649  23.989  26.244  1.00  0.00    -0.220 NA
ATOM     94  S   UNL A   1      31.593  22.538  25.732  1.00  0.00    -0.105 S 
ATOM     95  C   UNL A   1      34.120  22.791  25.730  1.00  0.00     0.084 A 
ATOM     96  C   UNL A   1      33.142  21.880  25.382  1.00  0.00     0.097 A 
BRANCH  95  97
ATOM     97  C   UNL A   1      35.541  22.491  25.672  1.00  0.00     0.001 A 
ATOM     98  C   UNL A   1      36.471  23.488  25.999  1.00  0.00     0.013 A 
ATOM     99  C   UNL A   1      36.010  21.224  25.312  1.00  0.00     0.013 A 
ATOM    100  C   UNL A   1      37.841  23.241  25.977  1.00  0.00     0.040 A 
ATOM    101  C   UNL A   1      37.386  20.973  25.282  1.00  0.00     0.040 A 
ATOM    102  C   UNL A   1      38.287  21.980  25.616  1.00  0.00     0.123 A 
ATOM    103  F   UNL A   1      39.603  21.736  25.586  1.00  0.00    -0.207 F 
ENDBRANCH  95  97
ENDBRANCH  90  92
ENDBRANCH  82  88
ENDBRANCH  78  81
ENDBRANCH  76  77
ENDBRANCH  75  76
ENDBRANCH   1  75
TORSDOF 17
ENDMDL
MODEL 3
REMARK VINA RESULT:     -12.6      3.134      5.115
REMARK SMILES O=C(NCCCCNC(=O)[C@@H]1[C@@H](C(=O)Nc2nc(-c3ccc(F)cc3)cs2)[C@H]2C=C[C@@H]1O2)c1ccc(-c2c3nc(c(-c4c(F)cc(S(=O)(=O)[O-])cc4F)c4ccc([nH]4)c(-c4c(F)cc(S(=O)(=O)[O-])cc4F)c4nc(c(-c5c(F)cc(S(=O)(=O)[O-])cc5F)c5ccc2[nH]5)C=C4)C=C3)cc1
REMARK SMILES IDX 5 1 4 2 3 3 1 4 2 5 33 7 34 8 98 9 35 10 97 11 36 12 37 13
REMARK SMILES IDX 38 14 91 15 39 16 96 17 90 18 92 19 40 20 95 21 89 22 88 23
REMARK SMILES IDX 41 25 75 26 54 27 74 28 55 29 58 30 73 31 93 32 56 33 57 34
REMARK SMILES IDX 72 36 94 37 59 38 42 39 43 40 52 41 44 42 45 43 51 44 53 45
REMARK SMILES IDX 46 46 47 47 48 48 49 49 50 50 76 51 77 52 86 53 78 54 79 55
REMARK SMILES IDX 85 56 87 57 80 58 81 59 82 60 83 61 84 62 60 63 61 64 70 65
REMARK SMILES IDX 62 66 63 67 69 68 71 69 64 70 65 71 66 72 67 73 68 74 6 75
REMARK SMILES IDX 7 76 8 77 9 78 10 80 11 81 12 82 31 83 28 84 30 85 32 86
REMARK SMILES IDX 29 87 13 88 14 89 15 90 16 92 17 93 27 94 18 95 26 96 19 97
REMARK SMILES IDX 20 98 25 99 21 100 24 101 22 102 23 103
REMARK H PARENT 3 6 92 24 58 35 8 79 15 91
REMARK Flexibility Score: inf
ROOT
ATOM      1  C   UNL A   1      34.682  31.537  27.619  1.00  0.00     0.023 C 
ENDROOT
BRANCH   1   2
ATOM      2  C   UNL A   1      35.803  31.871  28.604  1.00  0.00     0.116 C 
BRANCH   2   3
ATOM      3  N   UNL A   1      35.594  31.235  29.887  1.00  0.00    -0.352 N 
ATOM      4  O   UNL A   1      35.953  29.710  31.493  1.00  0.00    -0.269 OA
ATOM      5  C   UNL A   1      36.411  30.353  30.553  1.00  0.00     0.251 C 
ATOM      6  H   UNL A   1      34.754  31.465  30.344  1.00  0.00     0.163 HD
BRANCH   5   7
ATOM      7  C   UNL A   1      37.830  30.167  30.156  1.00  0.00     0.039 A 
ATOM      8  C   UNL A   1      38.868  30.217  31.094  1.00  0.00     0.014 A 
ATOM      9  C   UNL A   1      38.111  29.814  28.831  1.00  0.00     0.014 A 
ATOM     10  C   UNL A   1      40.183  29.944  30.701  1.00  0.00     0.010 A 
ATOM     11  C   UNL A   1      39.422  29.510  28.448  1.00  0.00     0.010 A 
ATOM     12  C   UNL A   1      40.470  29.564  29.380  1.00  0.00    -0.014 A 
BRANCH  12  13
ATOM     13  C   UNL A   1      41.833  29.117  28.981  1.00  0.00     0.031 A 
ATOM     14  C   UNL A   1      42.972  30.091  28.893  1.00  0.00     0.074 A 
ATOM     15  C   UNL A   1      42.022  27.833  28.617  1.00  0.00     0.049 A 
ATOM     16  N   UNL A   1      44.187  29.901  28.444  1.00  0.00    -0.248 NA
ATOM     17  C   UNL A   1      42.710  31.459  29.363  1.00  0.00     0.031 C 
ATOM     18  C   UNL A   1      40.995  26.791  28.650  1.00  0.00     0.029 A 
ATOM     19  N   UNL A   1      43.133  27.190  28.127  1.00  0.00    -0.354 N 
ATOM     20  C   UNL A   1      44.831  31.127  28.555  1.00  0.00     0.074 A 
ATOM     21  C   UNL A   1      43.865  32.057  29.103  1.00  0.00     0.031 C 
ATOM     22  C   UNL A   1      41.522  25.641  28.204  1.00  0.00     0.029 A 
ATOM     23  C   UNL A   1      42.907  25.874  27.801  1.00  0.00     0.049 A 
ATOM     24  H   UNL A   1      44.008  27.629  28.021  1.00  0.00     0.167 HD
ATOM     25  C   UNL A   1      46.108  31.444  28.231  1.00  0.00     0.037 A 
ATOM     26  C   UNL A   1      43.705  24.959  27.212  1.00  0.00     0.037 A 
ATOM     27  C   UNL A   1      47.065  30.508  27.696  1.00  0.00     0.049 A 
ATOM     28  C   UNL A   1      45.103  25.339  26.820  1.00  0.00     0.074 A 
ATOM     29  C   UNL A   1      48.398  30.725  27.391  1.00  0.00     0.029 A 
ATOM     30  N   UNL A   1      46.792  29.187  27.371  1.00  0.00    -0.354 N 
ATOM     31  N   UNL A   1      45.709  26.492  26.968  1.00  0.00    -0.248 NA
ATOM     32  C   UNL A   1      45.924  24.306  26.175  1.00  0.00     0.031 C 
ATOM     33  C   UNL A   1      48.916  29.551  26.835  1.00  0.00     0.029 A 
ATOM     34  C   UNL A   1      47.921  28.586  26.839  1.00  0.00     0.049 A 
ATOM     35  H   UNL A   1      45.922  28.742  27.499  1.00  0.00     0.167 HD
ATOM     36  C   UNL A   1      46.988  26.320  26.450  1.00  0.00     0.074 A 
ATOM     37  C   UNL A   1      47.069  24.951  25.984  1.00  0.00     0.031 C 
ATOM     38  C   UNL A   1      47.997  27.221  26.376  1.00  0.00     0.037 A 
BRANCH  25  39
ATOM     39  C   UNL A   1      46.545  32.870  28.423  1.00  0.00     0.058 A 
ATOM     40  C   UNL A   1      47.050  33.297  29.662  1.00  0.00     0.135 A 
ATOM     41  C   UNL A   1      46.437  33.822  27.397  1.00  0.00     0.135 A 
ATOM     42  F   UNL A   1      47.175  32.428  30.677  1.00  0.00    -0.206 F 
ATOM     43  C   UNL A   1      47.439  34.615  29.875  1.00  0.00     0.059 A 
ATOM     44  C   UNL A   1      46.840  35.142  27.581  1.00  0.00     0.059 A 
ATOM     45  F   UNL A   1      45.974  33.464  26.189  1.00  0.00    -0.206 F 
ATOM     46  C   UNL A   1      47.335  35.531  28.826  1.00  0.00     0.060 A 
BRANCH  46  47
ATOM     47  S   UNL A   1      47.930  37.216  29.086  1.00  0.00     0.124 S 
ATOM     48  O   UNL A   1      47.953  37.741  27.726  1.00  0.00    -0.237 OA
ATOM     49  O   UNL A   1      46.906  37.772  29.968  1.00  0.00    -0.237 OA
ATOM     50  O   UNL A   1      49.235  37.019  29.711  1.00  0.00    -0.744 OA
ENDBRANCH  46  47
ENDBRANCH  25  39
BRANCH  26  51
ATOM     51  C   UNL A   1      43.169  23.594  26.975  1.00  0.00     0.058 A 
ATOM     52  C   UNL A   1      43.086  22.657  28.017  1.00  0.00     0.135 A 
ATOM     53  C   UNL A   1      42.848  23.166  25.680  1.00  0.00     0.135 A 
ATOM     54  F   UNL A   1      43.390  23.019  29.273  1.00  0.00    -0.206 F 
ATOM     55  C   UNL A   1      42.760  21.328  27.775  1.00  0.00     0.059 A 
ATOM     56  C   UNL A   1      42.497  21.845  25.414  1.00  0.00     0.059 A 
ATOM     57  F   UNL A   1      42.898  24.032  24.656  1.00  0.00    -0.206 F 
ATOM     58  C   UNL A   1      42.487  20.928  26.465  1.00  0.00     0.060 A 
BRANCH  58  59
ATOM     59  S   UNL A   1      42.159  19.178  26.155  1.00  0.00     0.124 S 
ATOM     60  O   UNL A   1      42.510  18.585  27.442  1.00  0.00    -0.237 OA
ATOM     61  O   UNL A   1      40.738  19.186  25.826  1.00  0.00    -0.237 OA
ATOM     62  O   UNL A   1      43.056  18.857  25.050  1.00  0.00    -0.744 OA
ENDBRANCH  58  59
ENDBRANCH  26  51
BRANCH  38  63
ATOM     63  C   UNL A   1      49.304  26.775  25.782  1.00  0.00     0.058 A 
ATOM     64  C   UNL A   1      50.303  26.226  26.602  1.00  0.00     0.135 A 
ATOM     65  C   UNL A   1      49.618  27.022  24.437  1.00  0.00     0.135 A 
ATOM     66  F   UNL A   1      50.052  25.970  27.896  1.00  0.00    -0.206 F 
ATOM     67  C   UNL A   1      51.584  25.979  26.120  1.00  0.00     0.059 A 
ATOM     68  C   UNL A   1      50.888  26.763  23.928  1.00  0.00     0.059 A 
ATOM     69  F   UNL A   1      48.691  27.531  23.610  1.00  0.00    -0.206 F 
ATOM     70  C   UNL A   1      51.873  26.268  24.785  1.00  0.00     0.060 A 
BRANCH  70  71
ATOM     71  S   UNL A   1      53.557  26.000  24.193  1.00  0.00     0.124 S 
ATOM     72  O   UNL A   1      54.284  27.071  24.865  1.00  0.00    -0.237 OA
ATOM     73  O   UNL A   1      53.838  24.647  24.664  1.00  0.00    -0.237 OA
ATOM     74  O   UNL A   1      53.434  26.138  22.745  1.00  0.00    -0.744 OA
ENDBRANCH  70  71
ENDBRANCH  38  63
ENDBRANCH  12  13
ENDBRANCH   5   7
ENDBRANCH   2   3
ENDBRANCH   1   2
BRANCH   1  75
ATOM     75  C   UNL A   1      34.461  30.057  27.276  1.00  0.00     0.023 C 
BRANCH  75  76
ATOM     76  C   UNL A   1      33.285  29.676  26.371  1.00  0.00     0.116 C 
BRANCH  76  77
ATOM     77  N   UNL A   1      33.622  29.333  25.000  1.00  0.00    -0.356 N 
ATOM     78  C   UNL A   1      32.908  28.724  24.006  1.00  0.00     0.227 C 
ATOM     79  H   UNL A   1      34.536  29.584  24.738  1.00  0.00     0.163 HD
ATOM     80  O   UNL A   1      33.376  28.761  22.868  1.00  0.00    -0.275 OA
BRANCH  78  81
ATOM     81  C   UNL A   1      31.587  28.058  24.312  1.00  0.00     0.127 C 
ATOM     82  C   UNL A   1      31.735  26.562  24.680  1.00  0.00     0.127 C 
ATOM     83  C   UNL A   1      30.732  27.957  23.021  1.00  0.00     0.155 C 
ATOM     84  C   UNL A   1      30.647  25.930  23.792  1.00  0.00     0.155 C 
ATOM     85  C   UNL A   1      29.307  27.746  23.438  1.00  0.00     0.004 C 
ATOM     86  O   UNL A   1      31.005  26.604  22.554  1.00  0.00    -0.365 OA
ATOM     87  C   UNL A   1      29.263  26.506  23.946  1.00  0.00     0.004 C 
BRANCH  82  88
ATOM     88  C   UNL A   1      31.539  26.262  26.148  1.00  0.00     0.233 C 
ATOM     89  O   UNL A   1      30.997  27.071  26.909  1.00  0.00    -0.274 OA
ATOM     90  N   UNL A   1      31.931  25.073  26.686  1.00  0.00    -0.302 N 
ATOM     91  H   UNL A   1      31.645  24.900  27.612  1.00  0.00     0.172 HD
BRANCH  90  92
ATOM     92  C   UNL A   1      32.673  24.092  26.094  1.00  0.00     0.189 A 
ATOM     93  N   UNL A   1      32.314  22.893  25.722  1.00  0.00    -0.220 NA
ATOM     94  S   UNL A   1      34.279  24.547  25.736  1.00  0.00    -0.105 S 
ATOM     95  C   UNL A   1      33.387  22.248  25.129  1.00  0.00     0.084 A 
ATOM     96  C   UNL A   1      34.549  22.990  25.058  1.00  0.00     0.097 A 
BRANCH  95  97
ATOM     97  C   UNL A   1      33.250  20.929  24.531  1.00  0.00     0.001 A 
ATOM     98  C   UNL A   1      34.055  19.877  24.990  1.00  0.00     0.013 A 
ATOM     99  C   UNL A   1      32.322  20.676  23.517  1.00  0.00     0.013 A 
ATOM    100  C   UNL A   1      33.945  18.593  24.463  1.00  0.00     0.040 A 
ATOM    101  C   UNL A   1      32.212  19.388  22.980  1.00  0.00     0.040 A 
ATOM    102  C   UNL A   1      33.022  18.361  23.457  1.00  0.00     0.123 A 
ATOM    103  F   UNL A   1      32.913  17.131  22.939  1.00  0.00    -0.207 F 
ENDBRANCH  95  97
ENDBRANCH  90  92
ENDBRANCH  82  88
ENDBRANCH  78  81
ENDBRANCH  76  77
ENDBRANCH  75  76
ENDBRANCH   1  75
TORSDOF 17
ENDMDL
