MODEL 1
REMARK VINA RESULT:     -12.3      0.000      0.000
REMARK SMILES C[C@@](NC(=O)[C@H]1COc2ccccc21)(C(=O)NCCCCNC(=O)c1ccc(-c2c3nc(c(-c4c(F)cc(S(=O)(=O)[O-])cc4F)c4ccc([nH]4)c(-c4c(F)cc(S(=O)(=O)[O-])cc4F)c4nc(c(-c5c(F)cc(S(=O)(=O)[O-])cc5F)c5ccc2[nH]5)C=C4)C=C3)cc1)C(F)(F)F
REMARK SMILES IDX 20 1 19 2 18 3 17 4 15 5 16 6 2 8 1 9 3 10 4 11 5 13 6 14
REMARK SMILES IDX 7 15 14 16 8 17 9 18 13 19 10 20 12 21 11 22 91 23 92 24
REMARK SMILES IDX 93 25 94 26 21 27 22 28 23 29 24 31 25 32 26 33 90 34 27 35
REMARK SMILES IDX 89 36 28 37 29 38 30 39 83 40 31 41 88 42 82 43 84 44 32 45
REMARK SMILES IDX 87 46 81 47 80 48 33 50 67 51 46 52 66 53 47 54 50 55 65 56
REMARK SMILES IDX 85 57 48 58 49 59 64 61 86 62 51 63 34 64 35 65 44 66 36 67
REMARK SMILES IDX 37 68 43 69 45 70 38 71 39 72 40 73 41 74 42 75 68 76 69 77
REMARK SMILES IDX 78 78 70 79 71 80 77 81 79 82 72 83 73 84 74 85 75 86 76 87
REMARK SMILES IDX 52 88 53 89 62 90 54 91 55 92 61 93 63 94 56 95 57 96 58 97
REMARK SMILES IDX 59 98 60 99
REMARK H PARENT 17 7 3 12 22 30 84 49 50 60
REMARK Flexibility Score: inf
ROOT
ATOM      1  C   UNL A   1      34.316  31.253  27.590  1.00  0.00     0.023 C 
ENDROOT
BRANCH   1   2
ATOM      2  C   UNL A   1      33.905  29.830  27.199  1.00  0.00     0.023 C 
BRANCH   2   3
ATOM      3  C   UNL A   1      33.735  29.612  25.698  1.00  0.00     0.116 C 
BRANCH   3   4
ATOM      4  N   UNL A   1      32.385  29.936  25.254  1.00  0.00    -0.354 N 
ATOM      5  C   UNL A   1      31.381  29.166  24.721  1.00  0.00     0.254 C 
ATOM      6  O   UNL A   1      30.408  29.770  24.268  1.00  0.00    -0.272 OA
ATOM      7  H   UNL A   1      32.148  30.888  25.355  1.00  0.00     0.163 HD
BRANCH   5   8
ATOM      8  C   UNL A   1      31.576  27.663  24.503  1.00  0.00     0.212 C 
ATOM      9  C   UNL A   1      30.219  27.178  23.910  1.00  0.00     0.056 C 
BRANCH   8  10
ATOM     10  N   UNL A   1      32.679  27.367  23.526  1.00  0.00    -0.334 N 
ATOM     11  C   UNL A   1      33.248  26.252  23.002  1.00  0.00     0.232 C 
ATOM     12  H   UNL A   1      33.094  28.190  23.178  1.00  0.00     0.164 HD
ATOM     13  O   UNL A   1      33.894  26.496  21.965  1.00  0.00    -0.274 OA
BRANCH  11  14
ATOM     14  C   UNL A   1      33.350  24.828  23.548  1.00  0.00     0.150 C 
ATOM     15  C   UNL A   1      33.122  23.770  22.464  1.00  0.00     0.248 C 
ATOM     16  C   UNL A   1      34.594  24.277  24.124  1.00  0.00     0.010 A 
ATOM     17  O   UNL A   1      34.395  23.169  22.113  1.00  0.00    -0.492 OA
ATOM     18  C   UNL A   1      35.145  23.355  23.246  1.00  0.00     0.123 A 
ATOM     19  C   UNL A   1      35.155  24.478  25.371  1.00  0.00     0.008 A 
ATOM     20  C   UNL A   1      36.344  22.723  23.509  1.00  0.00     0.047 A 
ATOM     21  C   UNL A   1      36.370  23.853  25.661  1.00  0.00     0.001 A 
ATOM     22  C   UNL A   1      36.972  22.998  24.726  1.00  0.00     0.004 A 
ENDBRANCH  11  14
ENDBRANCH   8  10
BRANCH   8  23
ATOM     23  C   UNL A   1      31.691  26.876  25.833  1.00  0.00     0.420 C 
ATOM     24  F   UNL A   1      31.033  27.441  26.867  1.00  0.00    -0.168 F 
ATOM     25  F   UNL A   1      31.123  25.642  25.669  1.00  0.00    -0.168 F 
ATOM     26  F   UNL A   1      32.948  26.622  26.220  1.00  0.00    -0.168 F 
ENDBRANCH   8  23
ENDBRANCH   5   8
ENDBRANCH   3   4
ENDBRANCH   2   3
ENDBRANCH   1   2
BRANCH   1  27
ATOM     27  C   UNL A   1      35.630  31.368  28.359  1.00  0.00     0.116 C 
BRANCH  27  28
ATOM     28  N   UNL A   1      35.501  31.014  29.764  1.00  0.00    -0.352 N 
ATOM     29  C   UNL A   1      36.407  30.410  30.601  1.00  0.00     0.251 C 
ATOM     30  H   UNL A   1      34.637  31.241  30.177  1.00  0.00     0.163 HD
ATOM     31  O   UNL A   1      36.057  30.065  31.728  1.00  0.00    -0.269 OA
BRANCH  29  32
ATOM     32  C   UNL A   1      37.788  30.149  30.143  1.00  0.00     0.039 A 
ATOM     33  C   UNL A   1      38.792  29.983  31.099  1.00  0.00     0.014 A 
ATOM     34  C   UNL A   1      38.097  30.070  28.781  1.00  0.00     0.014 A 
ATOM     35  C   UNL A   1      40.092  29.675  30.693  1.00  0.00     0.010 A 
ATOM     36  C   UNL A   1      39.379  29.695  28.381  1.00  0.00     0.010 A 
ATOM     37  C   UNL A   1      40.390  29.493  29.333  1.00  0.00    -0.014 A 
BRANCH  37  38
ATOM     38  C   UNL A   1      41.753  29.081  28.901  1.00  0.00     0.031 A 
ATOM     39  C   UNL A   1      42.871  30.085  28.845  1.00  0.00     0.074 A 
ATOM     40  C   UNL A   1      41.973  27.805  28.524  1.00  0.00     0.049 A 
ATOM     41  N   UNL A   1      44.113  29.916  28.470  1.00  0.00    -0.248 NA
ATOM     42  C   UNL A   1      42.548  31.464  29.242  1.00  0.00     0.031 C 
ATOM     43  C   UNL A   1      40.960  26.747  28.491  1.00  0.00     0.029 A 
ATOM     44  N   UNL A   1      43.116  27.180  28.090  1.00  0.00    -0.354 N 
ATOM     45  C   UNL A   1      44.719  31.161  28.585  1.00  0.00     0.074 A 
ATOM     46  C   UNL A   1      43.693  32.090  29.008  1.00  0.00     0.031 C 
ATOM     47  C   UNL A   1      41.530  25.603  28.083  1.00  0.00     0.029 A 
ATOM     48  C   UNL A   1      42.938  25.850  27.786  1.00  0.00     0.049 A 
ATOM     49  H   UNL A   1      43.981  27.640  28.004  1.00  0.00     0.167 HD
ATOM     50  C   UNL A   1      46.016  31.497  28.380  1.00  0.00     0.037 A 
ATOM     51  C   UNL A   1      43.806  24.935  27.311  1.00  0.00     0.037 A 
ATOM     52  C   UNL A   1      47.035  30.565  27.968  1.00  0.00     0.049 A 
ATOM     53  C   UNL A   1      45.236  25.336  27.071  1.00  0.00     0.074 A 
ATOM     54  C   UNL A   1      48.385  30.798  27.776  1.00  0.00     0.029 A 
ATOM     55  N   UNL A   1      46.817  29.227  27.676  1.00  0.00    -0.354 N 
ATOM     56  N   UNL A   1      45.806  26.505  27.247  1.00  0.00    -0.248 NA
ATOM     57  C   UNL A   1      46.146  24.294  26.573  1.00  0.00     0.031 C 
ATOM     58  C   UNL A   1      48.975  29.615  27.317  1.00  0.00     0.029 A 
ATOM     59  C   UNL A   1      48.004  28.628  27.283  1.00  0.00     0.049 A 
ATOM     60  H   UNL A   1      45.948  28.769  27.739  1.00  0.00     0.167 HD
ATOM     61  C   UNL A   1      47.145  26.331  26.912  1.00  0.00     0.074 A 
ATOM     62  C   UNL A   1      47.302  24.941  26.535  1.00  0.00     0.031 C 
ATOM     63  C   UNL A   1      48.151  27.241  26.916  1.00  0.00     0.037 A 
BRANCH  50  64
ATOM     64  C   UNL A   1      46.412  32.932  28.602  1.00  0.00     0.058 A 
ATOM     65  C   UNL A   1      46.853  33.391  29.854  1.00  0.00     0.135 A 
ATOM     66  C   UNL A   1      46.395  33.852  27.541  1.00  0.00     0.135 A 
ATOM     67  F   UNL A   1      46.877  32.561  30.909  1.00  0.00    -0.206 F 
ATOM     68  C   UNL A   1      47.235  34.714  30.053  1.00  0.00     0.059 A 
ATOM     69  C   UNL A   1      46.802  35.172  27.709  1.00  0.00     0.059 A 
ATOM     70  F   UNL A   1      45.984  33.469  26.322  1.00  0.00    -0.206 F 
ATOM     71  C   UNL A   1      47.209  35.597  28.973  1.00  0.00     0.060 A 
BRANCH  71  72
ATOM     72  S   UNL A   1      47.717  37.307  29.247  1.00  0.00     0.124 S 
ATOM     73  O   UNL A   1      47.893  37.330  30.696  1.00  0.00    -0.237 OA
ATOM     74  O   UNL A   1      48.941  37.398  28.458  1.00  0.00    -0.237 OA
ATOM     75  O   UNL A   1      46.589  38.084  28.741  1.00  0.00    -0.744 OA
ENDBRANCH  71  72
ENDBRANCH  50  64
BRANCH  51  76
ATOM     76  C   UNL A   1      43.347  23.544  27.039  1.00  0.00     0.058 A 
ATOM     77  C   UNL A   1      43.131  23.094  25.729  1.00  0.00     0.135 A 
ATOM     78  C   UNL A   1      43.118  22.638  28.086  1.00  0.00     0.135 A 
ATOM     79  F   UNL A   1      43.329  23.924  24.693  1.00  0.00    -0.206 F 
ATOM     80  C   UNL A   1      42.685  21.802  25.464  1.00  0.00     0.059 A 
ATOM     81  C   UNL A   1      42.702  21.332  27.847  1.00  0.00     0.059 A 
ATOM     82  F   UNL A   1      43.324  23.012  29.359  1.00  0.00    -0.206 F 
ATOM     83  C   UNL A   1      42.476  20.927  26.532  1.00  0.00     0.060 A 
BRANCH  83  84
ATOM     84  S   UNL A   1      41.939  19.240  26.176  1.00  0.00     0.124 S 
ATOM     85  O   UNL A   1      42.285  18.554  27.416  1.00  0.00    -0.237 OA
ATOM     86  O   UNL A   1      40.514  19.420  25.921  1.00  0.00    -0.237 OA
ATOM     87  O   UNL A   1      42.737  18.874  25.008  1.00  0.00    -0.744 OA
ENDBRANCH  83  84
ENDBRANCH  51  76
BRANCH  63  88
ATOM     88  C   UNL A   1      49.527  26.758  26.539  1.00  0.00     0.058 A 
ATOM     89  C   UNL A   1      50.405  26.208  27.485  1.00  0.00     0.135 A 
ATOM     90  C   UNL A   1      49.949  26.798  25.199  1.00  0.00     0.135 A 
ATOM     91  F   UNL A   1      50.055  26.150  28.780  1.00  0.00    -0.206 F 
ATOM     92  C   UNL A   1      51.663  25.737  27.122  1.00  0.00     0.059 A 
ATOM     93  C   UNL A   1      51.190  26.304  24.809  1.00  0.00     0.059 A 
ATOM     94  F   UNL A   1      49.145  27.305  24.251  1.00  0.00    -0.206 F 
ATOM     95  C   UNL A   1      52.045  25.786  25.779  1.00  0.00     0.060 A 
BRANCH  95  96
ATOM     96  S   UNL A   1      53.667  25.141  25.317  1.00  0.00     0.124 S 
ATOM     97  O   UNL A   1      53.395  23.711  25.209  1.00  0.00    -0.237 OA
ATOM     98  O   UNL A   1      53.929  25.833  24.058  1.00  0.00    -0.237 OA
ATOM     99  O   UNL A   1      54.522  25.534  26.432  1.00  0.00    -0.744 OA
ENDBRANCH  95  96
ENDBRANCH  63  88
ENDBRANCH  37  38
ENDBRANCH  29  32
ENDBRANCH  27  28
ENDBRANCH   1  27
TORSDOF 17
ENDMDL
MODEL 2
REMARK VINA RESULT:     -12.0      6.493     11.946
REMARK SMILES C[C@@](NC(=O)[C@H]1COc2ccccc21)(C(=O)NCCCCNC(=O)c1ccc(-c2c3nc(c(-c4c(F)cc(S(=O)(=O)[O-])cc4F)c4ccc([nH]4)c(-c4c(F)cc(S(=O)(=O)[O-])cc4F)c4nc(c(-c5c(F)cc(S(=O)(=O)[O-])cc5F)c5ccc2[nH]5)C=C4)C=C3)cc1)C(F)(F)F
REMARK SMILES IDX 20 1 19 2 18 3 17 4 15 5 16 6 2 8 1 9 3 10 4 11 5 13 6 14
REMARK SMILES IDX 7 15 14 16 8 17 9 18 13 19 10 20 12 21 11 22 91 23 92 24
REMARK SMILES IDX 93 25 94 26 21 27 22 28 23 29 24 31 25 32 26 33 90 34 27 35
REMARK SMILES IDX 89 36 28 37 29 38 30 39 83 40 31 41 88 42 82 43 84 44 32 45
REMARK SMILES IDX 87 46 81 47 80 48 33 50 67 51 46 52 66 53 47 54 50 55 65 56
REMARK SMILES IDX 85 57 48 58 49 59 64 61 86 62 51 63 34 64 35 65 44 66 36 67
REMARK SMILES IDX 37 68 43 69 45 70 38 71 39 72 40 73 41 74 42 75 68 76 69 77
REMARK SMILES IDX 78 78 70 79 71 80 77 81 79 82 72 83 73 84 74 85 75 86 76 87
REMARK SMILES IDX 52 88 53 89 62 90 54 91 55 92 61 93 63 94 56 95 57 96 58 97
REMARK SMILES IDX 59 98 60 99
REMARK H PARENT 17 7 3 12 22 30 84 49 50 60
REMARK Flexibility Score: inf
ROOT
ATOM      1  C   UNL A   1      40.454  22.329  27.444  1.00  0.00     0.023 C 
ENDROOT
BRANCH   1   2
ATOM      2  C   UNL A   1      39.935  21.744  26.128  1.00  0.00     0.023 C 
BRANCH   2   3
ATOM      3  C   UNL A   1      38.441  21.950  25.891  1.00  0.00     0.116 C 
BRANCH   3   4
ATOM      4  N   UNL A   1      37.796  20.732  25.416  1.00  0.00    -0.354 N 
ATOM      5  C   UNL A   1      36.544  20.491  24.907  1.00  0.00     0.254 C 
ATOM      6  O   UNL A   1      36.227  19.309  24.768  1.00  0.00    -0.272 OA
ATOM      7  H   UNL A   1      38.365  19.929  25.474  1.00  0.00     0.163 HD
BRANCH   5   8
ATOM      8  C   UNL A   1      35.532  21.628  24.741  1.00  0.00     0.212 C 
ATOM      9  C   UNL A   1      34.289  20.949  24.092  1.00  0.00     0.056 C 
BRANCH   8  10
ATOM     10  N   UNL A   1      35.136  22.235  26.058  1.00  0.00    -0.334 N 
ATOM     11  C   UNL A   1      34.045  22.872  26.552  1.00  0.00     0.232 C 
ATOM     12  H   UNL A   1      35.848  22.150  26.732  1.00  0.00     0.164 HD
ATOM     13  O   UNL A   1      34.030  22.884  27.797  1.00  0.00    -0.274 OA
BRANCH  11  14
ATOM     14  C   UNL A   1      32.954  23.682  25.850  1.00  0.00     0.150 C 
ATOM     15  C   UNL A   1      31.594  23.552  26.544  1.00  0.00     0.248 C 
ATOM     16  C   UNL A   1      32.996  25.154  25.738  1.00  0.00     0.010 A 
ATOM     17  O   UNL A   1      31.312  24.778  27.267  1.00  0.00    -0.492 OA
ATOM     18  C   UNL A   1      32.049  25.713  26.585  1.00  0.00     0.123 A 
ATOM     19  C   UNL A   1      33.727  25.955  24.881  1.00  0.00     0.008 A 
ATOM     20  C   UNL A   1      31.908  27.079  26.722  1.00  0.00     0.047 A 
ATOM     21  C   UNL A   1      33.605  27.341  25.002  1.00  0.00     0.001 A 
ATOM     22  C   UNL A   1      32.716  27.900  25.932  1.00  0.00     0.004 A 
ENDBRANCH  11  14
ENDBRANCH   8  10
BRANCH   8  23
ATOM     23  C   UNL A   1      35.970  22.669  23.680  1.00  0.00     0.420 C 
ATOM     24  F   UNL A   1      34.980  23.064  22.853  1.00  0.00    -0.168 F 
ATOM     25  F   UNL A   1      36.388  23.805  24.318  1.00  0.00    -0.168 F 
ATOM     26  F   UNL A   1      37.018  22.293  22.934  1.00  0.00    -0.168 F 
ENDBRANCH   8  23
ENDBRANCH   5   8
ENDBRANCH   3   4
ENDBRANCH   2   3
ENDBRANCH   1   2
BRANCH   1  27
ATOM     27  C   UNL A   1      41.764  23.108  27.344  1.00  0.00     0.116 C 
BRANCH  27  28
ATOM     28  N   UNL A   1      41.828  23.967  26.173  1.00  0.00    -0.352 N 
ATOM     29  C   UNL A   1      41.666  25.328  26.077  1.00  0.00     0.251 C 
ATOM     30  H   UNL A   1      42.015  23.507  25.324  1.00  0.00     0.163 HD
ATOM     31  O   UNL A   1      41.617  25.857  24.968  1.00  0.00    -0.269 OA
BRANCH  29  32
ATOM     32  C   UNL A   1      41.522  26.151  27.296  1.00  0.00     0.039 A 
ATOM     33  C   UNL A   1      42.525  27.072  27.605  1.00  0.00     0.014 A 
ATOM     34  C   UNL A   1      40.410  26.017  28.134  1.00  0.00     0.014 A 
ATOM     35  C   UNL A   1      42.382  27.904  28.718  1.00  0.00     0.010 A 
ATOM     36  C   UNL A   1      40.237  26.894  29.204  1.00  0.00     0.010 A 
ATOM     37  C   UNL A   1      41.221  27.848  29.507  1.00  0.00    -0.014 A 
BRANCH  37  38
ATOM     38  C   UNL A   1      41.027  28.789  30.643  1.00  0.00     0.031 A 
ATOM     39  C   UNL A   1      41.888  28.691  31.872  1.00  0.00     0.074 A 
ATOM     40  C   UNL A   1      40.046  29.712  30.579  1.00  0.00     0.049 A 
ATOM     41  N   UNL A   1      41.847  29.404  32.967  1.00  0.00    -0.248 NA
ATOM     42  C   UNL A   1      42.918  27.639  31.881  1.00  0.00     0.031 C 
ATOM     43  C   UNL A   1      39.115  29.880  29.461  1.00  0.00     0.029 A 
ATOM     44  N   UNL A   1      39.663  30.679  31.475  1.00  0.00    -0.354 N 
ATOM     45  C   UNL A   1      42.840  28.892  33.794  1.00  0.00     0.074 A 
ATOM     46  C   UNL A   1      43.427  27.768  33.098  1.00  0.00     0.031 C 
ATOM     47  C   UNL A   1      38.285  30.901  29.727  1.00  0.00     0.029 A 
ATOM     48  C   UNL A   1      38.595  31.436  31.049  1.00  0.00     0.049 A 
ATOM     49  H   UNL A   1      40.110  30.819  32.340  1.00  0.00     0.167 HD
ATOM     50  C   UNL A   1      43.241  29.332  35.012  1.00  0.00     0.037 A 
ATOM     51  C   UNL A   1      37.933  32.440  31.658  1.00  0.00     0.037 A 
ATOM     52  C   UNL A   1      42.658  30.458  35.695  1.00  0.00     0.049 A 
ATOM     53  C   UNL A   1      38.384  32.897  33.019  1.00  0.00     0.074 A 
ATOM     54  C   UNL A   1      43.024  31.008  36.911  1.00  0.00     0.029 A 
ATOM     55  N   UNL A   1      41.584  31.202  35.230  1.00  0.00    -0.354 N 
ATOM     56  N   UNL A   1      39.367  32.441  33.758  1.00  0.00    -0.248 NA
ATOM     57  C   UNL A   1      37.641  34.010  33.628  1.00  0.00     0.031 C 
ATOM     58  C   UNL A   1      42.138  32.050  37.206  1.00  0.00     0.029 A 
ATOM     59  C   UNL A   1      41.259  32.190  36.146  1.00  0.00     0.049 A 
ATOM     60  H   UNL A   1      41.120  31.050  34.375  1.00  0.00     0.167 HD
ATOM     61  C   UNL A   1      39.380  33.229  34.904  1.00  0.00     0.074 A 
ATOM     62  C   UNL A   1      38.315  34.199  34.753  1.00  0.00     0.031 C 
ATOM     63  C   UNL A   1      40.200  33.156  35.982  1.00  0.00     0.037 A 
BRANCH  50  64
ATOM     64  C   UNL A   1      44.369  28.596  35.684  1.00  0.00     0.058 A 
ATOM     65  C   UNL A   1      44.132  27.528  36.565  1.00  0.00     0.135 A 
ATOM     66  C   UNL A   1      45.706  28.929  35.410  1.00  0.00     0.135 A 
ATOM     67  F   UNL A   1      42.874  27.174  36.875  1.00  0.00    -0.206 F 
ATOM     68  C   UNL A   1      45.175  26.837  37.172  1.00  0.00     0.059 A 
ATOM     69  C   UNL A   1      46.767  28.232  35.982  1.00  0.00     0.059 A 
ATOM     70  F   UNL A   1      45.993  29.941  34.576  1.00  0.00    -0.206 F 
ATOM     71  C   UNL A   1      46.491  27.195  36.872  1.00  0.00     0.060 A 
BRANCH  71  72
ATOM     72  S   UNL A   1      47.832  26.282  37.662  1.00  0.00     0.124 S 
ATOM     73  O   UNL A   1      47.148  25.691  38.807  1.00  0.00    -0.237 OA
ATOM     74  O   UNL A   1      48.233  25.350  36.613  1.00  0.00    -0.237 OA
ATOM     75  O   UNL A   1      48.809  27.318  37.982  1.00  0.00    -0.744 OA
ENDBRANCH  71  72
ENDBRANCH  50  64
BRANCH  51  76
ATOM     76  C   UNL A   1      36.776  33.088  30.978  1.00  0.00     0.058 A 
ATOM     77  C   UNL A   1      36.963  33.937  29.878  1.00  0.00     0.135 A 
ATOM     78  C   UNL A   1      35.461  32.867  31.416  1.00  0.00     0.135 A 
ATOM     79  F   UNL A   1      38.201  34.186  29.425  1.00  0.00    -0.206 F 
ATOM     80  C   UNL A   1      35.890  34.560  29.246  1.00  0.00     0.059 A 
ATOM     81  C   UNL A   1      34.370  33.454  30.783  1.00  0.00     0.059 A 
ATOM     82  F   UNL A   1      35.225  32.051  32.456  1.00  0.00    -0.206 F 
ATOM     83  C   UNL A   1      34.596  34.309  29.706  1.00  0.00     0.060 A 
BRANCH  83  84
ATOM     84  S   UNL A   1      33.208  35.089  28.853  1.00  0.00     0.124 S 
ATOM     85  O   UNL A   1      32.287  35.335  29.956  1.00  0.00    -0.237 OA
ATOM     86  O   UNL A   1      33.834  36.269  28.267  1.00  0.00    -0.237 OA
ATOM     87  O   UNL A   1      32.789  34.070  27.894  1.00  0.00    -0.744 OA
ENDBRANCH  83  84
ENDBRANCH  51  76
BRANCH  63  88
ATOM     88  C   UNL A   1      40.008  34.176  37.073  1.00  0.00     0.058 A 
ATOM     89  C   UNL A   1      40.618  35.439  37.024  1.00  0.00     0.135 A 
ATOM     90  C   UNL A   1      39.156  33.903  38.157  1.00  0.00     0.135 A 
ATOM     91  F   UNL A   1      41.445  35.752  36.014  1.00  0.00    -0.206 F 
ATOM     92  C   UNL A   1      40.410  36.386  38.022  1.00  0.00     0.059 A 
ATOM     93  C   UNL A   1      38.911  34.846  39.150  1.00  0.00     0.059 A 
ATOM     94  F   UNL A   1      38.540  32.714  38.250  1.00  0.00    -0.206 F 
ATOM     95  C   UNL A   1      39.552  36.081  39.080  1.00  0.00     0.060 A 
BRANCH  95  96
ATOM     96  S   UNL A   1      39.265  37.332  40.350  1.00  0.00     0.124 S 
ATOM     97  O   UNL A   1      38.462  38.310  39.624  1.00  0.00    -0.237 OA
ATOM     98  O   UNL A   1      38.562  36.573  41.380  1.00  0.00    -0.237 OA
ATOM     99  O   UNL A   1      40.611  37.768  40.709  1.00  0.00    -0.744 OA
ENDBRANCH  95  96
ENDBRANCH  63  88
ENDBRANCH  37  38
ENDBRANCH  29  32
ENDBRANCH  27  28
ENDBRANCH   1  27
TORSDOF 17
ENDMDL
MODEL 3
REMARK VINA RESULT:     -11.9      0.600      8.164
REMARK SMILES C[C@@](NC(=O)[C@H]1COc2ccccc21)(C(=O)NCCCCNC(=O)c1ccc(-c2c3nc(c(-c4c(F)cc(S(=O)(=O)[O-])cc4F)c4ccc([nH]4)c(-c4c(F)cc(S(=O)(=O)[O-])cc4F)c4nc(c(-c5c(F)cc(S(=O)(=O)[O-])cc5F)c5ccc2[nH]5)C=C4)C=C3)cc1)C(F)(F)F
REMARK SMILES IDX 20 1 19 2 18 3 17 4 15 5 16 6 2 8 1 9 3 10 4 11 5 13 6 14
REMARK SMILES IDX 7 15 14 16 8 17 9 18 13 19 10 20 12 21 11 22 91 23 92 24
REMARK SMILES IDX 93 25 94 26 21 27 22 28 23 29 24 31 25 32 26 33 90 34 27 35
REMARK SMILES IDX 89 36 28 37 29 38 30 39 83 40 31 41 88 42 82 43 84 44 32 45
REMARK SMILES IDX 87 46 81 47 80 48 33 50 67 51 46 52 66 53 47 54 50 55 65 56
REMARK SMILES IDX 85 57 48 58 49 59 64 61 86 62 51 63 34 64 35 65 44 66 36 67
REMARK SMILES IDX 37 68 43 69 45 70 38 71 39 72 40 73 41 74 42 75 68 76 69 77
REMARK SMILES IDX 78 78 70 79 71 80 77 81 79 82 72 83 73 84 74 85 75 86 76 87
REMARK SMILES IDX 52 88 53 89 62 90 54 91 55 92 61 93 63 94 56 95 57 96 58 97
REMARK SMILES IDX 59 98 60 99
REMARK H PARENT 17 7 3 12 22 30 84 49 50 60
REMARK Flexibility Score: inf
ROOT
ATOM      1  C   UNL A   1      34.284  30.870  27.525  1.00  0.00     0.023 C 
ENDROOT
BRANCH   1   2
ATOM      2  C   UNL A   1      33.779  29.551  26.935  1.00  0.00     0.023 C 
BRANCH   2   3
ATOM      3  C   UNL A   1      33.623  29.557  25.417  1.00  0.00     0.116 C 
BRANCH   3   4
ATOM      4  N   UNL A   1      32.254  29.858  25.015  1.00  0.00    -0.354 N 
ATOM      5  C   UNL A   1      31.246  29.069  24.518  1.00  0.00     0.254 C 
ATOM      6  O   UNL A   1      30.249  29.655  24.094  1.00  0.00    -0.272 OA
ATOM      7  H   UNL A   1      32.006  30.806  25.119  1.00  0.00     0.163 HD
BRANCH   5   8
ATOM      8  C   UNL A   1      31.457  27.568  24.302  1.00  0.00     0.212 C 
ATOM      9  C   UNL A   1      30.139  27.084  23.627  1.00  0.00     0.056 C 
BRANCH   8  10
ATOM     10  N   UNL A   1      32.617  27.282  23.389  1.00  0.00    -0.334 N 
ATOM     11  C   UNL A   1      33.245  26.172  22.925  1.00  0.00     0.232 C 
ATOM     12  H   UNL A   1      33.024  28.107  23.040  1.00  0.00     0.164 HD
ATOM     13  O   UNL A   1      33.934  26.409  21.915  1.00  0.00    -0.274 OA
BRANCH  11  14
ATOM     14  C   UNL A   1      33.362  24.767  23.515  1.00  0.00     0.150 C 
ATOM     15  C   UNL A   1      33.120  23.674  22.469  1.00  0.00     0.248 C 
ATOM     16  C   UNL A   1      34.617  24.239  24.086  1.00  0.00     0.010 A 
ATOM     17  O   UNL A   1      34.389  23.066  22.115  1.00  0.00    -0.492 OA
ATOM     18  C   UNL A   1      35.157  23.290  23.229  1.00  0.00     0.123 A 
ATOM     19  C   UNL A   1      35.199  24.481  25.317  1.00  0.00     0.008 A 
ATOM     20  C   UNL A   1      36.363  22.672  23.491  1.00  0.00     0.047 A 
ATOM     21  C   UNL A   1      36.421  23.870  25.605  1.00  0.00     0.001 A 
ATOM     22  C   UNL A   1      37.011  22.987  24.688  1.00  0.00     0.004 A 
ENDBRANCH  11  14
ENDBRANCH   8  10
BRANCH   8  23
ATOM     23  C   UNL A   1      31.496  26.772  25.630  1.00  0.00     0.420 C 
ATOM     24  F   UNL A   1      30.944  25.543  25.553  1.00  0.00    -0.168 F 
ATOM     25  F   UNL A   1      32.802  26.564  25.986  1.00  0.00    -0.168 F 
ATOM     26  F   UNL A   1      30.958  27.412  26.677  1.00  0.00    -0.168 F 
ENDBRANCH   8  23
ENDBRANCH   5   8
ENDBRANCH   3   4
ENDBRANCH   2   3
ENDBRANCH   1   2
BRANCH   1  27
ATOM     27  C   UNL A   1      35.650  30.804  28.205  1.00  0.00     0.116 C 
BRANCH  27  28
ATOM     28  N   UNL A   1      35.575  30.390  29.597  1.00  0.00    -0.352 N 
ATOM     29  C   UNL A   1      36.533  29.807  30.389  1.00  0.00     0.251 C 
ATOM     30  H   UNL A   1      34.710  30.553  30.037  1.00  0.00     0.163 HD
ATOM     31  O   UNL A   1      36.230  29.400  31.509  1.00  0.00    -0.269 OA
BRANCH  29  32
ATOM     32  C   UNL A   1      37.915  29.641  29.890  1.00  0.00     0.039 A 
ATOM     33  C   UNL A   1      38.952  29.513  30.817  1.00  0.00     0.014 A 
ATOM     34  C   UNL A   1      38.192  29.612  28.520  1.00  0.00     0.014 A 
ATOM     35  C   UNL A   1      40.257  29.294  30.371  1.00  0.00     0.010 A 
ATOM     36  C   UNL A   1      39.483  29.325  28.078  1.00  0.00     0.010 A 
ATOM     37  C   UNL A   1      40.529  29.162  28.999  1.00  0.00    -0.014 A 
BRANCH  37  38
ATOM     38  C   UNL A   1      41.902  28.844  28.523  1.00  0.00     0.031 A 
ATOM     39  C   UNL A   1      42.263  27.442  28.116  1.00  0.00     0.074 A 
ATOM     40  C   UNL A   1      42.836  29.817  28.492  1.00  0.00     0.049 A 
ATOM     41  N   UNL A   1      43.412  26.973  27.702  1.00  0.00    -0.248 NA
ATOM     42  C   UNL A   1      41.200  26.428  28.206  1.00  0.00     0.031 C 
ATOM     43  C   UNL A   1      42.623  31.207  28.903  1.00  0.00     0.029 A 
ATOM     44  N   UNL A   1      44.153  29.786  28.104  1.00  0.00    -0.354 N 
ATOM     45  C   UNL A   1      43.213  25.615  27.482  1.00  0.00     0.074 A 
ATOM     46  C   UNL A   1      41.849  25.323  27.865  1.00  0.00     0.031 C 
ATOM     47  C   UNL A   1      43.759  31.899  28.724  1.00  0.00     0.029 A 
ATOM     48  C   UNL A   1      44.794  30.999  28.225  1.00  0.00     0.049 A 
ATOM     49  H   UNL A   1      44.597  28.974  27.769  1.00  0.00     0.167 HD
ATOM     50  C   UNL A   1      44.080  24.700  26.984  1.00  0.00     0.037 A 
ATOM     51  C   UNL A   1      46.072  31.344  27.973  1.00  0.00     0.037 A 
ATOM     52  C   UNL A   1      45.435  25.000  26.595  1.00  0.00     0.049 A 
ATOM     53  C   UNL A   1      47.022  30.305  27.441  1.00  0.00     0.074 A 
ATOM     54  C   UNL A   1      46.376  24.151  26.040  1.00  0.00     0.029 A 
ATOM     55  N   UNL A   1      46.045  26.238  26.728  1.00  0.00    -0.354 N 
ATOM     56  N   UNL A   1      46.796  29.039  27.179  1.00  0.00    -0.248 NA
ATOM     57  C   UNL A   1      48.398  30.740  27.164  1.00  0.00     0.031 C 
ATOM     58  C   UNL A   1      47.571  24.862  25.885  1.00  0.00     0.029 A 
ATOM     59  C   UNL A   1      47.357  26.170  26.286  1.00  0.00     0.049 A 
ATOM     60  H   UNL A   1      45.610  27.047  27.082  1.00  0.00     0.167 HD
ATOM     61  C   UNL A   1      47.992  28.536  26.678  1.00  0.00     0.074 A 
ATOM     62  C   UNL A   1      48.933  29.637  26.661  1.00  0.00     0.031 C 
ATOM     63  C   UNL A   1      48.284  27.275  26.268  1.00  0.00     0.037 A 
BRANCH  50  64
ATOM     64  C   UNL A   1      43.590  23.285  26.826  1.00  0.00     0.058 A 
ATOM     65  C   UNL A   1      43.370  22.453  27.936  1.00  0.00     0.135 A 
ATOM     66  C   UNL A   1      43.290  22.769  25.555  1.00  0.00     0.135 A 
ATOM     67  F   UNL A   1      43.652  22.888  29.174  1.00  0.00    -0.206 F 
ATOM     68  C   UNL A   1      42.900  21.152  27.790  1.00  0.00     0.059 A 
ATOM     69  C   UNL A   1      42.789  21.481  25.387  1.00  0.00     0.059 A 
ATOM     70  F   UNL A   1      43.479  23.520  24.459  1.00  0.00    -0.206 F 
ATOM     71  C   UNL A   1      42.610  20.675  26.511  1.00  0.00     0.060 A 
BRANCH  71  72
ATOM     72  S   UNL A   1      41.992  18.988  26.341  1.00  0.00     0.124 S 
ATOM     73  O   UNL A   1      40.653  19.220  25.810  1.00  0.00    -0.237 OA
ATOM     74  O   UNL A   1      42.949  18.399  25.411  1.00  0.00    -0.237 OA
ATOM     75  O   UNL A   1      42.043  18.466  27.704  1.00  0.00    -0.744 OA
ENDBRANCH  71  72
ENDBRANCH  50  64
BRANCH  51  76
ATOM     76  C   UNL A   1      46.526  32.742  28.215  1.00  0.00     0.058 A 
ATOM     77  C   UNL A   1      46.390  33.730  27.229  1.00  0.00     0.135 A 
ATOM     78  C   UNL A   1      47.101  33.117  29.439  1.00  0.00     0.135 A 
ATOM     79  F   UNL A   1      45.852  33.421  26.039  1.00  0.00    -0.206 F 
ATOM     80  C   UNL A   1      46.826  35.035  27.438  1.00  0.00     0.059 A 
ATOM     81  C   UNL A   1      47.517  34.422  29.684  1.00  0.00     0.059 A 
ATOM     82  F   UNL A   1      47.240  32.214  30.422  1.00  0.00    -0.206 F 
ATOM     83  C   UNL A   1      47.386  35.371  28.672  1.00  0.00     0.060 A 
BRANCH  83  84
ATOM     84  S   UNL A   1      47.909  37.078  28.949  1.00  0.00     0.124 S 
ATOM     85  O   UNL A   1      46.667  37.807  28.718  1.00  0.00    -0.237 OA
ATOM     86  O   UNL A   1      48.376  37.033  30.331  1.00  0.00    -0.237 OA
ATOM     87  O   UNL A   1      48.954  37.275  27.948  1.00  0.00    -0.744 OA
ENDBRANCH  83  84
ENDBRANCH  51  76
BRANCH  63  88
ATOM     88  C   UNL A   1      49.666  27.022  25.728  1.00  0.00     0.058 A 
ATOM     89  C   UNL A   1      49.996  27.268  24.387  1.00  0.00     0.135 A 
ATOM     90  C   UNL A   1      50.689  26.576  26.582  1.00  0.00     0.135 A 
ATOM     91  F   UNL A   1      49.056  27.690  23.525  1.00  0.00    -0.206 F 
ATOM     92  C   UNL A   1      51.284  27.058  23.904  1.00  0.00     0.059 A 
ATOM     93  C   UNL A   1      51.991  26.389  26.128  1.00  0.00     0.059 A 
ATOM     94  F   UNL A   1      50.432  26.333  27.877  1.00  0.00    -0.206 F 
ATOM     95  C   UNL A   1      52.276  26.622  24.784  1.00  0.00     0.060 A 
BRANCH  95  96
ATOM     96  S   UNL A   1      53.951  26.386  24.152  1.00  0.00     0.124 S 
ATOM     97  O   UNL A   1      53.702  26.181  22.728  1.00  0.00    -0.237 OA
ATOM     98  O   UNL A   1      54.597  27.647  24.507  1.00  0.00    -0.237 OA
ATOM     99  O   UNL A   1      54.430  25.216  24.880  1.00  0.00    -0.744 OA
ENDBRANCH  95  96
ENDBRANCH  63  88
ENDBRANCH  37  38
ENDBRANCH  29  32
ENDBRANCH  27  28
ENDBRANCH   1  27
TORSDOF 17
ENDMDL
