MODEL 1
REMARK VINA RESULT:     -11.0      0.000      0.000
REMARK SMILES [NH3+][C@@H]1C(=O)N2C(C(=O)NCCCCNC(=O)c3ccc(-c4c5nc(c(-c6c(F)cc(S(=O)(=O)[O-])cc6F)c6ccc([nH]6)c(-c6c(F)cc(S(=O)(=O)[O-])cc6F)c6nc(c(-c7c(F)cc(S(=O)(=O)[O-])cc7F)c7ccc4[nH]7)C=C6)C=C5)cc3)=CCS[C@@H]12
REMARK SMILES IDX 12 1 11 2 10 3 9 4 7 5 8 6 6 8 2 9 3 10 86 11 4 12 5 13
REMARK SMILES IDX 85 14 84 15 83 16 1 17 13 21 14 22 15 23 16 25 17 26 18 27
REMARK SMILES IDX 82 28 19 29 81 30 20 31 21 32 22 33 75 34 23 35 80 36 74 37
REMARK SMILES IDX 76 38 24 39 79 40 73 41 72 42 25 44 59 45 38 46 58 47 39 48
REMARK SMILES IDX 42 49 57 50 77 51 40 52 41 53 56 55 78 56 43 57 26 58 27 59
REMARK SMILES IDX 36 60 28 61 29 62 35 63 37 64 30 65 31 66 32 67 33 68 34 69
REMARK SMILES IDX 60 70 61 71 70 72 62 73 63 74 69 75 71 76 64 77 65 78 66 79
REMARK SMILES IDX 67 80 68 81 44 82 45 83 54 84 46 85 47 86 53 87 55 88 48 89
REMARK SMILES IDX 49 90 50 91 51 92 52 93
REMARK H PARENT 9 7 1 18 1 19 1 20 14 24 76 43 42 54
REMARK Flexibility Score: inf
ROOT
ATOM      1  C   UNL A   1      33.920  28.277  25.707  1.00  0.00     0.023 C 
ENDROOT
BRANCH   1   2
ATOM      2  C   UNL A   1      33.340  29.360  24.789  1.00  0.00     0.023 C 
BRANCH   2   3
ATOM      3  C   UNL A   1      33.476  29.043  23.294  1.00  0.00     0.116 C 
BRANCH   3   4
ATOM      4  N   UNL A   1      32.163  28.961  22.684  1.00  0.00    -0.351 N 
ATOM      5  C   UNL A   1      31.203  27.998  22.621  1.00  0.00     0.267 C 
ATOM      6  O   UNL A   1      30.275  28.206  21.838  1.00  0.00    -0.268 OA
ATOM      7  H   UNL A   1      31.909  29.786  22.209  1.00  0.00     0.163 HD
BRANCH   5   8
ATOM      8  C   UNL A   1      31.228  26.733  23.453  1.00  0.00     0.107 C 
ATOM      9  C   UNL A   1      33.283  24.062  22.841  1.00  0.00     0.305 C 
ATOM     10  C   UNL A   1      32.965  25.419  22.105  1.00  0.00     0.289 C 
ATOM     11  C   UNL A   1      32.518  24.712  24.026  1.00  0.00     0.217 C 
ATOM     12  O   UNL A   1      33.286  25.921  21.059  1.00  0.00    -0.267 OA
ATOM     13  N   UNL A   1      32.100  25.745  23.098  1.00  0.00    -0.283 N 
ATOM     14  S   UNL A   1      31.052  23.820  24.594  1.00  0.00    -0.126 SA
ATOM     15  C   UNL A   1      30.337  25.294  25.374  1.00  0.00     0.101 C 
ATOM     16  C   UNL A   1      30.487  26.556  24.565  1.00  0.00     0.016 C 
BRANCH   9  17
ATOM     17  N   UNL A   1      34.698  23.831  23.223  1.00  0.00    -0.345 N 
ATOM     18  H   UNL A   1      34.734  23.239  24.053  1.00  0.00     0.345 HD
ATOM     19  H   UNL A   1      35.147  24.725  23.424  1.00  0.00     0.345 HD
ATOM     20  H   UNL A   1      35.186  23.370  22.455  1.00  0.00     0.345 HD
ENDBRANCH   9  17
ENDBRANCH   5   8
ENDBRANCH   3   4
ENDBRANCH   2   3
ENDBRANCH   1   2
BRANCH   1  21
ATOM     21  C   UNL A   1      33.592  28.447  27.187  1.00  0.00     0.116 C 
BRANCH  21  22
ATOM     22  N   UNL A   1      33.503  29.842  27.596  1.00  0.00    -0.352 N 
ATOM     23  C   UNL A   1      34.464  30.621  28.196  1.00  0.00     0.251 C 
ATOM     24  H   UNL A   1      32.641  30.284  27.422  1.00  0.00     0.163 HD
ATOM     25  O   UNL A   1      34.184  31.745  28.599  1.00  0.00    -0.269 OA
BRANCH  23  26
ATOM     26  C   UNL A   1      35.823  30.071  28.379  1.00  0.00     0.039 A 
ATOM     27  C   UNL A   1      36.733  30.147  27.325  1.00  0.00     0.014 A 
ATOM     28  C   UNL A   1      36.207  29.531  29.610  1.00  0.00     0.014 A 
ATOM     29  C   UNL A   1      38.054  29.746  27.529  1.00  0.00     0.010 A 
ATOM     30  C   UNL A   1      37.541  29.212  29.835  1.00  0.00     0.010 A 
ATOM     31  C   UNL A   1      38.479  29.315  28.796  1.00  0.00    -0.014 A 
BRANCH  31  32
ATOM     32  C   UNL A   1      39.902  28.974  29.056  1.00  0.00     0.031 A 
ATOM     33  C   UNL A   1      40.836  30.011  29.621  1.00  0.00     0.074 A 
ATOM     34  C   UNL A   1      40.364  27.751  28.729  1.00  0.00     0.049 A 
ATOM     35  N   UNL A   1      42.119  29.920  29.862  1.00  0.00    -0.248 NA
ATOM     36  C   UNL A   1      40.260  31.329  29.931  1.00  0.00     0.031 C 
ATOM     37  C   UNL A   1      39.568  26.678  28.127  1.00  0.00     0.029 A 
ATOM     38  N   UNL A   1      41.618  27.203  28.847  1.00  0.00    -0.354 N 
ATOM     39  C   UNL A   1      42.501  31.166  30.346  1.00  0.00     0.074 A 
ATOM     40  C   UNL A   1      41.331  32.015  30.301  1.00  0.00     0.031 C 
ATOM     41  C   UNL A   1      40.344  25.597  27.953  1.00  0.00     0.029 A 
ATOM     42  C   UNL A   1      41.703  25.909  28.386  1.00  0.00     0.049 A 
ATOM     43  H   UNL A   1      42.384  27.690  29.227  1.00  0.00     0.167 HD
ATOM     44  C   UNL A   1      43.711  31.559  30.811  1.00  0.00     0.037 A 
ATOM     45  C   UNL A   1      42.757  25.074  28.307  1.00  0.00     0.037 A 
ATOM     46  C   UNL A   1      44.869  30.704  30.861  1.00  0.00     0.049 A 
ATOM     47  C   UNL A   1      44.098  25.542  28.807  1.00  0.00     0.074 A 
ATOM     48  C   UNL A   1      46.128  30.991  31.357  1.00  0.00     0.029 A 
ATOM     49  N   UNL A   1      44.912  29.397  30.395  1.00  0.00    -0.354 N 
ATOM     50  N   UNL A   1      44.425  26.703  29.326  1.00  0.00    -0.248 NA
ATOM     51  C   UNL A   1      45.211  24.588  28.721  1.00  0.00     0.031 C 
ATOM     52  C   UNL A   1      46.949  29.882  31.136  1.00  0.00     0.029 A 
ATOM     53  C   UNL A   1      46.184  28.875  30.567  1.00  0.00     0.049 A 
ATOM     54  H   UNL A   1      44.151  28.913  30.000  1.00  0.00     0.167 HD
ATOM     55  C   UNL A   1      45.774  26.605  29.655  1.00  0.00     0.074 A 
ATOM     56  C   UNL A   1      46.195  25.268  29.292  1.00  0.00     0.031 C 
ATOM     57  C   UNL A   1      46.587  27.538  30.209  1.00  0.00     0.037 A 
BRANCH  44  58
ATOM     58  C   UNL A   1      43.846  32.975  31.305  1.00  0.00     0.058 A 
ATOM     59  C   UNL A   1      44.198  34.028  30.442  1.00  0.00     0.135 A 
ATOM     60  C   UNL A   1      43.576  33.293  32.646  1.00  0.00     0.135 A 
ATOM     61  F   UNL A   1      44.485  33.780  29.154  1.00  0.00    -0.206 F 
ATOM     62  C   UNL A   1      44.304  35.337  30.897  1.00  0.00     0.059 A 
ATOM     63  C   UNL A   1      43.642  34.603  33.114  1.00  0.00     0.059 A 
ATOM     64  F   UNL A   1      43.237  32.329  33.515  1.00  0.00    -0.206 F 
ATOM     65  C   UNL A   1      44.020  35.616  32.234  1.00  0.00     0.060 A 
BRANCH  65  66
ATOM     66  S   UNL A   1      44.144  37.326  32.800  1.00  0.00     0.124 S 
ATOM     67  O   UNL A   1      45.483  37.343  33.382  1.00  0.00    -0.237 OA
ATOM     68  O   UNL A   1      43.982  38.075  31.559  1.00  0.00    -0.237 OA
ATOM     69  O   UNL A   1      43.046  37.450  33.753  1.00  0.00    -0.744 OA
ENDBRANCH  65  66
ENDBRANCH  44  58
BRANCH  45  70
ATOM     70  C   UNL A   1      42.588  23.707  27.740  1.00  0.00     0.058 A 
ATOM     71  C   UNL A   1      42.415  22.591  28.572  1.00  0.00     0.135 A 
ATOM     72  C   UNL A   1      42.595  23.489  26.353  1.00  0.00     0.135 A 
ATOM     73  F   UNL A   1      42.405  22.744  29.905  1.00  0.00    -0.206 F 
ATOM     74  C   UNL A   1      42.280  21.307  28.054  1.00  0.00     0.059 A 
ATOM     75  C   UNL A   1      42.430  22.219  25.809  1.00  0.00     0.059 A 
ATOM     76  F   UNL A   1      42.740  24.524  25.510  1.00  0.00    -0.206 F 
ATOM     77  C   UNL A   1      42.285  21.131  26.668  1.00  0.00     0.060 A 
BRANCH  77  78
ATOM     78  S   UNL A   1      42.069  19.466  26.006  1.00  0.00     0.124 S 
ATOM     79  O   UNL A   1      40.628  19.419  25.791  1.00  0.00    -0.237 OA
ATOM     80  O   UNL A   1      42.895  19.508  24.802  1.00  0.00    -0.237 OA
ATOM     81  O   UNL A   1      42.576  18.611  27.075  1.00  0.00    -0.744 OA
ENDBRANCH  77  78
ENDBRANCH  45  70
BRANCH  57  82
ATOM     82  C   UNL A   1      48.010  27.136  30.501  1.00  0.00     0.058 A 
ATOM     83  C   UNL A   1      49.037  27.304  29.561  1.00  0.00     0.135 A 
ATOM     84  C   UNL A   1      48.356  26.627  31.765  1.00  0.00     0.135 A 
ATOM     85  F   UNL A   1      48.763  27.781  28.336  1.00  0.00    -0.206 F 
ATOM     86  C   UNL A   1      50.353  26.956  29.852  1.00  0.00     0.059 A 
ATOM     87  C   UNL A   1      49.669  26.306  32.089  1.00  0.00     0.059 A 
ATOM     88  F   UNL A   1      47.414  26.456  32.706  1.00  0.00    -0.206 F 
ATOM     89  C   UNL A   1      50.660  26.462  31.121  1.00  0.00     0.060 A 
BRANCH  89  90
ATOM     90  S   UNL A   1      52.376  26.049  31.497  1.00  0.00     0.124 S 
ATOM     91  O   UNL A   1      53.007  26.195  30.190  1.00  0.00    -0.237 OA
ATOM     92  O   UNL A   1      52.729  27.062  32.488  1.00  0.00    -0.237 OA
ATOM     93  O   UNL A   1      52.295  24.683  32.006  1.00  0.00    -0.744 OA
ENDBRANCH  89  90
ENDBRANCH  57  82
ENDBRANCH  31  32
ENDBRANCH  23  26
ENDBRANCH  21  22
ENDBRANCH   1  21
TORSDOF 15
ENDMDL
MODEL 2
REMARK VINA RESULT:     -10.7      5.119     10.617
REMARK SMILES [NH3+][C@@H]1C(=O)N2C(C(=O)NCCCCNC(=O)c3ccc(-c4c5nc(c(-c6c(F)cc(S(=O)(=O)[O-])cc6F)c6ccc([nH]6)c(-c6c(F)cc(S(=O)(=O)[O-])cc6F)c6nc(c(-c7c(F)cc(S(=O)(=O)[O-])cc7F)c7ccc4[nH]7)C=C6)C=C5)cc3)=CCS[C@@H]12
REMARK SMILES IDX 12 1 11 2 10 3 9 4 7 5 8 6 6 8 2 9 3 10 86 11 4 12 5 13
REMARK SMILES IDX 85 14 84 15 83 16 1 17 13 21 14 22 15 23 16 25 17 26 18 27
REMARK SMILES IDX 82 28 19 29 81 30 20 31 21 32 22 33 75 34 23 35 80 36 74 37
REMARK SMILES IDX 76 38 24 39 79 40 73 41 72 42 25 44 59 45 38 46 58 47 39 48
REMARK SMILES IDX 42 49 57 50 77 51 40 52 41 53 56 55 78 56 43 57 26 58 27 59
REMARK SMILES IDX 36 60 28 61 29 62 35 63 37 64 30 65 31 66 32 67 33 68 34 69
REMARK SMILES IDX 60 70 61 71 70 72 62 73 63 74 69 75 71 76 64 77 65 78 66 79
REMARK SMILES IDX 67 80 68 81 44 82 45 83 54 84 46 85 47 86 53 87 55 88 48 89
REMARK SMILES IDX 49 90 50 91 51 92 52 93
REMARK H PARENT 9 7 1 18 1 19 1 20 14 24 76 43 42 54
REMARK Flexibility Score: inf
ROOT
ATOM      1  C   UNL A   1      37.268  32.611  34.682  1.00  0.00     0.023 C 
ENDROOT
BRANCH   1   2
ATOM      2  C   UNL A   1      37.262  34.139  34.553  1.00  0.00     0.023 C 
BRANCH   2   3
ATOM      3  C   UNL A   1      36.232  34.672  33.548  1.00  0.00     0.116 C 
BRANCH   3   4
ATOM      4  N   UNL A   1      34.985  33.945  33.686  1.00  0.00    -0.351 N 
ATOM      5  C   UNL A   1      34.002  33.572  32.821  1.00  0.00     0.267 C 
ATOM      6  O   UNL A   1      32.973  33.124  33.328  1.00  0.00    -0.268 OA
ATOM      7  H   UNL A   1      34.810  33.656  34.611  1.00  0.00     0.163 HD
BRANCH   5   8
ATOM      8  C   UNL A   1      34.126  33.675  31.316  1.00  0.00     0.107 C 
ATOM      9  C   UNL A   1      32.959  36.307  29.460  1.00  0.00     0.305 C 
ATOM     10  C   UNL A   1      32.875  35.884  30.976  1.00  0.00     0.289 C 
ATOM     11  C   UNL A   1      34.040  35.195  29.377  1.00  0.00     0.217 C 
ATOM     12  O   UNL A   1      32.317  36.311  31.954  1.00  0.00    -0.267 OA
ATOM     13  N   UNL A   1      33.617  34.783  30.701  1.00  0.00    -0.283 N 
ATOM     14  S   UNL A   1      33.693  33.853  28.217  1.00  0.00    -0.126 SA
ATOM     15  C   UNL A   1      34.828  32.709  29.051  1.00  0.00     0.101 C 
ATOM     16  C   UNL A   1      34.771  32.768  30.555  1.00  0.00     0.016 C 
BRANCH   9  17
ATOM     17  N   UNL A   1      33.572  37.628  29.172  1.00  0.00    -0.345 N 
ATOM     18  H   UNL A   1      33.825  38.083  30.049  1.00  0.00     0.345 HD
ATOM     19  H   UNL A   1      32.903  38.210  28.668  1.00  0.00     0.345 HD
ATOM     20  H   UNL A   1      34.407  37.497  28.602  1.00  0.00     0.345 HD
ENDBRANCH   9  17
ENDBRANCH   5   8
ENDBRANCH   3   4
ENDBRANCH   2   3
ENDBRANCH   1   2
BRANCH   1  21
ATOM     21  C   UNL A   1      37.869  31.869  33.493  1.00  0.00     0.116 C 
BRANCH  21  22
ATOM     22  N   UNL A   1      36.933  30.952  32.859  1.00  0.00    -0.352 N 
ATOM     23  C   UNL A   1      37.142  30.122  31.784  1.00  0.00     0.251 C 
ATOM     24  H   UNL A   1      36.030  30.923  33.252  1.00  0.00     0.163 HD
ATOM     25  O   UNL A   1      36.205  29.507  31.287  1.00  0.00    -0.269 OA
BRANCH  23  26
ATOM     26  C   UNL A   1      38.501  30.013  31.215  1.00  0.00     0.039 A 
ATOM     27  C   UNL A   1      39.513  29.437  31.983  1.00  0.00     0.014 A 
ATOM     28  C   UNL A   1      38.755  30.432  29.905  1.00  0.00     0.014 A 
ATOM     29  C   UNL A   1      40.766  29.215  31.411  1.00  0.00     0.010 A 
ATOM     30  C   UNL A   1      39.977  30.133  29.313  1.00  0.00     0.010 A 
ATOM     31  C   UNL A   1      40.996  29.522  30.059  1.00  0.00    -0.014 A 
BRANCH  31  32
ATOM     32  C   UNL A   1      42.294  29.206  29.408  1.00  0.00     0.031 A 
ATOM     33  C   UNL A   1      42.538  27.835  28.837  1.00  0.00     0.074 A 
ATOM     34  C   UNL A   1      43.271  30.135  29.383  1.00  0.00     0.049 A 
ATOM     35  N   UNL A   1      43.622  27.353  28.284  1.00  0.00    -0.248 NA
ATOM     36  C   UNL A   1      41.431  26.870  28.924  1.00  0.00     0.031 C 
ATOM     37  C   UNL A   1      43.172  31.483  29.949  1.00  0.00     0.029 A 
ATOM     38  N   UNL A   1      44.543  30.087  28.869  1.00  0.00    -0.354 N 
ATOM     39  C   UNL A   1      43.327  26.033  27.962  1.00  0.00     0.074 A 
ATOM     40  C   UNL A   1      41.989  25.769  28.442  1.00  0.00     0.031 C 
ATOM     41  C   UNL A   1      44.322  32.140  29.729  1.00  0.00     0.029 A 
ATOM     42  C   UNL A   1      45.257  31.249  29.048  1.00  0.00     0.049 A 
ATOM     43  H   UNL A   1      44.910  29.296  28.414  1.00  0.00     0.167 HD
ATOM     44  C   UNL A   1      44.093  25.131  27.302  1.00  0.00     0.037 A 
ATOM     45  C   UNL A   1      46.526  31.559  28.717  1.00  0.00     0.037 A 
ATOM     46  C   UNL A   1      45.421  25.407  26.818  1.00  0.00     0.049 A 
ATOM     47  C   UNL A   1      47.366  30.531  28.006  1.00  0.00     0.074 A 
ATOM     48  C   UNL A   1      46.262  24.577  26.097  1.00  0.00     0.029 A 
ATOM     49  N   UNL A   1      46.105  26.599  27.010  1.00  0.00    -0.354 N 
ATOM     50  N   UNL A   1      47.046  29.310  27.647  1.00  0.00    -0.248 NA
ATOM     51  C   UNL A   1      48.735  30.924  27.645  1.00  0.00     0.031 C 
ATOM     52  C   UNL A   1      47.475  25.244  25.906  1.00  0.00     0.029 A 
ATOM     53  C   UNL A   1      47.368  26.516  26.445  1.00  0.00     0.049 A 
ATOM     54  H   UNL A   1      45.747  27.387  27.480  1.00  0.00     0.167 HD
ATOM     55  C   UNL A   1      48.164  28.801  26.993  1.00  0.00     0.074 A 
ATOM     56  C   UNL A   1      49.159  29.852  26.991  1.00  0.00     0.031 C 
ATOM     57  C   UNL A   1      48.347  27.575  26.443  1.00  0.00     0.037 A 
BRANCH  44  58
ATOM     58  C   UNL A   1      43.514  23.763  27.061  1.00  0.00     0.058 A 
ATOM     59  C   UNL A   1      43.062  23.366  25.790  1.00  0.00     0.135 A 
ATOM     60  C   UNL A   1      43.451  22.820  28.100  1.00  0.00     0.135 A 
ATOM     61  F   UNL A   1      43.082  24.231  24.764  1.00  0.00    -0.206 F 
ATOM     62  C   UNL A   1      42.545  22.094  25.566  1.00  0.00     0.059 A 
ATOM     63  C   UNL A   1      42.969  21.530  27.889  1.00  0.00     0.059 A 
ATOM     64  F   UNL A   1      43.865  23.144  29.334  1.00  0.00    -0.206 F 
ATOM     65  C   UNL A   1      42.506  21.182  26.621  1.00  0.00     0.060 A 
BRANCH  65  66
ATOM     66  S   UNL A   1      41.849  19.531  26.304  1.00  0.00     0.124 S 
ATOM     67  O   UNL A   1      42.276  18.812  27.501  1.00  0.00    -0.237 OA
ATOM     68  O   UNL A   1      40.416  19.784  26.195  1.00  0.00    -0.237 OA
ATOM     69  O   UNL A   1      42.509  19.133  25.065  1.00  0.00    -0.744 OA
ENDBRANCH  65  66
ENDBRANCH  44  58
BRANCH  45  70
ATOM     70  C   UNL A   1      47.078  32.903  29.045  1.00  0.00     0.058 A 
ATOM     71  C   UNL A   1      46.974  33.972  28.142  1.00  0.00     0.135 A 
ATOM     72  C   UNL A   1      47.721  33.147  30.269  1.00  0.00     0.135 A 
ATOM     73  F   UNL A   1      46.373  33.792  26.956  1.00  0.00    -0.206 F 
ATOM     74  C   UNL A   1      47.507  35.225  28.429  1.00  0.00     0.059 A 
ATOM     75  C   UNL A   1      48.234  34.398  30.592  1.00  0.00     0.059 A 
ATOM     76  F   UNL A   1      47.834  32.163  31.177  1.00  0.00    -0.206 F 
ATOM     77  C   UNL A   1      48.134  35.429  29.660  1.00  0.00     0.060 A 
BRANCH  77  78
ATOM     78  S   UNL A   1      48.787  37.070  30.037  1.00  0.00     0.124 S 
ATOM     79  O   UNL A   1      47.812  37.559  31.005  1.00  0.00    -0.237 OA
ATOM     80  O   UNL A   1      50.111  36.755  30.566  1.00  0.00    -0.237 OA
ATOM     81  O   UNL A   1      48.781  37.740  28.741  1.00  0.00    -0.744 OA
ENDBRANCH  77  78
ENDBRANCH  45  70
BRANCH  57  82
ATOM     82  C   UNL A   1      49.658  27.312  25.750  1.00  0.00     0.058 A 
ATOM     83  C   UNL A   1      50.802  26.906  26.453  1.00  0.00     0.135 A 
ATOM     84  C   UNL A   1      49.752  27.414  24.351  1.00  0.00     0.135 A 
ATOM     85  F   UNL A   1      50.771  26.796  27.791  1.00  0.00    -0.206 F 
ATOM     86  C   UNL A   1      52.000  26.637  25.799  1.00  0.00     0.059 A 
ATOM     87  C   UNL A   1      50.930  27.117  23.673  1.00  0.00     0.059 A 
ATOM     88  F   UNL A   1      48.685  27.788  23.627  1.00  0.00    -0.206 F 
ATOM     89  C   UNL A   1      52.053  26.741  24.407  1.00  0.00     0.060 A 
BRANCH  89  90
ATOM     90  S   UNL A   1      53.604  26.355  23.568  1.00  0.00     0.124 S 
ATOM     91  O   UNL A   1      54.304  27.633  23.642  1.00  0.00    -0.237 OA
ATOM     92  O   UNL A   1      54.148  25.285  24.400  1.00  0.00    -0.237 OA
ATOM     93  O   UNL A   1      53.178  25.948  22.233  1.00  0.00    -0.744 OA
ENDBRANCH  89  90
ENDBRANCH  57  82
ENDBRANCH  31  32
ENDBRANCH  23  26
ENDBRANCH  21  22
ENDBRANCH   1  21
TORSDOF 15
ENDMDL
MODEL 3
REMARK VINA RESULT:     -10.7      5.101     10.643
REMARK SMILES [NH3+][C@@H]1C(=O)N2C(C(=O)NCCCCNC(=O)c3ccc(-c4c5nc(c(-c6c(F)cc(S(=O)(=O)[O-])cc6F)c6ccc([nH]6)c(-c6c(F)cc(S(=O)(=O)[O-])cc6F)c6nc(c(-c7c(F)cc(S(=O)(=O)[O-])cc7F)c7ccc4[nH]7)C=C6)C=C5)cc3)=CCS[C@@H]12
REMARK SMILES IDX 12 1 11 2 10 3 9 4 7 5 8 6 6 8 2 9 3 10 86 11 4 12 5 13
REMARK SMILES IDX 85 14 84 15 83 16 1 17 13 21 14 22 15 23 16 25 17 26 18 27
REMARK SMILES IDX 82 28 19 29 81 30 20 31 21 32 22 33 75 34 23 35 80 36 74 37
REMARK SMILES IDX 76 38 24 39 79 40 73 41 72 42 25 44 59 45 38 46 58 47 39 48
REMARK SMILES IDX 42 49 57 50 77 51 40 52 41 53 56 55 78 56 43 57 26 58 27 59
REMARK SMILES IDX 36 60 28 61 29 62 35 63 37 64 30 65 31 66 32 67 33 68 34 69
REMARK SMILES IDX 60 70 61 71 70 72 62 73 63 74 69 75 71 76 64 77 65 78 66 79
REMARK SMILES IDX 67 80 68 81 44 82 45 83 54 84 46 85 47 86 53 87 55 88 48 89
REMARK SMILES IDX 49 90 50 91 51 92 52 93
REMARK H PARENT 9 7 1 18 1 19 1 20 14 24 76 43 42 54
REMARK Flexibility Score: inf
ROOT
ATOM      1  C   UNL A   1      37.494  23.602  25.371  1.00  0.00     0.023 C 
ENDROOT
BRANCH   1   2
ATOM      2  C   UNL A   1      37.218  22.094  25.428  1.00  0.00     0.023 C 
BRANCH   2   3
ATOM      3  C   UNL A   1      35.872  21.735  26.070  1.00  0.00     0.116 C 
BRANCH   3   4
ATOM      4  N   UNL A   1      35.198  20.727  25.274  1.00  0.00    -0.351 N 
ATOM      5  C   UNL A   1      33.934  20.590  24.788  1.00  0.00     0.267 C 
ATOM      6  O   UNL A   1      33.653  19.491  24.307  1.00  0.00    -0.268 OA
ATOM      7  H   UNL A   1      35.785  19.974  25.032  1.00  0.00     0.163 HD
BRANCH   5   8
ATOM      8  C   UNL A   1      32.903  21.698  24.807  1.00  0.00     0.107 C 
ATOM      9  C   UNL A   1      33.030  24.484  22.818  1.00  0.00     0.305 C 
ATOM     10  C   UNL A   1      33.986  23.262  23.092  1.00  0.00     0.289 C 
ATOM     11  C   UNL A   1      31.981  23.627  23.579  1.00  0.00     0.217 C 
ATOM     12  O   UNL A   1      35.096  22.949  22.745  1.00  0.00    -0.267 OA
ATOM     13  N   UNL A   1      33.075  22.753  23.958  1.00  0.00    -0.283 N 
ATOM     14  S   UNL A   1      31.297  24.375  25.075  1.00  0.00    -0.126 SA
ATOM     15  C   UNL A   1      30.784  22.774  25.758  1.00  0.00     0.101 C 
ATOM     16  C   UNL A   1      31.788  21.669  25.565  1.00  0.00     0.016 C 
BRANCH   9  17
ATOM     17  N   UNL A   1      32.593  24.684  21.415  1.00  0.00    -0.345 N 
ATOM     18  H   UNL A   1      32.147  25.597  21.325  1.00  0.00     0.345 HD
ATOM     19  H   UNL A   1      31.928  23.954  21.158  1.00  0.00     0.345 HD
ATOM     20  H   UNL A   1      33.403  24.639  20.797  1.00  0.00     0.345 HD
ENDBRANCH   9  17
ENDBRANCH   5   8
ENDBRANCH   3   4
ENDBRANCH   2   3
ENDBRANCH   1   2
BRANCH   1  21
ATOM     21  C   UNL A   1      38.410  24.128  26.472  1.00  0.00     0.116 C 
BRANCH  21  22
ATOM     22  N   UNL A   1      39.824  23.963  26.167  1.00  0.00    -0.352 N 
ATOM     23  C   UNL A   1      40.884  24.734  26.579  1.00  0.00     0.251 C 
ATOM     24  H   UNL A   1      40.050  23.198  25.589  1.00  0.00     0.163 HD
ATOM     25  O   UNL A   1      42.006  24.536  26.122  1.00  0.00    -0.269 OA
BRANCH  23  26
ATOM     26  C   UNL A   1      40.646  25.825  27.546  1.00  0.00     0.039 A 
ATOM     27  C   UNL A   1      39.666  25.661  28.525  1.00  0.00     0.014 A 
ATOM     28  C   UNL A   1      41.430  26.982  27.514  1.00  0.00     0.014 A 
ATOM     29  C   UNL A   1      39.520  26.629  29.518  1.00  0.00     0.010 A 
ATOM     30  C   UNL A   1      41.339  27.904  28.551  1.00  0.00     0.010 A 
ATOM     31  C   UNL A   1      40.382  27.738  29.564  1.00  0.00    -0.014 A 
BRANCH  31  32
ATOM     32  C   UNL A   1      40.303  28.730  30.668  1.00  0.00     0.031 A 
ATOM     33  C   UNL A   1      41.179  28.580  31.883  1.00  0.00     0.074 A 
ATOM     34  C   UNL A   1      39.402  29.731  30.600  1.00  0.00     0.049 A 
ATOM     35  N   UNL A   1      41.213  29.308  32.969  1.00  0.00    -0.248 NA
ATOM     36  C   UNL A   1      42.120  27.449  31.890  1.00  0.00     0.031 C 
ATOM     37  C   UNL A   1      38.462  29.950  29.498  1.00  0.00     0.029 A 
ATOM     38  N   UNL A   1      39.120  30.747  31.480  1.00  0.00    -0.354 N 
ATOM     39  C   UNL A   1      42.172  28.722  33.787  1.00  0.00     0.074 A 
ATOM     40  C   UNL A   1      42.648  27.541  33.101  1.00  0.00     0.031 C 
ATOM     41  C   UNL A   1      37.728  31.045  29.755  1.00  0.00     0.029 A 
ATOM     42  C   UNL A   1      38.109  31.580  31.059  1.00  0.00     0.049 A 
ATOM     43  H   UNL A   1      39.597  30.868  32.332  1.00  0.00     0.167 HD
ATOM     44  C   UNL A   1      42.634  29.145  34.988  1.00  0.00     0.037 A 
ATOM     45  C   UNL A   1      37.543  32.644  31.660  1.00  0.00     0.037 A 
ATOM     46  C   UNL A   1      42.162  30.329  35.658  1.00  0.00     0.049 A 
ATOM     47  C   UNL A   1      38.057  33.081  33.006  1.00  0.00     0.074 A 
ATOM     48  C   UNL A   1      42.597  30.870  36.855  1.00  0.00     0.029 A 
ATOM     49  N   UNL A   1      41.145  31.152  35.195  1.00  0.00    -0.354 N 
ATOM     50  N   UNL A   1      39.013  32.554  33.734  1.00  0.00    -0.248 NA
ATOM     51  C   UNL A   1      37.422  34.261  33.610  1.00  0.00     0.031 C 
ATOM     52  C   UNL A   1      41.804  31.984  37.146  1.00  0.00     0.029 A 
ATOM     53  C   UNL A   1      40.921  32.181  36.096  1.00  0.00     0.049 A 
ATOM     54  H   UNL A   1      40.654  31.024  34.351  1.00  0.00     0.167 HD
ATOM     55  C   UNL A   1      39.115  33.357  34.867  1.00  0.00     0.074 A 
ATOM     56  C   UNL A   1      38.134  34.412  34.718  1.00  0.00     0.031 C 
ATOM     57  C   UNL A   1      39.946  33.231  35.931  1.00  0.00     0.037 A 
BRANCH  44  58
ATOM     58  C   UNL A   1      43.706  28.327  35.655  1.00  0.00     0.058 A 
ATOM     59  C   UNL A   1      45.070  28.538  35.388  1.00  0.00     0.135 A 
ATOM     60  C   UNL A   1      43.373  27.350  36.607  1.00  0.00     0.135 A 
ATOM     61  F   UNL A   1      45.448  29.446  34.474  1.00  0.00    -0.206 F 
ATOM     62  C   UNL A   1      46.060  27.793  36.020  1.00  0.00     0.059 A 
ATOM     63  C   UNL A   1      44.349  26.616  37.277  1.00  0.00     0.059 A 
ATOM     64  F   UNL A   1      42.087  27.103  36.901  1.00  0.00    -0.206 F 
ATOM     65  C   UNL A   1      45.690  26.837  36.966  1.00  0.00     0.060 A 
BRANCH  65  66
ATOM     66  S   UNL A   1      46.991  25.894  37.788  1.00  0.00     0.124 S 
ATOM     67  O   UNL A   1      46.452  25.770  39.139  1.00  0.00    -0.237 OA
ATOM     68  O   UNL A   1      47.024  24.664  37.004  1.00  0.00    -0.237 OA
ATOM     69  O   UNL A   1      48.166  26.749  37.659  1.00  0.00    -0.744 OA
ENDBRANCH  65  66
ENDBRANCH  44  58
BRANCH  45  70
ATOM     70  C   UNL A   1      36.432  33.377  30.992  1.00  0.00     0.058 A 
ATOM     71  C   UNL A   1      35.107  33.254  31.439  1.00  0.00     0.135 A 
ATOM     72  C   UNL A   1      36.671  34.217  29.893  1.00  0.00     0.135 A 
ATOM     73  F   UNL A   1      34.822  32.460  32.483  1.00  0.00    -0.206 F 
ATOM     74  C   UNL A   1      34.058  33.916  30.807  1.00  0.00     0.059 A 
ATOM     75  C   UNL A   1      35.644  34.914  29.265  1.00  0.00     0.059 A 
ATOM     76  F   UNL A   1      37.922  34.385  29.435  1.00  0.00    -0.206 F 
ATOM     77  C   UNL A   1      34.338  34.747  29.721  1.00  0.00     0.060 A 
BRANCH  77  78
ATOM     78  S   UNL A   1      32.975  35.632  28.935  1.00  0.00     0.124 S 
ATOM     79  O   UNL A   1      33.684  36.674  28.201  1.00  0.00    -0.237 OA
ATOM     80  O   UNL A   1      32.361  34.584  28.124  1.00  0.00    -0.237 OA
ATOM     81  O   UNL A   1      32.174  36.089  30.066  1.00  0.00    -0.744 OA
ENDBRANCH  77  78
ENDBRANCH  45  70
BRANCH  57  82
ATOM     82  C   UNL A   1      39.867  34.285  37.004  1.00  0.00     0.058 A 
ATOM     83  C   UNL A   1      40.497  35.531  36.871  1.00  0.00     0.135 A 
ATOM     84  C   UNL A   1      39.098  34.061  38.159  1.00  0.00     0.135 A 
ATOM     85  F   UNL A   1      41.248  35.797  35.790  1.00  0.00    -0.206 F 
ATOM     86  C   UNL A   1      40.393  36.507  37.856  1.00  0.00     0.059 A 
ATOM     87  C   UNL A   1      38.952  35.035  39.141  1.00  0.00     0.059 A 
ATOM     88  F   UNL A   1      38.465  32.890  38.334  1.00  0.00    -0.206 F 
ATOM     89  C   UNL A   1      39.613  36.252  38.986  1.00  0.00     0.060 A 
BRANCH  89  90
ATOM     90  S   UNL A   1      39.457  37.541  40.240  1.00  0.00     0.124 S 
ATOM     91  O   UNL A   1      40.847  37.949  40.417  1.00  0.00    -0.237 OA
ATOM     92  O   UNL A   1      38.591  38.513  39.578  1.00  0.00    -0.237 OA
ATOM     93  O   UNL A   1      38.858  36.845  41.374  1.00  0.00    -0.744 OA
ENDBRANCH  89  90
ENDBRANCH  57  82
ENDBRANCH  31  32
ENDBRANCH  23  26
ENDBRANCH  21  22
ENDBRANCH   1  21
TORSDOF 15
ENDMDL
