MODEL 1
REMARK VINA RESULT:     -14.7      0.000      0.000
REMARK SMILES Cc1ccc(C(=O)NC2CC2)cc1NC(=O)[C@@H]1[C@@H](C(=O)NCCCCNC(=O)c2ccc(-c3c4nc(c(-c5c(F)cc(S(=O)(=O)[O-])cc5F)c5ccc([nH]5)c(-c5c(F)cc(S(=O)(=O)[O-])cc5F)c5nc(c(-c6c(F)cc(S(=O)(=O)[O-])cc6F)c6ccc3[nH]6)C=C5)C=C4)cc2)[C@H]2C=C[C@@H]1C2
REMARK SMILES IDX 23 1 22 2 21 3 19 4 20 5 18 7 17 8 98 9 95 10 97 11 99 12
REMARK SMILES IDX 96 13 15 14 14 15 16 17 13 18 1 19 2 20 3 21 4 22 12 23 5 24
REMARK SMILES IDX 6 25 7 26 8 27 9 29 10 30 11 31 24 32 25 33 26 34 27 35
REMARK SMILES IDX 28 37 29 38 30 39 94 40 31 41 93 42 32 43 33 44 34 45 87 46
REMARK SMILES IDX 35 47 92 48 86 49 88 50 36 51 91 52 85 53 84 54 37 56 71 57
REMARK SMILES IDX 50 58 70 59 51 60 54 61 69 62 89 63 52 64 53 65 68 67 90 68
REMARK SMILES IDX 55 69 38 70 39 71 48 72 40 73 41 74 47 75 49 76 42 77 43 78
REMARK SMILES IDX 44 79 45 80 46 81 72 82 73 83 82 84 74 85 75 86 81 87 83 88
REMARK SMILES IDX 76 89 77 90 78 91 79 92 80 93 56 94 57 95 66 96 58 97 59 98
REMARK SMILES IDX 65 99 67 100 60 101 61 102 62 103 63 104 64 105
REMARK H PARENT 21 6 14 16 8 28 26 36 88 55 54 66
REMARK Flexibility Score: inf
ROOT
ATOM      1  C   UNL A   1      32.144  29.215  27.546  1.00  0.00     0.023 C 
ENDROOT
BRANCH   1   2
ATOM      2  C   UNL A   1      32.336  27.736  27.192  1.00  0.00     0.116 C 
BRANCH   2   3
ATOM      3  N   UNL A   1      31.131  27.134  26.641  1.00  0.00    -0.356 N 
ATOM      4  C   UNL A   1      30.866  25.977  25.995  1.00  0.00     0.224 C 
ATOM      5  O   UNL A   1      29.697  25.848  25.603  1.00  0.00    -0.275 OA
ATOM      6  H   UNL A   1      30.332  27.694  26.768  1.00  0.00     0.163 HD
BRANCH   4   7
ATOM      7  C   UNL A   1      31.898  24.910  25.636  1.00  0.00     0.098 C 
ATOM      8  C   UNL A   1      31.390  24.128  24.349  1.00  0.00     0.099 C 
ATOM      9  C   UNL A   1      31.598  22.641  24.741  1.00  0.00     0.025 C 
ATOM     10  C   UNL A   1      32.187  23.739  26.600  1.00  0.00     0.025 C 
ATOM     11  C   UNL A   1      30.583  22.296  25.807  1.00  0.00    -0.027 C 
ATOM     12  C   UNL A   1      32.829  22.728  25.640  1.00  0.00     0.017 C 
ATOM     13  C   UNL A   1      30.919  22.977  26.911  1.00  0.00    -0.027 C 
BRANCH   8  14
ATOM     14  C   UNL A   1      32.105  24.476  23.053  1.00  0.00     0.228 C 
ATOM     15  N   UNL A   1      32.036  25.732  22.501  1.00  0.00    -0.326 N 
ATOM     16  H   UNL A   1      32.500  25.801  21.635  1.00  0.00     0.169 HD
ATOM     17  O   UNL A   1      32.704  23.617  22.399  1.00  0.00    -0.274 OA
BRANCH  15  18
ATOM     18  C   UNL A   1      31.440  26.947  22.911  1.00  0.00     0.044 A 
ATOM     19  C   UNL A   1      33.683  27.758  23.907  1.00  0.00     0.046 C 
ATOM     20  C   UNL A   1      32.241  27.938  23.515  1.00  0.00    -0.027 A 
ATOM     21  C   UNL A   1      31.667  29.187  23.809  1.00  0.00     0.006 A 
ATOM     22  C   UNL A   1      30.329  29.450  23.518  1.00  0.00     0.014 A 
ATOM     23  C   UNL A   1      30.066  27.198  22.757  1.00  0.00     0.040 A 
ATOM     24  C   UNL A   1      29.495  28.453  22.999  1.00  0.00     0.041 A 
BRANCH  24  25
ATOM     25  C   UNL A   1      28.061  28.832  22.764  1.00  0.00     0.251 C 
ATOM     26  O   UNL A   1      27.184  28.178  23.334  1.00  0.00    -0.269 OA
ATOM     27  N   UNL A   1      27.646  29.884  21.976  1.00  0.00    -0.349 N 
ATOM     28  H   UNL A   1      26.669  30.011  21.951  1.00  0.00     0.164 HD
BRANCH  27  29
ATOM     29  C   UNL A   1      28.372  30.816  21.193  1.00  0.00     0.082 C 
ATOM     30  C   UNL A   1      27.689  32.053  20.680  1.00  0.00     0.027 C 
ATOM     31  C   UNL A   1      28.771  32.169  21.711  1.00  0.00     0.027 C 
ENDBRANCH  27  29
ENDBRANCH  24  25
ENDBRANCH  15  18
ENDBRANCH   8  14
ENDBRANCH   4   7
ENDBRANCH   2   3
ENDBRANCH   1   2
BRANCH   1  32
ATOM     32  C   UNL A   1      33.100  30.177  26.839  1.00  0.00     0.023 C 
BRANCH  32  33
ATOM     33  C   UNL A   1      34.573  29.932  27.148  1.00  0.00     0.116 C 
BRANCH  33  34
ATOM     34  N   UNL A   1      35.285  31.119  27.589  1.00  0.00    -0.352 N 
ATOM     35  C   UNL A   1      36.448  31.180  28.347  1.00  0.00     0.251 C 
ATOM     36  H   UNL A   1      34.897  31.983  27.318  1.00  0.00     0.163 HD
ATOM     37  O   UNL A   1      36.795  32.178  28.938  1.00  0.00    -0.269 OA
BRANCH  35  38
ATOM     38  C   UNL A   1      37.335  29.997  28.277  1.00  0.00     0.039 A 
ATOM     39  C   UNL A   1      37.419  29.199  29.426  1.00  0.00     0.014 A 
ATOM     40  C   UNL A   1      38.245  29.856  27.235  1.00  0.00     0.014 A 
ATOM     41  C   UNL A   1      38.530  28.382  29.612  1.00  0.00     0.010 A 
ATOM     42  C   UNL A   1      39.386  29.112  27.458  1.00  0.00     0.010 A 
ATOM     43  C   UNL A   1      39.550  28.413  28.663  1.00  0.00    -0.014 A 
BRANCH  43  44
ATOM     44  C   UNL A   1      40.861  27.812  28.869  1.00  0.00     0.031 A 
ATOM     45  C   UNL A   1      41.100  26.405  28.478  1.00  0.00     0.074 A 
ATOM     46  C   UNL A   1      41.882  28.583  29.299  1.00  0.00     0.049 A 
ATOM     47  N   UNL A   1      42.084  25.681  28.891  1.00  0.00    -0.248 NA
ATOM     48  C   UNL A   1      40.191  25.683  27.595  1.00  0.00     0.031 C 
ATOM     49  C   UNL A   1      43.308  28.284  29.223  1.00  0.00     0.029 A 
ATOM     50  N   UNL A   1      41.812  29.739  30.074  1.00  0.00    -0.354 N 
ATOM     51  C   UNL A   1      42.110  24.529  28.133  1.00  0.00     0.074 A 
ATOM     52  C   UNL A   1      40.872  24.553  27.390  1.00  0.00     0.031 C 
ATOM     53  C   UNL A   1      43.965  29.068  30.094  1.00  0.00     0.029 A 
ATOM     54  C   UNL A   1      42.966  29.779  30.875  1.00  0.00     0.049 A 
ATOM     55  H   UNL A   1      41.086  30.404  30.064  1.00  0.00     0.167 HD
ATOM     56  C   UNL A   1      43.243  23.763  28.116  1.00  0.00     0.037 A 
ATOM     57  C   UNL A   1      42.871  29.716  32.238  1.00  0.00     0.037 A 
ATOM     58  C   UNL A   1      44.229  24.276  29.071  1.00  0.00     0.049 A 
ATOM     59  C   UNL A   1      43.507  28.484  32.841  1.00  0.00     0.074 A 
ATOM     60  C   UNL A   1      45.329  25.105  28.919  1.00  0.00     0.029 A 
ATOM     61  N   UNL A   1      43.972  24.212  30.437  1.00  0.00    -0.354 N 
ATOM     62  N   UNL A   1      43.830  27.419  32.161  1.00  0.00    -0.248 NA
ATOM     63  C   UNL A   1      43.816  28.348  34.263  1.00  0.00     0.031 C 
ATOM     64  C   UNL A   1      45.678  25.610  30.195  1.00  0.00     0.029 A 
ATOM     65  C   UNL A   1      44.809  25.070  31.127  1.00  0.00     0.049 A 
ATOM     66  H   UNL A   1      43.290  23.636  30.854  1.00  0.00     0.167 HD
ATOM     67  C   UNL A   1      44.334  26.466  33.006  1.00  0.00     0.074 A 
ATOM     68  C   UNL A   1      44.331  27.107  34.309  1.00  0.00     0.031 C 
ATOM     69  C   UNL A   1      44.703  25.224  32.571  1.00  0.00     0.037 A 
BRANCH  56  70
ATOM     70  C   UNL A   1      43.577  22.775  27.007  1.00  0.00     0.058 A 
ATOM     71  C   UNL A   1      42.845  21.573  26.867  1.00  0.00     0.135 A 
ATOM     72  C   UNL A   1      44.650  22.903  26.103  1.00  0.00     0.135 A 
ATOM     73  F   UNL A   1      41.721  21.351  27.561  1.00  0.00    -0.206 F 
ATOM     74  C   UNL A   1      43.230  20.536  26.012  1.00  0.00     0.059 A 
ATOM     75  C   UNL A   1      45.091  21.861  25.280  1.00  0.00     0.059 A 
ATOM     76  F   UNL A   1      45.283  24.071  25.935  1.00  0.00    -0.206 F 
ATOM     77  C   UNL A   1      44.382  20.670  25.253  1.00  0.00     0.060 A 
BRANCH  77  78
ATOM     78  S   UNL A   1      44.919  19.287  24.228  1.00  0.00     0.124 S 
ATOM     79  O   UNL A   1      44.377  19.643  22.921  1.00  0.00    -0.237 OA
ATOM     80  O   UNL A   1      46.370  19.359  24.358  1.00  0.00    -0.237 OA
ATOM     81  O   UNL A   1      44.291  18.131  24.863  1.00  0.00    -0.744 OA
ENDBRANCH  77  78
ENDBRANCH  56  70
BRANCH  57  82
ATOM     82  C   UNL A   1      41.668  30.416  32.769  1.00  0.00     0.058 A 
ATOM     83  C   UNL A   1      40.543  29.628  33.077  1.00  0.00     0.135 A 
ATOM     84  C   UNL A   1      41.762  31.678  33.374  1.00  0.00     0.135 A 
ATOM     85  F   UNL A   1      40.397  28.416  32.515  1.00  0.00    -0.206 F 
ATOM     86  C   UNL A   1      39.640  29.996  34.068  1.00  0.00     0.059 A 
ATOM     87  C   UNL A   1      40.862  32.072  34.367  1.00  0.00     0.059 A 
ATOM     88  F   UNL A   1      42.808  32.476  33.114  1.00  0.00    -0.206 F 
ATOM     89  C   UNL A   1      39.851  31.190  34.756  1.00  0.00     0.060 A 
BRANCH  89  90
ATOM     90  S   UNL A   1      38.905  31.459  36.274  1.00  0.00     0.124 S 
ATOM     91  O   UNL A   1      37.896  32.416  35.836  1.00  0.00    -0.237 OA
ATOM     92  O   UNL A   1      38.413  30.110  36.558  1.00  0.00    -0.237 OA
ATOM     93  O   UNL A   1      39.903  31.972  37.203  1.00  0.00    -0.744 OA
ENDBRANCH  89  90
ENDBRANCH  57  82
BRANCH  69  94
ATOM     94  C   UNL A   1      45.096  24.076  33.464  1.00  0.00     0.058 A 
ATOM     95  C   UNL A   1      44.226  23.031  33.820  1.00  0.00     0.135 A 
ATOM     96  C   UNL A   1      46.438  23.931  33.890  1.00  0.00     0.135 A 
ATOM     97  F   UNL A   1      42.959  23.002  33.380  1.00  0.00    -0.206 F 
ATOM     98  C   UNL A   1      44.635  21.956  34.610  1.00  0.00     0.059 A 
ATOM     99  C   UNL A   1      46.879  22.841  34.636  1.00  0.00     0.059 A 
ATOM    100  F   UNL A   1      47.367  24.850  33.589  1.00  0.00    -0.206 F 
ATOM    101  C   UNL A   1      45.963  21.871  35.018  1.00  0.00     0.060 A 
BRANCH 101 102
ATOM    102  S   UNL A   1      46.510  20.466  36.005  1.00  0.00     0.124 S 
ATOM    103  O   UNL A   1      45.522  20.464  37.079  1.00  0.00    -0.237 OA
ATOM    104  O   UNL A   1      46.422  19.353  35.064  1.00  0.00    -0.237 OA
ATOM    105  O   UNL A   1      47.866  20.842  36.395  1.00  0.00    -0.744 OA
ENDBRANCH 101 102
ENDBRANCH  69  94
ENDBRANCH  43  44
ENDBRANCH  35  38
ENDBRANCH  33  34
ENDBRANCH  32  33
ENDBRANCH   1  32
TORSDOF 18
ENDMDL
MODEL 2
REMARK VINA RESULT:     -13.8      4.925     11.428
REMARK SMILES Cc1ccc(C(=O)NC2CC2)cc1NC(=O)[C@@H]1[C@@H](C(=O)NCCCCNC(=O)c2ccc(-c3c4nc(c(-c5c(F)cc(S(=O)(=O)[O-])cc5F)c5ccc([nH]5)c(-c5c(F)cc(S(=O)(=O)[O-])cc5F)c5nc(c(-c6c(F)cc(S(=O)(=O)[O-])cc6F)c6ccc3[nH]6)C=C5)C=C4)cc2)[C@H]2C=C[C@@H]1C2
REMARK SMILES IDX 23 1 22 2 21 3 19 4 20 5 18 7 17 8 98 9 95 10 97 11 99 12
REMARK SMILES IDX 96 13 15 14 14 15 16 17 13 18 1 19 2 20 3 21 4 22 12 23 5 24
REMARK SMILES IDX 6 25 7 26 8 27 9 29 10 30 11 31 24 32 25 33 26 34 27 35
REMARK SMILES IDX 28 37 29 38 30 39 94 40 31 41 93 42 32 43 33 44 34 45 87 46
REMARK SMILES IDX 35 47 92 48 86 49 88 50 36 51 91 52 85 53 84 54 37 56 71 57
REMARK SMILES IDX 50 58 70 59 51 60 54 61 69 62 89 63 52 64 53 65 68 67 90 68
REMARK SMILES IDX 55 69 38 70 39 71 48 72 40 73 41 74 47 75 49 76 42 77 43 78
REMARK SMILES IDX 44 79 45 80 46 81 72 82 73 83 82 84 74 85 75 86 81 87 83 88
REMARK SMILES IDX 76 89 77 90 78 91 79 92 80 93 56 94 57 95 66 96 58 97 59 98
REMARK SMILES IDX 65 99 67 100 60 101 61 102 62 103 63 104 64 105
REMARK H PARENT 21 6 14 16 8 28 26 36 88 55 54 66
REMARK Flexibility Score: inf
ROOT
ATOM      1  C   UNL A   1      36.321  23.465  24.619  1.00  0.00     0.023 C 
ENDROOT
BRANCH   1   2
ATOM      2  C   UNL A   1      35.299  24.475  25.153  1.00  0.00     0.116 C 
BRANCH   2   3
ATOM      3  N   UNL A   1      34.323  24.864  24.146  1.00  0.00    -0.356 N 
ATOM      4  C   UNL A   1      33.522  25.939  23.975  1.00  0.00     0.224 C 
ATOM      5  O   UNL A   1      32.750  25.873  23.007  1.00  0.00    -0.275 OA
ATOM      6  H   UNL A   1      34.223  24.195  23.432  1.00  0.00     0.163 HD
BRANCH   4   7
ATOM      7  C   UNL A   1      33.436  27.135  24.921  1.00  0.00     0.098 C 
ATOM      8  C   UNL A   1      31.904  27.424  25.232  1.00  0.00     0.099 C 
ATOM      9  C   UNL A   1      31.793  28.959  25.037  1.00  0.00     0.025 C 
ATOM     10  C   UNL A   1      33.916  28.531  24.470  1.00  0.00     0.025 C 
ATOM     11  C   UNL A   1      31.931  29.250  23.559  1.00  0.00    -0.027 C 
ATOM     12  C   UNL A   1      33.179  29.427  25.476  1.00  0.00     0.017 C 
ATOM     13  C   UNL A   1      33.195  28.965  23.214  1.00  0.00    -0.027 C 
BRANCH   8  14
ATOM     14  C   UNL A   1      31.428  26.994  26.610  1.00  0.00     0.228 C 
ATOM     15  N   UNL A   1      31.221  25.673  26.928  1.00  0.00    -0.326 N 
ATOM     16  H   UNL A   1      30.862  25.544  27.836  1.00  0.00     0.169 HD
ATOM     17  O   UNL A   1      31.125  27.824  27.473  1.00  0.00    -0.274 OA
BRANCH  15  18
ATOM     18  C   UNL A   1      31.414  24.461  26.228  1.00  0.00     0.044 A 
ATOM     19  C   UNL A   1      29.697  25.177  24.433  1.00  0.00     0.046 C 
ATOM     20  C   UNL A   1      30.743  24.256  25.004  1.00  0.00    -0.027 A 
ATOM     21  C   UNL A   1      31.033  23.103  24.255  1.00  0.00     0.006 A 
ATOM     22  C   UNL A   1      31.961  22.166  24.708  1.00  0.00     0.014 A 
ATOM     23  C   UNL A   1      32.239  23.434  26.718  1.00  0.00     0.040 A 
ATOM     24  C   UNL A   1      32.574  22.306  25.959  1.00  0.00     0.041 A 
BRANCH  24  25
ATOM     25  C   UNL A   1      33.526  21.217  26.365  1.00  0.00     0.251 C 
ATOM     26  O   UNL A   1      34.473  21.516  27.097  1.00  0.00    -0.269 OA
ATOM     27  N   UNL A   1      33.404  19.893  26.006  1.00  0.00    -0.349 N 
ATOM     28  H   UNL A   1      34.100  19.306  26.381  1.00  0.00     0.164 HD
BRANCH  27  29
ATOM     29  C   UNL A   1      32.457  19.223  25.191  1.00  0.00     0.082 C 
ATOM     30  C   UNL A   1      32.902  18.573  23.911  1.00  0.00     0.027 C 
ATOM     31  C   UNL A   1      32.423  17.728  25.052  1.00  0.00     0.027 C 
ENDBRANCH  27  29
ENDBRANCH  24  25
ENDBRANCH  15  18
ENDBRANCH   8  14
ENDBRANCH   4   7
ENDBRANCH   2   3
ENDBRANCH   1   2
BRANCH   1  32
ATOM     32  C   UNL A   1      37.312  22.939  25.660  1.00  0.00     0.023 C 
BRANCH  32  33
ATOM     33  C   UNL A   1      38.682  23.607  25.610  1.00  0.00     0.116 C 
BRANCH  33  34
ATOM     34  N   UNL A   1      39.596  23.145  26.641  1.00  0.00    -0.352 N 
ATOM     35  C   UNL A   1      40.389  23.918  27.481  1.00  0.00     0.251 C 
ATOM     36  H   UNL A   1      39.660  22.170  26.759  1.00  0.00     0.163 HD
ATOM     37  O   UNL A   1      41.343  23.471  28.077  1.00  0.00    -0.269 OA
BRANCH  35  38
ATOM     38  C   UNL A   1      39.917  25.298  27.736  1.00  0.00     0.039 A 
ATOM     39  C   UNL A   1      40.437  26.307  26.915  1.00  0.00     0.014 A 
ATOM     40  C   UNL A   1      39.225  25.605  28.903  1.00  0.00     0.014 A 
ATOM     41  C   UNL A   1      40.424  27.626  27.359  1.00  0.00     0.010 A 
ATOM     42  C   UNL A   1      39.289  26.898  29.381  1.00  0.00     0.010 A 
ATOM     43  C   UNL A   1      39.928  27.898  28.631  1.00  0.00    -0.014 A 
BRANCH  43  44
ATOM     44  C   UNL A   1      40.095  29.179  29.306  1.00  0.00     0.031 A 
ATOM     45  C   UNL A   1      39.030  30.202  29.227  1.00  0.00     0.074 A 
ATOM     46  C   UNL A   1      41.169  29.372  30.102  1.00  0.00     0.049 A 
ATOM     47  N   UNL A   1      39.187  31.454  29.496  1.00  0.00    -0.248 NA
ATOM     48  C   UNL A   1      37.678  29.878  28.787  1.00  0.00     0.031 C 
ATOM     49  C   UNL A   1      41.339  30.401  31.122  1.00  0.00     0.029 A 
ATOM     50  N   UNL A   1      42.421  28.767  30.008  1.00  0.00    -0.354 N 
ATOM     51  C   UNL A   1      37.937  32.036  29.548  1.00  0.00     0.074 A 
ATOM     52  C   UNL A   1      37.042  31.027  29.032  1.00  0.00     0.031 C 
ATOM     53  C   UNL A   1      42.647  30.527  31.400  1.00  0.00     0.029 A 
ATOM     54  C   UNL A   1      43.373  29.701  30.449  1.00  0.00     0.049 A 
ATOM     55  H   UNL A   1      42.604  27.853  29.690  1.00  0.00     0.167 HD
ATOM     56  C   UNL A   1      37.789  33.252  30.155  1.00  0.00     0.037 A 
ATOM     57  C   UNL A   1      44.331  30.176  29.596  1.00  0.00     0.037 A 
ATOM     58  C   UNL A   1      39.092  33.799  30.543  1.00  0.00     0.049 A 
ATOM     59  C   UNL A   1      44.228  31.660  29.322  1.00  0.00     0.074 A 
ATOM     60  C   UNL A   1      39.786  33.790  31.742  1.00  0.00     0.029 A 
ATOM     61  N   UNL A   1      40.005  34.181  29.564  1.00  0.00    -0.354 N 
ATOM     62  N   UNL A   1      43.173  32.382  29.585  1.00  0.00    -0.248 NA
ATOM     63  C   UNL A   1      45.301  32.446  28.717  1.00  0.00     0.031 C 
ATOM     64  C   UNL A   1      41.144  34.083  31.467  1.00  0.00     0.029 A 
ATOM     65  C   UNL A   1      41.273  34.296  30.105  1.00  0.00     0.049 A 
ATOM     66  H   UNL A   1      39.779  34.347  28.621  1.00  0.00     0.167 HD
ATOM     67  C   UNL A   1      43.381  33.671  29.171  1.00  0.00     0.074 A 
ATOM     68  C   UNL A   1      44.740  33.667  28.660  1.00  0.00     0.031 C 
ATOM     69  C   UNL A   1      42.418  34.634  29.272  1.00  0.00     0.037 A 
BRANCH  56  70
ATOM     70  C   UNL A   1      36.463  33.772  30.691  1.00  0.00     0.058 A 
ATOM     71  C   UNL A   1      35.439  34.186  29.807  1.00  0.00     0.135 A 
ATOM     72  C   UNL A   1      36.159  33.967  32.053  1.00  0.00     0.135 A 
ATOM     73  F   UNL A   1      35.514  33.955  28.489  1.00  0.00    -0.206 F 
ATOM     74  C   UNL A   1      34.290  34.862  30.227  1.00  0.00     0.059 A 
ATOM     75  C   UNL A   1      35.046  34.691  32.497  1.00  0.00     0.059 A 
ATOM     76  F   UNL A   1      36.901  33.411  33.018  1.00  0.00    -0.206 F 
ATOM     77  C   UNL A   1      34.122  35.151  31.572  1.00  0.00     0.060 A 
BRANCH  77  78
ATOM     78  S   UNL A   1      32.683  36.108  32.087  1.00  0.00     0.124 S 
ATOM     79  O   UNL A   1      33.226  36.922  33.171  1.00  0.00    -0.237 OA
ATOM     80  O   UNL A   1      32.341  36.824  30.863  1.00  0.00    -0.237 OA
ATOM     81  O   UNL A   1      31.726  35.086  32.502  1.00  0.00    -0.744 OA
ENDBRANCH  77  78
ENDBRANCH  56  70
BRANCH  57  82
ATOM     82  C   UNL A   1      44.805  29.149  28.626  1.00  0.00     0.058 A 
ATOM     83  C   UNL A   1      44.234  29.160  27.339  1.00  0.00     0.135 A 
ATOM     84  C   UNL A   1      46.045  28.513  28.780  1.00  0.00     0.135 A 
ATOM     85  F   UNL A   1      43.041  29.745  27.138  1.00  0.00    -0.206 F 
ATOM     86  C   UNL A   1      44.935  28.716  26.224  1.00  0.00     0.059 A 
ATOM     87  C   UNL A   1      46.765  28.054  27.674  1.00  0.00     0.059 A 
ATOM     88  F   UNL A   1      46.636  28.466  29.983  1.00  0.00    -0.206 F 
ATOM     89  C   UNL A   1      46.229  28.230  26.396  1.00  0.00     0.060 A 
BRANCH  89  90
ATOM     90  S   UNL A   1      47.248  28.020  24.916  1.00  0.00     0.124 S 
ATOM     91  O   UNL A   1      48.585  28.296  25.428  1.00  0.00    -0.237 OA
ATOM     92  O   UNL A   1      46.981  26.623  24.570  1.00  0.00    -0.237 OA
ATOM     93  O   UNL A   1      46.706  29.010  23.995  1.00  0.00    -0.744 OA
ENDBRANCH  89  90
ENDBRANCH  57  82
BRANCH  69  94
ATOM     94  C   UNL A   1      42.512  36.018  28.681  1.00  0.00     0.058 A 
ATOM     95  C   UNL A   1      42.970  37.140  29.392  1.00  0.00     0.135 A 
ATOM     96  C   UNL A   1      42.256  36.225  27.305  1.00  0.00     0.135 A 
ATOM     97  F   UNL A   1      43.351  37.042  30.674  1.00  0.00    -0.206 F 
ATOM     98  C   UNL A   1      43.092  38.399  28.802  1.00  0.00     0.059 A 
ATOM     99  C   UNL A   1      42.420  37.460  26.684  1.00  0.00     0.059 A 
ATOM    100  F   UNL A   1      41.840  35.223  26.516  1.00  0.00    -0.206 F 
ATOM    101  C   UNL A   1      42.810  38.551  27.448  1.00  0.00     0.060 A 
BRANCH 101 102
ATOM    102  S   UNL A   1      43.001  40.164  26.667  1.00  0.00     0.124 S 
ATOM    103  O   UNL A   1      41.713  40.318  26.000  1.00  0.00    -0.237 OA
ATOM    104  O   UNL A   1      43.233  41.051  27.804  1.00  0.00    -0.237 OA
ATOM    105  O   UNL A   1      44.150  39.973  25.787  1.00  0.00    -0.744 OA
ENDBRANCH 101 102
ENDBRANCH  69  94
ENDBRANCH  43  44
ENDBRANCH  35  38
ENDBRANCH  33  34
ENDBRANCH  32  33
ENDBRANCH   1  32
TORSDOF 18
ENDMDL
MODEL 3
REMARK VINA RESULT:     -13.5      4.757     10.764
REMARK SMILES Cc1ccc(C(=O)NC2CC2)cc1NC(=O)[C@@H]1[C@@H](C(=O)NCCCCNC(=O)c2ccc(-c3c4nc(c(-c5c(F)cc(S(=O)(=O)[O-])cc5F)c5ccc([nH]5)c(-c5c(F)cc(S(=O)(=O)[O-])cc5F)c5nc(c(-c6c(F)cc(S(=O)(=O)[O-])cc6F)c6ccc3[nH]6)C=C5)C=C4)cc2)[C@H]2C=C[C@@H]1C2
REMARK SMILES IDX 23 1 22 2 21 3 19 4 20 5 18 7 17 8 98 9 95 10 97 11 99 12
REMARK SMILES IDX 96 13 15 14 14 15 16 17 13 18 1 19 2 20 3 21 4 22 12 23 5 24
REMARK SMILES IDX 6 25 7 26 8 27 9 29 10 30 11 31 24 32 25 33 26 34 27 35
REMARK SMILES IDX 28 37 29 38 30 39 94 40 31 41 93 42 32 43 33 44 34 45 87 46
REMARK SMILES IDX 35 47 92 48 86 49 88 50 36 51 91 52 85 53 84 54 37 56 71 57
REMARK SMILES IDX 50 58 70 59 51 60 54 61 69 62 89 63 52 64 53 65 68 67 90 68
REMARK SMILES IDX 55 69 38 70 39 71 48 72 40 73 41 74 47 75 49 76 42 77 43 78
REMARK SMILES IDX 44 79 45 80 46 81 72 82 73 83 82 84 74 85 75 86 81 87 83 88
REMARK SMILES IDX 76 89 77 90 78 91 79 92 80 93 56 94 57 95 66 96 58 97 59 98
REMARK SMILES IDX 65 99 67 100 60 101 61 102 62 103 63 104 64 105
REMARK H PARENT 21 6 14 16 8 28 26 36 88 55 54 66
REMARK Flexibility Score: inf
ROOT
ATOM      1  C   UNL A   1      35.754  23.059  26.595  1.00  0.00     0.023 C 
ENDROOT
BRANCH   1   2
ATOM      2  C   UNL A   1      34.500  23.474  25.817  1.00  0.00     0.116 C 
BRANCH   2   3
ATOM      3  N   UNL A   1      34.648  24.769  25.172  1.00  0.00    -0.356 N 
ATOM      4  C   UNL A   1      33.808  25.594  24.509  1.00  0.00     0.224 C 
ATOM      5  O   UNL A   1      34.335  26.606  24.024  1.00  0.00    -0.275 OA
ATOM      6  H   UNL A   1      35.564  25.124  25.232  1.00  0.00     0.163 HD
BRANCH   4   7
ATOM      7  C   UNL A   1      32.330  25.316  24.237  1.00  0.00     0.098 C 
ATOM      8  C   UNL A   1      31.852  24.145  25.199  1.00  0.00     0.099 C 
ATOM      9  C   UNL A   1      31.082  23.200  24.238  1.00  0.00     0.025 C 
ATOM     10  C   UNL A   1      31.870  24.782  22.864  1.00  0.00     0.025 C 
ATOM     11  C   UNL A   1      32.092  22.541  23.327  1.00  0.00    -0.027 C 
ATOM     12  C   UNL A   1      30.502  24.190  23.231  1.00  0.00     0.017 C 
ATOM     13  C   UNL A   1      32.586  23.494  22.524  1.00  0.00    -0.027 C 
BRANCH   8  14
ATOM     14  C   UNL A   1      30.992  24.579  26.374  1.00  0.00     0.228 C 
ATOM     15  N   UNL A   1      30.693  25.900  26.606  1.00  0.00    -0.326 N 
ATOM     16  H   UNL A   1      30.174  26.041  27.432  1.00  0.00     0.169 HD
ATOM     17  O   UNL A   1      30.600  23.767  27.218  1.00  0.00    -0.274 OA
BRANCH  15  18
ATOM     18  C   UNL A   1      30.972  27.099  25.912  1.00  0.00     0.044 A 
ATOM     19  C   UNL A   1      32.662  27.808  27.735  1.00  0.00     0.046 C 
ATOM     20  C   UNL A   1      31.961  27.971  26.413  1.00  0.00    -0.027 A 
ATOM     21  C   UNL A   1      32.318  29.099  25.654  1.00  0.00     0.006 A 
ATOM     22  C   UNL A   1      31.708  29.364  24.428  1.00  0.00     0.014 A 
ATOM     23  C   UNL A   1      30.283  27.468  24.744  1.00  0.00     0.040 A 
ATOM     24  C   UNL A   1      30.664  28.560  23.955  1.00  0.00     0.041 A 
BRANCH  24  25
ATOM     25  C   UNL A   1      30.049  28.961  22.644  1.00  0.00     0.251 C 
ATOM     26  O   UNL A   1      30.213  28.218  21.673  1.00  0.00    -0.269 OA
ATOM     27  N   UNL A   1      29.283  30.090  22.448  1.00  0.00    -0.349 N 
ATOM     28  H   UNL A   1      28.934  30.188  21.533  1.00  0.00     0.164 HD
BRANCH  27  29
ATOM     29  C   UNL A   1      28.908  31.135  23.329  1.00  0.00     0.082 C 
ATOM     30  C   UNL A   1      28.293  32.391  22.777  1.00  0.00     0.027 C 
ATOM     31  C   UNL A   1      27.473  31.467  23.626  1.00  0.00     0.027 C 
ENDBRANCH  27  29
ENDBRANCH  24  25
ENDBRANCH  15  18
ENDBRANCH   8  14
ENDBRANCH   4   7
ENDBRANCH   2   3
ENDBRANCH   1   2
BRANCH   1  32
ATOM     32  C   UNL A   1      36.901  22.527  25.734  1.00  0.00     0.023 C 
BRANCH  32  33
ATOM     33  C   UNL A   1      38.096  23.470  25.635  1.00  0.00     0.116 C 
BRANCH  33  34
ATOM     34  N   UNL A   1      39.229  23.066  26.449  1.00  0.00    -0.352 N 
ATOM     35  C   UNL A   1      40.163  23.886  27.072  1.00  0.00     0.251 C 
ATOM     36  H   UNL A   1      39.350  22.097  26.574  1.00  0.00     0.163 HD
ATOM     37  O   UNL A   1      41.239  23.484  27.453  1.00  0.00    -0.269 OA
BRANCH  35  38
ATOM     38  C   UNL A   1      39.714  25.261  27.389  1.00  0.00     0.039 A 
ATOM     39  C   UNL A   1      40.239  26.295  26.603  1.00  0.00     0.014 A 
ATOM     40  C   UNL A   1      39.042  25.529  28.577  1.00  0.00     0.014 A 
ATOM     41  C   UNL A   1      40.251  27.595  27.101  1.00  0.00     0.010 A 
ATOM     42  C   UNL A   1      39.130  26.801  29.106  1.00  0.00     0.010 A 
ATOM     43  C   UNL A   1      39.774  27.821  28.390  1.00  0.00    -0.014 A 
BRANCH  43  44
ATOM     44  C   UNL A   1      39.969  29.071  29.114  1.00  0.00     0.031 A 
ATOM     45  C   UNL A   1      38.927  30.121  29.072  1.00  0.00     0.074 A 
ATOM     46  C   UNL A   1      41.043  29.208  29.920  1.00  0.00     0.049 A 
ATOM     47  N   UNL A   1      39.112  31.357  29.390  1.00  0.00    -0.248 NA
ATOM     48  C   UNL A   1      37.570  29.846  28.615  1.00  0.00     0.031 C 
ATOM     49  C   UNL A   1      41.233  30.193  30.980  1.00  0.00     0.029 A 
ATOM     50  N   UNL A   1      42.281  28.578  29.807  1.00  0.00    -0.354 N 
ATOM     51  C   UNL A   1      37.876  31.966  29.460  1.00  0.00     0.074 A 
ATOM     52  C   UNL A   1      36.960  30.998  28.903  1.00  0.00     0.031 C 
ATOM     53  C   UNL A   1      42.542  30.277  31.266  1.00  0.00     0.029 A 
ATOM     54  C   UNL A   1      43.253  29.472  30.286  1.00  0.00     0.049 A 
ATOM     55  H   UNL A   1      42.444  27.673  29.454  1.00  0.00     0.167 HD
ATOM     56  C   UNL A   1      37.754  33.161  30.114  1.00  0.00     0.037 A 
ATOM     57  C   UNL A   1      44.225  29.957  29.455  1.00  0.00     0.037 A 
ATOM     58  C   UNL A   1      39.067  33.662  30.527  1.00  0.00     0.049 A 
ATOM     59  C   UNL A   1      44.157  31.453  29.239  1.00  0.00     0.074 A 
ATOM     60  C   UNL A   1      39.757  33.590  31.726  1.00  0.00     0.029 A 
ATOM     61  N   UNL A   1      39.993  34.060  29.566  1.00  0.00    -0.354 N 
ATOM     62  N   UNL A   1      43.118  32.188  29.526  1.00  0.00    -0.248 NA
ATOM     63  C   UNL A   1      45.250  32.237  28.667  1.00  0.00     0.031 C 
ATOM     64  C   UNL A   1      41.122  33.862  31.466  1.00  0.00     0.029 A 
ATOM     65  C   UNL A   1      41.261  34.124  30.114  1.00  0.00     0.049 A 
ATOM     66  H   UNL A   1      39.775  34.268  28.629  1.00  0.00     0.167 HD
ATOM     67  C   UNL A   1      43.357  33.487  29.163  1.00  0.00     0.074 A 
ATOM     68  C   UNL A   1      44.718  33.472  28.656  1.00  0.00     0.031 C 
ATOM     69  C   UNL A   1      42.416  34.468  29.298  1.00  0.00     0.037 A 
BRANCH  56  70
ATOM     70  C   UNL A   1      36.437  33.690  30.665  1.00  0.00     0.058 A 
ATOM     71  C   UNL A   1      35.432  34.173  29.796  1.00  0.00     0.135 A 
ATOM     72  C   UNL A   1      36.129  33.829  32.033  1.00  0.00     0.135 A 
ATOM     73  F   UNL A   1      35.511  34.002  28.469  1.00  0.00    -0.206 F 
ATOM     74  C   UNL A   1      34.298  34.859  30.240  1.00  0.00     0.059 A 
ATOM     75  C   UNL A   1      35.033  34.561  32.504  1.00  0.00     0.059 A 
ATOM     76  F   UNL A   1      36.849  33.208  32.976  1.00  0.00    -0.206 F 
ATOM     77  C   UNL A   1      34.128  35.088  31.597  1.00  0.00     0.060 A 
BRANCH  77  78
ATOM     78  S   UNL A   1      32.711  36.058  32.147  1.00  0.00     0.124 S 
ATOM     79  O   UNL A   1      31.790  35.024  32.607  1.00  0.00    -0.237 OA
ATOM     80  O   UNL A   1      33.301  36.894  33.187  1.00  0.00    -0.237 OA
ATOM     81  O   UNL A   1      32.293  36.764  30.939  1.00  0.00    -0.744 OA
ENDBRANCH  77  78
ENDBRANCH  56  70
BRANCH  57  82
ATOM     82  C   UNL A   1      44.679  28.958  28.447  1.00  0.00     0.058 A 
ATOM     83  C   UNL A   1      44.181  29.087  27.136  1.00  0.00     0.135 A 
ATOM     84  C   UNL A   1      45.862  28.226  28.623  1.00  0.00     0.135 A 
ATOM     85  F   UNL A   1      43.044  29.767  26.914  1.00  0.00    -0.206 F 
ATOM     86  C   UNL A   1      44.909  28.660  26.032  1.00  0.00     0.059 A 
ATOM     87  C   UNL A   1      46.607  27.782  27.528  1.00  0.00     0.059 A 
ATOM     88  F   UNL A   1      46.381  28.066  29.849  1.00  0.00    -0.206 F 
ATOM     89  C   UNL A   1      46.155  28.071  26.238  1.00  0.00     0.060 A 
BRANCH  89  90
ATOM     90  S   UNL A   1      47.236  27.877  24.801  1.00  0.00     0.124 S 
ATOM     91  O   UNL A   1      46.697  28.870  23.880  1.00  0.00    -0.237 OA
ATOM     92  O   UNL A   1      48.546  28.192  25.373  1.00  0.00    -0.237 OA
ATOM     93  O   UNL A   1      47.037  26.485  24.419  1.00  0.00    -0.744 OA
ENDBRANCH  89  90
ENDBRANCH  57  82
BRANCH  69  94
ATOM     94  C   UNL A   1      42.545  35.871  28.762  1.00  0.00     0.058 A 
ATOM     95  C   UNL A   1      42.126  36.257  27.478  1.00  0.00     0.135 A 
ATOM     96  C   UNL A   1      42.993  36.917  29.603  1.00  0.00     0.135 A 
ATOM     97  F   UNL A   1      41.579  35.373  26.630  1.00  0.00    -0.206 F 
ATOM     98  C   UNL A   1      42.215  37.575  27.028  1.00  0.00     0.059 A 
ATOM     99  C   UNL A   1      43.041  38.247  29.193  1.00  0.00     0.059 A 
ATOM    100  F   UNL A   1      43.394  36.677  30.860  1.00  0.00    -0.206 F 
ATOM    101  C   UNL A   1      42.679  38.564  27.891  1.00  0.00     0.060 A 
BRANCH 101 102
ATOM    102  S   UNL A   1      42.761  40.276  27.334  1.00  0.00     0.124 S 
ATOM    103  O   UNL A   1      43.888  40.780  28.110  1.00  0.00    -0.237 OA
ATOM    104  O   UNL A   1      42.993  40.139  25.898  1.00  0.00    -0.237 OA
ATOM    105  O   UNL A   1      41.452  40.808  27.700  1.00  0.00    -0.744 OA
ENDBRANCH 101 102
ENDBRANCH  69  94
ENDBRANCH  43  44
ENDBRANCH  35  38
ENDBRANCH  33  34
ENDBRANCH  32  33
ENDBRANCH   1  32
TORSDOF 18
ENDMDL
