MODEL 1
REMARK VINA RESULT:     -13.5      0.000      0.000
REMARK SMILES Cc1ccc(-c2cc(C(=O)NCCCCNC(=O)c3ccc(-c4c5nc(c(-c6c(F)cc(S(=O)(=O)[O-])cc6F)c6ccc([nH]6)c(-c6c(F)cc(S(=O)(=O)[O-])cc6F)c6nc(c(-c7c(F)cc(S(=O)(=O)[O-])cc7F)c7ccc4[nH]7)C=C6)C=C5)cc3)c3cc(C)ccc3n2)c(C)c1
REMARK SMILES IDX 14 1 13 2 12 3 11 4 9 5 10 6 8 8 6 9 7 10 92 11 91 12 85 13
REMARK SMILES IDX 90 14 86 15 89 16 87 17 88 18 5 19 1 20 2 21 3 22 95 23 4 24
REMARK SMILES IDX 93 25 94 26 15 27 16 28 17 29 18 31 19 32 20 33 84 34 21 35
REMARK SMILES IDX 83 36 22 37 23 38 24 39 77 40 25 41 82 42 76 43 78 44 26 45
REMARK SMILES IDX 81 46 75 47 74 48 27 50 61 51 40 52 60 53 41 54 44 55 59 56
REMARK SMILES IDX 79 57 42 58 43 59 58 61 80 62 45 63 28 64 29 65 38 66 30 67
REMARK SMILES IDX 31 68 37 69 39 70 32 71 33 72 34 73 35 74 36 75 62 76 63 77
REMARK SMILES IDX 72 78 64 79 65 80 71 81 73 82 66 83 67 84 68 85 69 86 70 87
REMARK SMILES IDX 46 88 47 89 56 90 48 91 49 92 55 93 57 94 50 95 51 96 52 97
REMARK SMILES IDX 53 98 54 99
REMARK H PARENT 11 7 16 30 78 49 44 60
REMARK Flexibility Score: inf
ROOT
ATOM      1  C   UNL A   1      39.996  22.422  27.120  1.00  0.00     0.023 C 
ENDROOT
BRANCH   1   2
ATOM      2  C   UNL A   1      38.858  23.233  26.505  1.00  0.00     0.023 C 
BRANCH   2   3
ATOM      3  C   UNL A   1      37.720  22.450  25.871  1.00  0.00     0.116 C 
BRANCH   3   4
ATOM      4  N   UNL A   1      37.592  22.510  24.426  1.00  0.00    -0.352 N 
ATOM      5  C   UNL A   1      36.519  22.899  23.641  1.00  0.00     0.252 C 
ATOM      6  O   UNL A   1      36.672  22.940  22.420  1.00  0.00    -0.269 OA
ATOM      7  H   UNL A   1      38.393  22.231  23.925  1.00  0.00     0.163 HD
BRANCH   5   8
ATOM      8  C   UNL A   1      35.155  23.164  24.195  1.00  0.00     0.051 A 
ATOM      9  C   UNL A   1      33.502  24.830  24.678  1.00  0.00     0.072 A 
ATOM     10  C   UNL A   1      34.801  24.514  24.313  1.00  0.00     0.043 A 
ATOM     11  N   UNL A   1      32.540  23.885  24.790  1.00  0.00    -0.248 NA
ATOM     12  C   UNL A   1      32.887  22.592  24.709  1.00  0.00     0.072 A 
ATOM     13  C   UNL A   1      34.216  22.172  24.548  1.00  0.00     0.013 A 
ATOM     14  C   UNL A   1      31.888  21.629  24.773  1.00  0.00     0.029 A 
ATOM     15  C   UNL A   1      34.508  20.802  24.722  1.00  0.00     0.014 A 
ATOM     16  C   UNL A   1      32.177  20.263  24.711  1.00  0.00     0.005 A 
ATOM     17  C   UNL A   1      33.499  19.836  24.713  1.00  0.00    -0.050 A 
ATOM     18  C   UNL A   1      33.854  18.388  24.541  1.00  0.00     0.044 C 
BRANCH   9  19
ATOM     19  C   UNL A   1      33.086  26.196  25.035  1.00  0.00     0.003 A 
ATOM     20  C   UNL A   1      31.908  30.220  26.154  1.00  0.00     0.044 C 
ATOM     21  C   UNL A   1      32.307  28.823  25.782  1.00  0.00    -0.051 A 
ATOM     22  C   UNL A   1      32.341  27.798  26.729  1.00  0.00     0.004 A 
ATOM     23  C   UNL A   1      32.658  28.532  24.460  1.00  0.00     0.007 A 
ATOM     24  C   UNL A   1      32.725  26.503  26.360  1.00  0.00     0.011 A 
ATOM     25  C   UNL A   1      33.035  27.232  24.072  1.00  0.00    -0.041 A 
ATOM     26  C   UNL A   1      33.405  27.024  22.625  1.00  0.00     0.045 C 
ENDBRANCH   9  19
ENDBRANCH   5   8
ENDBRANCH   3   4
ENDBRANCH   2   3
ENDBRANCH   1   2
BRANCH   1  27
ATOM     27  C   UNL A   1      41.379  23.064  27.174  1.00  0.00     0.116 C 
BRANCH  27  28
ATOM     28  N   UNL A   1      41.675  23.971  26.073  1.00  0.00    -0.352 N 
ATOM     29  C   UNL A   1      41.798  25.342  26.051  1.00  0.00     0.251 C 
ATOM     30  H   UNL A   1      41.808  23.532  25.202  1.00  0.00     0.163 HD
ATOM     31  O   UNL A   1      42.023  25.906  24.981  1.00  0.00    -0.269 OA
BRANCH  29  32
ATOM     32  C   UNL A   1      41.619  26.146  27.285  1.00  0.00     0.039 A 
ATOM     33  C   UNL A   1      42.471  27.231  27.512  1.00  0.00     0.014 A 
ATOM     34  C   UNL A   1      40.622  25.848  28.214  1.00  0.00     0.014 A 
ATOM     35  C   UNL A   1      42.266  28.060  28.621  1.00  0.00     0.010 A 
ATOM     36  C   UNL A   1      40.353  26.732  29.258  1.00  0.00     0.010 A 
ATOM     37  C   UNL A   1      41.179  27.843  29.483  1.00  0.00    -0.014 A 
BRANCH  37  38
ATOM     38  C   UNL A   1      40.913  28.747  30.636  1.00  0.00     0.031 A 
ATOM     39  C   UNL A   1      41.755  28.651  31.883  1.00  0.00     0.074 A 
ATOM     40  C   UNL A   1      39.891  29.626  30.585  1.00  0.00     0.049 A 
ATOM     41  N   UNL A   1      41.672  29.339  32.995  1.00  0.00    -0.248 NA
ATOM     42  C   UNL A   1      42.810  27.625  31.896  1.00  0.00     0.031 C 
ATOM     43  C   UNL A   1      38.963  29.782  29.462  1.00  0.00     0.029 A 
ATOM     44  N   UNL A   1      39.463  30.558  31.498  1.00  0.00    -0.354 N 
ATOM     45  C   UNL A   1      42.654  28.823  33.834  1.00  0.00     0.074 A 
ATOM     46  C   UNL A   1      43.264  27.714  33.135  1.00  0.00     0.031 C 
ATOM     47  C   UNL A   1      38.109  30.783  29.732  1.00  0.00     0.029 A 
ATOM     48  C   UNL A   1      38.404  31.319  31.057  1.00  0.00     0.049 A 
ATOM     49  H   UNL A   1      39.875  30.673  32.384  1.00  0.00     0.167 HD
ATOM     50  C   UNL A   1      43.042  29.253  35.060  1.00  0.00     0.037 A 
ATOM     51  C   UNL A   1      37.756  32.343  31.647  1.00  0.00     0.037 A 
ATOM     52  C   UNL A   1      42.447  30.369  35.746  1.00  0.00     0.049 A 
ATOM     53  C   UNL A   1      38.204  32.808  33.007  1.00  0.00     0.074 A 
ATOM     54  C   UNL A   1      42.785  30.909  36.975  1.00  0.00     0.029 A 
ATOM     55  N   UNL A   1      41.388  31.123  35.259  1.00  0.00    -0.354 N 
ATOM     56  N   UNL A   1      39.171  32.343  33.764  1.00  0.00    -0.248 NA
ATOM     57  C   UNL A   1      37.483  33.949  33.587  1.00  0.00     0.031 C 
ATOM     58  C   UNL A   1      41.908  31.965  37.247  1.00  0.00     0.029 A 
ATOM     59  C   UNL A   1      41.056  32.118  36.164  1.00  0.00     0.049 A 
ATOM     60  H   UNL A   1      40.938  30.973  34.396  1.00  0.00     0.167 HD
ATOM     61  C   UNL A   1      39.202  33.162  34.888  1.00  0.00     0.074 A 
ATOM     62  C   UNL A   1      38.159  34.151  34.710  1.00  0.00     0.031 C 
ATOM     63  C   UNL A   1      40.023  33.104  35.966  1.00  0.00     0.037 A 
BRANCH  50  64
ATOM     64  C   UNL A   1      44.172  28.510  35.722  1.00  0.00     0.058 A 
ATOM     65  C   UNL A   1      43.933  27.447  36.612  1.00  0.00     0.135 A 
ATOM     66  C   UNL A   1      45.508  28.868  35.481  1.00  0.00     0.135 A 
ATOM     67  F   UNL A   1      42.674  27.071  36.891  1.00  0.00    -0.206 F 
ATOM     68  C   UNL A   1      44.970  26.805  37.278  1.00  0.00     0.059 A 
ATOM     69  C   UNL A   1      46.565  28.216  36.112  1.00  0.00     0.059 A 
ATOM     70  F   UNL A   1      45.799  29.870  34.638  1.00  0.00    -0.206 F 
ATOM     71  C   UNL A   1      46.284  27.203  37.028  1.00  0.00     0.060 A 
BRANCH  71  72
ATOM     72  S   UNL A   1      47.618  26.384  37.927  1.00  0.00     0.124 S 
ATOM     73  O   UNL A   1      47.611  27.119  39.189  1.00  0.00    -0.237 OA
ATOM     74  O   UNL A   1      47.149  25.004  37.998  1.00  0.00    -0.237 OA
ATOM     75  O   UNL A   1      48.785  26.604  37.079  1.00  0.00    -0.744 OA
ENDBRANCH  71  72
ENDBRANCH  50  64
BRANCH  51  76
ATOM     76  C   UNL A   1      36.661  33.047  30.926  1.00  0.00     0.058 A 
ATOM     77  C   UNL A   1      35.329  32.923  31.351  1.00  0.00     0.135 A 
ATOM     78  C   UNL A   1      36.917  33.863  29.814  1.00  0.00     0.135 A 
ATOM     79  F   UNL A   1      35.033  32.149  32.406  1.00  0.00    -0.206 F 
ATOM     80  C   UNL A   1      34.289  33.567  30.691  1.00  0.00     0.059 A 
ATOM     81  C   UNL A   1      35.896  34.538  29.152  1.00  0.00     0.059 A 
ATOM     82  F   UNL A   1      38.176  34.028  29.376  1.00  0.00    -0.206 F 
ATOM     83  C   UNL A   1      34.582  34.377  29.593  1.00  0.00     0.060 A 
BRANCH  83  84
ATOM     84  S   UNL A   1      33.230  35.252  28.777  1.00  0.00     0.124 S 
ATOM     85  O   UNL A   1      32.469  35.749  29.919  1.00  0.00    -0.237 OA
ATOM     86  O   UNL A   1      33.942  36.258  27.997  1.00  0.00    -0.237 OA
ATOM     87  O   UNL A   1      32.579  34.207  27.992  1.00  0.00    -0.744 OA
ENDBRANCH  83  84
ENDBRANCH  51  76
BRANCH  63  88
ATOM     88  C   UNL A   1      39.869  34.179  37.008  1.00  0.00     0.058 A 
ATOM     89  C   UNL A   1      40.444  35.450  36.859  1.00  0.00     0.135 A 
ATOM     90  C   UNL A   1      39.114  33.934  38.167  1.00  0.00     0.135 A 
ATOM     91  F   UNL A   1      41.179  35.737  35.772  1.00  0.00    -0.206 F 
ATOM     92  C   UNL A   1      40.311  36.428  37.840  1.00  0.00     0.059 A 
ATOM     93  C   UNL A   1      38.940  34.906  39.146  1.00  0.00     0.059 A 
ATOM     94  F   UNL A   1      38.529  32.740  38.354  1.00  0.00    -0.206 F 
ATOM     95  C   UNL A   1      39.560  36.145  38.982  1.00  0.00     0.060 A 
BRANCH  95  96
ATOM     96  S   UNL A   1      39.390  37.420  40.248  1.00  0.00     0.124 S 
ATOM     97  O   UNL A   1      40.775  37.843  40.426  1.00  0.00    -0.237 OA
ATOM     98  O   UNL A   1      38.509  38.388  39.602  1.00  0.00    -0.237 OA
ATOM     99  O   UNL A   1      38.802  36.704  41.377  1.00  0.00    -0.744 OA
ENDBRANCH  95  96
ENDBRANCH  63  88
ENDBRANCH  37  38
ENDBRANCH  29  32
ENDBRANCH  27  28
ENDBRANCH   1  27
TORSDOF 15
ENDMDL
MODEL 2
REMARK VINA RESULT:     -13.4      6.336     12.136
REMARK SMILES Cc1ccc(-c2cc(C(=O)NCCCCNC(=O)c3ccc(-c4c5nc(c(-c6c(F)cc(S(=O)(=O)[O-])cc6F)c6ccc([nH]6)c(-c6c(F)cc(S(=O)(=O)[O-])cc6F)c6nc(c(-c7c(F)cc(S(=O)(=O)[O-])cc7F)c7ccc4[nH]7)C=C6)C=C5)cc3)c3cc(C)ccc3n2)c(C)c1
REMARK SMILES IDX 14 1 13 2 12 3 11 4 9 5 10 6 8 8 6 9 7 10 92 11 91 12 85 13
REMARK SMILES IDX 90 14 86 15 89 16 87 17 88 18 5 19 1 20 2 21 3 22 95 23 4 24
REMARK SMILES IDX 93 25 94 26 15 27 16 28 17 29 18 31 19 32 20 33 84 34 21 35
REMARK SMILES IDX 83 36 22 37 23 38 24 39 77 40 25 41 82 42 76 43 78 44 26 45
REMARK SMILES IDX 81 46 75 47 74 48 27 50 61 51 40 52 60 53 41 54 44 55 59 56
REMARK SMILES IDX 79 57 42 58 43 59 58 61 80 62 45 63 28 64 29 65 38 66 30 67
REMARK SMILES IDX 31 68 37 69 39 70 32 71 33 72 34 73 35 74 36 75 62 76 63 77
REMARK SMILES IDX 72 78 64 79 65 80 71 81 73 82 66 83 67 84 68 85 69 86 70 87
REMARK SMILES IDX 46 88 47 89 56 90 48 91 49 92 55 93 57 94 50 95 51 96 52 97
REMARK SMILES IDX 53 98 54 99
REMARK H PARENT 11 7 16 30 78 49 44 60
REMARK Flexibility Score: inf
ROOT
ATOM      1  C   UNL A   1      35.273  31.945  28.007  1.00  0.00     0.023 C 
ENDROOT
BRANCH   1   2
ATOM      2  C   UNL A   1      35.037  30.477  27.660  1.00  0.00     0.023 C 
BRANCH   2   3
ATOM      3  C   UNL A   1      33.783  30.151  26.865  1.00  0.00     0.116 C 
BRANCH   3   4
ATOM      4  N   UNL A   1      32.655  29.600  27.596  1.00  0.00    -0.352 N 
ATOM      5  C   UNL A   1      31.905  28.461  27.352  1.00  0.00     0.252 C 
ATOM      6  O   UNL A   1      31.032  28.151  28.163  1.00  0.00    -0.269 OA
ATOM      7  H   UNL A   1      32.380  30.116  28.388  1.00  0.00     0.163 HD
BRANCH   5   8
ATOM      8  C   UNL A   1      32.028  27.655  26.098  1.00  0.00     0.051 A 
ATOM      9  C   UNL A   1      32.779  25.595  25.133  1.00  0.00     0.072 A 
ATOM     10  C   UNL A   1      32.751  26.461  26.213  1.00  0.00     0.043 A 
ATOM     11  N   UNL A   1      32.025  25.803  24.028  1.00  0.00    -0.248 NA
ATOM     12  C   UNL A   1      31.360  26.961  23.905  1.00  0.00     0.072 A 
ATOM     13  C   UNL A   1      31.439  27.987  24.859  1.00  0.00     0.013 A 
ATOM     14  C   UNL A   1      30.546  27.146  22.795  1.00  0.00     0.029 A 
ATOM     15  C   UNL A   1      30.907  29.251  24.525  1.00  0.00     0.014 A 
ATOM     16  C   UNL A   1      29.836  28.333  22.592  1.00  0.00     0.005 A 
ATOM     17  C   UNL A   1      30.034  29.411  23.447  1.00  0.00    -0.050 A 
ATOM     18  C   UNL A   1      29.215  30.663  23.329  1.00  0.00     0.044 C 
BRANCH   9  19
ATOM     19  C   UNL A   1      33.673  24.427  25.072  1.00  0.00     0.003 A 
ATOM     20  C   UNL A   1      36.375  21.036  24.898  1.00  0.00     0.044 C 
ATOM     21  C   UNL A   1      35.447  22.213  24.942  1.00  0.00    -0.051 A 
ATOM     22  C   UNL A   1      35.672  23.347  24.160  1.00  0.00     0.004 A 
ATOM     23  C   UNL A   1      34.332  22.185  25.785  1.00  0.00     0.007 A 
ATOM     24  C   UNL A   1      34.797  24.439  24.225  1.00  0.00     0.011 A 
ATOM     25  C   UNL A   1      33.437  23.270  25.852  1.00  0.00    -0.041 A 
ATOM     26  C   UNL A   1      32.271  23.145  26.800  1.00  0.00     0.045 C 
ENDBRANCH   9  19
ENDBRANCH   5   8
ENDBRANCH   3   4
ENDBRANCH   2   3
ENDBRANCH   1   2
BRANCH   1  27
ATOM     27  C   UNL A   1      36.093  32.258  29.255  1.00  0.00     0.116 C 
BRANCH  27  28
ATOM     28  N   UNL A   1      35.876  31.348  30.372  1.00  0.00    -0.352 N 
ATOM     29  C   UNL A   1      36.697  30.384  30.913  1.00  0.00     0.251 C 
ATOM     30  H   UNL A   1      35.000  31.438  30.812  1.00  0.00     0.163 HD
ATOM     31  O   UNL A   1      36.283  29.703  31.850  1.00  0.00    -0.269 OA
BRANCH  29  32
ATOM     32  C   UNL A   1      38.047  30.128  30.354  1.00  0.00     0.039 A 
ATOM     33  C   UNL A   1      39.110  29.904  31.235  1.00  0.00     0.014 A 
ATOM     34  C   UNL A   1      38.276  30.098  28.978  1.00  0.00     0.014 A 
ATOM     35  C   UNL A   1      40.374  29.570  30.734  1.00  0.00     0.010 A 
ATOM     36  C   UNL A   1      39.505  29.663  28.484  1.00  0.00     0.010 A 
ATOM     37  C   UNL A   1      40.574  29.405  29.354  1.00  0.00    -0.014 A 
BRANCH  37  38
ATOM     38  C   UNL A   1      41.897  28.996  28.807  1.00  0.00     0.031 A 
ATOM     39  C   UNL A   1      43.022  29.995  28.721  1.00  0.00     0.074 A 
ATOM     40  C   UNL A   1      42.081  27.740  28.349  1.00  0.00     0.049 A 
ATOM     41  N   UNL A   1      44.240  29.837  28.265  1.00  0.00    -0.248 NA
ATOM     42  C   UNL A   1      42.732  31.364  29.177  1.00  0.00     0.031 C 
ATOM     43  C   UNL A   1      41.060  26.691  28.321  1.00  0.00     0.029 A 
ATOM     44  N   UNL A   1      43.193  27.131  27.822  1.00  0.00    -0.354 N 
ATOM     45  C   UNL A   1      44.851  31.081  28.373  1.00  0.00     0.074 A 
ATOM     46  C   UNL A   1      43.848  32.001  28.860  1.00  0.00     0.031 C 
ATOM     47  C   UNL A   1      41.606  25.557  27.852  1.00  0.00     0.029 A 
ATOM     48  C   UNL A   1      43.004  25.804  27.515  1.00  0.00     0.049 A 
ATOM     49  H   UNL A   1      44.047  27.600  27.680  1.00  0.00     0.167 HD
ATOM     50  C   UNL A   1      46.139  31.424  28.127  1.00  0.00     0.037 A 
ATOM     51  C   UNL A   1      43.864  24.886  27.031  1.00  0.00     0.037 A 
ATOM     52  C   UNL A   1      47.142  30.503  27.661  1.00  0.00     0.049 A 
ATOM     53  C   UNL A   1      45.292  25.285  26.767  1.00  0.00     0.074 A 
ATOM     54  C   UNL A   1      48.483  30.738  27.411  1.00  0.00     0.029 A 
ATOM     55  N   UNL A   1      46.913  29.164  27.376  1.00  0.00    -0.354 N 
ATOM     56  N   UNL A   1      45.866  26.455  26.927  1.00  0.00    -0.248 NA
ATOM     57  C   UNL A   1      46.192  24.235  26.272  1.00  0.00     0.031 C 
ATOM     58  C   UNL A   1      49.056  29.551  26.941  1.00  0.00     0.029 A 
ATOM     59  C   UNL A   1      48.085  28.562  26.948  1.00  0.00     0.049 A 
ATOM     60  H   UNL A   1      46.045  28.708  27.466  1.00  0.00     0.167 HD
ATOM     61  C   UNL A   1      47.204  26.269  26.594  1.00  0.00     0.074 A 
ATOM     62  C   UNL A   1      47.352  24.876  26.227  1.00  0.00     0.031 C 
ATOM     63  C   UNL A   1      48.219  27.170  26.599  1.00  0.00     0.037 A 
BRANCH  50  64
ATOM     64  C   UNL A   1      46.526  32.859  28.372  1.00  0.00     0.058 A 
ATOM     65  C   UNL A   1      46.988  33.292  29.628  1.00  0.00     0.135 A 
ATOM     66  C   UNL A   1      46.423  33.817  27.352  1.00  0.00     0.135 A 
ATOM     67  F   UNL A   1      47.093  32.423  30.646  1.00  0.00    -0.206 F 
ATOM     68  C   UNL A   1      47.279  34.629  29.877  1.00  0.00     0.059 A 
ATOM     69  C   UNL A   1      46.742  35.156  27.569  1.00  0.00     0.059 A 
ATOM     70  F   UNL A   1      45.994  33.462  26.131  1.00  0.00    -0.206 F 
ATOM     71  C   UNL A   1      47.145  35.555  28.843  1.00  0.00     0.060 A 
BRANCH  71  72
ATOM     72  S   UNL A   1      47.493  37.292  29.191  1.00  0.00     0.124 S 
ATOM     73  O   UNL A   1      46.812  37.473  30.470  1.00  0.00    -0.237 OA
ATOM     74  O   UNL A   1      48.952  37.315  29.244  1.00  0.00    -0.237 OA
ATOM     75  O   UNL A   1      46.898  37.992  28.058  1.00  0.00    -0.744 OA
ENDBRANCH  71  72
ENDBRANCH  50  64
BRANCH  51  76
ATOM     76  C   UNL A   1      43.420  23.479  26.833  1.00  0.00     0.058 A 
ATOM     77  C   UNL A   1      43.226  22.965  25.542  1.00  0.00     0.135 A 
ATOM     78  C   UNL A   1      43.193  22.619  27.918  1.00  0.00     0.135 A 
ATOM     79  F   UNL A   1      43.423  23.751  24.472  1.00  0.00    -0.206 F 
ATOM     80  C   UNL A   1      42.807  21.656  25.331  1.00  0.00     0.059 A 
ATOM     81  C   UNL A   1      42.798  21.297  27.732  1.00  0.00     0.059 A 
ATOM     82  F   UNL A   1      43.381  23.055  29.173  1.00  0.00    -0.206 F 
ATOM     83  C   UNL A   1      42.599  20.827  26.434  1.00  0.00     0.060 A 
BRANCH  83  84
ATOM     84  S   UNL A   1      42.108  19.113  26.147  1.00  0.00     0.124 S 
ATOM     85  O   UNL A   1      42.938  18.757  25.001  1.00  0.00    -0.237 OA
ATOM     86  O   UNL A   1      42.460  18.478  27.412  1.00  0.00    -0.237 OA
ATOM     87  O   UNL A   1      40.676  19.214  25.882  1.00  0.00    -0.744 OA
ENDBRANCH  83  84
ENDBRANCH  51  76
BRANCH  63  88
ATOM     88  C   UNL A   1      49.593  26.661  26.256  1.00  0.00     0.058 A 
ATOM     89  C   UNL A   1      50.410  26.022  27.201  1.00  0.00     0.135 A 
ATOM     90  C   UNL A   1      50.090  26.798  24.949  1.00  0.00     0.135 A 
ATOM     91  F   UNL A   1      49.985  25.866  28.466  1.00  0.00    -0.206 F 
ATOM     92  C   UNL A   1      51.687  25.574  26.876  1.00  0.00     0.059 A 
ATOM     93  C   UNL A   1      51.350  26.330  24.593  1.00  0.00     0.059 A 
ATOM     94  F   UNL A   1      49.346  27.389  24.000  1.00  0.00    -0.206 F 
ATOM     95  C   UNL A   1      52.149  25.737  25.569  1.00  0.00     0.060 A 
BRANCH  95  96
ATOM     96  S   UNL A   1      53.805  25.150  25.155  1.00  0.00     0.124 S 
ATOM     97  O   UNL A   1      54.571  25.593  26.316  1.00  0.00    -0.237 OA
ATOM     98  O   UNL A   1      53.608  23.709  25.038  1.00  0.00    -0.237 OA
ATOM     99  O   UNL A   1      54.107  25.839  23.904  1.00  0.00    -0.744 OA
ENDBRANCH  95  96
ENDBRANCH  63  88
ENDBRANCH  37  38
ENDBRANCH  29  32
ENDBRANCH  27  28
ENDBRANCH   1  27
TORSDOF 15
ENDMDL
MODEL 3
REMARK VINA RESULT:     -13.4      1.470      1.885
REMARK SMILES Cc1ccc(-c2cc(C(=O)NCCCCNC(=O)c3ccc(-c4c5nc(c(-c6c(F)cc(S(=O)(=O)[O-])cc6F)c6ccc([nH]6)c(-c6c(F)cc(S(=O)(=O)[O-])cc6F)c6nc(c(-c7c(F)cc(S(=O)(=O)[O-])cc7F)c7ccc4[nH]7)C=C6)C=C5)cc3)c3cc(C)ccc3n2)c(C)c1
REMARK SMILES IDX 14 1 13 2 12 3 11 4 9 5 10 6 8 8 6 9 7 10 92 11 91 12 85 13
REMARK SMILES IDX 90 14 86 15 89 16 87 17 88 18 5 19 1 20 2 21 3 22 95 23 4 24
REMARK SMILES IDX 93 25 94 26 15 27 16 28 17 29 18 31 19 32 20 33 84 34 21 35
REMARK SMILES IDX 83 36 22 37 23 38 24 39 77 40 25 41 82 42 76 43 78 44 26 45
REMARK SMILES IDX 81 46 75 47 74 48 27 50 61 51 40 52 60 53 41 54 44 55 59 56
REMARK SMILES IDX 79 57 42 58 43 59 58 61 80 62 45 63 28 64 29 65 38 66 30 67
REMARK SMILES IDX 31 68 37 69 39 70 32 71 33 72 34 73 35 74 36 75 62 76 63 77
REMARK SMILES IDX 72 78 64 79 65 80 71 81 73 82 66 83 67 84 68 85 69 86 70 87
REMARK SMILES IDX 46 88 47 89 56 90 48 91 49 92 55 93 57 94 50 95 51 96 52 97
REMARK SMILES IDX 53 98 54 99
REMARK H PARENT 11 7 16 30 78 49 44 60
REMARK Flexibility Score: inf
ROOT
ATOM      1  C   UNL A   1      37.337  23.611  25.376  1.00  0.00     0.023 C 
ENDROOT
BRANCH   1   2
ATOM      2  C   UNL A   1      37.391  22.205  24.783  1.00  0.00     0.023 C 
BRANCH   2   3
ATOM      3  C   UNL A   1      36.392  21.193  25.320  1.00  0.00     0.116 C 
BRANCH   3   4
ATOM      4  N   UNL A   1      35.636  21.565  26.503  1.00  0.00    -0.352 N 
ATOM      5  C   UNL A   1      34.284  21.829  26.650  1.00  0.00     0.252 C 
ATOM      6  O   UNL A   1      33.852  22.056  27.781  1.00  0.00    -0.269 OA
ATOM      7  H   UNL A   1      36.166  21.644  27.329  1.00  0.00     0.163 HD
BRANCH   5   8
ATOM      8  C   UNL A   1      33.346  21.963  25.493  1.00  0.00     0.051 A 
ATOM      9  C   UNL A   1      32.174  23.483  24.058  1.00  0.00     0.072 A 
ATOM     10  C   UNL A   1      32.924  23.267  25.203  1.00  0.00     0.043 A 
ATOM     11  N   UNL A   1      31.956  22.503  23.150  1.00  0.00    -0.248 NA
ATOM     12  C   UNL A   1      32.332  21.249  23.444  1.00  0.00     0.072 A 
ATOM     13  C   UNL A   1      32.913  20.900  24.672  1.00  0.00     0.013 A 
ATOM     14  C   UNL A   1      32.153  20.259  22.487  1.00  0.00     0.029 A 
ATOM     15  C   UNL A   1      33.045  19.529  24.982  1.00  0.00     0.014 A 
ATOM     16  C   UNL A   1      32.506  18.928  22.730  1.00  0.00     0.005 A 
ATOM     17  C   UNL A   1      32.932  18.546  23.996  1.00  0.00    -0.050 A 
ATOM     18  C   UNL A   1      33.421  17.155  24.270  1.00  0.00     0.044 C 
BRANCH   9  19
ATOM     19  C   UNL A   1      31.506  24.762  23.774  1.00  0.00     0.003 A 
ATOM     20  C   UNL A   1      29.528  28.550  23.018  1.00  0.00     0.044 C 
ATOM     21  C   UNL A   1      30.196  27.235  23.286  1.00  0.00    -0.051 A 
ATOM     22  C   UNL A   1      29.680  26.331  24.216  1.00  0.00     0.004 A 
ATOM     23  C   UNL A   1      31.365  26.899  22.596  1.00  0.00     0.007 A 
ATOM     24  C   UNL A   1      30.326  25.113  24.456  1.00  0.00     0.011 A 
ATOM     25  C   UNL A   1      32.020  25.672  22.819  1.00  0.00    -0.041 A 
ATOM     26  C   UNL A   1      33.279  25.409  22.032  1.00  0.00     0.045 C 
ENDBRANCH   9  19
ENDBRANCH   5   8
ENDBRANCH   3   4
ENDBRANCH   2   3
ENDBRANCH   1   2
BRANCH   1  27
ATOM     27  C   UNL A   1      38.307  23.944  26.505  1.00  0.00     0.116 C 
BRANCH  27  28
ATOM     28  N   UNL A   1      39.713  23.939  26.125  1.00  0.00    -0.352 N 
ATOM     29  C   UNL A   1      40.761  24.719  26.561  1.00  0.00     0.251 C 
ATOM     30  H   UNL A   1      39.953  23.270  25.445  1.00  0.00     0.163 HD
ATOM     31  O   UNL A   1      41.875  24.555  26.066  1.00  0.00    -0.269 OA
BRANCH  29  32
ATOM     32  C   UNL A   1      40.555  25.776  27.581  1.00  0.00     0.039 A 
ATOM     33  C   UNL A   1      39.497  25.644  28.485  1.00  0.00     0.014 A 
ATOM     34  C   UNL A   1      41.392  26.889  27.660  1.00  0.00     0.014 A 
ATOM     35  C   UNL A   1      39.334  26.580  29.513  1.00  0.00     0.010 A 
ATOM     36  C   UNL A   1      41.294  27.761  28.744  1.00  0.00     0.010 A 
ATOM     37  C   UNL A   1      40.257  27.625  29.678  1.00  0.00    -0.014 A 
BRANCH  37  38
ATOM     38  C   UNL A   1      40.133  28.598  30.799  1.00  0.00     0.031 A 
ATOM     39  C   UNL A   1      41.021  28.475  32.011  1.00  0.00     0.074 A 
ATOM     40  C   UNL A   1      39.197  29.568  30.751  1.00  0.00     0.049 A 
ATOM     41  N   UNL A   1      41.057  29.213  33.092  1.00  0.00    -0.248 NA
ATOM     42  C   UNL A   1      41.975  27.353  32.025  1.00  0.00     0.031 C 
ATOM     43  C   UNL A   1      38.235  29.765  29.664  1.00  0.00     0.029 A 
ATOM     44  N   UNL A   1      38.902  30.575  31.638  1.00  0.00    -0.354 N 
ATOM     45  C   UNL A   1      42.025  28.641  33.910  1.00  0.00     0.074 A 
ATOM     46  C   UNL A   1      42.494  27.451  33.238  1.00  0.00     0.031 C 
ATOM     47  C   UNL A   1      37.493  30.854  29.925  1.00  0.00     0.029 A 
ATOM     48  C   UNL A   1      37.900  31.414  31.209  1.00  0.00     0.049 A 
ATOM     49  H   UNL A   1      39.366  30.686  32.499  1.00  0.00     0.167 HD
ATOM     50  C   UNL A   1      42.511  29.083  35.096  1.00  0.00     0.037 A 
ATOM     51  C   UNL A   1      37.381  32.520  31.779  1.00  0.00     0.037 A 
ATOM     52  C   UNL A   1      42.057  30.279  35.756  1.00  0.00     0.049 A 
ATOM     53  C   UNL A   1      37.935  32.997  33.095  1.00  0.00     0.074 A 
ATOM     54  C   UNL A   1      42.503  30.835  36.942  1.00  0.00     0.029 A 
ATOM     55  N   UNL A   1      41.051  31.110  35.280  1.00  0.00    -0.354 N 
ATOM     56  N   UNL A   1      38.889  32.473  33.829  1.00  0.00    -0.248 NA
ATOM     57  C   UNL A   1      37.353  34.225  33.652  1.00  0.00     0.031 C 
ATOM     58  C   UNL A   1      41.743  31.981  37.202  1.00  0.00     0.029 A 
ATOM     59  C   UNL A   1      40.858  32.169  36.152  1.00  0.00     0.049 A 
ATOM     60  H   UNL A   1      40.548  30.967  34.446  1.00  0.00     0.167 HD
ATOM     61  C   UNL A   1      39.050  33.332  34.911  1.00  0.00     0.074 A 
ATOM     62  C   UNL A   1      38.098  34.409  34.733  1.00  0.00     0.031 C 
ATOM     63  C   UNL A   1      39.914  33.241  35.954  1.00  0.00     0.037 A 
BRANCH  50  64
ATOM     64  C   UNL A   1      43.597  28.264  35.742  1.00  0.00     0.058 A 
ATOM     65  C   UNL A   1      43.300  27.249  36.670  1.00  0.00     0.135 A 
ATOM     66  C   UNL A   1      44.948  28.499  35.447  1.00  0.00     0.135 A 
ATOM     67  F   UNL A   1      42.024  26.989  37.001  1.00  0.00    -0.206 F 
ATOM     68  C   UNL A   1      44.302  26.538  37.320  1.00  0.00     0.059 A 
ATOM     69  C   UNL A   1      45.968  27.776  36.061  1.00  0.00     0.059 A 
ATOM     70  F   UNL A   1      45.293  29.451  34.566  1.00  0.00    -0.206 F 
ATOM     71  C   UNL A   1      45.635  26.815  37.015  1.00  0.00     0.060 A 
BRANCH  71  72
ATOM     72  S   UNL A   1      46.926  25.909  37.893  1.00  0.00     0.124 S 
ATOM     73  O   UNL A   1      47.796  25.506  36.792  1.00  0.00    -0.237 OA
ATOM     74  O   UNL A   1      47.470  26.926  38.788  1.00  0.00    -0.237 OA
ATOM     75  O   UNL A   1      46.198  24.828  38.548  1.00  0.00    -0.744 OA
ENDBRANCH  71  72
ENDBRANCH  50  64
BRANCH  51  76
ATOM     76  C   UNL A   1      36.323  33.295  31.075  1.00  0.00     0.058 A 
ATOM     77  C   UNL A   1      35.002  33.294  31.546  1.00  0.00     0.135 A 
ATOM     78  C   UNL A   1      36.607  34.057  29.931  1.00  0.00     0.135 A 
ATOM     79  F   UNL A   1      34.679  32.575  32.632  1.00  0.00    -0.206 F 
ATOM     80  C   UNL A   1      33.996  34.007  30.903  1.00  0.00     0.059 A 
ATOM     81  C   UNL A   1      35.623  34.798  29.285  1.00  0.00     0.059 A 
ATOM     82  F   UNL A   1      37.858  34.105  29.448  1.00  0.00    -0.206 F 
ATOM     83  C   UNL A   1      34.316  34.760  29.773  1.00  0.00     0.060 A 
BRANCH  83  84
ATOM     84  S   UNL A   1      33.013  35.724  28.978  1.00  0.00     0.124 S 
ATOM     85  O   UNL A   1      33.778  36.808  28.369  1.00  0.00    -0.237 OA
ATOM     86  O   UNL A   1      32.435  34.754  28.054  1.00  0.00    -0.237 OA
ATOM     87  O   UNL A   1      32.152  36.108  30.092  1.00  0.00    -0.744 OA
ENDBRANCH  83  84
ENDBRANCH  51  76
BRANCH  63  88
ATOM     88  C   UNL A   1      39.912  34.368  36.951  1.00  0.00     0.058 A 
ATOM     89  C   UNL A   1      40.760  35.479  36.823  1.00  0.00     0.135 A 
ATOM     90  C   UNL A   1      39.028  34.343  38.042  1.00  0.00     0.135 A 
ATOM     91  F   UNL A   1      41.627  35.553  35.800  1.00  0.00    -0.206 F 
ATOM     92  C   UNL A   1      40.762  36.505  37.763  1.00  0.00     0.059 A 
ATOM     93  C   UNL A   1      38.990  35.372  38.977  1.00  0.00     0.059 A 
ATOM     94  F   UNL A   1      38.183  33.311  38.206  1.00  0.00    -0.206 F 
ATOM     95  C   UNL A   1      39.875  36.440  38.839  1.00  0.00     0.060 A 
BRANCH  95  96
ATOM     96  S   UNL A   1      39.883  37.776  40.052  1.00  0.00     0.124 S 
ATOM     97  O   UNL A   1      39.676  37.044  41.297  1.00  0.00    -0.237 OA
ATOM     98  O   UNL A   1      41.210  38.357  39.871  1.00  0.00    -0.237 OA
ATOM     99  O   UNL A   1      38.772  38.625  39.631  1.00  0.00    -0.744 OA
ENDBRANCH  95  96
ENDBRANCH  63  88
ENDBRANCH  37  38
ENDBRANCH  29  32
ENDBRANCH  27  28
ENDBRANCH   1  27
TORSDOF 15
ENDMDL
