MODEL 1
REMARK VINA RESULT:     -12.0      0.000      0.000
REMARK SMILES CC1(C)[C@@H](C(=O)NCCc2ccccc2)CC[C@@]1(C)C(=O)NCCCCNC(=O)c1ccc(-c2c3nc(c(-c4c(F)cc(S(=O)(=O)[O-])cc4F)c4ccc([nH]4)c(-c4c(F)cc(S(=O)(=O)[O-])cc4F)c4nc(c(-c5c(F)cc(S(=O)(=O)[O-])cc5F)c5ccc2[nH]5)C=C4)C=C3)cc1
REMARK SMILES IDX 24 1 23 2 22 3 20 4 21 5 18 7 1 8 2 9 3 10 4 11 16 12 17 13
REMARK SMILES IDX 19 14 5 15 6 16 7 17 8 19 9 20 10 21 11 22 15 23 12 24 14 25
REMARK SMILES IDX 13 26 25 27 26 28 27 29 28 30 29 32 30 33 31 34 95 35 32 36
REMARK SMILES IDX 94 37 33 38 34 39 35 40 88 41 36 42 93 43 87 44 89 45 37 46
REMARK SMILES IDX 92 47 86 48 85 49 38 51 72 52 51 53 71 54 52 55 55 56 70 57
REMARK SMILES IDX 90 58 53 59 54 60 69 62 91 63 56 64 39 65 40 66 49 67 41 68
REMARK SMILES IDX 42 69 48 70 50 71 43 72 44 73 45 74 46 75 47 76 73 77 74 78
REMARK SMILES IDX 83 79 75 80 76 81 82 82 84 83 77 84 78 85 79 86 80 87 81 88
REMARK SMILES IDX 57 89 58 90 67 91 59 92 60 93 66 94 68 95 61 96 62 97 63 98
REMARK SMILES IDX 64 99 65 100
REMARK H PARENT 22 6 7 18 27 31 89 50 55 61
REMARK Flexibility Score: inf
ROOT
ATOM      1  C   UNL A   1      33.286  30.555  27.006  1.00  0.00     0.023 C 
ENDROOT
BRANCH   1   2
ATOM      2  C   UNL A   1      32.064  29.776  26.530  1.00  0.00     0.116 C 
BRANCH   2   3
ATOM      3  N   UNL A   1      31.830  29.864  25.099  1.00  0.00    -0.356 N 
ATOM      4  C   UNL A   1      31.634  28.845  24.217  1.00  0.00     0.226 C 
ATOM      5  O   UNL A   1      30.627  28.981  23.506  1.00  0.00    -0.274 OA
ATOM      6  H   UNL A   1      31.808  30.772  24.720  1.00  0.00     0.163 HD
BRANCH   4   7
ATOM      7  C   UNL A   1      32.668  27.713  23.873  1.00  0.00     0.052 C 
ATOM      8  C   UNL A   1      32.919  26.494  26.197  1.00  0.00     0.013 C 
ATOM      9  C   UNL A   1      32.773  26.369  24.671  1.00  0.00    -0.010 C 
ATOM     10  C   UNL A   1      34.084  25.583  24.277  1.00  0.00     0.013 C 
ATOM     11  C   UNL A   1      31.575  25.536  24.088  1.00  0.00     0.085 C 
ATOM     12  C   UNL A   1      31.649  25.811  22.585  1.00  0.00     0.015 C 
ATOM     13  C   UNL A   1      32.351  27.176  22.430  1.00  0.00     0.018 C 
ATOM     14  C   UNL A   1      34.007  28.491  23.827  1.00  0.00     0.022 C 
BRANCH  11  15
ATOM     15  C   UNL A   1      30.163  25.584  24.709  1.00  0.00     0.223 C 
ATOM     16  O   UNL A   1      29.286  26.229  24.119  1.00  0.00    -0.275 OA
ATOM     17  N   UNL A   1      29.765  24.973  25.858  1.00  0.00    -0.356 N 
ATOM     18  H   UNL A   1      28.911  25.318  26.205  1.00  0.00     0.163 HD
BRANCH  17  19
ATOM     19  C   UNL A   1      30.336  23.915  26.684  1.00  0.00     0.120 C 
BRANCH  19  20
ATOM     20  C   UNL A   1      30.799  22.673  25.913  1.00  0.00     0.056 C 
BRANCH  20  21
ATOM     21  C   UNL A   1      32.291  22.445  25.785  1.00  0.00    -0.046 A 
ATOM     22  C   UNL A   1      33.124  22.825  26.848  1.00  0.00     0.004 A 
ATOM     23  C   UNL A   1      32.894  21.999  24.598  1.00  0.00     0.004 A 
ATOM     24  C   UNL A   1      34.514  22.726  26.744  1.00  0.00     0.000 A 
ATOM     25  C   UNL A   1      34.285  21.885  24.499  1.00  0.00     0.000 A 
ATOM     26  C   UNL A   1      35.093  22.247  25.573  1.00  0.00     0.000 A 
ENDBRANCH  20  21
ENDBRANCH  19  20
ENDBRANCH  17  19
ENDBRANCH  11  15
ENDBRANCH   4   7
ENDBRANCH   2   3
ENDBRANCH   1   2
BRANCH   1  27
ATOM     27  C   UNL A   1      34.515  29.701  27.301  1.00  0.00     0.023 C 
BRANCH  27  28
ATOM     28  C   UNL A   1      35.627  30.377  28.101  1.00  0.00     0.116 C 
BRANCH  28  29
ATOM     29  N   UNL A   1      35.515  30.234  29.544  1.00  0.00    -0.352 N 
ATOM     30  C   UNL A   1      36.515  29.996  30.465  1.00  0.00     0.251 C 
ATOM     31  H   UNL A   1      34.605  30.317  29.912  1.00  0.00     0.163 HD
ATOM     32  O   UNL A   1      36.246  29.831  31.644  1.00  0.00    -0.269 OA
BRANCH  30  33
ATOM     33  C   UNL A   1      37.919  29.891  29.998  1.00  0.00     0.039 A 
ATOM     34  C   UNL A   1      38.911  29.566  30.925  1.00  0.00     0.014 A 
ATOM     35  C   UNL A   1      38.244  30.055  28.649  1.00  0.00     0.014 A 
ATOM     36  C   UNL A   1      40.213  29.318  30.483  1.00  0.00     0.010 A 
ATOM     37  C   UNL A   1      39.519  29.721  28.200  1.00  0.00     0.010 A 
ATOM     38  C   UNL A   1      40.518  29.344  29.110  1.00  0.00    -0.014 A 
BRANCH  38  39
ATOM     39  C   UNL A   1      41.868  28.957  28.625  1.00  0.00     0.031 A 
ATOM     40  C   UNL A   1      42.976  29.974  28.552  1.00  0.00     0.074 A 
ATOM     41  C   UNL A   1      42.082  27.696  28.199  1.00  0.00     0.049 A 
ATOM     42  N   UNL A   1      44.218  29.813  28.170  1.00  0.00    -0.248 NA
ATOM     43  C   UNL A   1      42.639  31.357  28.923  1.00  0.00     0.031 C 
ATOM     44  C   UNL A   1      41.067  26.640  28.132  1.00  0.00     0.029 A 
ATOM     45  N   UNL A   1      43.223  27.083  27.744  1.00  0.00    -0.354 N 
ATOM     46  C   UNL A   1      44.805  31.071  28.246  1.00  0.00     0.074 A 
ATOM     47  C   UNL A   1      43.766  31.995  28.648  1.00  0.00     0.031 C 
ATOM     48  C   UNL A   1      41.640  25.504  27.705  1.00  0.00     0.029 A 
ATOM     49  C   UNL A   1      43.055  25.751  27.448  1.00  0.00     0.049 A 
ATOM     50  H   UNL A   1      44.081  27.553  27.640  1.00  0.00     0.167 HD
ATOM     51  C   UNL A   1      46.096  31.420  28.033  1.00  0.00     0.037 A 
ATOM     52  C   UNL A   1      43.944  24.827  27.033  1.00  0.00     0.037 A 
ATOM     53  C   UNL A   1      47.133  30.492  27.665  1.00  0.00     0.049 A 
ATOM     54  C   UNL A   1      45.384  25.226  26.863  1.00  0.00     0.074 A 
ATOM     55  C   UNL A   1      48.485  30.731  27.490  1.00  0.00     0.029 A 
ATOM     56  N   UNL A   1      46.933  29.140  27.419  1.00  0.00    -0.354 N 
ATOM     57  N   UNL A   1      45.938  26.405  27.020  1.00  0.00    -0.248 NA
ATOM     58  C   UNL A   1      46.324  24.163  26.481  1.00  0.00     0.031 C 
ATOM     59  C   UNL A   1      49.098  29.531  27.110  1.00  0.00     0.029 A 
ATOM     60  C   UNL A   1      48.134  28.536  27.085  1.00  0.00     0.049 A 
ATOM     61  H   UNL A   1      46.065  28.679  27.473  1.00  0.00     0.167 HD
ATOM     62  C   UNL A   1      47.295  26.222  26.775  1.00  0.00     0.074 A 
ATOM     63  C   UNL A   1      47.478  24.814  26.481  1.00  0.00     0.031 C 
ATOM     64  C   UNL A   1      48.298  27.135  26.789  1.00  0.00     0.037 A 
BRANCH  51  65
ATOM     65  C   UNL A   1      46.459  32.870  28.212  1.00  0.00     0.058 A 
ATOM     66  C   UNL A   1      46.353  33.789  27.154  1.00  0.00     0.135 A 
ATOM     67  C   UNL A   1      46.899  33.352  29.455  1.00  0.00     0.135 A 
ATOM     68  F   UNL A   1      45.952  33.380  25.941  1.00  0.00    -0.206 F 
ATOM     69  C   UNL A   1      46.706  35.125  27.313  1.00  0.00     0.059 A 
ATOM     70  C   UNL A   1      47.231  34.690  29.643  1.00  0.00     0.059 A 
ATOM     71  F   UNL A   1      47.019  32.517  30.499  1.00  0.00    -0.206 F 
ATOM     72  C   UNL A   1      47.148  35.566  28.561  1.00  0.00     0.060 A 
BRANCH  72  73
ATOM     73  S   UNL A   1      47.606  37.302  28.751  1.00  0.00     0.124 S 
ATOM     74  O   UNL A   1      49.061  37.211  28.823  1.00  0.00    -0.237 OA
ATOM     75  O   UNL A   1      47.068  37.903  27.534  1.00  0.00    -0.237 OA
ATOM     76  O   UNL A   1      46.939  37.695  29.988  1.00  0.00    -0.744 OA
ENDBRANCH  72  73
ENDBRANCH  51  65
BRANCH  52  77
ATOM     77  C   UNL A   1      43.507  23.425  26.806  1.00  0.00     0.058 A 
ATOM     78  C   UNL A   1      43.378  22.912  25.507  1.00  0.00     0.135 A 
ATOM     79  C   UNL A   1      43.225  22.566  27.878  1.00  0.00     0.135 A 
ATOM     80  F   UNL A   1      43.633  23.698  24.449  1.00  0.00    -0.206 F 
ATOM     81  C   UNL A   1      42.968  21.604  25.275  1.00  0.00     0.059 A 
ATOM     82  C   UNL A   1      42.835  21.245  27.674  1.00  0.00     0.059 A 
ATOM     83  F   UNL A   1      43.352  23.002  29.142  1.00  0.00    -0.206 F 
ATOM     84  C   UNL A   1      42.699  20.776  26.367  1.00  0.00     0.060 A 
BRANCH  84  85
ATOM     85  S   UNL A   1      42.219  19.062  26.059  1.00  0.00     0.124 S 
ATOM     86  O   UNL A   1      43.071  18.717  24.928  1.00  0.00    -0.237 OA
ATOM     87  O   UNL A   1      42.546  18.418  27.327  1.00  0.00    -0.237 OA
ATOM     88  O   UNL A   1      40.792  19.164  25.768  1.00  0.00    -0.744 OA
ENDBRANCH  84  85
ENDBRANCH  52  77
BRANCH  64  89
ATOM     89  C   UNL A   1      49.683  26.628  26.499  1.00  0.00     0.058 A 
ATOM     90  C   UNL A   1      50.176  26.545  25.188  1.00  0.00     0.135 A 
ATOM     91  C   UNL A   1      50.525  26.221  27.546  1.00  0.00     0.135 A 
ATOM     92  F   UNL A   1      49.409  26.920  24.152  1.00  0.00    -0.206 F 
ATOM     93  C   UNL A   1      51.441  26.033  24.920  1.00  0.00     0.059 A 
ATOM     94  C   UNL A   1      51.803  25.730  27.303  1.00  0.00     0.059 A 
ATOM     95  F   UNL A   1      50.107  26.293  28.819  1.00  0.00    -0.206 F 
ATOM     96  C   UNL A   1      52.245  25.619  25.984  1.00  0.00     0.060 A 
BRANCH  96  97
ATOM     97  S   UNL A   1      53.879  24.941  25.628  1.00  0.00     0.124 S 
ATOM     98  O   UNL A   1      53.558  23.552  25.319  1.00  0.00    -0.237 OA
ATOM     99  O   UNL A   1      54.320  25.756  24.500  1.00  0.00    -0.237 OA
ATOM    100  O   UNL A   1      54.612  25.155  26.873  1.00  0.00    -0.744 OA
ENDBRANCH  96  97
ENDBRANCH  64  89
ENDBRANCH  38  39
ENDBRANCH  30  33
ENDBRANCH  28  29
ENDBRANCH  27  28
ENDBRANCH   1  27
TORSDOF 18
ENDMDL
MODEL 2
REMARK VINA RESULT:     -11.9      0.842      1.923
REMARK SMILES CC1(C)[C@@H](C(=O)NCCc2ccccc2)CC[C@@]1(C)C(=O)NCCCCNC(=O)c1ccc(-c2c3nc(c(-c4c(F)cc(S(=O)(=O)[O-])cc4F)c4ccc([nH]4)c(-c4c(F)cc(S(=O)(=O)[O-])cc4F)c4nc(c(-c5c(F)cc(S(=O)(=O)[O-])cc5F)c5ccc2[nH]5)C=C4)C=C3)cc1
REMARK SMILES IDX 24 1 23 2 22 3 20 4 21 5 18 7 1 8 2 9 3 10 4 11 16 12 17 13
REMARK SMILES IDX 19 14 5 15 6 16 7 17 8 19 9 20 10 21 11 22 15 23 12 24 14 25
REMARK SMILES IDX 13 26 25 27 26 28 27 29 28 30 29 32 30 33 31 34 95 35 32 36
REMARK SMILES IDX 94 37 33 38 34 39 35 40 88 41 36 42 93 43 87 44 89 45 37 46
REMARK SMILES IDX 92 47 86 48 85 49 38 51 72 52 51 53 71 54 52 55 55 56 70 57
REMARK SMILES IDX 90 58 53 59 54 60 69 62 91 63 56 64 39 65 40 66 49 67 41 68
REMARK SMILES IDX 42 69 48 70 50 71 43 72 44 73 45 74 46 75 47 76 73 77 74 78
REMARK SMILES IDX 83 79 75 80 76 81 82 82 84 83 77 84 78 85 79 86 80 87 81 88
REMARK SMILES IDX 57 89 58 90 67 91 59 92 60 93 66 94 68 95 61 96 62 97 63 98
REMARK SMILES IDX 64 99 65 100
REMARK H PARENT 22 6 7 18 27 31 89 50 55 61
REMARK Flexibility Score: inf
ROOT
ATOM      1  C   UNL A   1      34.926  29.411  27.670  1.00  0.00     0.023 C 
ENDROOT
BRANCH   1   2
ATOM      2  C   UNL A   1      34.475  28.852  26.325  1.00  0.00     0.116 C 
BRANCH   2   3
ATOM      3  N   UNL A   1      33.476  29.665  25.653  1.00  0.00    -0.356 N 
ATOM      4  C   UNL A   1      32.304  29.259  25.090  1.00  0.00     0.226 C 
ATOM      5  O   UNL A   1      31.315  29.908  25.462  1.00  0.00    -0.274 OA
ATOM      6  H   UNL A   1      33.669  30.629  25.599  1.00  0.00     0.163 HD
BRANCH   4   7
ATOM      7  C   UNL A   1      32.159  28.266  23.881  1.00  0.00     0.052 C 
ATOM      8  C   UNL A   1      33.915  26.402  24.506  1.00  0.00     0.013 C 
ATOM      9  C   UNL A   1      32.516  26.743  23.968  1.00  0.00    -0.010 C 
ATOM     10  C   UNL A   1      32.546  26.091  22.531  1.00  0.00     0.013 C 
ATOM     11  C   UNL A   1      31.257  26.143  24.692  1.00  0.00     0.085 C 
ATOM     12  C   UNL A   1      30.084  26.855  24.015  1.00  0.00     0.015 C 
ATOM     13  C   UNL A   1      30.640  28.192  23.483  1.00  0.00     0.018 C 
ATOM     14  C   UNL A   1      32.929  29.000  22.755  1.00  0.00     0.022 C 
BRANCH  11  15
ATOM     15  C   UNL A   1      31.172  26.025  26.228  1.00  0.00     0.223 C 
ATOM     16  O   UNL A   1      30.786  27.010  26.871  1.00  0.00    -0.275 OA
ATOM     17  N   UNL A   1      31.475  24.926  26.972  1.00  0.00    -0.356 N 
ATOM     18  H   UNL A   1      31.589  25.125  27.930  1.00  0.00     0.163 HD
BRANCH  17  19
ATOM     19  C   UNL A   1      31.668  23.516  26.650  1.00  0.00     0.120 C 
BRANCH  19  20
ATOM     20  C   UNL A   1      33.098  22.998  26.848  1.00  0.00     0.056 C 
BRANCH  20  21
ATOM     21  C   UNL A   1      34.012  22.992  25.640  1.00  0.00    -0.046 A 
ATOM     22  C   UNL A   1      35.366  23.316  25.819  1.00  0.00     0.004 A 
ATOM     23  C   UNL A   1      33.543  22.813  24.330  1.00  0.00     0.004 A 
ATOM     24  C   UNL A   1      36.231  23.420  24.727  1.00  0.00     0.000 A 
ATOM     25  C   UNL A   1      34.412  22.901  23.238  1.00  0.00     0.000 A 
ATOM     26  C   UNL A   1      35.756  23.203  23.437  1.00  0.00     0.000 A 
ENDBRANCH  20  21
ENDBRANCH  19  20
ENDBRANCH  17  19
ENDBRANCH  11  15
ENDBRANCH   4   7
ENDBRANCH   2   3
ENDBRANCH   1   2
BRANCH   1  27
ATOM     27  C   UNL A   1      34.957  30.934  27.753  1.00  0.00     0.023 C 
BRANCH  27  28
ATOM     28  C   UNL A   1      35.831  31.530  28.854  1.00  0.00     0.116 C 
BRANCH  28  29
ATOM     29  N   UNL A   1      35.695  30.891  30.154  1.00  0.00    -0.352 N 
ATOM     30  C   UNL A   1      36.649  30.207  30.880  1.00  0.00     0.251 C 
ATOM     31  H   UNL A   1      34.805  30.955  30.571  1.00  0.00     0.163 HD
ATOM     32  O   UNL A   1      36.356  29.664  31.933  1.00  0.00    -0.269 OA
BRANCH  30  33
ATOM     33  C   UNL A   1      38.026  30.092  30.339  1.00  0.00     0.039 A 
ATOM     34  C   UNL A   1      39.083  29.899  31.231  1.00  0.00     0.014 A 
ATOM     35  C   UNL A   1      38.264  30.119  28.962  1.00  0.00     0.014 A 
ATOM     36  C   UNL A   1      40.364  29.642  30.736  1.00  0.00     0.010 A 
ATOM     37  C   UNL A   1      39.521  29.776  28.472  1.00  0.00     0.010 A 
ATOM     38  C   UNL A   1      40.585  29.529  29.352  1.00  0.00    -0.014 A 
BRANCH  38  39
ATOM     39  C   UNL A   1      41.917  29.131  28.826  1.00  0.00     0.031 A 
ATOM     40  C   UNL A   1      43.037  30.133  28.740  1.00  0.00     0.074 A 
ATOM     41  C   UNL A   1      42.102  27.874  28.376  1.00  0.00     0.049 A 
ATOM     42  N   UNL A   1      44.266  29.962  28.325  1.00  0.00    -0.248 NA
ATOM     43  C   UNL A   1      42.729  31.515  29.142  1.00  0.00     0.031 C 
ATOM     44  C   UNL A   1      41.071  26.834  28.319  1.00  0.00     0.029 A 
ATOM     45  N   UNL A   1      43.222  27.253  27.882  1.00  0.00    -0.354 N 
ATOM     46  C   UNL A   1      44.872  31.210  28.405  1.00  0.00     0.074 A 
ATOM     47  C   UNL A   1      43.858  32.142  28.848  1.00  0.00     0.031 C 
ATOM     48  C   UNL A   1      41.617  25.696  27.859  1.00  0.00     0.029 A 
ATOM     49  C   UNL A   1      43.028  25.928  27.570  1.00  0.00     0.049 A 
ATOM     50  H   UNL A   1      44.084  27.713  27.764  1.00  0.00     0.167 HD
ATOM     51  C   UNL A   1      46.163  31.545  28.164  1.00  0.00     0.037 A 
ATOM     52  C   UNL A   1      43.893  24.999  27.118  1.00  0.00     0.037 A 
ATOM     53  C   UNL A   1      47.177  30.608  27.756  1.00  0.00     0.049 A 
ATOM     54  C   UNL A   1      45.334  25.380  26.918  1.00  0.00     0.074 A 
ATOM     55  C   UNL A   1      48.527  30.832  27.550  1.00  0.00     0.029 A 
ATOM     56  N   UNL A   1      46.952  29.264  27.494  1.00  0.00    -0.354 N 
ATOM     57  N   UNL A   1      45.908  26.549  27.079  1.00  0.00    -0.248 NA
ATOM     58  C   UNL A   1      46.248  24.310  26.495  1.00  0.00     0.031 C 
ATOM     59  C   UNL A   1      49.113  29.630  27.135  1.00  0.00     0.029 A 
ATOM     60  C   UNL A   1      48.135  28.648  27.120  1.00  0.00     0.049 A 
ATOM     61  H   UNL A   1      46.079  28.814  27.563  1.00  0.00     0.167 HD
ATOM     62  C   UNL A   1      47.256  26.351  26.795  1.00  0.00     0.074 A 
ATOM     63  C   UNL A   1      47.412  24.946  26.476  1.00  0.00     0.031 C 
ATOM     64  C   UNL A   1      48.271  27.250  26.799  1.00  0.00     0.037 A 
BRANCH  51  65
ATOM     65  C   UNL A   1      46.550  32.986  28.356  1.00  0.00     0.058 A 
ATOM     66  C   UNL A   1      47.014  33.463  29.595  1.00  0.00     0.135 A 
ATOM     67  C   UNL A   1      46.476  33.898  27.292  1.00  0.00     0.135 A 
ATOM     68  F   UNL A   1      47.090  32.639  30.651  1.00  0.00    -0.206 F 
ATOM     69  C   UNL A   1      47.354  34.799  29.779  1.00  0.00     0.059 A 
ATOM     70  C   UNL A   1      46.838  35.233  27.446  1.00  0.00     0.059 A 
ATOM     71  F   UNL A   1      46.040  33.496  26.087  1.00  0.00    -0.206 F 
ATOM     72  C   UNL A   1      47.260  35.678  28.699  1.00  0.00     0.060 A 
BRANCH  72  73
ATOM     73  S   UNL A   1      47.701  37.410  28.955  1.00  0.00     0.124 S 
ATOM     74  O   UNL A   1      46.697  38.088  28.141  1.00  0.00    -0.237 OA
ATOM     75  O   UNL A   1      47.554  37.561  30.399  1.00  0.00    -0.237 OA
ATOM     76  O   UNL A   1      49.071  37.488  28.456  1.00  0.00    -0.744 OA
ENDBRANCH  72  73
ENDBRANCH  51  65
BRANCH  52  77
ATOM     77  C   UNL A   1      43.431  23.606  26.881  1.00  0.00     0.058 A 
ATOM     78  C   UNL A   1      43.201  22.731  27.953  1.00  0.00     0.135 A 
ATOM     79  C   UNL A   1      43.196  23.126  25.584  1.00  0.00     0.135 A 
ATOM     80  F   UNL A   1      43.416  23.144  29.212  1.00  0.00    -0.206 F 
ATOM     81  C   UNL A   1      42.773  21.424  27.750  1.00  0.00     0.059 A 
ATOM     82  C   UNL A   1      42.744  21.829  25.356  1.00  0.00     0.059 A 
ATOM     83  F   UNL A   1      43.382  23.929  24.525  1.00  0.00    -0.206 F 
ATOM     84  C   UNL A   1      42.545  20.982  26.446  1.00  0.00     0.060 A 
BRANCH  84  85
ATOM     85  S   UNL A   1      41.937  19.300  26.193  1.00  0.00     0.124 S 
ATOM     86  O   UNL A   1      42.734  18.868  25.051  1.00  0.00    -0.237 OA
ATOM     87  O   UNL A   1      42.252  18.664  27.469  1.00  0.00    -0.237 OA
ATOM     88  O   UNL A   1      40.514  19.496  25.934  1.00  0.00    -0.744 OA
ENDBRANCH  84  85
ENDBRANCH  52  77
BRANCH  64  89
ATOM     89  C   UNL A   1      49.641  26.729  26.465  1.00  0.00     0.058 A 
ATOM     90  C   UNL A   1      50.461  26.138  27.439  1.00  0.00     0.135 A 
ATOM     91  C   UNL A   1      50.137  26.820  25.155  1.00  0.00     0.135 A 
ATOM     92  F   UNL A   1      50.034  26.029  28.707  1.00  0.00    -0.206 F 
ATOM     93  C   UNL A   1      51.745  25.698  27.137  1.00  0.00     0.059 A 
ATOM     94  C   UNL A   1      51.409  26.362  24.825  1.00  0.00     0.059 A 
ATOM     95  F   UNL A   1      49.388  27.363  24.184  1.00  0.00    -0.206 F 
ATOM     96  C   UNL A   1      52.214  25.823  25.827  1.00  0.00     0.060 A 
BRANCH  96  97
ATOM     97  S   UNL A   1      53.887  25.263  25.446  1.00  0.00     0.124 S 
ATOM     98  O   UNL A   1      54.477  25.178  26.778  1.00  0.00    -0.237 OA
ATOM     99  O   UNL A   1      53.649  23.989  24.775  1.00  0.00    -0.237 OA
ATOM    100  O   UNL A   1      54.412  26.326  24.593  1.00  0.00    -0.744 OA
ENDBRANCH  96  97
ENDBRANCH  64  89
ENDBRANCH  38  39
ENDBRANCH  30  33
ENDBRANCH  28  29
ENDBRANCH  27  28
ENDBRANCH   1  27
TORSDOF 18
ENDMDL
MODEL 3
REMARK VINA RESULT:     -11.8      2.421      8.814
REMARK SMILES CC1(C)[C@@H](C(=O)NCCc2ccccc2)CC[C@@]1(C)C(=O)NCCCCNC(=O)c1ccc(-c2c3nc(c(-c4c(F)cc(S(=O)(=O)[O-])cc4F)c4ccc([nH]4)c(-c4c(F)cc(S(=O)(=O)[O-])cc4F)c4nc(c(-c5c(F)cc(S(=O)(=O)[O-])cc5F)c5ccc2[nH]5)C=C4)C=C3)cc1
REMARK SMILES IDX 24 1 23 2 22 3 20 4 21 5 18 7 1 8 2 9 3 10 4 11 16 12 17 13
REMARK SMILES IDX 19 14 5 15 6 16 7 17 8 19 9 20 10 21 11 22 15 23 12 24 14 25
REMARK SMILES IDX 13 26 25 27 26 28 27 29 28 30 29 32 30 33 31 34 95 35 32 36
REMARK SMILES IDX 94 37 33 38 34 39 35 40 88 41 36 42 93 43 87 44 89 45 37 46
REMARK SMILES IDX 92 47 86 48 85 49 38 51 72 52 51 53 71 54 52 55 55 56 70 57
REMARK SMILES IDX 90 58 53 59 54 60 69 62 91 63 56 64 39 65 40 66 49 67 41 68
REMARK SMILES IDX 42 69 48 70 50 71 43 72 44 73 45 74 46 75 47 76 73 77 74 78
REMARK SMILES IDX 83 79 75 80 76 81 82 82 84 83 77 84 78 85 79 86 80 87 81 88
REMARK SMILES IDX 57 89 58 90 67 91 59 92 60 93 66 94 68 95 61 96 62 97 63 98
REMARK SMILES IDX 64 99 65 100
REMARK H PARENT 22 6 7 18 27 31 89 50 55 61
REMARK Flexibility Score: inf
ROOT
ATOM      1  C   UNL A   1      36.605  21.422  25.746  1.00  0.00     0.023 C 
ENDROOT
BRANCH   1   2
ATOM      2  C   UNL A   1      35.437  21.138  24.808  1.00  0.00     0.116 C 
BRANCH   2   3
ATOM      3  N   UNL A   1      34.238  20.671  25.483  1.00  0.00    -0.356 N 
ATOM      4  C   UNL A   1      32.997  21.233  25.472  1.00  0.00     0.226 C 
ATOM      5  O   UNL A   1      32.089  20.439  25.185  1.00  0.00    -0.274 OA
ATOM      6  H   UNL A   1      34.334  19.847  26.013  1.00  0.00     0.163 HD
BRANCH   4   7
ATOM      7  C   UNL A   1      32.625  22.657  26.019  1.00  0.00     0.052 C 
ATOM      8  C   UNL A   1      34.506  24.153  24.936  1.00  0.00     0.013 C 
ATOM      9  C   UNL A   1      33.021  23.990  25.295  1.00  0.00    -0.010 C 
ATOM     10  C   UNL A   1      32.768  25.234  26.233  1.00  0.00     0.013 C 
ATOM     11  C   UNL A   1      31.948  24.082  24.151  1.00  0.00     0.085 C 
ATOM     12  C   UNL A   1      30.649  23.674  24.847  1.00  0.00     0.015 C 
ATOM     13  C   UNL A   1      31.059  22.785  26.040  1.00  0.00     0.018 C 
ATOM     14  C   UNL A   1      33.135  22.594  27.481  1.00  0.00     0.022 C 
BRANCH  11  15
ATOM     15  C   UNL A   1      32.181  23.467  22.755  1.00  0.00     0.223 C 
ATOM     16  O   UNL A   1      32.031  22.245  22.621  1.00  0.00    -0.275 OA
ATOM     17  N   UNL A   1      32.537  24.138  21.626  1.00  0.00    -0.356 N 
ATOM     18  H   UNL A   1      32.868  23.548  20.911  1.00  0.00     0.163 HD
BRANCH  17  19
ATOM     19  C   UNL A   1      32.529  25.548  21.250  1.00  0.00     0.120 C 
BRANCH  19  20
ATOM     20  C   UNL A   1      33.521  26.427  22.022  1.00  0.00     0.056 C 
BRANCH  20  21
ATOM     21  C   UNL A   1      32.955  27.374  23.059  1.00  0.00    -0.046 A 
ATOM     22  C   UNL A   1      33.838  27.997  23.955  1.00  0.00     0.004 A 
ATOM     23  C   UNL A   1      31.577  27.553  23.257  1.00  0.00     0.004 A 
ATOM     24  C   UNL A   1      33.361  28.804  24.991  1.00  0.00     0.000 A 
ATOM     25  C   UNL A   1      31.100  28.373  24.284  1.00  0.00     0.000 A 
ATOM     26  C   UNL A   1      31.992  28.999  25.150  1.00  0.00     0.000 A 
ENDBRANCH  20  21
ENDBRANCH  19  20
ENDBRANCH  17  19
ENDBRANCH  11  15
ENDBRANCH   4   7
ENDBRANCH   2   3
ENDBRANCH   1   2
BRANCH   1  27
ATOM     27  C   UNL A   1      37.985  21.179  25.144  1.00  0.00     0.023 C 
BRANCH  27  28
ATOM     28  C   UNL A   1      39.155  21.169  26.125  1.00  0.00     0.116 C 
BRANCH  28  29
ATOM     29  N   UNL A   1      40.019  20.002  26.033  1.00  0.00    -0.352 N 
ATOM     30  C   UNL A   1      41.393  19.938  26.148  1.00  0.00     0.251 C 
ATOM     31  H   UNL A   1      39.563  19.145  25.866  1.00  0.00     0.163 HD
ATOM     32  O   UNL A   1      41.981  18.883  25.975  1.00  0.00    -0.269 OA
BRANCH  30  33
ATOM     33  C   UNL A   1      42.154  21.179  26.432  1.00  0.00     0.039 A 
ATOM     34  C   UNL A   1      42.485  22.022  25.370  1.00  0.00     0.014 A 
ATOM     35  C   UNL A   1      42.488  21.535  27.742  1.00  0.00     0.014 A 
ATOM     36  C   UNL A   1      43.071  23.263  25.631  1.00  0.00     0.010 A 
ATOM     37  C   UNL A   1      42.989  22.807  28.005  1.00  0.00     0.010 A 
ATOM     38  C   UNL A   1      43.282  23.688  26.954  1.00  0.00    -0.014 A 
BRANCH  38  39
ATOM     39  C   UNL A   1      43.786  25.056  27.241  1.00  0.00     0.031 A 
ATOM     40  C   UNL A   1      45.234  25.402  27.018  1.00  0.00     0.074 A 
ATOM     41  C   UNL A   1      42.946  25.977  27.754  1.00  0.00     0.049 A 
ATOM     42  N   UNL A   1      45.846  26.545  27.197  1.00  0.00    -0.248 NA
ATOM     43  C   UNL A   1      46.118  24.316  26.566  1.00  0.00     0.031 C 
ATOM     44  C   UNL A   1      41.541  25.742  28.102  1.00  0.00     0.029 A 
ATOM     45  N   UNL A   1      43.145  27.298  28.070  1.00  0.00    -0.354 N 
ATOM     46  C   UNL A   1      47.182  26.313  26.891  1.00  0.00     0.074 A 
ATOM     47  C   UNL A   1      47.303  24.906  26.577  1.00  0.00     0.031 C 
ATOM     48  C   UNL A   1      40.998  26.888  28.543  1.00  0.00     0.029 A 
ATOM     49  C   UNL A   1      42.016  27.934  28.528  1.00  0.00     0.049 A 
ATOM     50  H   UNL A   1      44.015  27.748  27.976  1.00  0.00     0.167 HD
ATOM     51  C   UNL A   1      48.208  27.197  26.844  1.00  0.00     0.037 A 
ATOM     52  C   UNL A   1      41.816  29.219  28.880  1.00  0.00     0.037 A 
ATOM     53  C   UNL A   1      48.077  28.603  27.125  1.00  0.00     0.049 A 
ATOM     54  C   UNL A   1      42.955  30.194  28.760  1.00  0.00     0.074 A 
ATOM     55  C   UNL A   1      49.038  29.594  27.041  1.00  0.00     0.029 A 
ATOM     56  N   UNL A   1      46.905  29.219  27.542  1.00  0.00    -0.354 N 
ATOM     57  N   UNL A   1      44.194  29.973  28.388  1.00  0.00    -0.248 NA
ATOM     58  C   UNL A   1      42.663  31.596  29.086  1.00  0.00     0.031 C 
ATOM     59  C   UNL A   1      48.457  30.805  27.435  1.00  0.00     0.029 A 
ATOM     60  C   UNL A   1      47.122  30.574  27.728  1.00  0.00     0.049 A 
ATOM     61  H   UNL A   1      46.046  28.760  27.685  1.00  0.00     0.167 HD
ATOM     62  C   UNL A   1      44.825  31.212  28.417  1.00  0.00     0.074 A 
ATOM     63  C   UNL A   1      43.824  32.180  28.821  1.00  0.00     0.031 C 
ATOM     64  C   UNL A   1      46.116  31.522  28.136  1.00  0.00     0.037 A 
BRANCH  51  65
ATOM     65  C   UNL A   1      49.561  26.665  26.455  1.00  0.00     0.058 A 
ATOM     66  C   UNL A   1      50.403  26.043  27.393  1.00  0.00     0.135 A 
ATOM     67  C   UNL A   1      50.016  26.759  25.130  1.00  0.00     0.135 A 
ATOM     68  F   UNL A   1      50.025  25.940  28.676  1.00  0.00    -0.206 F 
ATOM     69  C   UNL A   1      51.662  25.568  27.039  1.00  0.00     0.059 A 
ATOM     70  C   UNL A   1      51.260  26.265  24.748  1.00  0.00     0.059 A 
ATOM     71  F   UNL A   1      49.252  27.343  24.193  1.00  0.00    -0.206 F 
ATOM     72  C   UNL A   1      52.083  25.687  25.714  1.00  0.00     0.060 A 
BRANCH  72  73
ATOM     73  S   UNL A   1      53.720  25.069  25.270  1.00  0.00     0.124 S 
ATOM     74  O   UNL A   1      53.519  23.626  25.358  1.00  0.00    -0.237 OA
ATOM     75  O   UNL A   1      53.903  25.602  23.924  1.00  0.00    -0.237 OA
ATOM     76  O   UNL A   1      54.589  25.646  26.292  1.00  0.00    -0.744 OA
ENDBRANCH  72  73
ENDBRANCH  51  65
BRANCH  52  77
ATOM     77  C   UNL A   1      40.470  29.668  29.324  1.00  0.00     0.058 A 
ATOM     78  C   UNL A   1      40.211  29.938  30.676  1.00  0.00     0.135 A 
ATOM     79  C   UNL A   1      39.423  29.851  28.409  1.00  0.00     0.135 A 
ATOM     80  F   UNL A   1      41.180  29.774  31.589  1.00  0.00    -0.206 F 
ATOM     81  C   UNL A   1      38.958  30.355  31.110  1.00  0.00     0.059 A 
ATOM     82  C   UNL A   1      38.166  30.290  28.814  1.00  0.00     0.059 A 
ATOM     83  F   UNL A   1      39.626  29.625  27.101  1.00  0.00    -0.206 F 
ATOM     84  C   UNL A   1      37.940  30.531  30.169  1.00  0.00     0.060 A 
BRANCH  84  85
ATOM     85  S   UNL A   1      36.330  31.124  30.733  1.00  0.00     0.124 S 
ATOM     86  O   UNL A   1      35.953  30.088  31.687  1.00  0.00    -0.237 OA
ATOM     87  O   UNL A   1      36.664  32.426  31.302  1.00  0.00    -0.237 OA
ATOM     88  O   UNL A   1      35.543  31.170  29.505  1.00  0.00    -0.744 OA
ENDBRANCH  84  85
ENDBRANCH  52  77
BRANCH  64  89
ATOM     89  C   UNL A   1      46.504  32.971  28.238  1.00  0.00     0.058 A 
ATOM     90  C   UNL A   1      47.037  33.508  29.420  1.00  0.00     0.135 A 
ATOM     91  C   UNL A   1      46.342  33.829  27.140  1.00  0.00     0.135 A 
ATOM     92  F   UNL A   1      47.209  32.729  30.500  1.00  0.00    -0.206 F 
ATOM     93  C   UNL A   1      47.353  34.858  29.525  1.00  0.00     0.059 A 
ATOM     94  C   UNL A   1      46.677  35.177  27.214  1.00  0.00     0.059 A 
ATOM     95  F   UNL A   1      45.851  33.362  25.982  1.00  0.00    -0.206 F 
ATOM     96  C   UNL A   1      47.160  35.688  28.418  1.00  0.00     0.060 A 
BRANCH  96  97
ATOM     97  S   UNL A   1      47.558  37.442  28.567  1.00  0.00     0.124 S 
ATOM     98  O   UNL A   1      48.585  37.596  27.541  1.00  0.00    -0.237 OA
ATOM     99  O   UNL A   1      46.278  38.082  28.282  1.00  0.00    -0.237 OA
ATOM    100  O   UNL A   1      48.023  37.567  29.945  1.00  0.00    -0.744 OA
ENDBRANCH  96  97
ENDBRANCH  64  89
ENDBRANCH  38  39
ENDBRANCH  30  33
ENDBRANCH  28  29
ENDBRANCH  27  28
ENDBRANCH   1  27
TORSDOF 18
ENDMDL
