MODEL 1
REMARK VINA RESULT:     -10.6      0.000      0.000
REMARK SMILES CC(C)C[C@H](NC(=O)CNC(=O)[C@@H]([NH3+])C(C)C)C(=O)NCCCCNC(=O)c1ccc(-c2c3nc(c(-c4c(F)cc(S(=O)(=O)[O-])cc4F)c4ccc([nH]4)c(-c4c(F)cc(S(=O)(=O)[O-])cc4F)c4nc(c(-c5c(F)cc(S(=O)(=O)[O-])cc5F)c5ccc2[nH]5)C=C4)C=C3)cc1
REMARK SMILES IDX 21 1 20 2 18 3 19 4 5 6 4 7 2 8 1 9 3 10 6 11 7 12 8 14 9 15
REMARK SMILES IDX 10 16 11 17 12 19 13 20 14 21 15 25 16 26 17 27 22 28 23 29
REMARK SMILES IDX 24 30 25 31 26 32 27 34 28 35 29 36 93 37 30 38 92 39 31 40
REMARK SMILES IDX 32 41 33 42 86 43 34 44 91 45 85 46 87 47 35 48 90 49 84 50
REMARK SMILES IDX 83 51 36 53 70 54 49 55 69 56 50 57 53 58 68 59 88 60 51 61
REMARK SMILES IDX 52 62 67 64 89 65 54 66 37 67 38 68 47 69 39 70 40 71 46 72
REMARK SMILES IDX 48 73 41 74 42 75 43 76 44 77 45 78 71 79 72 80 81 81 73 82
REMARK SMILES IDX 74 83 80 84 82 85 75 86 76 87 77 88 78 89 79 90 55 91 56 92
REMARK SMILES IDX 65 93 57 94 58 95 64 96 66 97 59 98 60 99 61 100 62 101
REMARK SMILES IDX 63 102
REMARK H PARENT 20 5 6 13 10 18 14 22 14 23 14 24 25 33 87 52 53 63
REMARK Flexibility Score: inf
ROOT
ATOM      1  C   UNL A   1      32.503  27.213  26.519  1.00  0.00     0.116 C 
ENDROOT
BRANCH   1   2
ATOM      2  N   UNL A   1      31.461  27.413  25.530  1.00  0.00    -0.354 N 
ATOM      3  C   UNL A   1      30.796  26.498  24.767  1.00  0.00     0.242 C 
ATOM      4  O   UNL A   1      29.823  26.880  24.112  1.00  0.00    -0.273 OA
ATOM      5  H   UNL A   1      31.194  28.350  25.387  1.00  0.00     0.163 HD
BRANCH   3   6
ATOM      6  C   UNL A   1      31.209  25.012  24.773  1.00  0.00     0.171 C 
BRANCH   6   7
ATOM      7  C   UNL A   1      31.206  24.414  23.354  1.00  0.00     0.038 C 
BRANCH   7   8
ATOM      8  C   UNL A   1      32.569  24.411  22.620  1.00  0.00    -0.015 C 
ATOM      9  C   UNL A   1      32.905  23.097  21.915  1.00  0.00     0.007 C 
ATOM     10  C   UNL A   1      32.600  25.550  21.596  1.00  0.00     0.007 C 
ENDBRANCH   7   8
ENDBRANCH   6   7
BRANCH   6  11
ATOM     11  N   UNL A   1      30.357  24.289  25.727  1.00  0.00    -0.343 N 
ATOM     12  C   UNL A   1      30.650  23.340  26.656  1.00  0.00     0.240 C 
ATOM     13  H   UNL A   1      29.405  24.536  25.687  1.00  0.00     0.164 HD
ATOM     14  O   UNL A   1      29.765  23.073  27.477  1.00  0.00    -0.273 OA
BRANCH  12  15
ATOM     15  C   UNL A   1      32.047  22.724  26.798  1.00  0.00     0.216 C 
BRANCH  15  16
ATOM     16  N   UNL A   1      32.216  21.502  26.036  1.00  0.00    -0.342 N 
ATOM     17  C   UNL A   1      33.309  20.946  25.454  1.00  0.00     0.278 C 
ATOM     18  H   UNL A   1      31.389  20.982  25.920  1.00  0.00     0.164 HD
ATOM     19  O   UNL A   1      33.117  19.915  24.797  1.00  0.00    -0.268 OA
BRANCH  17  20
ATOM     20  C   UNL A   1      34.748  21.484  25.641  1.00  0.00     0.273 C 
BRANCH  20  21
ATOM     21  N   UNL A   1      35.768  20.448  25.385  1.00  0.00    -0.347 N 
ATOM     22  H   UNL A   1      36.695  20.870  25.412  1.00  0.00     0.345 HD
ATOM     23  H   UNL A   1      35.608  20.034  24.466  1.00  0.00     0.345 HD
ATOM     24  H   UNL A   1      35.702  19.724  26.100  1.00  0.00     0.345 HD
ENDBRANCH  20  21
BRANCH  20  25
ATOM     25  C   UNL A   1      34.963  22.771  24.811  1.00  0.00     0.051 C 
ATOM     26  C   UNL A   1      35.254  23.964  25.735  1.00  0.00     0.014 C 
ATOM     27  C   UNL A   1      36.133  22.624  23.828  1.00  0.00     0.014 C 
ENDBRANCH  20  25
ENDBRANCH  17  20
ENDBRANCH  15  16
ENDBRANCH  12  15
ENDBRANCH   6  11
ENDBRANCH   3   6
ENDBRANCH   1   2
BRANCH   1  28
ATOM     28  C   UNL A   1      33.696  28.129  26.282  1.00  0.00     0.023 C 
BRANCH  28  29
ATOM     29  C   UNL A   1      33.808  29.284  27.276  1.00  0.00     0.023 C 
BRANCH  29  30
ATOM     30  C   UNL A   1      35.233  29.646  27.682  1.00  0.00     0.116 C 
BRANCH  30  31
ATOM     31  N   UNL A   1      35.293  30.411  28.920  1.00  0.00    -0.352 N 
ATOM     32  C   UNL A   1      36.344  30.532  29.799  1.00  0.00     0.251 C 
ATOM     33  H   UNL A   1      34.476  30.905  29.159  1.00  0.00     0.163 HD
ATOM     34  O   UNL A   1      36.210  31.117  30.860  1.00  0.00    -0.269 OA
BRANCH  32  35
ATOM     35  C   UNL A   1      37.628  29.903  29.435  1.00  0.00     0.039 A 
ATOM     36  C   UNL A   1      37.996  29.852  28.090  1.00  0.00     0.014 A 
ATOM     37  C   UNL A   1      38.493  29.456  30.438  1.00  0.00     0.014 A 
ATOM     38  C   UNL A   1      39.276  29.413  27.752  1.00  0.00     0.010 A 
ATOM     39  C   UNL A   1      39.789  29.085  30.103  1.00  0.00     0.010 A 
ATOM     40  C   UNL A   1      40.192  29.063  28.759  1.00  0.00    -0.014 A 
BRANCH  40  41
ATOM     41  C   UNL A   1      41.582  28.668  28.428  1.00  0.00     0.031 A 
ATOM     42  C   UNL A   1      42.658  29.714  28.373  1.00  0.00     0.074 A 
ATOM     43  C   UNL A   1      41.854  27.388  28.106  1.00  0.00     0.049 A 
ATOM     44  N   UNL A   1      43.911  29.591  28.019  1.00  0.00    -0.248 NA
ATOM     45  C   UNL A   1      42.266  31.086  28.732  1.00  0.00     0.031 C 
ATOM     46  C   UNL A   1      40.876  26.298  28.064  1.00  0.00     0.029 A 
ATOM     47  N   UNL A   1      43.032  26.791  27.736  1.00  0.00    -0.354 N 
ATOM     48  C   UNL A   1      44.450  30.869  28.094  1.00  0.00     0.074 A 
ATOM     49  C   UNL A   1      43.377  31.761  28.477  1.00  0.00     0.031 C 
ATOM     50  C   UNL A   1      41.500  25.162  27.707  1.00  0.00     0.029 A 
ATOM     51  C   UNL A   1      42.910  25.448  27.467  1.00  0.00     0.049 A 
ATOM     52  H   UNL A   1      43.885  27.279  27.669  1.00  0.00     0.167 HD
ATOM     53  C   UNL A   1      45.729  31.261  27.887  1.00  0.00     0.037 A 
ATOM     54  C   UNL A   1      43.834  24.552  27.069  1.00  0.00     0.037 A 
ATOM     55  C   UNL A   1      46.797  30.362  27.541  1.00  0.00     0.049 A 
ATOM     56  C   UNL A   1      45.256  25.002  26.883  1.00  0.00     0.074 A 
ATOM     57  C   UNL A   1      48.140  30.647  27.364  1.00  0.00     0.029 A 
ATOM     58  N   UNL A   1      46.646  28.999  27.330  1.00  0.00    -0.354 N 
ATOM     59  N   UNL A   1      45.761  26.206  27.013  1.00  0.00    -0.248 NA
ATOM     60  C   UNL A   1      46.236  23.974  26.507  1.00  0.00     0.031 C 
ATOM     61  C   UNL A   1      48.796  29.460  27.022  1.00  0.00     0.029 A 
ATOM     62  C   UNL A   1      47.868  28.430  27.018  1.00  0.00     0.049 A 
ATOM     63  H   UNL A   1      45.793  28.510  27.391  1.00  0.00     0.167 HD
ATOM     64  C   UNL A   1      47.120  26.076  26.754  1.00  0.00     0.074 A 
ATOM     65  C   UNL A   1      47.361  24.675  26.473  1.00  0.00     0.031 C 
ATOM     66  C   UNL A   1      48.084  27.031  26.750  1.00  0.00     0.037 A 
BRANCH  53  67
ATOM     67  C   UNL A   1      46.036  32.723  28.045  1.00  0.00     0.058 A 
ATOM     68  C   UNL A   1      45.900  33.618  26.972  1.00  0.00     0.135 A 
ATOM     69  C   UNL A   1      46.463  33.237  29.279  1.00  0.00     0.135 A 
ATOM     70  F   UNL A   1      45.513  33.174  25.766  1.00  0.00    -0.206 F 
ATOM     71  C   UNL A   1      46.208  34.967  27.107  1.00  0.00     0.059 A 
ATOM     72  C   UNL A   1      46.753  34.588  29.445  1.00  0.00     0.059 A 
ATOM     73  F   UNL A   1      46.613  32.423  30.336  1.00  0.00    -0.206 F 
ATOM     74  C   UNL A   1      46.639  35.442  28.347  1.00  0.00     0.060 A 
BRANCH  74  75
ATOM     75  S   UNL A   1      47.043  37.194  28.509  1.00  0.00     0.124 S 
ATOM     76  O   UNL A   1      46.101  37.613  29.544  1.00  0.00    -0.237 OA
ATOM     77  O   UNL A   1      48.446  37.159  28.908  1.00  0.00    -0.237 OA
ATOM     78  O   UNL A   1      46.787  37.726  27.174  1.00  0.00    -0.744 OA
ENDBRANCH  74  75
ENDBRANCH  53  67
BRANCH  54  79
ATOM     79  C   UNL A   1      43.445  23.134  26.853  1.00  0.00     0.058 A 
ATOM     80  C   UNL A   1      43.179  22.650  25.564  1.00  0.00     0.135 A 
ATOM     81  C   UNL A   1      43.355  22.232  27.925  1.00  0.00     0.135 A 
ATOM     82  F   UNL A   1      43.251  23.476  24.510  1.00  0.00    -0.206 F 
ATOM     83  C   UNL A   1      42.821  21.324  25.344  1.00  0.00     0.059 A 
ATOM     84  C   UNL A   1      43.018  20.896  27.727  1.00  0.00     0.059 A 
ATOM     85  F   UNL A   1      43.619  22.644  29.174  1.00  0.00    -0.206 F 
ATOM     86  C   UNL A   1      42.745  20.454  26.433  1.00  0.00     0.060 A 
BRANCH  86  87
ATOM     87  S   UNL A   1      42.334  18.721  26.132  1.00  0.00     0.124 S 
ATOM     88  O   UNL A   1      40.930  18.813  25.751  1.00  0.00    -0.237 OA
ATOM     89  O   UNL A   1      43.264  18.363  25.065  1.00  0.00    -0.237 OA
ATOM     90  O   UNL A   1      42.600  18.087  27.421  1.00  0.00    -0.744 OA
ENDBRANCH  86  87
ENDBRANCH  54  79
BRANCH  66  91
ATOM     91  C   UNL A   1      49.488  26.588  26.458  1.00  0.00     0.058 A 
ATOM     92  C   UNL A   1      50.002  26.592  25.153  1.00  0.00     0.135 A 
ATOM     93  C   UNL A   1      50.345  26.211  27.504  1.00  0.00     0.135 A 
ATOM     94  F   UNL A   1      49.219  26.939  24.120  1.00  0.00    -0.206 F 
ATOM     95  C   UNL A   1      51.316  26.219  24.891  1.00  0.00     0.059 A 
ATOM     96  C   UNL A   1      51.669  25.855  27.267  1.00  0.00     0.059 A 
ATOM     97  F   UNL A   1      49.902  26.201  28.771  1.00  0.00    -0.206 F 
ATOM     98  C   UNL A   1      52.142  25.852  25.955  1.00  0.00     0.060 A 
BRANCH  98  99
ATOM     99  S   UNL A   1      53.857  25.407  25.610  1.00  0.00     0.124 S 
ATOM    100  O   UNL A   1      53.690  24.328  24.643  1.00  0.00    -0.237 OA
ATOM    101  O   UNL A   1      54.406  26.652  25.083  1.00  0.00    -0.237 OA
ATOM    102  O   UNL A   1      54.372  25.008  26.916  1.00  0.00    -0.744 OA
ENDBRANCH  98  99
ENDBRANCH  66  91
ENDBRANCH  40  41
ENDBRANCH  32  35
ENDBRANCH  30  31
ENDBRANCH  29  30
ENDBRANCH  28  29
ENDBRANCH   1  28
TORSDOF 22
ENDMDL
MODEL 2
REMARK VINA RESULT:     -10.0      6.513     12.006
REMARK SMILES CC(C)C[C@H](NC(=O)CNC(=O)[C@@H]([NH3+])C(C)C)C(=O)NCCCCNC(=O)c1ccc(-c2c3nc(c(-c4c(F)cc(S(=O)(=O)[O-])cc4F)c4ccc([nH]4)c(-c4c(F)cc(S(=O)(=O)[O-])cc4F)c4nc(c(-c5c(F)cc(S(=O)(=O)[O-])cc5F)c5ccc2[nH]5)C=C4)C=C3)cc1
REMARK SMILES IDX 21 1 20 2 18 3 19 4 5 6 4 7 2 8 1 9 3 10 6 11 7 12 8 14 9 15
REMARK SMILES IDX 10 16 11 17 12 19 13 20 14 21 15 25 16 26 17 27 22 28 23 29
REMARK SMILES IDX 24 30 25 31 26 32 27 34 28 35 29 36 93 37 30 38 92 39 31 40
REMARK SMILES IDX 32 41 33 42 86 43 34 44 91 45 85 46 87 47 35 48 90 49 84 50
REMARK SMILES IDX 83 51 36 53 70 54 49 55 69 56 50 57 53 58 68 59 88 60 51 61
REMARK SMILES IDX 52 62 67 64 89 65 54 66 37 67 38 68 47 69 39 70 40 71 46 72
REMARK SMILES IDX 48 73 41 74 42 75 43 76 44 77 45 78 71 79 72 80 81 81 73 82
REMARK SMILES IDX 74 83 80 84 82 85 75 86 76 87 77 88 78 89 79 90 55 91 56 92
REMARK SMILES IDX 65 93 57 94 58 95 64 96 66 97 59 98 60 99 61 100 62 101
REMARK SMILES IDX 63 102
REMARK H PARENT 20 5 6 13 10 18 14 22 14 23 14 24 25 33 87 52 53 63
REMARK Flexibility Score: inf
ROOT
ATOM      1  C   UNL A   1      36.914  23.107  24.337  1.00  0.00     0.116 C 
ENDROOT
BRANCH   1   2
ATOM      2  N   UNL A   1      35.992  21.987  24.325  1.00  0.00    -0.354 N 
ATOM      3  C   UNL A   1      34.649  21.967  24.081  1.00  0.00     0.242 C 
ATOM      4  O   UNL A   1      34.096  20.873  23.954  1.00  0.00    -0.273 OA
ATOM      5  H   UNL A   1      36.394  21.111  24.523  1.00  0.00     0.163 HD
BRANCH   3   6
ATOM      6  C   UNL A   1      33.857  23.278  23.903  1.00  0.00     0.171 C 
BRANCH   6   7
ATOM      7  C   UNL A   1      32.675  23.367  24.887  1.00  0.00     0.038 C 
BRANCH   7   8
ATOM      8  C   UNL A   1      32.979  24.044  26.246  1.00  0.00    -0.015 C 
ATOM      9  C   UNL A   1      33.689  23.143  27.257  1.00  0.00     0.007 C 
ATOM     10  C   UNL A   1      33.828  25.298  26.013  1.00  0.00     0.007 C 
ENDBRANCH   7   8
ENDBRANCH   6   7
BRANCH   6  11
ATOM     11  N   UNL A   1      33.470  23.409  22.492  1.00  0.00    -0.343 N 
ATOM     12  C   UNL A   1      33.315  24.502  21.698  1.00  0.00     0.240 C 
ATOM     13  H   UNL A   1      33.290  22.552  22.041  1.00  0.00     0.164 HD
ATOM     14  O   UNL A   1      33.201  24.296  20.485  1.00  0.00    -0.273 OA
BRANCH  12  15
ATOM     15  C   UNL A   1      33.423  25.935  22.232  1.00  0.00     0.216 C 
BRANCH  15  16
ATOM     16  N   UNL A   1      32.333  26.791  21.805  1.00  0.00    -0.342 N 
ATOM     17  C   UNL A   1      31.243  27.260  22.464  1.00  0.00     0.278 C 
ATOM     18  H   UNL A   1      32.395  27.084  20.867  1.00  0.00     0.164 HD
ATOM     19  O   UNL A   1      30.439  27.921  21.795  1.00  0.00    -0.268 OA
BRANCH  17  20
ATOM     20  C   UNL A   1      31.016  27.079  23.985  1.00  0.00     0.273 C 
BRANCH  20  21
ATOM     21  N   UNL A   1      30.786  28.365  24.670  1.00  0.00    -0.347 N 
ATOM     22  H   UNL A   1      29.903  28.326  25.179  1.00  0.00     0.345 HD
ATOM     23  H   UNL A   1      30.748  29.116  23.980  1.00  0.00     0.345 HD
ATOM     24  H   UNL A   1      31.548  28.543  25.324  1.00  0.00     0.345 HD
ENDBRANCH  20  21
BRANCH  20  25
ATOM     25  C   UNL A   1      29.905  26.038  24.251  1.00  0.00     0.051 C 
ATOM     26  C   UNL A   1      28.519  26.660  24.021  1.00  0.00     0.014 C 
ATOM     27  C   UNL A   1      30.043  24.812  23.337  1.00  0.00     0.014 C 
ENDBRANCH  20  25
ENDBRANCH  17  20
ENDBRANCH  15  16
ENDBRANCH  12  15
ENDBRANCH   6  11
ENDBRANCH   3   6
ENDBRANCH   1   2
BRANCH   1  28
ATOM     28  C   UNL A   1      37.415  23.416  25.742  1.00  0.00     0.023 C 
BRANCH  28  29
ATOM     29  C   UNL A   1      38.713  22.703  26.117  1.00  0.00     0.023 C 
BRANCH  29  30
ATOM     30  C   UNL A   1      39.688  23.536  26.942  1.00  0.00     0.116 C 
BRANCH  30  31
ATOM     31  N   UNL A   1      40.967  23.739  26.274  1.00  0.00    -0.352 N 
ATOM     32  C   UNL A   1      41.815  24.819  26.362  1.00  0.00     0.251 C 
ATOM     33  H   UNL A   1      41.262  23.009  25.683  1.00  0.00     0.163 HD
ATOM     34  O   UNL A   1      42.802  24.900  25.651  1.00  0.00    -0.269 OA
BRANCH  32  35
ATOM     35  C   UNL A   1      41.476  25.891  27.316  1.00  0.00     0.039 A 
ATOM     36  C   UNL A   1      40.413  25.695  28.200  1.00  0.00     0.014 A 
ATOM     37  C   UNL A   1      42.272  27.037  27.388  1.00  0.00     0.014 A 
ATOM     38  C   UNL A   1      40.192  26.628  29.212  1.00  0.00     0.010 A 
ATOM     39  C   UNL A   1      42.092  27.927  28.438  1.00  0.00     0.010 A 
ATOM     40  C   UNL A   1      41.053  27.729  29.361  1.00  0.00    -0.014 A 
BRANCH  40  41
ATOM     41  C   UNL A   1      40.884  28.691  30.476  1.00  0.00     0.031 A 
ATOM     42  C   UNL A   1      41.741  28.563  31.703  1.00  0.00     0.074 A 
ATOM     43  C   UNL A   1      39.914  29.623  30.413  1.00  0.00     0.049 A 
ATOM     44  N   UNL A   1      41.691  29.242  32.818  1.00  0.00    -0.248 NA
ATOM     45  C   UNL A   1      42.768  27.509  31.686  1.00  0.00     0.031 C 
ATOM     46  C   UNL A   1      38.980  29.802  29.298  1.00  0.00     0.029 A 
ATOM     47  N   UNL A   1      39.541  30.588  31.314  1.00  0.00    -0.354 N 
ATOM     48  C   UNL A   1      42.664  28.688  33.641  1.00  0.00     0.074 A 
ATOM     49  C   UNL A   1      43.253  27.584  32.916  1.00  0.00     0.031 C 
ATOM     50  C   UNL A   1      38.155  30.825  29.575  1.00  0.00     0.029 A 
ATOM     51  C   UNL A   1      38.480  31.355  30.895  1.00  0.00     0.049 A 
ATOM     52  H   UNL A   1      39.992  30.718  32.180  1.00  0.00     0.167 HD
ATOM     53  C   UNL A   1      43.049  29.080  34.877  1.00  0.00     0.037 A 
ATOM     54  C   UNL A   1      37.843  32.370  31.510  1.00  0.00     0.037 A 
ATOM     55  C   UNL A   1      42.482  30.202  35.577  1.00  0.00     0.049 A 
ATOM     56  C   UNL A   1      38.313  32.813  32.867  1.00  0.00     0.074 A 
ATOM     57  C   UNL A   1      42.839  30.718  36.811  1.00  0.00     0.029 A 
ATOM     58  N   UNL A   1      41.445  30.989  35.098  1.00  0.00    -0.354 N 
ATOM     59  N   UNL A   1      39.272  32.313  33.609  1.00  0.00    -0.248 NA
ATOM     60  C   UNL A   1      37.623  33.962  33.469  1.00  0.00     0.031 C 
ATOM     61  C   UNL A   1      42.000  31.803  37.087  1.00  0.00     0.029 A 
ATOM     62  C   UNL A   1      41.144  31.983  36.012  1.00  0.00     0.049 A 
ATOM     63  H   UNL A   1      40.990  30.858  34.235  1.00  0.00     0.167 HD
ATOM     64  C   UNL A   1      39.315  33.098  34.754  1.00  0.00     0.074 A 
ATOM     65  C   UNL A   1      38.293  34.114  34.603  1.00  0.00     0.031 C 
ATOM     66  C   UNL A   1      40.127  32.989  35.835  1.00  0.00     0.037 A 
BRANCH  53  67
ATOM     67  C   UNL A   1      44.143  28.293  35.540  1.00  0.00     0.058 A 
ATOM     68  C   UNL A   1      45.497  28.590  35.315  1.00  0.00     0.135 A 
ATOM     69  C   UNL A   1      43.840  27.238  36.415  1.00  0.00     0.135 A 
ATOM     70  F   UNL A   1      45.841  29.577  34.472  1.00  0.00    -0.206 F 
ATOM     71  C   UNL A   1      46.513  27.848  35.906  1.00  0.00     0.059 A 
ATOM     72  C   UNL A   1      44.840  26.497  37.038  1.00  0.00     0.059 A 
ATOM     73  F   UNL A   1      42.562  26.911  36.663  1.00  0.00    -0.206 F 
ATOM     74  C   UNL A   1      46.174  26.799  36.763  1.00  0.00     0.060 A 
BRANCH  74  75
ATOM     75  S   UNL A   1      47.502  25.838  37.520  1.00  0.00     0.124 S 
ATOM     76  O   UNL A   1      48.625  26.766  37.417  1.00  0.00    -0.237 OA
ATOM     77  O   UNL A   1      46.994  25.608  38.869  1.00  0.00    -0.237 OA
ATOM     78  O   UNL A   1      47.586  24.652  36.674  1.00  0.00    -0.744 OA
ENDBRANCH  74  75
ENDBRANCH  53  67
BRANCH  54  79
ATOM     79  C   UNL A   1      36.712  33.055  30.830  1.00  0.00     0.058 A 
ATOM     80  C   UNL A   1      35.385  32.774  31.183  1.00  0.00     0.135 A 
ATOM     81  C   UNL A   1      36.937  34.018  29.835  1.00  0.00     0.135 A 
ATOM     82  F   UNL A   1      35.121  31.859  32.128  1.00  0.00    -0.206 F 
ATOM     83  C   UNL A   1      34.315  33.411  30.562  1.00  0.00     0.059 A 
ATOM     84  C   UNL A   1      35.885  34.684  29.213  1.00  0.00     0.059 A 
ATOM     85  F   UNL A   1      38.191  34.335  29.477  1.00  0.00    -0.206 F 
ATOM     86  C   UNL A   1      34.577  34.367  29.578  1.00  0.00     0.060 A 
BRANCH  86  87
ATOM     87  S   UNL A   1      33.186  35.230  28.815  1.00  0.00     0.124 S 
ATOM     88  O   UNL A   1      32.432  35.663  29.985  1.00  0.00    -0.237 OA
ATOM     89  O   UNL A   1      33.854  36.286  28.059  1.00  0.00    -0.237 OA
ATOM     90  O   UNL A   1      32.555  34.193  28.003  1.00  0.00    -0.744 OA
ENDBRANCH  86  87
ENDBRANCH  54  79
BRANCH  66  91
ATOM     91  C   UNL A   1      39.961  34.008  36.925  1.00  0.00     0.058 A 
ATOM     92  C   UNL A   1      40.650  35.229  36.897  1.00  0.00     0.135 A 
ATOM     93  C   UNL A   1      39.060  33.782  37.977  1.00  0.00     0.135 A 
ATOM     94  F   UNL A   1      41.527  35.488  35.915  1.00  0.00    -0.206 F 
ATOM     95  C   UNL A   1      40.465  36.188  37.887  1.00  0.00     0.059 A 
ATOM     96  C   UNL A   1      38.843  34.736  38.966  1.00  0.00     0.059 A 
ATOM     97  F   UNL A   1      38.370  32.632  38.041  1.00  0.00    -0.206 F 
ATOM     98  C   UNL A   1      39.558  35.931  38.918  1.00  0.00     0.060 A 
BRANCH  98  99
ATOM     99  S   UNL A   1      39.295  37.198  40.178  1.00  0.00     0.124 S 
ATOM    100  O   UNL A   1      38.615  36.437  41.220  1.00  0.00    -0.237 OA
ATOM    101  O   UNL A   1      40.657  37.621  40.488  1.00  0.00    -0.237 OA
ATOM    102  O   UNL A   1      38.478  38.193  39.491  1.00  0.00    -0.744 OA
ENDBRANCH  98  99
ENDBRANCH  66  91
ENDBRANCH  40  41
ENDBRANCH  32  35
ENDBRANCH  30  31
ENDBRANCH  29  30
ENDBRANCH  28  29
ENDBRANCH   1  28
TORSDOF 22
ENDMDL
MODEL 3
REMARK VINA RESULT:      -9.9      2.567      4.070
REMARK SMILES CC(C)C[C@H](NC(=O)CNC(=O)[C@@H]([NH3+])C(C)C)C(=O)NCCCCNC(=O)c1ccc(-c2c3nc(c(-c4c(F)cc(S(=O)(=O)[O-])cc4F)c4ccc([nH]4)c(-c4c(F)cc(S(=O)(=O)[O-])cc4F)c4nc(c(-c5c(F)cc(S(=O)(=O)[O-])cc5F)c5ccc2[nH]5)C=C4)C=C3)cc1
REMARK SMILES IDX 21 1 20 2 18 3 19 4 5 6 4 7 2 8 1 9 3 10 6 11 7 12 8 14 9 15
REMARK SMILES IDX 10 16 11 17 12 19 13 20 14 21 15 25 16 26 17 27 22 28 23 29
REMARK SMILES IDX 24 30 25 31 26 32 27 34 28 35 29 36 93 37 30 38 92 39 31 40
REMARK SMILES IDX 32 41 33 42 86 43 34 44 91 45 85 46 87 47 35 48 90 49 84 50
REMARK SMILES IDX 83 51 36 53 70 54 49 55 69 56 50 57 53 58 68 59 88 60 51 61
REMARK SMILES IDX 52 62 67 64 89 65 54 66 37 67 38 68 47 69 39 70 40 71 46 72
REMARK SMILES IDX 48 73 41 74 42 75 43 76 44 77 45 78 71 79 72 80 81 81 73 82
REMARK SMILES IDX 74 83 80 84 82 85 75 86 76 87 77 88 78 89 79 90 55 91 56 92
REMARK SMILES IDX 65 93 57 94 58 95 64 96 66 97 59 98 60 99 61 100 62 101
REMARK SMILES IDX 63 102
REMARK H PARENT 20 5 6 13 10 18 14 22 14 23 14 24 25 33 87 52 53 63
REMARK Flexibility Score: inf
ROOT
ATOM      1  C   UNL A   1      33.609  32.024  27.674  1.00  0.00     0.116 C 
ENDROOT
BRANCH   1   2
ATOM      2  N   UNL A   1      34.283  30.742  27.748  1.00  0.00    -0.354 N 
ATOM      3  C   UNL A   1      34.254  29.691  26.878  1.00  0.00     0.242 C 
ATOM      4  O   UNL A   1      35.045  28.762  27.059  1.00  0.00    -0.273 OA
ATOM      5  H   UNL A   1      34.844  30.609  28.546  1.00  0.00     0.163 HD
BRANCH   3   6
ATOM      6  C   UNL A   1      33.305  29.694  25.663  1.00  0.00     0.171 C 
BRANCH   6   7
ATOM      7  C   UNL A   1      32.006  28.919  25.953  1.00  0.00     0.038 C 
BRANCH   7   8
ATOM      8  C   UNL A   1      32.123  27.770  26.984  1.00  0.00    -0.015 C 
ATOM      9  C   UNL A   1      31.021  27.757  28.043  1.00  0.00     0.007 C 
ATOM     10  C   UNL A   1      32.127  26.425  26.250  1.00  0.00     0.007 C 
ENDBRANCH   7   8
ENDBRANCH   6   7
BRANCH   6  11
ATOM     11  N   UNL A   1      34.040  29.208  24.488  1.00  0.00    -0.343 N 
ATOM     12  C   UNL A   1      33.613  28.623  23.336  1.00  0.00     0.240 C 
ATOM     13  H   UNL A   1      35.016  29.327  24.543  1.00  0.00     0.164 HD
ATOM     14  O   UNL A   1      34.440  28.524  22.423  1.00  0.00    -0.273 OA
BRANCH  12  15
ATOM     15  C   UNL A   1      32.150  28.233  23.099  1.00  0.00     0.216 C 
BRANCH  15  16
ATOM     16  N   UNL A   1      31.489  29.060  22.108  1.00  0.00    -0.342 N 
ATOM     17  C   UNL A   1      30.341  29.783  22.157  1.00  0.00     0.278 C 
ATOM     18  H   UNL A   1      31.956  29.105  21.244  1.00  0.00     0.164 HD
ATOM     19  O   UNL A   1      29.993  30.334  21.105  1.00  0.00    -0.268 OA
BRANCH  17  20
ATOM     20  C   UNL A   1      29.522  30.008  23.452  1.00  0.00     0.273 C 
BRANCH  20  21
ATOM     21  N   UNL A   1      29.277  31.439  23.715  1.00  0.00    -0.347 N 
ATOM     22  H   UNL A   1      29.049  31.570  24.700  1.00  0.00     0.345 HD
ATOM     23  H   UNL A   1      28.499  31.762  23.139  1.00  0.00     0.345 HD
ATOM     24  H   UNL A   1      30.114  31.974  23.485  1.00  0.00     0.345 HD
ENDBRANCH  20  21
BRANCH  20  25
ATOM     25  C   UNL A   1      28.230  29.160  23.436  1.00  0.00     0.051 C 
ATOM     26  C   UNL A   1      27.354  29.539  22.231  1.00  0.00     0.014 C 
ATOM     27  C   UNL A   1      28.536  27.658  23.358  1.00  0.00     0.014 C 
ENDBRANCH  20  25
ENDBRANCH  17  20
ENDBRANCH  15  16
ENDBRANCH  12  15
ENDBRANCH   6  11
ENDBRANCH   3   6
ENDBRANCH   1   2
BRANCH   1  28
ATOM     28  C   UNL A   1      34.432  33.137  28.309  1.00  0.00     0.023 C 
BRANCH  28  29
ATOM     29  C   UNL A   1      35.926  33.069  27.999  1.00  0.00     0.023 C 
BRANCH  29  30
ATOM     30  C   UNL A   1      36.829  32.908  29.217  1.00  0.00     0.116 C 
BRANCH  30  31
ATOM     31  N   UNL A   1      36.182  32.198  30.312  1.00  0.00    -0.352 N 
ATOM     32  C   UNL A   1      36.538  30.995  30.879  1.00  0.00     0.251 C 
ATOM     33  H   UNL A   1      35.389  32.634  30.697  1.00  0.00     0.163 HD
ATOM     34  O   UNL A   1      35.831  30.464  31.717  1.00  0.00    -0.269 OA
BRANCH  32  35
ATOM     35  C   UNL A   1      37.782  30.352  30.416  1.00  0.00     0.039 A 
ATOM     36  C   UNL A   1      37.998  30.210  29.044  1.00  0.00     0.014 A 
ATOM     37  C   UNL A   1      38.762  29.984  31.342  1.00  0.00     0.014 A 
ATOM     38  C   UNL A   1      39.239  29.758  28.595  1.00  0.00     0.010 A 
ATOM     39  C   UNL A   1      40.017  29.601  30.889  1.00  0.00     0.010 A 
ATOM     40  C   UNL A   1      40.267  29.488  29.513  1.00  0.00    -0.014 A 
BRANCH  40  41
ATOM     41  C   UNL A   1      41.618  29.081  29.055  1.00  0.00     0.031 A 
ATOM     42  C   UNL A   1      42.713  30.106  28.972  1.00  0.00     0.074 A 
ATOM     43  C   UNL A   1      41.832  27.816  28.646  1.00  0.00     0.049 A 
ATOM     44  N   UNL A   1      43.931  29.976  28.516  1.00  0.00    -0.248 NA
ATOM     45  C   UNL A   1      42.384  31.465  29.432  1.00  0.00     0.031 C 
ATOM     46  C   UNL A   1      40.826  26.750  28.623  1.00  0.00     0.029 A 
ATOM     47  N   UNL A   1      42.962  27.214  28.155  1.00  0.00    -0.354 N 
ATOM     48  C   UNL A   1      44.507  31.236  28.616  1.00  0.00     0.074 A 
ATOM     49  C   UNL A   1      43.490  32.128  29.128  1.00  0.00     0.031 C 
ATOM     50  C   UNL A   1      41.391  25.623  28.160  1.00  0.00     0.029 A 
ATOM     51  C   UNL A   1      42.786  25.891  27.826  1.00  0.00     0.049 A 
ATOM     52  H   UNL A   1      43.820  27.687  28.048  1.00  0.00     0.167 HD
ATOM     53  C   UNL A   1      45.776  31.611  28.332  1.00  0.00     0.037 A 
ATOM     54  C   UNL A   1      43.653  24.999  27.312  1.00  0.00     0.037 A 
ATOM     55  C   UNL A   1      46.792  30.709  27.857  1.00  0.00     0.049 A 
ATOM     56  C   UNL A   1      45.068  25.428  27.040  1.00  0.00     0.074 A 
ATOM     57  C   UNL A   1      48.124  30.975  27.592  1.00  0.00     0.029 A 
ATOM     58  N   UNL A   1      46.590  29.364  27.587  1.00  0.00    -0.354 N 
ATOM     59  N   UNL A   1      45.613  26.611  27.193  1.00  0.00    -0.248 NA
ATOM     60  C   UNL A   1      45.990  24.401  26.536  1.00  0.00     0.031 C 
ATOM     61  C   UNL A   1      48.721  29.794  27.138  1.00  0.00     0.029 A 
ATOM     62  C   UNL A   1      47.769  28.787  27.152  1.00  0.00     0.049 A 
ATOM     63  H   UNL A   1      45.732  28.891  27.688  1.00  0.00     0.167 HD
ATOM     64  C   UNL A   1      46.944  26.467  26.824  1.00  0.00     0.074 A 
ATOM     65  C   UNL A   1      47.126  25.078  26.451  1.00  0.00     0.031 C 
ATOM     66  C   UNL A   1      47.929  27.399  26.795  1.00  0.00     0.037 A 
BRANCH  53  67
ATOM     67  C   UNL A   1      46.132  33.055  28.542  1.00  0.00     0.058 A 
ATOM     68  C   UNL A   1      46.000  33.998  27.509  1.00  0.00     0.135 A 
ATOM     69  C   UNL A   1      46.601  33.505  29.786  1.00  0.00     0.135 A 
ATOM     70  F   UNL A   1      45.574  33.616  26.296  1.00  0.00    -0.206 F 
ATOM     71  C   UNL A   1      46.353  35.330  27.693  1.00  0.00     0.059 A 
ATOM     72  C   UNL A   1      46.936  34.839  30.000  1.00  0.00     0.059 A 
ATOM     73  F   UNL A   1      46.747  32.644  30.805  1.00  0.00    -0.206 F 
ATOM     74  C   UNL A   1      46.825  35.740  28.940  1.00  0.00     0.060 A 
BRANCH  74  75
ATOM     75  S   UNL A   1      47.286  37.471  29.164  1.00  0.00     0.124 S 
ATOM     76  O   UNL A   1      48.695  37.350  29.528  1.00  0.00    -0.237 OA
ATOM     77  O   UNL A   1      47.020  38.041  27.847  1.00  0.00    -0.237 OA
ATOM     78  O   UNL A   1      46.398  37.924  30.231  1.00  0.00    -0.744 OA
ENDBRANCH  74  75
ENDBRANCH  53  67
BRANCH  54  79
ATOM     79  C   UNL A   1      43.214  23.602  27.052  1.00  0.00     0.058 A 
ATOM     80  C   UNL A   1      42.847  23.192  25.762  1.00  0.00     0.135 A 
ATOM     81  C   UNL A   1      43.172  22.649  28.081  1.00  0.00     0.135 A 
ATOM     82  F   UNL A   1      42.869  24.070  24.748  1.00  0.00    -0.206 F 
ATOM     83  C   UNL A   1      42.440  21.888  25.501  1.00  0.00     0.059 A 
ATOM     84  C   UNL A   1      42.787  21.333  27.841  1.00  0.00     0.059 A 
ATOM     85  F   UNL A   1      43.531  22.989  29.328  1.00  0.00    -0.206 F 
ATOM     86  C   UNL A   1      42.415  20.965  26.547  1.00  0.00     0.060 A 
BRANCH  86  87
ATOM     87  S   UNL A   1      41.939  19.260  26.189  1.00  0.00     0.124 S 
ATOM     88  O   UNL A   1      40.519  19.407  25.895  1.00  0.00    -0.237 OA
ATOM     89  O   UNL A   1      42.796  18.931  25.054  1.00  0.00    -0.237 OA
ATOM     90  O   UNL A   1      42.259  18.557  27.429  1.00  0.00    -0.744 OA
ENDBRANCH  86  87
ENDBRANCH  54  79
BRANCH  66  91
ATOM     91  C   UNL A   1      49.295  26.943  26.372  1.00  0.00     0.058 A 
ATOM     92  C   UNL A   1      50.214  26.427  27.296  1.00  0.00     0.135 A 
ATOM     93  C   UNL A   1      49.665  26.971  25.018  1.00  0.00     0.135 A 
ATOM     94  F   UNL A   1      49.908  26.386  28.602  1.00  0.00    -0.206 F 
ATOM     95  C   UNL A   1      51.465  25.969  26.896  1.00  0.00     0.059 A 
ATOM     96  C   UNL A   1      50.902  26.498  24.592  1.00  0.00     0.059 A 
ATOM     97  F   UNL A   1      48.815  27.447  24.094  1.00  0.00    -0.206 F 
ATOM     98  C   UNL A   1      51.799  26.008  25.541  1.00  0.00     0.060 A 
BRANCH  98  99
ATOM     99  S   UNL A   1      53.409  25.376  25.025  1.00  0.00     0.124 S 
ATOM    100  O   UNL A   1      53.424  25.730  23.610  1.00  0.00    -0.237 OA
ATOM    101  O   UNL A   1      54.329  26.124  25.876  1.00  0.00    -0.237 OA
ATOM    102  O   UNL A   1      53.320  23.948  25.316  1.00  0.00    -0.744 OA
ENDBRANCH  98  99
ENDBRANCH  66  91
ENDBRANCH  40  41
ENDBRANCH  32  35
ENDBRANCH  30  31
ENDBRANCH  29  30
ENDBRANCH  28  29
ENDBRANCH   1  28
TORSDOF 22
ENDMDL
