MODEL 1
REMARK VINA RESULT:     -10.3      0.000      0.000
REMARK SMILES CCOc1ccccc1[C@@H](O)[C@@H](C)[C@@H](C)C(=O)NCCCCNC(=O)c1ccc(-c2c3nc(c(-c4c(F)cc(S(=O)(=O)[O-])cc4F)c4ccc([nH]4)c(-c4c(F)cc(S(=O)(=O)[O-])cc4F)c4nc(c(-c5c(F)cc(S(=O)(=O)[O-])cc5F)c5ccc2[nH]5)C=C4)C=C3)cc1
REMARK SMILES IDX 19 1 18 2 16 3 17 4 14 6 15 7 12 8 13 9 10 10 9 11 4 12 5 13
REMARK SMILES IDX 6 14 8 15 7 16 3 17 2 18 1 19 11 20 20 22 21 23 22 24 23 25
REMARK SMILES IDX 24 26 25 28 26 29 27 30 91 31 28 32 90 33 29 34 30 35 31 36
REMARK SMILES IDX 84 37 32 38 89 39 83 40 85 41 33 42 88 43 82 44 81 45 34 47
REMARK SMILES IDX 68 48 47 49 67 50 48 51 51 52 66 53 86 54 49 55 50 56 65 58
REMARK SMILES IDX 87 59 52 60 35 61 36 62 45 63 37 64 38 65 44 66 46 67 39 68
REMARK SMILES IDX 40 69 41 70 42 71 43 72 69 73 70 74 79 75 71 76 72 77 78 78
REMARK SMILES IDX 80 79 73 80 74 81 75 82 76 83 77 84 53 85 54 86 63 87 55 88
REMARK SMILES IDX 56 89 62 90 64 91 57 92 58 93 59 94 60 95 61 96
REMARK H PARENT 18 5 11 21 23 27 85 46 51 57
REMARK Flexibility Score: inf
ROOT
ATOM      1  C   UNL A   1      31.791  28.754  23.441  1.00  0.00     0.116 C 
ENDROOT
BRANCH   1   2
ATOM      2  N   UNL A   1      30.895  27.627  23.620  1.00  0.00    -0.356 N 
ATOM      3  C   UNL A   1      31.084  26.302  23.375  1.00  0.00     0.223 C 
ATOM      4  O   UNL A   1      30.130  25.540  23.554  1.00  0.00    -0.275 OA
ATOM      5  H   UNL A   1      30.008  27.858  23.976  1.00  0.00     0.163 HD
BRANCH   3   6
ATOM      6  C   UNL A   1      32.434  25.748  22.915  1.00  0.00     0.081 C 
ATOM      7  C   UNL A   1      32.483  25.752  21.387  1.00  0.00     0.018 C 
BRANCH   6   8
ATOM      8  C   UNL A   1      32.827  24.438  23.656  1.00  0.00     0.031 C 
ATOM      9  C   UNL A   1      33.499  24.815  24.992  1.00  0.00     0.011 C 
BRANCH   8  10
ATOM     10  C   UNL A   1      33.625  23.433  22.789  1.00  0.00     0.152 C 
BRANCH  10  11
ATOM     11  C   UNL A   1      34.664  22.664  23.577  1.00  0.00     0.023 A 
ATOM     12  C   UNL A   1      34.306  21.584  24.393  1.00  0.00     0.125 A 
ATOM     13  C   UNL A   1      35.280  20.836  25.054  1.00  0.00     0.047 A 
ATOM     14  C   UNL A   1      36.630  21.157  24.901  1.00  0.00     0.004 A 
ATOM     15  C   UNL A   1      36.029  22.988  23.451  1.00  0.00     0.010 A 
ATOM     16  C   UNL A   1      37.005  22.240  24.110  1.00  0.00     0.001 A 
BRANCH  12  17
ATOM     17  O   UNL A   1      32.986  21.340  24.657  1.00  0.00    -0.493 OA
BRANCH  17  18
ATOM     18  C   UNL A   1      32.715  19.964  24.946  1.00  0.00     0.226 C 
ATOM     19  C   UNL A   1      32.495  19.235  23.627  1.00  0.00     0.049 C 
ENDBRANCH  17  18
ENDBRANCH  12  17
ENDBRANCH  10  11
BRANCH  10  20
ATOM     20  O   UNL A   1      32.712  22.475  22.237  1.00  0.00    -0.388 OA
ATOM     21  H   UNL A   1      31.852  22.557  22.677  1.00  0.00     0.211 HD
ENDBRANCH  10  20
ENDBRANCH   8  10
ENDBRANCH   6   8
ENDBRANCH   3   6
ENDBRANCH   1   2
BRANCH   1  22
ATOM     22  C   UNL A   1      32.443  29.171  24.765  1.00  0.00     0.023 C 
BRANCH  22  23
ATOM     23  C   UNL A   1      33.722  28.415  25.112  1.00  0.00     0.023 C 
BRANCH  23  24
ATOM     24  C   UNL A   1      34.109  28.477  26.579  1.00  0.00     0.116 C 
BRANCH  24  25
ATOM     25  N   UNL A   1      33.856  29.777  27.181  1.00  0.00    -0.352 N 
ATOM     26  C   UNL A   1      34.692  30.509  27.987  1.00  0.00     0.251 C 
ATOM     27  H   UNL A   1      32.978  30.180  26.988  1.00  0.00     0.163 HD
ATOM     28  O   UNL A   1      34.296  31.538  28.526  1.00  0.00    -0.269 OA
BRANCH  26  29
ATOM     29  C   UNL A   1      36.061  30.013  28.219  1.00  0.00     0.039 A 
ATOM     30  C   UNL A   1      37.005  30.124  27.198  1.00  0.00     0.014 A 
ATOM     31  C   UNL A   1      36.418  29.492  29.466  1.00  0.00     0.014 A 
ATOM     32  C   UNL A   1      38.326  29.751  27.445  1.00  0.00     0.010 A 
ATOM     33  C   UNL A   1      37.749  29.208  29.737  1.00  0.00     0.010 A 
ATOM     34  C   UNL A   1      38.712  29.314  28.722  1.00  0.00    -0.014 A 
BRANCH  34  35
ATOM     35  C   UNL A   1      40.107  28.906  29.006  1.00  0.00     0.031 A 
ATOM     36  C   UNL A   1      41.057  29.897  29.623  1.00  0.00     0.074 A 
ATOM     37  C   UNL A   1      40.532  27.676  28.662  1.00  0.00     0.049 A 
ATOM     38  N   UNL A   1      42.329  29.765  29.894  1.00  0.00    -0.248 NA
ATOM     39  C   UNL A   1      40.511  31.226  29.944  1.00  0.00     0.031 C 
ATOM     40  C   UNL A   1      39.719  26.652  28.003  1.00  0.00     0.029 A 
ATOM     41  N   UNL A   1      41.759  27.081  28.810  1.00  0.00    -0.354 N 
ATOM     42  C   UNL A   1      42.735  30.995  30.400  1.00  0.00     0.074 A 
ATOM     43  C   UNL A   1      41.594  31.880  30.331  1.00  0.00     0.031 C 
ATOM     44  C   UNL A   1      40.464  25.549  27.822  1.00  0.00     0.029 A 
ATOM     45  C   UNL A   1      41.812  25.796  28.326  1.00  0.00     0.049 A 
ATOM     46  H   UNL A   1      42.530  27.533  29.224  1.00  0.00     0.167 HD
ATOM     47  C   UNL A   1      43.939  31.346  30.909  1.00  0.00     0.037 A 
ATOM     48  C   UNL A   1      42.833  24.918  28.295  1.00  0.00     0.037 A 
ATOM     49  C   UNL A   1      45.061  30.450  30.998  1.00  0.00     0.049 A 
ATOM     50  C   UNL A   1      44.154  25.315  28.895  1.00  0.00     0.074 A 
ATOM     51  C   UNL A   1      46.315  30.687  31.531  1.00  0.00     0.029 A 
ATOM     52  N   UNL A   1      45.059  29.137  30.547  1.00  0.00    -0.354 N 
ATOM     53  N   UNL A   1      44.509  26.464  29.419  1.00  0.00    -0.248 NA
ATOM     54  C   UNL A   1      45.207  24.293  28.919  1.00  0.00     0.031 C 
ATOM     55  C   UNL A   1      47.083  29.527  31.373  1.00  0.00     0.029 A 
ATOM     56  C   UNL A   1      46.290  28.551  30.786  1.00  0.00     0.049 A 
ATOM     57  H   UNL A   1      44.294  28.688  30.120  1.00  0.00     0.167 HD
ATOM     58  C   UNL A   1      45.815  26.294  29.865  1.00  0.00     0.074 A 
ATOM     59  C   UNL A   1      46.183  24.927  29.554  1.00  0.00     0.031 C 
ATOM     60  C   UNL A   1      46.633  27.184  30.479  1.00  0.00     0.037 A 
BRANCH  47  61
ATOM     61  C   UNL A   1      44.089  32.756  31.413  1.00  0.00     0.058 A 
ATOM     62  C   UNL A   1      44.511  33.797  30.568  1.00  0.00     0.135 A 
ATOM     63  C   UNL A   1      43.819  33.071  32.754  1.00  0.00     0.135 A 
ATOM     64  F   UNL A   1      44.800  33.550  29.281  1.00  0.00    -0.206 F 
ATOM     65  C   UNL A   1      44.706  35.088  31.046  1.00  0.00     0.059 A 
ATOM     66  C   UNL A   1      43.978  34.364  33.246  1.00  0.00     0.059 A 
ATOM     67  F   UNL A   1      43.413  32.117  33.605  1.00  0.00    -0.206 F 
ATOM     68  C   UNL A   1      44.442  35.361  32.389  1.00  0.00     0.060 A 
BRANCH  68  69
ATOM     69  S   UNL A   1      44.722  37.037  32.999  1.00  0.00     0.124 S 
ATOM     70  O   UNL A   1      45.663  37.552  32.009  1.00  0.00    -0.237 OA
ATOM     71  O   UNL A   1      43.383  37.612  32.959  1.00  0.00    -0.237 OA
ATOM     72  O   UNL A   1      45.270  36.823  34.335  1.00  0.00    -0.744 OA
ENDBRANCH  68  69
ENDBRANCH  47  61
BRANCH  48  73
ATOM     73  C   UNL A   1      42.624  23.566  27.712  1.00  0.00     0.058 A 
ATOM     74  C   UNL A   1      42.770  23.343  26.335  1.00  0.00     0.135 A 
ATOM     75  C   UNL A   1      42.315  22.464  28.524  1.00  0.00     0.135 A 
ATOM     76  F   UNL A   1      43.063  24.366  25.518  1.00  0.00    -0.206 F 
ATOM     77  C   UNL A   1      42.607  22.078  25.780  1.00  0.00     0.059 A 
ATOM     78  C   UNL A   1      42.171  21.185  27.996  1.00  0.00     0.059 A 
ATOM     79  F   UNL A   1      42.184  22.622  29.850  1.00  0.00    -0.206 F 
ATOM     80  C   UNL A   1      42.312  21.003  26.620  1.00  0.00     0.060 A 
BRANCH  80  81
ATOM     81  S   UNL A   1      42.169  19.353  25.898  1.00  0.00     0.124 S 
ATOM     82  O   UNL A   1      42.983  19.487  24.695  1.00  0.00    -0.237 OA
ATOM     83  O   UNL A   1      42.720  18.509  26.952  1.00  0.00    -0.237 OA
ATOM     84  O   UNL A   1      40.733  19.208  25.676  1.00  0.00    -0.744 OA
ENDBRANCH  80  81
ENDBRANCH  48  73
BRANCH  60  85
ATOM     85  C   UNL A   1      47.990  26.696  30.904  1.00  0.00     0.058 A 
ATOM     86  C   UNL A   1      49.105  26.774  30.056  1.00  0.00     0.135 A 
ATOM     87  C   UNL A   1      48.183  26.185  32.198  1.00  0.00     0.135 A 
ATOM     88  F   UNL A   1      48.973  27.253  28.808  1.00  0.00    -0.206 F 
ATOM     89  C   UNL A   1      50.360  26.335  30.465  1.00  0.00     0.059 A 
ATOM     90  C   UNL A   1      49.434  25.766  32.637  1.00  0.00     0.059 A 
ATOM     91  F   UNL A   1      47.152  26.101  33.052  1.00  0.00    -0.206 F 
ATOM     92  C   UNL A   1      50.514  25.831  31.758  1.00  0.00     0.060 A 
BRANCH  92  93
ATOM     93  S   UNL A   1      52.151  25.282  32.287  1.00  0.00     0.124 S 
ATOM     94  O   UNL A   1      51.967  23.837  32.355  1.00  0.00    -0.237 OA
ATOM     95  O   UNL A   1      53.006  25.763  31.205  1.00  0.00    -0.237 OA
ATOM     96  O   UNL A   1      52.335  25.955  33.570  1.00  0.00    -0.744 OA
ENDBRANCH  92  93
ENDBRANCH  60  85
ENDBRANCH  34  35
ENDBRANCH  26  29
ENDBRANCH  24  25
ENDBRANCH  23  24
ENDBRANCH  22  23
ENDBRANCH   1  22
TORSDOF 20
ENDMDL
MODEL 2
REMARK VINA RESULT:     -10.1      3.288      9.461
REMARK SMILES CCOc1ccccc1[C@@H](O)[C@@H](C)[C@@H](C)C(=O)NCCCCNC(=O)c1ccc(-c2c3nc(c(-c4c(F)cc(S(=O)(=O)[O-])cc4F)c4ccc([nH]4)c(-c4c(F)cc(S(=O)(=O)[O-])cc4F)c4nc(c(-c5c(F)cc(S(=O)(=O)[O-])cc5F)c5ccc2[nH]5)C=C4)C=C3)cc1
REMARK SMILES IDX 19 1 18 2 16 3 17 4 14 6 15 7 12 8 13 9 10 10 9 11 4 12 5 13
REMARK SMILES IDX 6 14 8 15 7 16 3 17 2 18 1 19 11 20 20 22 21 23 22 24 23 25
REMARK SMILES IDX 24 26 25 28 26 29 27 30 91 31 28 32 90 33 29 34 30 35 31 36
REMARK SMILES IDX 84 37 32 38 89 39 83 40 85 41 33 42 88 43 82 44 81 45 34 47
REMARK SMILES IDX 68 48 47 49 67 50 48 51 51 52 66 53 86 54 49 55 50 56 65 58
REMARK SMILES IDX 87 59 52 60 35 61 36 62 45 63 37 64 38 65 44 66 46 67 39 68
REMARK SMILES IDX 40 69 41 70 42 71 43 72 69 73 70 74 79 75 71 76 72 77 78 78
REMARK SMILES IDX 80 79 73 80 74 81 75 82 76 83 77 84 53 85 54 86 63 87 55 88
REMARK SMILES IDX 56 89 62 90 64 91 57 92 58 93 59 94 60 95 61 96
REMARK H PARENT 18 5 11 21 23 27 85 46 51 57
REMARK Flexibility Score: inf
ROOT
ATOM      1  C   UNL A   1      34.481  21.442  25.055  1.00  0.00     0.116 C 
ENDROOT
BRANCH   1   2
ATOM      2  N   UNL A   1      33.212  21.851  24.483  1.00  0.00    -0.356 N 
ATOM      3  C   UNL A   1      32.362  22.849  24.844  1.00  0.00     0.223 C 
ATOM      4  O   UNL A   1      31.299  22.955  24.226  1.00  0.00    -0.275 OA
ATOM      5  H   UNL A   1      32.919  21.320  23.708  1.00  0.00     0.163 HD
BRANCH   3   6
ATOM      6  C   UNL A   1      32.702  23.838  25.962  1.00  0.00     0.081 C 
ATOM      7  C   UNL A   1      31.973  23.421  27.239  1.00  0.00     0.018 C 
BRANCH   6   8
ATOM      8  C   UNL A   1      32.587  25.320  25.506  1.00  0.00     0.031 C 
ATOM      9  C   UNL A   1      33.944  26.013  25.749  1.00  0.00     0.011 C 
BRANCH   8  10
ATOM     10  C   UNL A   1      31.363  26.071  26.084  1.00  0.00     0.152 C 
BRANCH  10  11
ATOM     11  C   UNL A   1      31.527  27.575  26.068  1.00  0.00     0.023 A 
ATOM     12  C   UNL A   1      31.354  28.314  24.891  1.00  0.00     0.125 A 
ATOM     13  C   UNL A   1      31.434  29.707  24.905  1.00  0.00     0.047 A 
ATOM     14  C   UNL A   1      31.682  30.380  26.103  1.00  0.00     0.004 A 
ATOM     15  C   UNL A   1      31.798  28.269  27.263  1.00  0.00     0.010 A 
ATOM     16  C   UNL A   1      31.876  29.661  27.280  1.00  0.00     0.001 A 
BRANCH  12  17
ATOM     17  O   UNL A   1      31.243  27.665  23.691  1.00  0.00    -0.493 OA
BRANCH  17  18
ATOM     18  C   UNL A   1      32.255  28.041  22.752  1.00  0.00     0.226 C 
ATOM     19  C   UNL A   1      32.900  26.771  22.213  1.00  0.00     0.049 C 
ENDBRANCH  17  18
ENDBRANCH  12  17
ENDBRANCH  10  11
BRANCH  10  20
ATOM     20  O   UNL A   1      30.212  25.758  25.287  1.00  0.00    -0.388 OA
ATOM     21  H   UNL A   1      29.774  26.579  25.015  1.00  0.00     0.211 HD
ENDBRANCH  10  20
ENDBRANCH   8  10
ENDBRANCH   6   8
ENDBRANCH   3   6
ENDBRANCH   1   2
BRANCH   1  22
ATOM     22  C   UNL A   1      35.664  21.943  24.219  1.00  0.00     0.023 C 
BRANCH  22  23
ATOM     23  C   UNL A   1      36.020  23.410  24.432  1.00  0.00     0.023 C 
BRANCH  23  24
ATOM     24  C   UNL A   1      36.816  23.686  25.696  1.00  0.00     0.116 C 
BRANCH  24  25
ATOM     25  N   UNL A   1      37.740  22.613  26.034  1.00  0.00    -0.352 N 
ATOM     26  C   UNL A   1      38.996  22.723  26.576  1.00  0.00     0.251 C 
ATOM     27  H   UNL A   1      37.426  21.698  25.850  1.00  0.00     0.163 HD
ATOM     28  O   UNL A   1      39.713  21.734  26.694  1.00  0.00    -0.269 OA
BRANCH  26  29
ATOM     29  C   UNL A   1      39.476  24.058  26.978  1.00  0.00     0.039 A 
ATOM     30  C   UNL A   1      39.404  24.428  28.322  1.00  0.00     0.014 A 
ATOM     31  C   UNL A   1      40.049  24.913  26.033  1.00  0.00     0.014 A 
ATOM     32  C   UNL A   1      39.949  25.646  28.725  1.00  0.00     0.010 A 
ATOM     33  C   UNL A   1      40.671  26.081  26.451  1.00  0.00     0.010 A 
ATOM     34  C   UNL A   1      40.607  26.470  27.797  1.00  0.00    -0.014 A 
BRANCH  34  35
ATOM     35  C   UNL A   1      41.189  27.772  28.201  1.00  0.00     0.031 A 
ATOM     36  C   UNL A   1      42.673  27.989  28.076  1.00  0.00     0.074 A 
ATOM     37  C   UNL A   1      40.400  28.727  28.727  1.00  0.00     0.049 A 
ATOM     38  N   UNL A   1      43.389  29.025  28.429  1.00  0.00    -0.248 NA
ATOM     39  C   UNL A   1      43.460  26.880  27.513  1.00  0.00     0.031 C 
ATOM     40  C   UNL A   1      38.958  28.606  28.953  1.00  0.00     0.029 A 
ATOM     41  N   UNL A   1      40.702  29.987  29.176  1.00  0.00    -0.354 N 
ATOM     42  C   UNL A   1      44.706  28.684  28.145  1.00  0.00     0.074 A 
ATOM     43  C   UNL A   1      44.698  27.322  27.660  1.00  0.00     0.031 C 
ATOM     44  C   UNL A   1      38.499  29.753  29.480  1.00  0.00     0.029 A 
ATOM     45  C   UNL A   1      39.615  30.678  29.654  1.00  0.00     0.049 A 
ATOM     46  H   UNL A   1      41.613  30.361  29.158  1.00  0.00     0.167 HD
ATOM     47  C   UNL A   1      45.820  29.448  28.246  1.00  0.00     0.037 A 
ATOM     48  C   UNL A   1      39.530  31.918  30.172  1.00  0.00     0.037 A 
ATOM     49  C   UNL A   1      45.814  30.812  28.705  1.00  0.00     0.049 A 
ATOM     50  C   UNL A   1      40.771  32.764  30.245  1.00  0.00     0.074 A 
ATOM     51  C   UNL A   1      46.877  31.691  28.811  1.00  0.00     0.029 A 
ATOM     52  N   UNL A   1      44.683  31.497  29.129  1.00  0.00    -0.354 N 
ATOM     53  N   UNL A   1      42.004  32.448  29.924  1.00  0.00    -0.248 NA
ATOM     54  C   UNL A   1      40.611  34.140  30.732  1.00  0.00     0.031 C 
ATOM     55  C   UNL A   1      46.393  32.898  29.329  1.00  0.00     0.029 A 
ATOM     56  C   UNL A   1      45.021  32.787  29.500  1.00  0.00     0.049 A 
ATOM     57  H   UNL A   1      43.774  31.120  29.160  1.00  0.00     0.167 HD
ATOM     58  C   UNL A   1      42.761  33.595  30.138  1.00  0.00     0.074 A 
ATOM     59  C   UNL A   1      41.844  34.613  30.610  1.00  0.00     0.031 C 
ATOM     60  C   UNL A   1      44.091  33.789  29.956  1.00  0.00     0.037 A 
BRANCH  47  61
ATOM     61  C   UNL A   1      47.125  28.819  27.842  1.00  0.00     0.058 A 
ATOM     62  C   UNL A   1      47.558  28.816  26.504  1.00  0.00     0.135 A 
ATOM     63  C   UNL A   1      47.950  28.200  28.796  1.00  0.00     0.135 A 
ATOM     64  F   UNL A   1      46.801  29.377  25.548  1.00  0.00    -0.206 F 
ATOM     65  C   UNL A   1      48.735  28.183  26.121  1.00  0.00     0.059 A 
ATOM     66  C   UNL A   1      49.148  27.588  28.438  1.00  0.00     0.059 A 
ATOM     67  F   UNL A   1      47.587  28.173  30.087  1.00  0.00    -0.206 F 
ATOM     68  C   UNL A   1      49.520  27.567  27.095  1.00  0.00     0.060 A 
BRANCH  68  69
ATOM     69  S   UNL A   1      51.034  26.729  26.578  1.00  0.00     0.124 S 
ATOM     70  O   UNL A   1      52.030  27.385  27.420  1.00  0.00    -0.237 OA
ATOM     71  O   UNL A   1      50.749  25.337  26.903  1.00  0.00    -0.237 OA
ATOM     72  O   UNL A   1      51.120  27.033  25.153  1.00  0.00    -0.744 OA
ENDBRANCH  68  69
ENDBRANCH  47  61
BRANCH  48  73
ATOM     73  C   UNL A   1      38.211  32.442  30.617  1.00  0.00     0.058 A 
ATOM     74  C   UNL A   1      37.756  32.232  31.927  1.00  0.00     0.135 A 
ATOM     75  C   UNL A   1      37.399  33.197  29.756  1.00  0.00     0.135 A 
ATOM     76  F   UNL A   1      38.495  31.514  32.786  1.00  0.00    -0.206 F 
ATOM     77  C   UNL A   1      36.538  32.741  32.366  1.00  0.00     0.059 A 
ATOM     78  C   UNL A   1      36.189  33.737  30.179  1.00  0.00     0.059 A 
ATOM     79  F   UNL A   1      37.800  33.443  28.499  1.00  0.00    -0.206 F 
ATOM     80  C   UNL A   1      35.763  33.498  31.485  1.00  0.00     0.060 A 
BRANCH  80  81
ATOM     81  S   UNL A   1      34.216  34.211  32.086  1.00  0.00     0.124 S 
ATOM     82  O   UNL A   1      33.722  33.151  32.956  1.00  0.00    -0.237 OA
ATOM     83  O   UNL A   1      34.677  35.424  32.753  1.00  0.00    -0.237 OA
ATOM     84  O   UNL A   1      33.451  34.431  30.862  1.00  0.00    -0.744 OA
ENDBRANCH  80  81
ENDBRANCH  48  73
BRANCH  60  85
ATOM     85  C   UNL A   1      44.629  35.168  30.219  1.00  0.00     0.058 A 
ATOM     86  C   UNL A   1      45.106  35.550  31.483  1.00  0.00     0.135 A 
ATOM     87  C   UNL A   1      44.710  36.105  29.176  1.00  0.00     0.135 A 
ATOM     88  F   UNL A   1      45.048  34.692  32.514  1.00  0.00    -0.206 F 
ATOM     89  C   UNL A   1      45.617  36.824  31.710  1.00  0.00     0.059 A 
ATOM     90  C   UNL A   1      45.243  37.374  29.374  1.00  0.00     0.059 A 
ATOM     91  F   UNL A   1      44.279  35.785  27.945  1.00  0.00    -0.206 F 
ATOM     92  C   UNL A   1      45.680  37.729  30.649  1.00  0.00     0.060 A 
BRANCH  92  93
ATOM     93  S   UNL A   1      46.365  39.372  30.950  1.00  0.00     0.124 S 
ATOM     94  O   UNL A   1      45.585  40.188  30.027  1.00  0.00    -0.237 OA
ATOM     95  O   UNL A   1      46.082  39.574  32.369  1.00  0.00    -0.237 OA
ATOM     96  O   UNL A   1      47.778  39.217  30.615  1.00  0.00    -0.744 OA
ENDBRANCH  92  93
ENDBRANCH  60  85
ENDBRANCH  34  35
ENDBRANCH  26  29
ENDBRANCH  24  25
ENDBRANCH  23  24
ENDBRANCH  22  23
ENDBRANCH   1  22
TORSDOF 20
ENDMDL
MODEL 3
REMARK VINA RESULT:     -10.0      4.809     10.507
REMARK SMILES CCOc1ccccc1[C@@H](O)[C@@H](C)[C@@H](C)C(=O)NCCCCNC(=O)c1ccc(-c2c3nc(c(-c4c(F)cc(S(=O)(=O)[O-])cc4F)c4ccc([nH]4)c(-c4c(F)cc(S(=O)(=O)[O-])cc4F)c4nc(c(-c5c(F)cc(S(=O)(=O)[O-])cc5F)c5ccc2[nH]5)C=C4)C=C3)cc1
REMARK SMILES IDX 19 1 18 2 16 3 17 4 14 6 15 7 12 8 13 9 10 10 9 11 4 12 5 13
REMARK SMILES IDX 6 14 8 15 7 16 3 17 2 18 1 19 11 20 20 22 21 23 22 24 23 25
REMARK SMILES IDX 24 26 25 28 26 29 27 30 91 31 28 32 90 33 29 34 30 35 31 36
REMARK SMILES IDX 84 37 32 38 89 39 83 40 85 41 33 42 88 43 82 44 81 45 34 47
REMARK SMILES IDX 68 48 47 49 67 50 48 51 51 52 66 53 86 54 49 55 50 56 65 58
REMARK SMILES IDX 87 59 52 60 35 61 36 62 45 63 37 64 38 65 44 66 46 67 39 68
REMARK SMILES IDX 40 69 41 70 42 71 43 72 69 73 70 74 79 75 71 76 72 77 78 78
REMARK SMILES IDX 80 79 73 80 74 81 75 82 76 83 77 84 53 85 54 86 63 87 55 88
REMARK SMILES IDX 56 89 62 90 64 91 57 92 58 93 59 94 60 95 61 96
REMARK H PARENT 18 5 11 21 23 27 85 46 51 57
REMARK Flexibility Score: inf
ROOT
ATOM      1  C   UNL A   1      39.700  21.492  26.518  1.00  0.00     0.116 C 
ENDROOT
BRANCH   1   2
ATOM      2  N   UNL A   1      38.953  22.432  25.703  1.00  0.00    -0.356 N 
ATOM      3  C   UNL A   1      37.668  22.387  25.258  1.00  0.00     0.223 C 
ATOM      4  O   UNL A   1      37.283  23.294  24.515  1.00  0.00    -0.275 OA
ATOM      5  H   UNL A   1      39.457  23.231  25.428  1.00  0.00     0.163 HD
BRANCH   3   6
ATOM      6  C   UNL A   1      36.707  21.271  25.669  1.00  0.00     0.081 C 
ATOM      7  C   UNL A   1      37.006  20.020  24.842  1.00  0.00     0.018 C 
BRANCH   6   8
ATOM      8  C   UNL A   1      35.231  21.753  25.756  1.00  0.00     0.031 C 
ATOM      9  C   UNL A   1      34.674  21.885  24.324  1.00  0.00     0.011 C 
BRANCH   8  10
ATOM     10  C   UNL A   1      35.022  23.000  26.651  1.00  0.00     0.152 C 
BRANCH  10  11
ATOM     11  C   UNL A   1      34.142  24.051  26.008  1.00  0.00     0.023 A 
ATOM     12  C   UNL A   1      32.746  23.940  26.026  1.00  0.00     0.125 A 
ATOM     13  C   UNL A   1      31.944  24.952  25.497  1.00  0.00     0.047 A 
ATOM     14  C   UNL A   1      32.531  26.094  24.948  1.00  0.00     0.004 A 
ATOM     15  C   UNL A   1      34.718  25.198  25.431  1.00  0.00     0.010 A 
ATOM     16  C   UNL A   1      33.919  26.213  24.904  1.00  0.00     0.001 A 
BRANCH  12  17
ATOM     17  O   UNL A   1      32.161  22.774  26.438  1.00  0.00    -0.493 OA
BRANCH  17  18
ATOM     18  C   UNL A   1      30.823  22.614  25.955  1.00  0.00     0.226 C 
ATOM     19  C   UNL A   1      29.875  22.673  27.146  1.00  0.00     0.049 C 
ENDBRANCH  17  18
ENDBRANCH  12  17
ENDBRANCH  10  11
BRANCH  10  20
ATOM     20  O   UNL A   1      34.381  22.591  27.867  1.00  0.00    -0.388 OA
ATOM     21  H   UNL A   1      34.172  23.373  28.402  1.00  0.00     0.211 HD
ENDBRANCH  10  20
ENDBRANCH   8  10
ENDBRANCH   6   8
ENDBRANCH   3   6
ENDBRANCH   1   2
BRANCH   1  22
ATOM     22  C   UNL A   1      40.405  22.194  27.685  1.00  0.00     0.023 C 
BRANCH  22  23
ATOM     23  C   UNL A   1      41.920  22.027  27.708  1.00  0.00     0.023 C 
BRANCH  23  24
ATOM     24  C   UNL A   1      42.697  23.319  27.524  1.00  0.00     0.116 C 
BRANCH  24  25
ATOM     25  N   UNL A   1      42.392  23.996  26.273  1.00  0.00    -0.352 N 
ATOM     26  C   UNL A   1      41.892  25.263  26.101  1.00  0.00     0.251 C 
ATOM     27  H   UNL A   1      42.563  23.483  25.450  1.00  0.00     0.163 HD
ATOM     28  O   UNL A   1      41.566  25.659  24.987  1.00  0.00    -0.269 OA
BRANCH  26  29
ATOM     29  C   UNL A   1      41.722  26.121  27.289  1.00  0.00     0.039 A 
ATOM     30  C   UNL A   1      42.620  27.167  27.502  1.00  0.00     0.014 A 
ATOM     31  C   UNL A   1      40.641  25.921  28.152  1.00  0.00     0.014 A 
ATOM     32  C   UNL A   1      42.406  28.045  28.565  1.00  0.00     0.010 A 
ATOM     33  C   UNL A   1      40.380  26.848  29.151  1.00  0.00     0.010 A 
ATOM     34  C   UNL A   1      41.272  27.905  29.382  1.00  0.00    -0.014 A 
BRANCH  34  35
ATOM     35  C   UNL A   1      41.027  28.821  30.521  1.00  0.00     0.031 A 
ATOM     36  C   UNL A   1      41.858  28.688  31.769  1.00  0.00     0.074 A 
ATOM     37  C   UNL A   1      40.031  29.724  30.455  1.00  0.00     0.049 A 
ATOM     38  N   UNL A   1      41.765  29.343  32.896  1.00  0.00    -0.248 NA
ATOM     39  C   UNL A   1      42.908  27.657  31.758  1.00  0.00     0.031 C 
ATOM     40  C   UNL A   1      39.121  29.902  29.322  1.00  0.00     0.029 A 
ATOM     41  N   UNL A   1      39.610  30.656  31.368  1.00  0.00    -0.354 N 
ATOM     42  C   UNL A   1      42.731  28.792  33.730  1.00  0.00     0.074 A 
ATOM     43  C   UNL A   1      43.348  27.705  33.005  1.00  0.00     0.031 C 
ATOM     44  C   UNL A   1      38.263  30.897  29.600  1.00  0.00     0.029 A 
ATOM     45  C   UNL A   1      38.543  31.408  30.939  1.00  0.00     0.049 A 
ATOM     46  H   UNL A   1      40.033  30.776  32.250  1.00  0.00     0.167 HD
ATOM     47  C   UNL A   1      43.097  29.180  34.975  1.00  0.00     0.037 A 
ATOM     48  C   UNL A   1      37.869  32.397  31.556  1.00  0.00     0.037 A 
ATOM     49  C   UNL A   1      42.495  30.281  35.678  1.00  0.00     0.049 A 
ATOM     50  C   UNL A   1      38.311  32.836  32.925  1.00  0.00     0.074 A 
ATOM     51  C   UNL A   1      42.812  30.785  36.927  1.00  0.00     0.029 A 
ATOM     52  N   UNL A   1      41.452  31.055  35.187  1.00  0.00    -0.354 N 
ATOM     53  N   UNL A   1      39.262  32.341  33.682  1.00  0.00    -0.248 NA
ATOM     54  C   UNL A   1      37.604  33.978  33.518  1.00  0.00     0.031 C 
ATOM     55  C   UNL A   1      41.940  31.844  37.204  1.00  0.00     0.029 A 
ATOM     56  C   UNL A   1      41.111  32.031  36.107  1.00  0.00     0.049 A 
ATOM     57  H   UNL A   1      41.019  30.928  34.312  1.00  0.00     0.167 HD
ATOM     58  C   UNL A   1      39.290  33.132  34.826  1.00  0.00     0.074 A 
ATOM     59  C   UNL A   1      38.264  34.141  34.656  1.00  0.00     0.031 C 
ATOM     60  C   UNL A   1      40.094  33.035  35.914  1.00  0.00     0.037 A 
BRANCH  47  61
ATOM     61  C   UNL A   1      44.203  28.407  35.639  1.00  0.00     0.058 A 
ATOM     62  C   UNL A   1      43.934  27.311  36.479  1.00  0.00     0.135 A 
ATOM     63  C   UNL A   1      45.547  28.767  35.447  1.00  0.00     0.135 A 
ATOM     64  F   UNL A   1      42.667  26.933  36.713  1.00  0.00    -0.206 F 
ATOM     65  C   UNL A   1      44.952  26.633  37.140  1.00  0.00     0.059 A 
ATOM     66  C   UNL A   1      46.584  28.081  36.074  1.00  0.00     0.059 A 
ATOM     67  F   UNL A   1      45.863  29.804  34.657  1.00  0.00    -0.206 F 
ATOM     68  C   UNL A   1      46.274  27.029  36.935  1.00  0.00     0.060 A 
BRANCH  68  69
ATOM     69  S   UNL A   1      47.583  26.152  37.818  1.00  0.00     0.124 S 
ATOM     70  O   UNL A   1      46.873  25.697  39.010  1.00  0.00    -0.237 OA
ATOM     71  O   UNL A   1      47.958  25.112  36.868  1.00  0.00    -0.237 OA
ATOM     72  O   UNL A   1      48.590  27.185  38.043  1.00  0.00    -0.744 OA
ENDBRANCH  68  69
ENDBRANCH  47  61
BRANCH  48  73
ATOM     73  C   UNL A   1      36.737  33.064  30.859  1.00  0.00     0.058 A 
ATOM     74  C   UNL A   1      35.410  32.819  31.240  1.00  0.00     0.135 A 
ATOM     75  C   UNL A   1      36.961  33.989  29.827  1.00  0.00     0.135 A 
ATOM     76  F   UNL A   1      35.145  31.941  32.220  1.00  0.00    -0.206 F 
ATOM     77  C   UNL A   1      34.343  33.458  30.617  1.00  0.00     0.059 A 
ATOM     78  C   UNL A   1      35.912  34.658  29.205  1.00  0.00     0.059 A 
ATOM     79  F   UNL A   1      38.214  34.272  29.439  1.00  0.00    -0.206 F 
ATOM     80  C   UNL A   1      34.604  34.381  29.603  1.00  0.00     0.060 A 
BRANCH  80  81
ATOM     81  S   UNL A   1      33.215  35.254  28.847  1.00  0.00     0.124 S 
ATOM     82  O   UNL A   1      33.897  36.321  28.125  1.00  0.00    -0.237 OA
ATOM     83  O   UNL A   1      32.608  34.212  28.027  1.00  0.00    -0.237 OA
ATOM     84  O   UNL A   1      32.421  35.677  29.998  1.00  0.00    -0.744 OA
ENDBRANCH  80  81
ENDBRANCH  48  73
BRANCH  60  85
ATOM     85  C   UNL A   1      39.933  34.076  36.986  1.00  0.00     0.058 A 
ATOM     86  C   UNL A   1      40.642  35.286  36.957  1.00  0.00     0.135 A 
ATOM     87  C   UNL A   1      39.019  33.875  38.033  1.00  0.00     0.135 A 
ATOM     88  F   UNL A   1      41.530  35.526  35.979  1.00  0.00    -0.206 F 
ATOM     89  C   UNL A   1      40.473  36.250  37.946  1.00  0.00     0.059 A 
ATOM     90  C   UNL A   1      38.813  34.836  39.017  1.00  0.00     0.059 A 
ATOM     91  F   UNL A   1      38.306  32.740  38.100  1.00  0.00    -0.206 F 
ATOM     92  C   UNL A   1      39.556  36.015  38.973  1.00  0.00     0.060 A 
BRANCH  92  93
ATOM     93  S   UNL A   1      39.329  37.281  40.240  1.00  0.00     0.124 S 
ATOM     94  O   UNL A   1      38.682  36.519  41.302  1.00  0.00    -0.237 OA
ATOM     95  O   UNL A   1      40.701  37.706  40.508  1.00  0.00    -0.237 OA
ATOM     96  O   UNL A   1      38.490  38.276  39.578  1.00  0.00    -0.744 OA
ENDBRANCH  92  93
ENDBRANCH  60  85
ENDBRANCH  34  35
ENDBRANCH  26  29
ENDBRANCH  24  25
ENDBRANCH  23  24
ENDBRANCH  22  23
ENDBRANCH   1  22
TORSDOF 20
ENDMDL
