MODEL 1
REMARK VINA RESULT:     -10.5      0.000      0.000
REMARK SMILES O=C(NCCCCNC(=O)[C@H]1[NH2+][C@@H]2CC[C@H]1CC2(F)F)c1ccc(-c2c3nc(c(-c4c(F)cc(S(=O)(=O)[O-])cc4F)c4ccc([nH]4)c(-c4c(F)cc(S(=O)(=O)[O-])cc4F)c4nc(c(-c5c(F)cc(S(=O)(=O)[O-])cc5F)c5ccc2[nH]5)C=C4)C=C3)cc1
REMARK SMILES IDX 4 1 3 2 1 3 2 4 21 6 22 7 86 8 23 9 85 10 24 11 25 12 26 13
REMARK SMILES IDX 79 14 27 15 84 16 78 17 80 18 28 19 83 20 77 21 76 22 29 24
REMARK SMILES IDX 63 25 42 26 62 27 43 28 46 29 61 30 81 31 44 32 45 33 60 35
REMARK SMILES IDX 82 36 47 37 30 38 31 39 40 40 32 41 33 42 39 43 41 44 34 45
REMARK SMILES IDX 35 46 36 47 37 48 38 49 64 50 65 51 74 52 66 53 67 54 73 55
REMARK SMILES IDX 75 56 68 57 69 58 70 59 71 60 72 61 48 62 49 63 58 64 50 65
REMARK SMILES IDX 51 66 57 67 59 68 52 69 53 70 54 71 55 72 56 73 5 74 6 75
REMARK SMILES IDX 7 76 8 77 9 78 10 80 11 81 12 82 16 83 13 84 15 87 17 88
REMARK SMILES IDX 14 89 18 90 19 91 20 92
REMARK H PARENT 3 5 80 23 46 34 8 79 12 85 12 86
REMARK Flexibility Score: inf
ROOT
ATOM      1  C   UNL A   1      34.464  32.289  28.803  1.00  0.00     0.116 C 
ENDROOT
BRANCH   1   2
ATOM      2  N   UNL A   1      33.871  31.099  28.206  1.00  0.00    -0.352 N 
ATOM      3  O   UNL A   1      33.931  29.008  27.328  1.00  0.00    -0.269 OA
ATOM      4  C   UNL A   1      34.514  29.918  27.905  1.00  0.00     0.251 C 
ATOM      5  H   UNL A   1      32.911  31.145  27.995  1.00  0.00     0.163 HD
BRANCH   4   6
ATOM      6  C   UNL A   1      35.943  29.800  28.259  1.00  0.00     0.039 A 
ATOM      7  C   UNL A   1      36.915  30.067  27.294  1.00  0.00     0.014 A 
ATOM      8  C   UNL A   1      36.300  29.315  29.519  1.00  0.00     0.014 A 
ATOM      9  C   UNL A   1      38.231  29.702  27.536  1.00  0.00     0.010 A 
ATOM     10  C   UNL A   1      37.640  29.029  29.789  1.00  0.00     0.010 A 
ATOM     11  C   UNL A   1      38.611  29.184  28.787  1.00  0.00    -0.014 A 
BRANCH  11  12
ATOM     12  C   UNL A   1      40.041  28.873  29.025  1.00  0.00     0.031 A 
ATOM     13  C   UNL A   1      40.635  27.551  28.622  1.00  0.00     0.074 A 
ATOM     14  C   UNL A   1      40.816  29.835  29.561  1.00  0.00     0.049 A 
ATOM     15  N   UNL A   1      41.874  27.144  28.730  1.00  0.00    -0.248 NA
ATOM     16  C   UNL A   1      39.729  26.556  28.028  1.00  0.00     0.031 C 
ATOM     17  C   UNL A   1      40.338  31.150  30.001  1.00  0.00     0.029 A 
ATOM     18  N   UNL A   1      42.163  29.877  29.801  1.00  0.00    -0.354 N 
ATOM     19  C   UNL A   1      41.896  25.843  28.240  1.00  0.00     0.074 A 
ATOM     20  C   UNL A   1      40.541  25.522  27.844  1.00  0.00     0.031 C 
ATOM     21  C   UNL A   1      41.383  31.888  30.401  1.00  0.00     0.029 A 
ATOM     22  C   UNL A   1      42.593  31.082  30.305  1.00  0.00     0.049 A 
ATOM     23  H   UNL A   1      42.767  29.118  29.628  1.00  0.00     0.167 HD
ATOM     24  C   UNL A   1      42.951  25.001  28.128  1.00  0.00     0.037 A 
ATOM     25  C   UNL A   1      43.823  31.489  30.665  1.00  0.00     0.037 A 
ATOM     26  C   UNL A   1      44.302  25.341  28.506  1.00  0.00     0.049 A 
ATOM     27  C   UNL A   1      44.973  30.539  30.517  1.00  0.00     0.074 A 
ATOM     28  C   UNL A   1      45.443  24.561  28.420  1.00  0.00     0.029 A 
ATOM     29  N   UNL A   1      44.693  26.562  29.036  1.00  0.00    -0.354 N 
ATOM     30  N   UNL A   1      44.970  29.312  30.054  1.00  0.00    -0.248 NA
ATOM     31  C   UNL A   1      46.290  31.023  30.948  1.00  0.00     0.031 C 
ATOM     32  C   UNL A   1      46.519  25.302  28.921  1.00  0.00     0.029 A 
ATOM     33  C   UNL A   1      46.056  26.554  29.289  1.00  0.00     0.049 A 
ATOM     34  H   UNL A   1      44.092  27.323  29.206  1.00  0.00     0.167 HD
ATOM     35  C   UNL A   1      46.284  28.873  30.144  1.00  0.00     0.074 A 
ATOM     36  C   UNL A   1      47.059  29.978  30.674  1.00  0.00     0.031 C 
ATOM     37  C   UNL A   1      46.802  27.660  29.830  1.00  0.00     0.037 A 
BRANCH  24  38
ATOM     38  C   UNL A   1      42.700  23.623  27.585  1.00  0.00     0.058 A 
ATOM     39  C   UNL A   1      42.775  23.348  26.210  1.00  0.00     0.135 A 
ATOM     40  C   UNL A   1      42.456  22.546  28.453  1.00  0.00     0.135 A 
ATOM     41  F   UNL A   1      42.990  24.343  25.334  1.00  0.00    -0.206 F 
ATOM     42  C   UNL A   1      42.608  22.058  25.715  1.00  0.00     0.059 A 
ATOM     43  C   UNL A   1      42.304  21.244  27.983  1.00  0.00     0.059 A 
ATOM     44  F   UNL A   1      42.374  22.754  29.778  1.00  0.00    -0.206 F 
ATOM     45  C   UNL A   1      42.375  21.011  26.610  1.00  0.00     0.060 A 
BRANCH  45  46
ATOM     46  S   UNL A   1      42.188  19.339  25.956  1.00  0.00     0.124 S 
ATOM     47  O   UNL A   1      40.747  19.273  25.732  1.00  0.00    -0.237 OA
ATOM     48  O   UNL A   1      43.015  19.377  24.754  1.00  0.00    -0.237 OA
ATOM     49  O   UNL A   1      42.694  18.494  27.034  1.00  0.00    -0.744 OA
ENDBRANCH  45  46
ENDBRANCH  24  38
BRANCH  25  50
ATOM     50  C   UNL A   1      44.014  32.853  31.216  1.00  0.00     0.058 A 
ATOM     51  C   UNL A   1      44.209  33.955  30.372  1.00  0.00     0.135 A 
ATOM     52  C   UNL A   1      43.969  33.085  32.600  1.00  0.00     0.135 A 
ATOM     53  F   UNL A   1      44.259  33.781  29.042  1.00  0.00    -0.206 F 
ATOM     54  C   UNL A   1      44.368  35.240  30.880  1.00  0.00     0.059 A 
ATOM     55  C   UNL A   1      44.100  34.363  33.130  1.00  0.00     0.059 A 
ATOM     56  F   UNL A   1      43.763  32.064  33.446  1.00  0.00    -0.206 F 
ATOM     57  C   UNL A   1      44.312  35.433  32.262  1.00  0.00     0.060 A 
BRANCH  57  58
ATOM     58  S   UNL A   1      44.462  37.108  32.919  1.00  0.00     0.124 S 
ATOM     59  O   UNL A   1      43.731  36.995  34.175  1.00  0.00    -0.237 OA
ATOM     60  O   UNL A   1      45.909  37.271  33.033  1.00  0.00    -0.237 OA
ATOM     61  O   UNL A   1      43.829  37.925  31.887  1.00  0.00    -0.744 OA
ENDBRANCH  57  58
ENDBRANCH  25  50
BRANCH  37  62
ATOM     62  C   UNL A   1      48.273  27.480  30.058  1.00  0.00     0.058 A 
ATOM     63  C   UNL A   1      48.767  27.018  31.288  1.00  0.00     0.135 A 
ATOM     64  C   UNL A   1      49.196  27.772  29.043  1.00  0.00     0.135 A 
ATOM     65  F   UNL A   1      47.922  26.735  32.292  1.00  0.00    -0.206 F 
ATOM     66  C   UNL A   1      50.131  26.882  31.515  1.00  0.00     0.059 A 
ATOM     67  C   UNL A   1      50.565  27.622  29.242  1.00  0.00     0.059 A 
ATOM     68  F   UNL A   1      48.771  28.209  27.847  1.00  0.00    -0.206 F 
ATOM     69  C   UNL A   1      51.023  27.194  30.487  1.00  0.00     0.060 A 
BRANCH  69  70
ATOM     70  S   UNL A   1      52.794  27.017  30.789  1.00  0.00     0.124 S 
ATOM     71  O   UNL A   1      53.028  28.063  31.778  1.00  0.00    -0.237 OA
ATOM     72  O   UNL A   1      52.896  25.645  31.280  1.00  0.00    -0.237 OA
ATOM     73  O   UNL A   1      53.384  27.250  29.473  1.00  0.00    -0.744 OA
ENDBRANCH  69  70
ENDBRANCH  37  62
ENDBRANCH  11  12
ENDBRANCH   4   6
ENDBRANCH   1   2
BRANCH   1  74
ATOM     74  C   UNL A   1      34.218  33.573  28.022  1.00  0.00     0.023 C 
BRANCH  74  75
ATOM     75  C   UNL A   1      33.189  34.518  28.637  1.00  0.00     0.023 C 
BRANCH  75  76
ATOM     76  C   UNL A   1      33.684  35.286  29.863  1.00  0.00     0.116 C 
BRANCH  76  77
ATOM     77  N   UNL A   1      33.476  34.559  31.094  1.00  0.00    -0.351 N 
ATOM     78  C   UNL A   1      34.313  34.192  32.098  1.00  0.00     0.278 C 
ATOM     79  H   UNL A   1      32.544  34.272  31.232  1.00  0.00     0.163 HD
ATOM     80  O   UNL A   1      33.774  33.679  33.089  1.00  0.00    -0.268 OA
BRANCH  78  81
ATOM     81  C   UNL A   1      35.839  34.435  32.124  1.00  0.00     0.276 C 
ATOM     82  N   UNL A   1      36.485  34.541  33.457  1.00  0.00    -0.328 N 
ATOM     83  C   UNL A   1      36.640  33.499  31.185  1.00  0.00     0.064 C 
ATOM     84  C   UNL A   1      37.792  33.823  33.457  1.00  0.00     0.253 C 
ATOM     85  H   UNL A   1      35.876  34.127  34.162  1.00  0.00     0.347 HD
ATOM     86  H   UNL A   1      36.648  35.525  33.670  1.00  0.00     0.347 HD
ATOM     87  C   UNL A   1      38.027  34.152  30.979  1.00  0.00     0.017 C 
ATOM     88  C   UNL A   1      36.863  32.121  31.846  1.00  0.00     0.094 C 
ATOM     89  C   UNL A   1      38.655  34.456  32.349  1.00  0.00     0.072 C 
ATOM     90  C   UNL A   1      37.663  32.311  33.137  1.00  0.00     0.298 C 
ATOM     91  F   UNL A   1      38.895  31.760  32.997  1.00  0.00    -0.200 F 
ATOM     92  F   UNL A   1      37.072  31.653  34.163  1.00  0.00    -0.200 F 
ENDBRANCH  78  81
ENDBRANCH  76  77
ENDBRANCH  75  76
ENDBRANCH  74  75
ENDBRANCH   1  74
TORSDOF 14
ENDMDL
MODEL 2
REMARK VINA RESULT:     -10.4      3.128     11.190
REMARK SMILES O=C(NCCCCNC(=O)[C@H]1[NH2+][C@@H]2CC[C@H]1CC2(F)F)c1ccc(-c2c3nc(c(-c4c(F)cc(S(=O)(=O)[O-])cc4F)c4ccc([nH]4)c(-c4c(F)cc(S(=O)(=O)[O-])cc4F)c4nc(c(-c5c(F)cc(S(=O)(=O)[O-])cc5F)c5ccc2[nH]5)C=C4)C=C3)cc1
REMARK SMILES IDX 4 1 3 2 1 3 2 4 21 6 22 7 86 8 23 9 85 10 24 11 25 12 26 13
REMARK SMILES IDX 79 14 27 15 84 16 78 17 80 18 28 19 83 20 77 21 76 22 29 24
REMARK SMILES IDX 63 25 42 26 62 27 43 28 46 29 61 30 81 31 44 32 45 33 60 35
REMARK SMILES IDX 82 36 47 37 30 38 31 39 40 40 32 41 33 42 39 43 41 44 34 45
REMARK SMILES IDX 35 46 36 47 37 48 38 49 64 50 65 51 74 52 66 53 67 54 73 55
REMARK SMILES IDX 75 56 68 57 69 58 70 59 71 60 72 61 48 62 49 63 58 64 50 65
REMARK SMILES IDX 51 66 57 67 59 68 52 69 53 70 54 71 55 72 56 73 5 74 6 75
REMARK SMILES IDX 7 76 8 77 9 78 10 80 11 81 12 82 16 83 13 84 15 87 17 88
REMARK SMILES IDX 14 89 18 90 19 91 20 92
REMARK H PARENT 3 5 80 23 46 34 8 79 12 85 12 86
REMARK Flexibility Score: inf
ROOT
ATOM      1  C   UNL A   1      40.270  21.676  26.570  1.00  0.00     0.116 C 
ENDROOT
BRANCH   1   2
ATOM      2  N   UNL A   1      39.111  22.122  25.808  1.00  0.00    -0.352 N 
ATOM      3  O   UNL A   1      37.503  23.608  25.217  1.00  0.00    -0.269 OA
ATOM      4  C   UNL A   1      38.527  23.369  25.844  1.00  0.00     0.251 C 
ATOM      5  H   UNL A   1      38.701  21.461  25.204  1.00  0.00     0.163 HD
BRANCH   4   6
ATOM      6  C   UNL A   1      39.152  24.399  26.700  1.00  0.00     0.039 A 
ATOM      7  C   UNL A   1      38.819  24.462  28.054  1.00  0.00     0.014 A 
ATOM      8  C   UNL A   1      39.979  25.363  26.121  1.00  0.00     0.014 A 
ATOM      9  C   UNL A   1      39.187  25.577  28.793  1.00  0.00     0.010 A 
ATOM     10  C   UNL A   1      40.420  26.441  26.891  1.00  0.00     0.010 A 
ATOM     11  C   UNL A   1      39.997  26.576  28.223  1.00  0.00    -0.014 A 
BRANCH  11  12
ATOM     12  C   UNL A   1      40.424  27.715  29.071  1.00  0.00     0.031 A 
ATOM     13  C   UNL A   1      39.529  28.902  29.303  1.00  0.00     0.074 A 
ATOM     14  C   UNL A   1      41.622  27.633  29.682  1.00  0.00     0.049 A 
ATOM     15  N   UNL A   1      39.745  29.957  30.046  1.00  0.00    -0.248 NA
ATOM     16  C   UNL A   1      38.229  28.913  28.614  1.00  0.00     0.031 C 
ATOM     17  C   UNL A   1      42.576  26.532  29.515  1.00  0.00     0.029 A 
ATOM     18  N   UNL A   1      42.231  28.463  30.584  1.00  0.00    -0.354 N 
ATOM     19  C   UNL A   1      38.625  30.767  29.900  1.00  0.00     0.074 A 
ATOM     20  C   UNL A   1      37.733  30.086  28.985  1.00  0.00     0.031 C 
ATOM     21  C   UNL A   1      43.620  26.725  30.331  1.00  0.00     0.029 A 
ATOM     22  C   UNL A   1      43.441  27.990  31.033  1.00  0.00     0.049 A 
ATOM     23  H   UNL A   1      41.840  29.316  30.884  1.00  0.00     0.167 HD
ATOM     24  C   UNL A   1      38.367  31.963  30.481  1.00  0.00     0.037 A 
ATOM     25  C   UNL A   1      44.319  28.523  31.902  1.00  0.00     0.037 A 
ATOM     26  C   UNL A   1      39.255  32.621  31.408  1.00  0.00     0.049 A 
ATOM     27  C   UNL A   1      44.000  29.842  32.538  1.00  0.00     0.074 A 
ATOM     28  C   UNL A   1      39.079  33.831  32.060  1.00  0.00     0.029 A 
ATOM     29  N   UNL A   1      40.483  32.123  31.818  1.00  0.00    -0.354 N 
ATOM     30  N   UNL A   1      42.935  30.591  32.383  1.00  0.00    -0.248 NA
ATOM     31  C   UNL A   1      45.002  30.392  33.459  1.00  0.00     0.031 C 
ATOM     32  C   UNL A   1      40.211  34.075  32.845  1.00  0.00     0.029 A 
ATOM     33  C   UNL A   1      41.079  33.004  32.708  1.00  0.00     0.049 A 
ATOM     34  H   UNL A   1      40.874  31.270  31.523  1.00  0.00     0.167 HD
ATOM     35  C   UNL A   1      43.142  31.708  33.182  1.00  0.00     0.074 A 
ATOM     36  C   UNL A   1      44.417  31.517  33.845  1.00  0.00     0.031 C 
ATOM     37  C   UNL A   1      42.354  32.799  33.343  1.00  0.00     0.037 A 
BRANCH  24  38
ATOM     38  C   UNL A   1      37.079  32.655  30.130  1.00  0.00     0.058 A 
ATOM     39  C   UNL A   1      35.903  32.436  30.865  1.00  0.00     0.135 A 
ATOM     40  C   UNL A   1      37.037  33.605  29.097  1.00  0.00     0.135 A 
ATOM     41  F   UNL A   1      35.884  31.526  31.853  1.00  0.00    -0.206 F 
ATOM     42  C   UNL A   1      34.729  33.127  30.581  1.00  0.00     0.059 A 
ATOM     43  C   UNL A   1      35.879  34.322  28.807  1.00  0.00     0.059 A 
ATOM     44  F   UNL A   1      38.134  33.852  28.363  1.00  0.00    -0.206 F 
ATOM     45  C   UNL A   1      34.726  34.071  29.551  1.00  0.00     0.060 A 
BRANCH  45  46
ATOM     46  S   UNL A   1      33.204  34.980  29.214  1.00  0.00     0.124 S 
ATOM     47  O   UNL A   1      33.727  36.261  28.748  1.00  0.00    -0.237 OA
ATOM     48  O   UNL A   1      32.562  34.152  28.198  1.00  0.00    -0.237 OA
ATOM     49  O   UNL A   1      32.531  35.011  30.510  1.00  0.00    -0.744 OA
ENDBRANCH  45  46
ENDBRANCH  24  38
BRANCH  25  50
ATOM     50  C   UNL A   1      45.586  27.809  32.196  1.00  0.00     0.058 A 
ATOM     51  C   UNL A   1      46.740  28.035  31.435  1.00  0.00     0.135 A 
ATOM     52  C   UNL A   1      45.673  26.909  33.270  1.00  0.00     0.135 A 
ATOM     53  F   UNL A   1      46.704  28.888  30.398  1.00  0.00    -0.206 F 
ATOM     54  C   UNL A   1      47.937  27.385  31.718  1.00  0.00     0.059 A 
ATOM     55  C   UNL A   1      46.864  26.266  33.589  1.00  0.00     0.059 A 
ATOM     56  F   UNL A   1      44.600  26.676  34.041  1.00  0.00    -0.206 F 
ATOM     57  C   UNL A   1      47.987  26.502  32.798  1.00  0.00     0.060 A 
BRANCH  57  58
ATOM     58  S   UNL A   1      49.554  25.699  33.199  1.00  0.00     0.124 S 
ATOM     59  O   UNL A   1      49.105  24.375  33.616  1.00  0.00    -0.237 OA
ATOM     60  O   UNL A   1      50.273  25.761  31.930  1.00  0.00    -0.237 OA
ATOM     61  O   UNL A   1      50.097  26.547  34.257  1.00  0.00    -0.744 OA
ENDBRANCH  57  58
ENDBRANCH  25  50
BRANCH  37  62
ATOM     62  C   UNL A   1      42.863  33.862  34.272  1.00  0.00     0.058 A 
ATOM     63  C   UNL A   1      42.614  33.801  35.651  1.00  0.00     0.135 A 
ATOM     64  C   UNL A   1      43.605  34.947  33.780  1.00  0.00     0.135 A 
ATOM     65  F   UNL A   1      41.901  32.788  36.166  1.00  0.00    -0.206 F 
ATOM     66  C   UNL A   1      43.054  34.801  36.511  1.00  0.00     0.059 A 
ATOM     67  C   UNL A   1      44.073  35.947  34.626  1.00  0.00     0.059 A 
ATOM     68  F   UNL A   1      43.875  35.043  32.469  1.00  0.00    -0.206 F 
ATOM     69  C   UNL A   1      43.777  35.874  35.987  1.00  0.00     0.060 A 
BRANCH  69  70
ATOM     70  S   UNL A   1      44.346  37.170  37.107  1.00  0.00     0.124 S 
ATOM     71  O   UNL A   1      45.257  36.429  37.972  1.00  0.00    -0.237 OA
ATOM     72  O   UNL A   1      44.972  38.125  36.196  1.00  0.00    -0.237 OA
ATOM     73  O   UNL A   1      43.114  37.633  37.739  1.00  0.00    -0.744 OA
ENDBRANCH  69  70
ENDBRANCH  37  62
ENDBRANCH  11  12
ENDBRANCH   4   6
ENDBRANCH   1   2
BRANCH   1  74
ATOM     74  C   UNL A   1      40.756  20.277  26.216  1.00  0.00     0.023 C 
BRANCH  74  75
ATOM     75  C   UNL A   1      42.020  19.827  26.944  1.00  0.00     0.023 C 
BRANCH  75  76
ATOM     76  C   UNL A   1      43.174  19.425  26.026  1.00  0.00     0.116 C 
BRANCH  76  77
ATOM     77  N   UNL A   1      43.423  20.400  24.989  1.00  0.00    -0.351 N 
ATOM     78  C   UNL A   1      44.056  21.601  24.987  1.00  0.00     0.278 C 
ATOM     79  H   UNL A   1      43.063  20.142  24.109  1.00  0.00     0.163 HD
ATOM     80  O   UNL A   1      44.207  22.130  23.877  1.00  0.00    -0.268 OA
BRANCH  78  81
ATOM     81  C   UNL A   1      44.655  22.298  26.231  1.00  0.00     0.276 C 
ATOM     82  N   UNL A   1      45.960  22.985  26.059  1.00  0.00    -0.328 N 
ATOM     83  C   UNL A   1      43.647  23.190  26.997  1.00  0.00     0.064 C 
ATOM     84  C   UNL A   1      45.963  24.282  26.796  1.00  0.00     0.253 C 
ATOM     85  H   UNL A   1      46.121  23.162  25.068  1.00  0.00     0.347 HD
ATOM     86  H   UNL A   1      46.699  22.391  26.433  1.00  0.00     0.347 HD
ATOM     87  C   UNL A   1      44.238  23.424  28.407  1.00  0.00     0.017 C 
ATOM     88  C   UNL A   1      43.505  24.568  26.312  1.00  0.00     0.094 C 
ATOM     89  C   UNL A   1      45.673  23.962  28.274  1.00  0.00     0.072 C 
ATOM     90  C   UNL A   1      44.866  25.266  26.311  1.00  0.00     0.298 C 
ATOM     91  F   UNL A   1      44.825  26.351  27.125  1.00  0.00    -0.200 F 
ATOM     92  F   UNL A   1      45.158  25.736  25.075  1.00  0.00    -0.200 F 
ENDBRANCH  78  81
ENDBRANCH  76  77
ENDBRANCH  75  76
ENDBRANCH  74  75
ENDBRANCH   1  74
TORSDOF 14
ENDMDL
MODEL 3
REMARK VINA RESULT:     -10.2      0.528      8.470
REMARK SMILES O=C(NCCCCNC(=O)[C@H]1[NH2+][C@@H]2CC[C@H]1CC2(F)F)c1ccc(-c2c3nc(c(-c4c(F)cc(S(=O)(=O)[O-])cc4F)c4ccc([nH]4)c(-c4c(F)cc(S(=O)(=O)[O-])cc4F)c4nc(c(-c5c(F)cc(S(=O)(=O)[O-])cc5F)c5ccc2[nH]5)C=C4)C=C3)cc1
REMARK SMILES IDX 4 1 3 2 1 3 2 4 21 6 22 7 86 8 23 9 85 10 24 11 25 12 26 13
REMARK SMILES IDX 79 14 27 15 84 16 78 17 80 18 28 19 83 20 77 21 76 22 29 24
REMARK SMILES IDX 63 25 42 26 62 27 43 28 46 29 61 30 81 31 44 32 45 33 60 35
REMARK SMILES IDX 82 36 47 37 30 38 31 39 40 40 32 41 33 42 39 43 41 44 34 45
REMARK SMILES IDX 35 46 36 47 37 48 38 49 64 50 65 51 74 52 66 53 67 54 73 55
REMARK SMILES IDX 75 56 68 57 69 58 70 59 71 60 72 61 48 62 49 63 58 64 50 65
REMARK SMILES IDX 51 66 57 67 59 68 52 69 53 70 54 71 55 72 56 73 5 74 6 75
REMARK SMILES IDX 7 76 8 77 9 78 10 80 11 81 12 82 16 83 13 84 15 87 17 88
REMARK SMILES IDX 14 89 18 90 19 91 20 92
REMARK H PARENT 3 5 80 23 46 34 8 79 12 85 12 86
REMARK Flexibility Score: inf
ROOT
ATOM      1  C   UNL A   1      34.382  32.312  28.467  1.00  0.00     0.116 C 
ENDROOT
BRANCH   1   2
ATOM      2  N   UNL A   1      33.793  31.042  28.066  1.00  0.00    -0.352 N 
ATOM      3  O   UNL A   1      33.860  28.844  27.507  1.00  0.00    -0.269 OA
ATOM      4  C   UNL A   1      34.443  29.835  27.930  1.00  0.00     0.251 C 
ATOM      5  H   UNL A   1      32.828  31.047  27.870  1.00  0.00     0.163 HD
BRANCH   4   6
ATOM      6  C   UNL A   1      35.880  29.783  28.269  1.00  0.00     0.039 A 
ATOM      7  C   UNL A   1      36.829  30.077  27.289  1.00  0.00     0.014 A 
ATOM      8  C   UNL A   1      36.271  29.333  29.532  1.00  0.00     0.014 A 
ATOM      9  C   UNL A   1      38.162  29.771  27.521  1.00  0.00     0.010 A 
ATOM     10  C   UNL A   1      37.625  29.108  29.791  1.00  0.00     0.010 A 
ATOM     11  C   UNL A   1      38.577  29.290  28.776  1.00  0.00    -0.014 A 
BRANCH  11  12
ATOM     12  C   UNL A   1      40.022  29.043  29.002  1.00  0.00     0.031 A 
ATOM     13  C   UNL A   1      40.895  30.058  29.685  1.00  0.00     0.074 A 
ATOM     14  C   UNL A   1      40.524  27.849  28.629  1.00  0.00     0.049 A 
ATOM     15  N   UNL A   1      42.166  29.974  29.988  1.00  0.00    -0.248 NA
ATOM     16  C   UNL A   1      40.272  31.332  30.078  1.00  0.00     0.031 C 
ATOM     17  C   UNL A   1      39.767  26.796  27.945  1.00  0.00     0.029 A 
ATOM     18  N   UNL A   1      41.769  27.305  28.795  1.00  0.00    -0.354 N 
ATOM     19  C   UNL A   1      42.501  31.184  30.584  1.00  0.00     0.074 A 
ATOM     20  C   UNL A   1      41.301  31.994  30.590  1.00  0.00     0.031 C 
ATOM     21  C   UNL A   1      40.545  25.715  27.803  1.00  0.00     0.029 A 
ATOM     22  C   UNL A   1      41.870  26.016  28.328  1.00  0.00     0.049 A 
ATOM     23  H   UNL A   1      42.520  27.790  29.210  1.00  0.00     0.167 HD
ATOM     24  C   UNL A   1      43.698  31.576  31.082  1.00  0.00     0.037 A 
ATOM     25  C   UNL A   1      42.919  25.173  28.311  1.00  0.00     0.037 A 
ATOM     26  C   UNL A   1      44.882  30.751  31.090  1.00  0.00     0.049 A 
ATOM     27  C   UNL A   1      44.226  25.631  28.882  1.00  0.00     0.074 A 
ATOM     28  C   UNL A   1      46.140  31.053  31.583  1.00  0.00     0.029 A 
ATOM     29  N   UNL A   1      44.951  29.461  30.585  1.00  0.00    -0.354 N 
ATOM     30  N   UNL A   1      44.521  26.782  29.438  1.00  0.00    -0.248 NA
ATOM     31  C   UNL A   1      45.345  24.684  28.815  1.00  0.00     0.031 C 
ATOM     32  C   UNL A   1      46.977  29.955  31.354  1.00  0.00     0.029 A 
ATOM     33  C   UNL A   1      46.232  28.956  30.748  1.00  0.00     0.049 A 
ATOM     34  H   UNL A   1      44.201  28.974  30.174  1.00  0.00     0.167 HD
ATOM     35  C   UNL A   1      45.863  26.700  29.782  1.00  0.00     0.074 A 
ATOM     36  C   UNL A   1      46.312  25.374  29.402  1.00  0.00     0.031 C 
ATOM     37  C   UNL A   1      46.658  27.640  30.349  1.00  0.00     0.037 A 
BRANCH  24  38
ATOM     38  C   UNL A   1      43.805  32.962  31.656  1.00  0.00     0.058 A 
ATOM     39  C   UNL A   1      44.072  34.075  30.843  1.00  0.00     0.135 A 
ATOM     40  C   UNL A   1      43.563  33.191  33.020  1.00  0.00     0.135 A 
ATOM     41  F   UNL A   1      44.327  33.911  29.535  1.00  0.00    -0.206 F 
ATOM     42  C   UNL A   1      44.104  35.365  31.365  1.00  0.00     0.059 A 
ATOM     43  C   UNL A   1      43.571  34.474  33.560  1.00  0.00     0.059 A 
ATOM     44  F   UNL A   1      43.303  32.160  33.841  1.00  0.00    -0.206 F 
ATOM     45  C   UNL A   1      43.850  35.556  32.725  1.00  0.00     0.060 A 
BRANCH  45  46
ATOM     46  S   UNL A   1      43.867  37.237  33.382  1.00  0.00     0.124 S 
ATOM     47  O   UNL A   1      43.896  38.028  32.155  1.00  0.00    -0.237 OA
ATOM     48  O   UNL A   1      42.622  37.291  34.141  1.00  0.00    -0.237 OA
ATOM     49  O   UNL A   1      45.088  37.277  34.183  1.00  0.00    -0.744 OA
ENDBRANCH  45  46
ENDBRANCH  24  38
BRANCH  25  50
ATOM     50  C   UNL A   1      42.766  23.824  27.714  1.00  0.00     0.058 A 
ATOM     51  C   UNL A   1      42.931  23.617  26.338  1.00  0.00     0.135 A 
ATOM     52  C   UNL A   1      42.484  22.708  28.518  1.00  0.00     0.135 A 
ATOM     53  F   UNL A   1      43.202  24.654  25.531  1.00  0.00    -0.206 F 
ATOM     54  C   UNL A   1      42.809  22.351  25.774  1.00  0.00     0.059 A 
ATOM     55  C   UNL A   1      42.382  21.429  27.982  1.00  0.00     0.059 A 
ATOM     56  F   UNL A   1      42.338  22.853  29.844  1.00  0.00    -0.206 F 
ATOM     57  C   UNL A   1      42.534  21.264  26.606  1.00  0.00     0.060 A 
BRANCH  57  58
ATOM     58  S   UNL A   1      42.430  19.612  25.882  1.00  0.00     0.124 S 
ATOM     59  O   UNL A   1      42.773  18.772  27.024  1.00  0.00    -0.237 OA
ATOM     60  O   UNL A   1      41.041  19.551  25.437  1.00  0.00    -0.237 OA
ATOM     61  O   UNL A   1      43.420  19.660  24.809  1.00  0.00    -0.744 OA
ENDBRANCH  57  58
ENDBRANCH  25  50
BRANCH  37  62
ATOM     62  C   UNL A   1      48.089  27.256  30.584  1.00  0.00     0.058 A 
ATOM     63  C   UNL A   1      48.479  26.589  31.755  1.00  0.00     0.135 A 
ATOM     64  C   UNL A   1      49.076  27.556  29.633  1.00  0.00     0.135 A 
ATOM     65  F   UNL A   1      47.572  26.290  32.697  1.00  0.00    -0.206 F 
ATOM     66  C   UNL A   1      49.809  26.261  31.993  1.00  0.00     0.059 A 
ATOM     67  C   UNL A   1      50.410  27.218  29.841  1.00  0.00     0.059 A 
ATOM     68  F   UNL A   1      48.750  28.186  28.494  1.00  0.00    -0.206 F 
ATOM     69  C   UNL A   1      50.768  26.587  31.032  1.00  0.00     0.060 A 
BRANCH  69  70
ATOM     70  S   UNL A   1      52.494  26.160  31.346  1.00  0.00     0.124 S 
ATOM     71  O   UNL A   1      52.357  24.890  32.050  1.00  0.00    -0.237 OA
ATOM     72  O   UNL A   1      53.051  26.081  29.998  1.00  0.00    -0.237 OA
ATOM     73  O   UNL A   1      52.976  27.278  32.151  1.00  0.00    -0.744 OA
ENDBRANCH  69  70
ENDBRANCH  37  62
ENDBRANCH  11  12
ENDBRANCH   4   6
ENDBRANCH   1   2
BRANCH   1  74
ATOM     74  C   UNL A   1      33.793  33.529  27.765  1.00  0.00     0.023 C 
BRANCH  74  75
ATOM     75  C   UNL A   1      33.113  34.540  28.684  1.00  0.00     0.023 C 
BRANCH  75  76
ATOM     76  C   UNL A   1      33.966  34.999  29.867  1.00  0.00     0.116 C 
BRANCH  76  77
ATOM     77  N   UNL A   1      33.668  34.272  31.080  1.00  0.00    -0.351 N 
ATOM     78  C   UNL A   1      34.406  33.978  32.181  1.00  0.00     0.278 C 
ATOM     79  H   UNL A   1      32.749  33.919  31.115  1.00  0.00     0.163 HD
ATOM     80  O   UNL A   1      33.794  33.437  33.113  1.00  0.00    -0.268 OA
BRANCH  78  81
ATOM     81  C   UNL A   1      35.898  34.331  32.378  1.00  0.00     0.276 C 
ATOM     82  N   UNL A   1      36.420  34.315  33.769  1.00  0.00    -0.328 N 
ATOM     83  C   UNL A   1      36.854  33.588  31.411  1.00  0.00     0.064 C 
ATOM     84  C   UNL A   1      37.780  33.706  33.804  1.00  0.00     0.253 C 
ATOM     85  H   UNL A   1      35.793  33.769  34.359  1.00  0.00     0.347 HD
ATOM     86  H   UNL A   1      36.478  35.273  34.113  1.00  0.00     0.347 HD
ATOM     87  C   UNL A   1      38.189  34.367  31.416  1.00  0.00     0.017 C 
ATOM     88  C   UNL A   1      37.141  32.158  31.919  1.00  0.00     0.094 C 
ATOM     89  C   UNL A   1      38.673  34.540  32.866  1.00  0.00     0.072 C 
ATOM     90  C   UNL A   1      37.811  32.241  33.293  1.00  0.00     0.298 C 
ATOM     91  F   UNL A   1      39.094  31.809  33.203  1.00  0.00    -0.200 F 
ATOM     92  F   UNL A   1      37.197  31.415  34.172  1.00  0.00    -0.200 F 
ENDBRANCH  78  81
ENDBRANCH  76  77
ENDBRANCH  75  76
ENDBRANCH  74  75
ENDBRANCH   1  74
TORSDOF 14
ENDMDL
