MODEL 1
REMARK VINA RESULT:     -11.0      0.000      0.000
REMARK SMILES CCCOc1ccccc1C(=O)NCCCCNC(=O)c1ccc(-c2c3nc(c(-c4c(F)cc(S(=O)(=O)[O-])cc4F)c4ccc([nH]4)c(-c4c(F)cc(S(=O)(=O)[O-])cc4F)c4nc(c(-c5c(F)cc(S(=O)(=O)[O-])cc5F)c5ccc2[nH]5)C=C4)C=C3)cc1
REMARK SMILES IDX 15 1 14 2 13 3 11 4 12 5 10 7 5 8 6 9 7 10 9 11 8 12 4 13
REMARK SMILES IDX 3 14 2 15 1 16 16 17 17 18 18 19 19 20 20 22 21 23 22 24
REMARK SMILES IDX 86 25 23 26 85 27 24 28 25 29 26 30 79 31 27 32 84 33 78 34
REMARK SMILES IDX 80 35 28 36 83 37 77 38 76 39 29 41 63 42 42 43 62 44 43 45
REMARK SMILES IDX 46 46 61 47 81 48 44 49 45 50 60 52 82 53 47 54 30 55 31 56
REMARK SMILES IDX 40 57 32 58 33 59 39 60 41 61 34 62 35 63 36 64 37 65 38 66
REMARK SMILES IDX 64 67 65 68 74 69 66 70 67 71 73 72 75 73 68 74 69 75 70 76
REMARK SMILES IDX 71 77 72 78 48 79 49 80 58 81 50 82 51 83 57 84 59 85 52 86
REMARK SMILES IDX 53 87 54 88 55 89 56 90
REMARK H PARENT 13 6 18 21 80 40 46 51
REMARK Flexibility Score: inf
ROOT
ATOM      1  C   UNL A   1      39.050  22.771  26.325  1.00  0.00     0.023 C 
ENDROOT
BRANCH   1   2
ATOM      2  C   UNL A   1      38.036  21.849  25.646  1.00  0.00     0.116 C 
BRANCH   2   3
ATOM      3  N   UNL A   1      37.514  22.384  24.399  1.00  0.00    -0.352 N 
ATOM      4  C   UNL A   1      36.221  22.629  24.002  1.00  0.00     0.255 C 
ATOM      5  O   UNL A   1      36.024  22.963  22.833  1.00  0.00    -0.269 OA
ATOM      6  H   UNL A   1      38.199  22.605  23.729  1.00  0.00     0.163 HD
BRANCH   4   7
ATOM      7  C   UNL A   1      35.044  22.462  24.893  1.00  0.00     0.081 A 
ATOM      8  C   UNL A   1      34.513  21.238  25.317  1.00  0.00     0.132 A 
ATOM      9  C   UNL A   1      33.340  21.207  26.080  1.00  0.00     0.047 A 
ATOM     10  C   UNL A   1      32.758  22.393  26.533  1.00  0.00     0.004 A 
ATOM     11  C   UNL A   1      34.489  23.647  25.415  1.00  0.00     0.018 A 
ATOM     12  C   UNL A   1      33.356  23.613  26.232  1.00  0.00     0.001 A 
BRANCH   8  13
ATOM     13  O   UNL A   1      35.053  20.035  24.965  1.00  0.00    -0.493 OA
BRANCH  13  14
ATOM     14  C   UNL A   1      34.080  19.031  24.641  1.00  0.00     0.229 C 
BRANCH  14  15
ATOM     15  C   UNL A   1      34.741  17.708  24.246  1.00  0.00     0.038 C 
ATOM     16  C   UNL A   1      33.994  16.974  23.144  1.00  0.00     0.007 C 
ENDBRANCH  14  15
ENDBRANCH  13  14
ENDBRANCH   8  13
ENDBRANCH   4   7
ENDBRANCH   2   3
ENDBRANCH   1   2
BRANCH   1  17
ATOM     17  C   UNL A   1      40.266  22.078  26.962  1.00  0.00     0.023 C 
BRANCH  17  18
ATOM     18  C   UNL A   1      41.552  22.898  27.079  1.00  0.00     0.116 C 
BRANCH  18  19
ATOM     19  N   UNL A   1      41.731  23.888  26.032  1.00  0.00    -0.352 N 
ATOM     20  C   UNL A   1      41.748  25.263  26.068  1.00  0.00     0.251 C 
ATOM     21  H   UNL A   1      41.865  23.507  25.134  1.00  0.00     0.163 HD
ATOM     22  O   UNL A   1      41.885  25.881  25.015  1.00  0.00    -0.269 OA
BRANCH  20  23
ATOM     23  C   UNL A   1      41.553  26.018  27.330  1.00  0.00     0.039 A 
ATOM     24  C   UNL A   1      42.633  26.761  27.820  1.00  0.00     0.014 A 
ATOM     25  C   UNL A   1      40.362  25.981  28.060  1.00  0.00     0.014 A 
ATOM     26  C   UNL A   1      42.492  27.533  28.977  1.00  0.00     0.010 A 
ATOM     27  C   UNL A   1      40.200  26.806  29.181  1.00  0.00     0.010 A 
ATOM     28  C   UNL A   1      41.256  27.608  29.641  1.00  0.00    -0.014 A 
BRANCH  28  29
ATOM     29  C   UNL A   1      41.055  28.567  30.765  1.00  0.00     0.031 A 
ATOM     30  C   UNL A   1      41.876  28.483  32.024  1.00  0.00     0.074 A 
ATOM     31  C   UNL A   1      40.084  29.500  30.667  1.00  0.00     0.049 A 
ATOM     32  N   UNL A   1      41.809  29.223  33.104  1.00  0.00    -0.248 NA
ATOM     33  C   UNL A   1      42.893  27.423  32.089  1.00  0.00     0.031 C 
ATOM     34  C   UNL A   1      39.185  29.664  29.522  1.00  0.00     0.029 A 
ATOM     35  N   UNL A   1      39.684  30.482  31.542  1.00  0.00    -0.354 N 
ATOM     36  C   UNL A   1      42.765  28.718  33.977  1.00  0.00     0.074 A 
ATOM     37  C   UNL A   1      43.368  27.578  33.317  1.00  0.00     0.031 C 
ATOM     38  C   UNL A   1      38.358  30.695  29.754  1.00  0.00     0.029 A 
ATOM     39  C   UNL A   1      38.634  31.243  31.078  1.00  0.00     0.049 A 
ATOM     40  H   UNL A   1      40.107  30.627  32.419  1.00  0.00     0.167 HD
ATOM     41  C   UNL A   1      43.121  29.170  35.204  1.00  0.00     0.037 A 
ATOM     42  C   UNL A   1      37.961  32.260  31.652  1.00  0.00     0.037 A 
ATOM     43  C   UNL A   1      42.528  30.313  35.854  1.00  0.00     0.049 A 
ATOM     44  C   UNL A   1      38.364  32.734  33.022  1.00  0.00     0.074 A 
ATOM     45  C   UNL A   1      42.863  30.879  37.073  1.00  0.00     0.029 A 
ATOM     46  N   UNL A   1      41.473  31.059  35.349  1.00  0.00    -0.354 N 
ATOM     47  N   UNL A   1      39.320  32.286  33.800  1.00  0.00    -0.248 NA
ATOM     48  C   UNL A   1      37.601  33.854  33.590  1.00  0.00     0.031 C 
ATOM     49  C   UNL A   1      41.979  31.932  37.329  1.00  0.00     0.029 A 
ATOM     50  C   UNL A   1      41.129  32.061  36.244  1.00  0.00     0.049 A 
ATOM     51  H   UNL A   1      41.033  30.901  34.483  1.00  0.00     0.167 HD
ATOM     52  C   UNL A   1      39.292  33.089  34.936  1.00  0.00     0.074 A 
ATOM     53  C   UNL A   1      38.233  34.055  34.740  1.00  0.00     0.031 C 
ATOM     54  C   UNL A   1      40.077  33.028  36.040  1.00  0.00     0.037 A 
BRANCH  41  55
ATOM     55  C   UNL A   1      44.209  28.430  35.937  1.00  0.00     0.058 A 
ATOM     56  C   UNL A   1      43.922  27.355  36.795  1.00  0.00     0.135 A 
ATOM     57  C   UNL A   1      45.560  28.763  35.740  1.00  0.00     0.135 A 
ATOM     58  F   UNL A   1      42.649  26.997  37.027  1.00  0.00    -0.206 F 
ATOM     59  C   UNL A   1      44.930  26.658  37.453  1.00  0.00     0.059 A 
ATOM     60  C   UNL A   1      46.587  28.061  36.365  1.00  0.00     0.059 A 
ATOM     61  F   UNL A   1      45.894  29.777  34.926  1.00  0.00    -0.206 F 
ATOM     62  C   UNL A   1      46.261  27.020  37.233  1.00  0.00     0.060 A 
BRANCH  62  63
ATOM     63  S   UNL A   1      47.556  26.105  38.096  1.00  0.00     0.124 S 
ATOM     64  O   UNL A   1      48.750  26.552  37.386  1.00  0.00    -0.237 OA
ATOM     65  O   UNL A   1      47.418  26.587  39.467  1.00  0.00    -0.237 OA
ATOM     66  O   UNL A   1      47.186  24.709  37.885  1.00  0.00    -0.744 OA
ENDBRANCH  62  63
ENDBRANCH  41  55
BRANCH  42  67
ATOM     67  C   UNL A   1      36.840  32.912  30.921  1.00  0.00     0.058 A 
ATOM     68  C   UNL A   1      37.085  33.866  29.923  1.00  0.00     0.135 A 
ATOM     69  C   UNL A   1      35.503  32.587  31.199  1.00  0.00     0.135 A 
ATOM     70  F   UNL A   1      38.346  34.218  29.627  1.00  0.00    -0.206 F 
ATOM     71  C   UNL A   1      36.047  34.488  29.237  1.00  0.00     0.059 A 
ATOM     72  C   UNL A   1      34.448  33.174  30.507  1.00  0.00     0.059 A 
ATOM     73  F   UNL A   1      35.215  31.669  32.134  1.00  0.00    -0.206 F 
ATOM     74  C   UNL A   1      34.730  34.132  29.534  1.00  0.00     0.060 A 
BRANCH  74  75
ATOM     75  S   UNL A   1      33.391  34.909  28.604  1.00  0.00     0.124 S 
ATOM     76  O   UNL A   1      34.121  35.873  27.790  1.00  0.00    -0.237 OA
ATOM     77  O   UNL A   1      32.817  33.774  27.888  1.00  0.00    -0.237 OA
ATOM     78  O   UNL A   1      32.543  35.476  29.648  1.00  0.00    -0.744 OA
ENDBRANCH  74  75
ENDBRANCH  42  67
BRANCH  54  79
ATOM     79  C   UNL A   1      39.852  34.057  37.115  1.00  0.00     0.058 A 
ATOM     80  C   UNL A   1      39.025  33.805  38.221  1.00  0.00     0.135 A 
ATOM     81  C   UNL A   1      40.520  35.292  37.066  1.00  0.00     0.135 A 
ATOM     82  F   UNL A   1      38.356  32.646  38.315  1.00  0.00    -0.206 F 
ATOM     83  C   UNL A   1      38.856  34.748  39.232  1.00  0.00     0.059 A 
ATOM     84  C   UNL A   1      40.387  36.238  38.079  1.00  0.00     0.059 A 
ATOM     85  F   UNL A   1      41.328  35.584  36.034  1.00  0.00    -0.206 F 
ATOM     86  C   UNL A   1      39.545  35.960  39.154  1.00  0.00     0.060 A 
BRANCH  86  87
ATOM     87  S   UNL A   1      39.352  37.153  40.495  1.00  0.00     0.124 S 
ATOM     88  O   UNL A   1      38.575  38.204  39.845  1.00  0.00    -0.237 OA
ATOM     89  O   UNL A   1      38.642  36.376  41.506  1.00  0.00    -0.237 OA
ATOM     90  O   UNL A   1      40.726  37.508  40.836  1.00  0.00    -0.744 OA
ENDBRANCH  86  87
ENDBRANCH  54  79
ENDBRANCH  28  29
ENDBRANCH  20  23
ENDBRANCH  18  19
ENDBRANCH  17  18
ENDBRANCH   1  17
TORSDOF 17
ENDMDL
MODEL 2
REMARK VINA RESULT:     -10.6      0.456      8.494
REMARK SMILES CCCOc1ccccc1C(=O)NCCCCNC(=O)c1ccc(-c2c3nc(c(-c4c(F)cc(S(=O)(=O)[O-])cc4F)c4ccc([nH]4)c(-c4c(F)cc(S(=O)(=O)[O-])cc4F)c4nc(c(-c5c(F)cc(S(=O)(=O)[O-])cc5F)c5ccc2[nH]5)C=C4)C=C3)cc1
REMARK SMILES IDX 15 1 14 2 13 3 11 4 12 5 10 7 5 8 6 9 7 10 9 11 8 12 4 13
REMARK SMILES IDX 3 14 2 15 1 16 16 17 17 18 18 19 19 20 20 22 21 23 22 24
REMARK SMILES IDX 86 25 23 26 85 27 24 28 25 29 26 30 79 31 27 32 84 33 78 34
REMARK SMILES IDX 80 35 28 36 83 37 77 38 76 39 29 41 63 42 42 43 62 44 43 45
REMARK SMILES IDX 46 46 61 47 81 48 44 49 45 50 60 52 82 53 47 54 30 55 31 56
REMARK SMILES IDX 40 57 32 58 33 59 39 60 41 61 34 62 35 63 36 64 37 65 38 66
REMARK SMILES IDX 64 67 65 68 74 69 66 70 67 71 73 72 75 73 68 74 69 75 70 76
REMARK SMILES IDX 71 77 72 78 48 79 49 80 58 81 50 82 51 83 57 84 59 85 52 86
REMARK SMILES IDX 53 87 54 88 55 89 56 90
REMARK H PARENT 13 6 18 21 80 40 46 51
REMARK Flexibility Score: inf
ROOT
ATOM      1  C   UNL A   1      38.937  22.760  26.303  1.00  0.00     0.023 C 
ENDROOT
BRANCH   1   2
ATOM      2  C   UNL A   1      37.945  21.844  25.585  1.00  0.00     0.116 C 
BRANCH   2   3
ATOM      3  N   UNL A   1      37.435  22.404  24.344  1.00  0.00    -0.352 N 
ATOM      4  C   UNL A   1      36.148  22.677  23.948  1.00  0.00     0.255 C 
ATOM      5  O   UNL A   1      35.959  23.030  22.782  1.00  0.00    -0.269 OA
ATOM      6  H   UNL A   1      38.125  22.622  23.678  1.00  0.00     0.163 HD
BRANCH   4   7
ATOM      7  C   UNL A   1      34.966  22.520  24.834  1.00  0.00     0.081 A 
ATOM      8  C   UNL A   1      34.427  21.301  25.261  1.00  0.00     0.132 A 
ATOM      9  C   UNL A   1      33.250  21.279  26.019  1.00  0.00     0.047 A 
ATOM     10  C   UNL A   1      32.673  22.469  26.464  1.00  0.00     0.004 A 
ATOM     11  C   UNL A   1      34.414  23.710  25.348  1.00  0.00     0.018 A 
ATOM     12  C   UNL A   1      33.278  23.686  26.160  1.00  0.00     0.001 A 
BRANCH   8  13
ATOM     13  O   UNL A   1      34.963  20.094  24.917  1.00  0.00    -0.493 OA
BRANCH  13  14
ATOM     14  C   UNL A   1      34.001  19.144  24.435  1.00  0.00     0.229 C 
BRANCH  14  15
ATOM     15  C   UNL A   1      34.604  17.744  24.299  1.00  0.00     0.038 C 
ATOM     16  C   UNL A   1      34.033  16.959  23.129  1.00  0.00     0.007 C 
ENDBRANCH  14  15
ENDBRANCH  13  14
ENDBRANCH   8  13
ENDBRANCH   4   7
ENDBRANCH   2   3
ENDBRANCH   1   2
BRANCH   1  17
ATOM     17  C   UNL A   1      40.246  22.100  26.765  1.00  0.00     0.023 C 
BRANCH  17  18
ATOM     18  C   UNL A   1      41.455  23.017  26.961  1.00  0.00     0.116 C 
BRANCH  18  19
ATOM     19  N   UNL A   1      41.599  24.048  25.948  1.00  0.00    -0.352 N 
ATOM     20  C   UNL A   1      41.598  25.420  26.034  1.00  0.00     0.251 C 
ATOM     21  H   UNL A   1      41.721  23.701  25.034  1.00  0.00     0.163 HD
ATOM     22  O   UNL A   1      41.705  26.078  25.002  1.00  0.00    -0.269 OA
BRANCH  20  23
ATOM     23  C   UNL A   1      41.418  26.126  27.327  1.00  0.00     0.039 A 
ATOM     24  C   UNL A   1      42.428  27.004  27.737  1.00  0.00     0.014 A 
ATOM     25  C   UNL A   1      40.315  25.917  28.158  1.00  0.00     0.014 A 
ATOM     26  C   UNL A   1      42.289  27.736  28.921  1.00  0.00     0.010 A 
ATOM     27  C   UNL A   1      40.145  26.698  29.309  1.00  0.00     0.010 A 
ATOM     28  C   UNL A   1      41.120  27.632  29.693  1.00  0.00    -0.014 A 
BRANCH  28  29
ATOM     29  C   UNL A   1      40.894  28.541  30.854  1.00  0.00     0.031 A 
ATOM     30  C   UNL A   1      39.832  29.607  30.819  1.00  0.00     0.074 A 
ATOM     31  C   UNL A   1      41.690  28.432  31.938  1.00  0.00     0.049 A 
ATOM     32  N   UNL A   1      39.523  30.494  31.733  1.00  0.00    -0.248 NA
ATOM     33  C   UNL A   1      39.020  29.703  29.597  1.00  0.00     0.031 C 
ATOM     34  C   UNL A   1      42.788  27.473  32.086  1.00  0.00     0.029 A 
ATOM     35  N   UNL A   1      41.708  29.135  33.119  1.00  0.00    -0.354 N 
ATOM     36  C   UNL A   1      38.491  31.256  31.198  1.00  0.00     0.074 A 
ATOM     37  C   UNL A   1      38.256  30.754  29.860  1.00  0.00     0.031 C 
ATOM     38  C   UNL A   1      43.354  27.631  33.292  1.00  0.00     0.029 A 
ATOM     39  C   UNL A   1      42.693  28.728  33.991  1.00  0.00     0.049 A 
ATOM     40  H   UNL A   1      41.076  29.862  33.322  1.00  0.00     0.167 HD
ATOM     41  C   UNL A   1      37.792  32.265  31.772  1.00  0.00     0.037 A 
ATOM     42  C   UNL A   1      43.036  29.188  35.211  1.00  0.00     0.037 A 
ATOM     43  C   UNL A   1      38.019  32.755  33.109  1.00  0.00     0.049 A 
ATOM     44  C   UNL A   1      42.254  30.320  35.821  1.00  0.00     0.074 A 
ATOM     45  C   UNL A   1      37.322  33.737  33.795  1.00  0.00     0.029 A 
ATOM     46  N   UNL A   1      39.021  32.313  33.961  1.00  0.00    -0.354 N 
ATOM     47  N   UNL A   1      41.235  30.979  35.325  1.00  0.00    -0.248 NA
ATOM     48  C   UNL A   1      42.667  30.770  37.159  1.00  0.00     0.031 C 
ATOM     49  C   UNL A   1      37.935  33.924  35.039  1.00  0.00     0.029 A 
ATOM     50  C   UNL A   1      38.977  33.020  35.154  1.00  0.00     0.049 A 
ATOM     51  H   UNL A   1      39.669  31.602  33.750  1.00  0.00     0.167 HD
ATOM     52  C   UNL A   1      40.865  31.899  36.301  1.00  0.00     0.074 A 
ATOM     53  C   UNL A   1      41.763  31.706  37.419  1.00  0.00     0.031 C 
ATOM     54  C   UNL A   1      39.869  32.818  36.269  1.00  0.00     0.037 A 
BRANCH  41  55
ATOM     55  C   UNL A   1      36.705  32.918  30.959  1.00  0.00     0.058 A 
ATOM     56  C   UNL A   1      35.345  32.674  31.216  1.00  0.00     0.135 A 
ATOM     57  C   UNL A   1      37.022  33.838  29.946  1.00  0.00     0.135 A 
ATOM     58  F   UNL A   1      34.982  31.799  32.166  1.00  0.00    -0.206 F 
ATOM     59  C   UNL A   1      34.341  33.295  30.478  1.00  0.00     0.059 A 
ATOM     60  C   UNL A   1      36.034  34.494  29.216  1.00  0.00     0.059 A 
ATOM     61  F   UNL A   1      38.304  34.114  29.662  1.00  0.00    -0.206 F 
ATOM     62  C   UNL A   1      34.696  34.203  29.479  1.00  0.00     0.060 A 
BRANCH  62  63
ATOM     63  S   UNL A   1      33.381  34.999  28.532  1.00  0.00     0.124 S 
ATOM     64  O   UNL A   1      32.499  35.466  29.596  1.00  0.00    -0.237 OA
ATOM     65  O   UNL A   1      34.105  36.040  27.807  1.00  0.00    -0.237 OA
ATOM     66  O   UNL A   1      32.852  33.917  27.707  1.00  0.00    -0.744 OA
ENDBRANCH  62  63
ENDBRANCH  41  55
BRANCH  42  67
ATOM     67  C   UNL A   1      44.168  28.562  35.947  1.00  0.00     0.058 A 
ATOM     68  C   UNL A   1      43.957  27.488  36.823  1.00  0.00     0.135 A 
ATOM     69  C   UNL A   1      45.485  29.021  35.781  1.00  0.00     0.135 A 
ATOM     70  F   UNL A   1      42.715  27.020  37.023  1.00  0.00    -0.206 F 
ATOM     71  C   UNL A   1      45.005  26.899  37.522  1.00  0.00     0.059 A 
ATOM     72  C   UNL A   1      46.555  28.429  36.448  1.00  0.00     0.059 A 
ATOM     73  F   UNL A   1      45.743  30.036  34.943  1.00  0.00    -0.206 F 
ATOM     74  C   UNL A   1      46.303  27.375  37.324  1.00  0.00     0.060 A 
BRANCH  74  75
ATOM     75  S   UNL A   1      47.663  26.571  38.199  1.00  0.00     0.124 S 
ATOM     76  O   UNL A   1      48.802  27.375  37.772  1.00  0.00    -0.237 OA
ATOM     77  O   UNL A   1      47.262  26.723  39.594  1.00  0.00    -0.237 OA
ATOM     78  O   UNL A   1      47.627  25.204  37.689  1.00  0.00    -0.744 OA
ENDBRANCH  74  75
ENDBRANCH  42  67
BRANCH  54  79
ATOM     79  C   UNL A   1      39.666  33.669  37.494  1.00  0.00     0.058 A 
ATOM     80  C   UNL A   1      38.755  33.313  38.501  1.00  0.00     0.135 A 
ATOM     81  C   UNL A   1      40.437  34.827  37.690  1.00  0.00     0.135 A 
ATOM     82  F   UNL A   1      37.986  32.222  38.362  1.00  0.00    -0.206 F 
ATOM     83  C   UNL A   1      38.603  34.084  39.651  1.00  0.00     0.059 A 
ATOM     84  C   UNL A   1      40.323  35.596  38.845  1.00  0.00     0.059 A 
ATOM     85  F   UNL A   1      41.329  35.211  36.763  1.00  0.00    -0.206 F 
ATOM     86  C   UNL A   1      39.396  35.222  39.816  1.00  0.00     0.060 A 
BRANCH  86  87
ATOM     87  S   UNL A   1      39.222  36.186  41.332  1.00  0.00     0.124 S 
ATOM     88  O   UNL A   1      39.223  37.550  40.816  1.00  0.00    -0.237 OA
ATOM     89  O   UNL A   1      37.947  35.710  41.861  1.00  0.00    -0.237 OA
ATOM     90  O   UNL A   1      40.397  35.809  42.112  1.00  0.00    -0.744 OA
ENDBRANCH  86  87
ENDBRANCH  54  79
ENDBRANCH  28  29
ENDBRANCH  20  23
ENDBRANCH  18  19
ENDBRANCH  17  18
ENDBRANCH   1  17
TORSDOF 17
ENDMDL
MODEL 3
REMARK VINA RESULT:     -10.5      1.061      2.318
REMARK SMILES CCCOc1ccccc1C(=O)NCCCCNC(=O)c1ccc(-c2c3nc(c(-c4c(F)cc(S(=O)(=O)[O-])cc4F)c4ccc([nH]4)c(-c4c(F)cc(S(=O)(=O)[O-])cc4F)c4nc(c(-c5c(F)cc(S(=O)(=O)[O-])cc5F)c5ccc2[nH]5)C=C4)C=C3)cc1
REMARK SMILES IDX 15 1 14 2 13 3 11 4 12 5 10 7 5 8 6 9 7 10 9 11 8 12 4 13
REMARK SMILES IDX 3 14 2 15 1 16 16 17 17 18 18 19 19 20 20 22 21 23 22 24
REMARK SMILES IDX 86 25 23 26 85 27 24 28 25 29 26 30 79 31 27 32 84 33 78 34
REMARK SMILES IDX 80 35 28 36 83 37 77 38 76 39 29 41 63 42 42 43 62 44 43 45
REMARK SMILES IDX 46 46 61 47 81 48 44 49 45 50 60 52 82 53 47 54 30 55 31 56
REMARK SMILES IDX 40 57 32 58 33 59 39 60 41 61 34 62 35 63 36 64 37 65 38 66
REMARK SMILES IDX 64 67 65 68 74 69 66 70 67 71 73 72 75 73 68 74 69 75 70 76
REMARK SMILES IDX 71 77 72 78 48 79 49 80 58 81 50 82 51 83 57 84 59 85 52 86
REMARK SMILES IDX 53 87 54 88 55 89 56 90
REMARK H PARENT 13 6 18 21 80 40 46 51
REMARK Flexibility Score: inf
ROOT
ATOM      1  C   UNL A   1      38.563  23.884  26.694  1.00  0.00     0.023 C 
ENDROOT
BRANCH   1   2
ATOM      2  C   UNL A   1      37.187  23.598  26.090  1.00  0.00     0.116 C 
BRANCH   2   3
ATOM      3  N   UNL A   1      37.189  23.564  24.637  1.00  0.00    -0.352 N 
ATOM      4  C   UNL A   1      36.300  23.001  23.753  1.00  0.00     0.255 C 
ATOM      5  O   UNL A   1      36.595  22.992  22.557  1.00  0.00    -0.269 OA
ATOM      6  H   UNL A   1      37.953  24.020  24.217  1.00  0.00     0.163 HD
BRANCH   4   7
ATOM      7  C   UNL A   1      35.028  22.355  24.169  1.00  0.00     0.081 A 
ATOM      8  C   UNL A   1      33.754  22.919  24.051  1.00  0.00     0.132 A 
ATOM      9  C   UNL A   1      32.638  22.251  24.568  1.00  0.00     0.047 A 
ATOM     10  C   UNL A   1      32.764  20.963  25.091  1.00  0.00     0.004 A 
ATOM     11  C   UNL A   1      35.131  21.029  24.633  1.00  0.00     0.018 A 
ATOM     12  C   UNL A   1      34.006  20.335  25.088  1.00  0.00     0.001 A 
BRANCH   8  13
ATOM     13  O   UNL A   1      33.537  24.150  23.502  1.00  0.00    -0.493 OA
BRANCH  13  14
ATOM     14  C   UNL A   1      32.972  24.110  22.183  1.00  0.00     0.229 C 
BRANCH  14  15
ATOM     15  C   UNL A   1      32.925  25.499  21.543  1.00  0.00     0.038 C 
ATOM     16  C   UNL A   1      31.659  26.270  21.880  1.00  0.00     0.007 C 
ENDBRANCH  14  15
ENDBRANCH  13  14
ENDBRANCH   8  13
ENDBRANCH   4   7
ENDBRANCH   2   3
ENDBRANCH   1   2
BRANCH   1  17
ATOM     17  C   UNL A   1      39.659  22.851  26.385  1.00  0.00     0.023 C 
BRANCH  17  18
ATOM     18  C   UNL A   1      41.102  23.254  26.695  1.00  0.00     0.116 C 
BRANCH  18  19
ATOM     19  N   UNL A   1      41.678  24.198  25.753  1.00  0.00    -0.352 N 
ATOM     20  C   UNL A   1      42.059  25.512  25.893  1.00  0.00     0.251 C 
ATOM     21  H   UNL A   1      41.823  23.830  24.851  1.00  0.00     0.163 HD
ATOM     22  O   UNL A   1      42.495  26.110  24.913  1.00  0.00    -0.269 OA
BRANCH  20  23
ATOM     23  C   UNL A   1      41.907  26.240  27.177  1.00  0.00     0.039 A 
ATOM     24  C   UNL A   1      42.738  27.344  27.403  1.00  0.00     0.014 A 
ATOM     25  C   UNL A   1      41.010  25.846  28.173  1.00  0.00     0.014 A 
ATOM     26  C   UNL A   1      42.605  28.100  28.572  1.00  0.00     0.010 A 
ATOM     27  C   UNL A   1      40.831  26.642  29.312  1.00  0.00     0.010 A 
ATOM     28  C   UNL A   1      41.612  27.790  29.515  1.00  0.00    -0.014 A 
BRANCH  28  29
ATOM     29  C   UNL A   1      41.351  28.698  30.669  1.00  0.00     0.031 A 
ATOM     30  C   UNL A   1      42.156  28.604  31.938  1.00  0.00     0.074 A 
ATOM     31  C   UNL A   1      40.341  29.589  30.589  1.00  0.00     0.049 A 
ATOM     32  N   UNL A   1      42.040  29.300  33.042  1.00  0.00    -0.248 NA
ATOM     33  C   UNL A   1      43.218  27.588  31.982  1.00  0.00     0.031 C 
ATOM     34  C   UNL A   1      39.452  29.755  29.436  1.00  0.00     0.029 A 
ATOM     35  N   UNL A   1      39.884  30.520  31.492  1.00  0.00    -0.354 N 
ATOM     36  C   UNL A   1      43.004  28.806  33.913  1.00  0.00     0.074 A 
ATOM     37  C   UNL A   1      43.668  27.719  33.223  1.00  0.00     0.031 C 
ATOM     38  C   UNL A   1      38.577  30.740  29.690  1.00  0.00     0.029 A 
ATOM     39  C   UNL A   1      38.809  31.250  31.037  1.00  0.00     0.049 A 
ATOM     40  H   UNL A   1      40.287  30.652  32.380  1.00  0.00     0.167 HD
ATOM     41  C   UNL A   1      43.321  29.229  35.161  1.00  0.00     0.037 A 
ATOM     42  C   UNL A   1      38.082  32.215  31.636  1.00  0.00     0.037 A 
ATOM     43  C   UNL A   1      42.668  30.319  35.842  1.00  0.00     0.049 A 
ATOM     44  C   UNL A   1      38.443  32.656  33.029  1.00  0.00     0.074 A 
ATOM     45  C   UNL A   1      42.959  30.855  37.086  1.00  0.00     0.029 A 
ATOM     46  N   UNL A   1      41.588  31.036  35.346  1.00  0.00    -0.354 N 
ATOM     47  N   UNL A   1      39.406  32.222  33.807  1.00  0.00    -0.248 NA
ATOM     48  C   UNL A   1      37.622  33.720  33.625  1.00  0.00     0.031 C 
ATOM     49  C   UNL A   1      42.025  31.858  37.364  1.00  0.00     0.029 A 
ATOM     50  C   UNL A   1      41.186  31.989  36.270  1.00  0.00     0.049 A 
ATOM     51  H   UNL A   1      41.169  30.890  34.467  1.00  0.00     0.167 HD
ATOM     52  C   UNL A   1      39.325  32.982  34.970  1.00  0.00     0.074 A 
ATOM     53  C   UNL A   1      38.227  33.907  34.791  1.00  0.00     0.031 C 
ATOM     54  C   UNL A   1      40.096  32.915  36.084  1.00  0.00     0.037 A 
BRANCH  41  55
ATOM     55  C   UNL A   1      44.430  28.511  35.885  1.00  0.00     0.058 A 
ATOM     56  C   UNL A   1      45.764  28.945  35.804  1.00  0.00     0.135 A 
ATOM     57  C   UNL A   1      44.152  27.410  36.712  1.00  0.00     0.135 A 
ATOM     58  F   UNL A   1      46.092  29.987  35.024  1.00  0.00    -0.206 F 
ATOM     59  C   UNL A   1      46.785  28.294  36.492  1.00  0.00     0.059 A 
ATOM     60  C   UNL A   1      45.152  26.763  37.432  1.00  0.00     0.059 A 
ATOM     61  F   UNL A   1      42.895  26.957  36.832  1.00  0.00    -0.206 F 
ATOM     62  C   UNL A   1      46.468  27.203  37.303  1.00  0.00     0.060 A 
BRANCH  62  63
ATOM     63  S   UNL A   1      47.805  26.371  38.187  1.00  0.00     0.124 S 
ATOM     64  O   UNL A   1      47.316  26.415  39.562  1.00  0.00    -0.237 OA
ATOM     65  O   UNL A   1      47.818  25.051  37.563  1.00  0.00    -0.237 OA
ATOM     66  O   UNL A   1      48.969  27.205  37.908  1.00  0.00    -0.744 OA
ENDBRANCH  62  63
ENDBRANCH  41  55
BRANCH  42  67
ATOM     67  C   UNL A   1      36.944  32.843  30.911  1.00  0.00     0.058 A 
ATOM     68  C   UNL A   1      35.627  32.410  31.118  1.00  0.00     0.135 A 
ATOM     69  C   UNL A   1      37.151  33.894  30.002  1.00  0.00     0.135 A 
ATOM     70  F   UNL A   1      35.378  31.402  31.969  1.00  0.00    -0.206 F 
ATOM     71  C   UNL A   1      34.555  32.983  30.442  1.00  0.00     0.059 A 
ATOM     72  C   UNL A   1      36.092  34.502  29.334  1.00  0.00     0.059 A 
ATOM     73  F   UNL A   1      38.391  34.355  29.779  1.00  0.00    -0.206 F 
ATOM     74  C   UNL A   1      34.798  34.033  29.553  1.00  0.00     0.060 A 
BRANCH  74  75
ATOM     75  S   UNL A   1      33.395  34.803  28.717  1.00  0.00     0.124 S 
ATOM     76  O   UNL A   1      33.024  33.771  27.756  1.00  0.00    -0.237 OA
ATOM     77  O   UNL A   1      32.461  35.016  29.819  1.00  0.00    -0.237 OA
ATOM     78  O   UNL A   1      33.969  36.019  28.149  1.00  0.00    -0.744 OA
ENDBRANCH  74  75
ENDBRANCH  42  67
BRANCH  54  79
ATOM     79  C   UNL A   1      39.808  33.894  37.191  1.00  0.00     0.058 A 
ATOM     80  C   UNL A   1      39.027  33.545  38.304  1.00  0.00     0.135 A 
ATOM     81  C   UNL A   1      40.372  35.180  37.165  1.00  0.00     0.135 A 
ATOM     82  F   UNL A   1      38.457  32.333  38.377  1.00  0.00    -0.206 F 
ATOM     83  C   UNL A   1      38.801  34.444  39.344  1.00  0.00     0.059 A 
ATOM     84  C   UNL A   1      40.183  36.084  38.206  1.00  0.00     0.059 A 
ATOM     85  F   UNL A   1      41.133  35.564  36.128  1.00  0.00    -0.206 F 
ATOM     86  C   UNL A   1      39.388  35.710  39.288  1.00  0.00     0.060 A 
BRANCH  86  87
ATOM     87  S   UNL A   1      39.124  36.848  40.665  1.00  0.00     0.124 S 
ATOM     88  O   UNL A   1      40.493  37.220  41.005  1.00  0.00    -0.237 OA
ATOM     89  O   UNL A   1      38.316  37.898  40.053  1.00  0.00    -0.237 OA
ATOM     90  O   UNL A   1      38.431  36.029  41.655  1.00  0.00    -0.744 OA
ENDBRANCH  86  87
ENDBRANCH  54  79
ENDBRANCH  28  29
ENDBRANCH  20  23
ENDBRANCH  18  19
ENDBRANCH  17  18
ENDBRANCH   1  17
TORSDOF 17
ENDMDL
