MODEL 1
REMARK VINA RESULT:     -11.1      0.000      0.000
REMARK SMILES CCc1ccc(CNC(=O)CCC(=O)NCCCCNC(=O)c2ccc(-c3c4nc(c(-c5c(F)cc(S(=O)(=O)[O-])cc5F)c5ccc([nH]5)c(-c5c(F)cc(S(=O)(=O)[O-])cc5F)c5nc(c(-c6c(F)cc(S(=O)(=O)[O-])cc6F)c6ccc3[nH]6)C=C5)C=C4)cc2)cc1
REMARK SMILES IDX 16 1 15 2 13 3 14 4 12 6 11 7 9 8 8 9 10 11 7 12 6 13 3 14
REMARK SMILES IDX 4 15 90 16 5 17 89 18 2 19 1 20 17 21 18 22 19 23 20 24
REMARK SMILES IDX 21 25 22 27 23 28 24 29 88 30 25 31 87 32 26 33 27 34 28 35
REMARK SMILES IDX 81 36 29 37 86 38 80 39 82 40 30 41 85 42 79 43 78 44 31 46
REMARK SMILES IDX 65 47 44 48 64 49 45 50 48 51 63 52 83 53 46 54 47 55 62 57
REMARK SMILES IDX 84 58 49 59 32 60 33 61 42 62 34 63 35 64 41 65 43 66 36 67
REMARK SMILES IDX 37 68 38 69 39 70 40 71 66 72 67 73 76 74 68 75 69 76 75 77
REMARK SMILES IDX 77 78 70 79 71 80 72 81 73 82 74 83 50 84 51 85 60 86 52 87
REMARK SMILES IDX 53 88 59 89 61 90 54 91 55 92 56 93 57 94 58 95
REMARK H PARENT 15 5 8 10 20 26 82 45 48 56
REMARK Flexibility Score: inf
ROOT
ATOM      1  C   UNL A   1      36.849  22.680  25.610  1.00  0.00     0.116 C 
ENDROOT
BRANCH   1   2
ATOM      2  N   UNL A   1      35.726  22.663  26.528  1.00  0.00    -0.356 N 
ATOM      3  C   UNL A   1      34.510  23.270  26.399  1.00  0.00     0.220 C 
ATOM      4  O   UNL A   1      33.512  22.756  26.908  1.00  0.00    -0.275 OA
ATOM      5  H   UNL A   1      35.858  22.144  27.354  1.00  0.00     0.163 HD
BRANCH   3   6
ATOM      6  C   UNL A   1      34.404  24.624  25.754  1.00  0.00     0.110 C 
BRANCH   6   7
ATOM      7  C   UNL A   1      33.283  24.594  24.716  1.00  0.00     0.110 C 
BRANCH   7   8
ATOM      8  C   UNL A   1      33.740  23.887  23.460  1.00  0.00     0.220 C 
ATOM      9  N   UNL A   1      33.119  22.764  23.001  1.00  0.00    -0.352 N 
ATOM     10  H   UNL A   1      33.346  22.526  22.073  1.00  0.00     0.163 HD
ATOM     11  O   UNL A   1      34.666  24.364  22.799  1.00  0.00    -0.275 OA
BRANCH   9  12
ATOM     12  C   UNL A   1      32.179  21.856  23.643  1.00  0.00     0.151 C 
BRANCH  12  13
ATOM     13  C   UNL A   1      32.622  20.407  23.700  1.00  0.00    -0.029 A 
ATOM     14  C   UNL A   1      33.626  17.732  23.777  1.00  0.00    -0.048 A 
ATOM     15  C   UNL A   1      34.094  18.705  24.662  1.00  0.00     0.004 A 
ATOM     16  C   UNL A   1      32.624  18.102  22.870  1.00  0.00     0.004 A 
ATOM     17  C   UNL A   1      33.627  20.021  24.593  1.00  0.00     0.006 A 
ATOM     18  C   UNL A   1      32.119  19.420  22.839  1.00  0.00     0.006 A 
BRANCH  14  19
ATOM     19  C   UNL A   1      34.214  16.340  23.868  1.00  0.00     0.032 C 
ATOM     20  C   UNL A   1      35.008  16.029  25.129  1.00  0.00     0.009 C 
ENDBRANCH  14  19
ENDBRANCH  12  13
ENDBRANCH   9  12
ENDBRANCH   7   8
ENDBRANCH   6   7
ENDBRANCH   3   6
ENDBRANCH   1   2
BRANCH   1  21
ATOM     21  C   UNL A   1      38.160  23.281  26.117  1.00  0.00     0.023 C 
BRANCH  21  22
ATOM     22  C   UNL A   1      39.330  22.334  26.405  1.00  0.00     0.023 C 
BRANCH  22  23
ATOM     23  C   UNL A   1      40.555  22.926  27.089  1.00  0.00     0.116 C 
BRANCH  23  24
ATOM     24  N   UNL A   1      41.407  23.640  26.156  1.00  0.00    -0.352 N 
ATOM     25  C   UNL A   1      41.713  24.974  26.052  1.00  0.00     0.251 C 
ATOM     26  H   UNL A   1      41.840  23.069  25.482  1.00  0.00     0.163 HD
ATOM     27  O   UNL A   1      42.254  25.366  25.018  1.00  0.00    -0.269 OA
BRANCH  25  28
ATOM     28  C   UNL A   1      41.429  25.949  27.138  1.00  0.00     0.039 A 
ATOM     29  C   UNL A   1      42.264  27.067  27.258  1.00  0.00     0.014 A 
ATOM     30  C   UNL A   1      40.445  25.728  28.106  1.00  0.00     0.014 A 
ATOM     31  C   UNL A   1      42.106  27.963  28.323  1.00  0.00     0.010 A 
ATOM     32  C   UNL A   1      40.245  26.656  29.135  1.00  0.00     0.010 A 
ATOM     33  C   UNL A   1      41.086  27.773  29.268  1.00  0.00    -0.014 A 
BRANCH  33  34
ATOM     34  C   UNL A   1      40.914  28.708  30.415  1.00  0.00     0.031 A 
ATOM     35  C   UNL A   1      41.785  28.575  31.640  1.00  0.00     0.074 A 
ATOM     36  C   UNL A   1      39.953  29.651  30.378  1.00  0.00     0.049 A 
ATOM     37  N   UNL A   1      41.738  29.241  32.766  1.00  0.00    -0.248 NA
ATOM     38  C   UNL A   1      42.833  27.542  31.601  1.00  0.00     0.031 C 
ATOM     39  C   UNL A   1      39.025  29.868  29.267  1.00  0.00     0.029 A 
ATOM     40  N   UNL A   1      39.587  30.598  31.303  1.00  0.00    -0.354 N 
ATOM     41  C   UNL A   1      42.733  28.697  33.574  1.00  0.00     0.074 A 
ATOM     42  C   UNL A   1      43.336  27.617  32.825  1.00  0.00     0.031 C 
ATOM     43  C   UNL A   1      38.207  30.890  29.568  1.00  0.00     0.029 A 
ATOM     44  C   UNL A   1      38.525  31.380  30.907  1.00  0.00     0.049 A 
ATOM     45  H   UNL A   1      40.041  30.708  32.170  1.00  0.00     0.167 HD
ATOM     46  C   UNL A   1      43.121  29.076  34.817  1.00  0.00     0.037 A 
ATOM     47  C   UNL A   1      37.875  32.369  31.549  1.00  0.00     0.037 A 
ATOM     48  C   UNL A   1      42.541  30.175  35.546  1.00  0.00     0.049 A 
ATOM     49  C   UNL A   1      38.325  32.772  32.929  1.00  0.00     0.074 A 
ATOM     50  C   UNL A   1      42.901  30.669  36.787  1.00  0.00     0.029 A 
ATOM     51  N   UNL A   1      41.484  30.954  35.099  1.00  0.00    -0.354 N 
ATOM     52  N   UNL A   1      39.297  32.276  33.657  1.00  0.00    -0.248 NA
ATOM     53  C   UNL A   1      37.595  33.874  33.573  1.00  0.00     0.031 C 
ATOM     54  C   UNL A   1      42.036  31.722  37.109  1.00  0.00     0.029 A 
ATOM     55  C   UNL A   1      41.168  31.913  36.047  1.00  0.00     0.049 A 
ATOM     56  H   UNL A   1      41.026  30.841  34.234  1.00  0.00     0.167 HD
ATOM     57  C   UNL A   1      39.313  33.023  34.830  1.00  0.00     0.074 A 
ATOM     58  C   UNL A   1      38.261  34.012  34.711  1.00  0.00     0.031 C 
ATOM     59  C   UNL A   1      40.126  32.899  35.909  1.00  0.00     0.037 A 
BRANCH  46  60
ATOM     60  C   UNL A   1      44.234  28.300  35.471  1.00  0.00     0.058 A 
ATOM     61  C   UNL A   1      43.991  27.104  36.166  1.00  0.00     0.135 A 
ATOM     62  C   UNL A   1      45.566  28.733  35.365  1.00  0.00     0.135 A 
ATOM     63  F   UNL A   1      42.736  26.649  36.308  1.00  0.00    -0.206 F 
ATOM     64  C   UNL A   1      45.023  26.382  36.757  1.00  0.00     0.059 A 
ATOM     65  C   UNL A   1      46.618  28.012  35.925  1.00  0.00     0.059 A 
ATOM     66  F   UNL A   1      45.858  29.867  34.708  1.00  0.00    -0.206 F 
ATOM     67  C   UNL A   1      46.333  26.846  36.633  1.00  0.00     0.060 A 
BRANCH  67  68
ATOM     68  S   UNL A   1      47.664  25.898  37.403  1.00  0.00     0.124 S 
ATOM     69  O   UNL A   1      47.340  24.540  36.966  1.00  0.00    -0.237 OA
ATOM     70  O   UNL A   1      48.857  26.486  36.792  1.00  0.00    -0.237 OA
ATOM     71  O   UNL A   1      47.496  26.159  38.821  1.00  0.00    -0.744 OA
ENDBRANCH  67  68
ENDBRANCH  46  60
BRANCH  47  72
ATOM     72  C   UNL A   1      36.735  33.062  30.891  1.00  0.00     0.058 A 
ATOM     73  C   UNL A   1      36.952  34.025  29.893  1.00  0.00     0.135 A 
ATOM     74  C   UNL A   1      35.406  32.775  31.241  1.00  0.00     0.135 A 
ATOM     75  F   UNL A   1      38.205  34.339  29.528  1.00  0.00    -0.206 F 
ATOM     76  C   UNL A   1      35.897  34.692  29.280  1.00  0.00     0.059 A 
ATOM     77  C   UNL A   1      34.333  33.410  30.625  1.00  0.00     0.059 A 
ATOM     78  F   UNL A   1      35.142  31.851  32.179  1.00  0.00    -0.206 F 
ATOM     79  C   UNL A   1      34.589  34.376  29.653  1.00  0.00     0.060 A 
BRANCH  79  80
ATOM     80  S   UNL A   1      33.224  35.219  28.823  1.00  0.00     0.124 S 
ATOM     81  O   UNL A   1      32.453  35.715  29.956  1.00  0.00    -0.237 OA
ATOM     82  O   UNL A   1      33.922  36.229  28.032  1.00  0.00    -0.237 OA
ATOM     83  O   UNL A   1      32.595  34.154  28.047  1.00  0.00    -0.744 OA
ENDBRANCH  79  80
ENDBRANCH  47  72
BRANCH  59  84
ATOM     84  C   UNL A   1      39.938  33.879  37.034  1.00  0.00     0.058 A 
ATOM     85  C   UNL A   1      40.608  35.113  37.058  1.00  0.00     0.135 A 
ATOM     86  C   UNL A   1      39.036  33.602  38.075  1.00  0.00     0.135 A 
ATOM     87  F   UNL A   1      41.485  35.424  36.092  1.00  0.00    -0.206 F 
ATOM     88  C   UNL A   1      40.401  36.031  38.084  1.00  0.00     0.059 A 
ATOM     89  C   UNL A   1      38.795  34.516  39.096  1.00  0.00     0.059 A 
ATOM     90  F   UNL A   1      38.364  32.441  38.094  1.00  0.00    -0.206 F 
ATOM     91  C   UNL A   1      39.491  35.724  39.098  1.00  0.00     0.060 A 
BRANCH  91  92
ATOM     92  S   UNL A   1      39.205  36.939  40.401  1.00  0.00     0.124 S 
ATOM     93  O   UNL A   1      38.431  36.162  41.363  1.00  0.00    -0.237 OA
ATOM     94  O   UNL A   1      40.562  37.284  40.811  1.00  0.00    -0.237 OA
ATOM     95  O   UNL A   1      38.473  38.003  39.719  1.00  0.00    -0.744 OA
ENDBRANCH  91  92
ENDBRANCH  59  84
ENDBRANCH  33  34
ENDBRANCH  25  28
ENDBRANCH  23  24
ENDBRANCH  22  23
ENDBRANCH  21  22
ENDBRANCH   1  21
TORSDOF 19
ENDMDL
MODEL 2
REMARK VINA RESULT:     -11.1      6.792     12.153
REMARK SMILES CCc1ccc(CNC(=O)CCC(=O)NCCCCNC(=O)c2ccc(-c3c4nc(c(-c5c(F)cc(S(=O)(=O)[O-])cc5F)c5ccc([nH]5)c(-c5c(F)cc(S(=O)(=O)[O-])cc5F)c5nc(c(-c6c(F)cc(S(=O)(=O)[O-])cc6F)c6ccc3[nH]6)C=C5)C=C4)cc2)cc1
REMARK SMILES IDX 16 1 15 2 13 3 14 4 12 6 11 7 9 8 8 9 10 11 7 12 6 13 3 14
REMARK SMILES IDX 4 15 90 16 5 17 89 18 2 19 1 20 17 21 18 22 19 23 20 24
REMARK SMILES IDX 21 25 22 27 23 28 24 29 88 30 25 31 87 32 26 33 27 34 28 35
REMARK SMILES IDX 81 36 29 37 86 38 80 39 82 40 30 41 85 42 79 43 78 44 31 46
REMARK SMILES IDX 65 47 44 48 64 49 45 50 48 51 63 52 83 53 46 54 47 55 62 57
REMARK SMILES IDX 84 58 49 59 32 60 33 61 42 62 34 63 35 64 41 65 43 66 36 67
REMARK SMILES IDX 37 68 38 69 39 70 40 71 66 72 67 73 76 74 68 75 69 76 75 77
REMARK SMILES IDX 77 78 70 79 71 80 72 81 73 82 74 83 50 84 51 85 60 86 52 87
REMARK SMILES IDX 53 88 59 89 61 90 54 91 55 92 56 93 57 94 58 95
REMARK H PARENT 15 5 8 10 20 26 82 45 48 56
REMARK Flexibility Score: inf
ROOT
ATOM      1  C   UNL A   1      31.650  29.461  25.391  1.00  0.00     0.116 C 
ENDROOT
BRANCH   1   2
ATOM      2  N   UNL A   1      31.609  29.425  23.941  1.00  0.00    -0.356 N 
ATOM      3  C   UNL A   1      31.191  28.413  23.126  1.00  0.00     0.220 C 
ATOM      4  O   UNL A   1      30.688  28.676  22.032  1.00  0.00    -0.275 OA
ATOM      5  H   UNL A   1      31.923  30.239  23.485  1.00  0.00     0.163 HD
BRANCH   3   6
ATOM      6  C   UNL A   1      31.462  26.981  23.496  1.00  0.00     0.110 C 
BRANCH   6   7
ATOM      7  C   UNL A   1      32.969  26.791  23.675  1.00  0.00     0.110 C 
BRANCH   7   8
ATOM      8  C   UNL A   1      33.493  25.758  22.703  1.00  0.00     0.220 C 
ATOM      9  N   UNL A   1      33.652  24.453  23.059  1.00  0.00    -0.352 N 
ATOM     10  H   UNL A   1      33.776  23.837  22.300  1.00  0.00     0.163 HD
ATOM     11  O   UNL A   1      33.737  26.089  21.540  1.00  0.00    -0.275 OA
BRANCH   9  12
ATOM     12  C   UNL A   1      33.669  23.808  24.364  1.00  0.00     0.151 C 
BRANCH  12  13
ATOM     13  C   UNL A   1      34.994  23.183  24.757  1.00  0.00    -0.029 A 
ATOM     14  C   UNL A   1      37.574  22.129  25.388  1.00  0.00    -0.048 A 
ATOM     15  C   UNL A   1      37.252  23.461  25.657  1.00  0.00     0.004 A 
ATOM     16  C   UNL A   1      36.579  21.317  24.828  1.00  0.00     0.004 A 
ATOM     17  C   UNL A   1      36.003  23.980  25.309  1.00  0.00     0.006 A 
ATOM     18  C   UNL A   1      35.301  21.834  24.527  1.00  0.00     0.006 A 
BRANCH  14  19
ATOM     19  C   UNL A   1      38.965  21.644  25.739  1.00  0.00     0.032 C 
ATOM     20  C   UNL A   1      39.679  22.402  26.849  1.00  0.00     0.009 C 
ENDBRANCH  14  19
ENDBRANCH  12  13
ENDBRANCH   9  12
ENDBRANCH   7   8
ENDBRANCH   6   7
ENDBRANCH   3   6
ENDBRANCH   1   2
BRANCH   1  21
ATOM     21  C   UNL A   1      32.936  29.973  26.043  1.00  0.00     0.023 C 
BRANCH  21  22
ATOM     22  C   UNL A   1      33.511  29.188  27.226  1.00  0.00     0.023 C 
BRANCH  22  23
ATOM     23  C   UNL A   1      34.990  29.377  27.535  1.00  0.00     0.116 C 
BRANCH  23  24
ATOM     24  N   UNL A   1      35.199  30.208  28.707  1.00  0.00    -0.352 N 
ATOM     25  C   UNL A   1      36.284  30.344  29.536  1.00  0.00     0.251 C 
ATOM     26  H   UNL A   1      34.428  30.772  28.948  1.00  0.00     0.163 HD
ATOM     27  O   UNL A   1      36.123  30.919  30.613  1.00  0.00    -0.269 OA
BRANCH  25  28
ATOM     28  C   UNL A   1      37.635  29.838  29.178  1.00  0.00     0.039 A 
ATOM     29  C   UNL A   1      38.523  29.529  30.217  1.00  0.00     0.014 A 
ATOM     30  C   UNL A   1      38.087  29.777  27.857  1.00  0.00     0.014 A 
ATOM     31  C   UNL A   1      39.840  29.146  29.937  1.00  0.00     0.010 A 
ATOM     32  C   UNL A   1      39.384  29.334  27.574  1.00  0.00     0.010 A 
ATOM     33  C   UNL A   1      40.282  29.033  28.610  1.00  0.00    -0.014 A 
BRANCH  33  34
ATOM     34  C   UNL A   1      41.686  28.643  28.296  1.00  0.00     0.031 A 
ATOM     35  C   UNL A   1      42.777  29.684  28.273  1.00  0.00     0.074 A 
ATOM     36  C   UNL A   1      41.978  27.363  27.993  1.00  0.00     0.049 A 
ATOM     37  N   UNL A   1      44.039  29.555  27.949  1.00  0.00    -0.248 NA
ATOM     38  C   UNL A   1      42.393  31.056  28.642  1.00  0.00     0.031 C 
ATOM     39  C   UNL A   1      41.011  26.263  27.952  1.00  0.00     0.029 A 
ATOM     40  N   UNL A   1      43.168  26.769  27.651  1.00  0.00    -0.354 N 
ATOM     41  C   UNL A   1      44.594  30.827  28.056  1.00  0.00     0.074 A 
ATOM     42  C   UNL A   1      43.521  31.722  28.430  1.00  0.00     0.031 C 
ATOM     43  C   UNL A   1      41.649  25.129  27.618  1.00  0.00     0.029 A 
ATOM     44  C   UNL A   1      43.060  25.422  27.386  1.00  0.00     0.049 A 
ATOM     45  H   UNL A   1      44.020  27.260  27.599  1.00  0.00     0.167 HD
ATOM     46  C   UNL A   1      45.882  31.212  27.879  1.00  0.00     0.037 A 
ATOM     47  C   UNL A   1      43.987  24.528  26.992  1.00  0.00     0.037 A 
ATOM     48  C   UNL A   1      46.955  30.312  27.540  1.00  0.00     0.049 A 
ATOM     49  C   UNL A   1      45.412  24.979  26.802  1.00  0.00     0.074 A 
ATOM     50  C   UNL A   1      48.301  30.596  27.390  1.00  0.00     0.029 A 
ATOM     51  N   UNL A   1      46.806  28.953  27.303  1.00  0.00    -0.354 N 
ATOM     52  N   UNL A   1      45.924  26.177  26.952  1.00  0.00    -0.248 NA
ATOM     53  C   UNL A   1      46.386  23.955  26.394  1.00  0.00     0.031 C 
ATOM     54  C   UNL A   1      48.961  29.417  27.024  1.00  0.00     0.029 A 
ATOM     55  C   UNL A   1      48.033  28.389  26.992  1.00  0.00     0.049 A 
ATOM     56  H   UNL A   1      45.954  28.462  27.349  1.00  0.00     0.167 HD
ATOM     57  C   UNL A   1      47.284  26.045  26.686  1.00  0.00     0.074 A 
ATOM     58  C   UNL A   1      47.516  24.649  26.376  1.00  0.00     0.031 C 
ATOM     59  C   UNL A   1      48.251  26.995  26.697  1.00  0.00     0.037 A 
BRANCH  46  60
ATOM     60  C   UNL A   1      46.209  32.671  28.054  1.00  0.00     0.058 A 
ATOM     61  C   UNL A   1      46.062  33.592  27.003  1.00  0.00     0.135 A 
ATOM     62  C   UNL A   1      46.633  33.164  29.298  1.00  0.00     0.135 A 
ATOM     63  F   UNL A   1      45.671  33.174  25.789  1.00  0.00    -0.206 F 
ATOM     64  C   UNL A   1      46.352  34.942  27.172  1.00  0.00     0.059 A 
ATOM     65  C   UNL A   1      46.902  34.516  29.498  1.00  0.00     0.059 A 
ATOM     66  F   UNL A   1      46.787  32.331  30.340  1.00  0.00    -0.206 F 
ATOM     67  C   UNL A   1      46.774  35.395  28.423  1.00  0.00     0.060 A 
BRANCH  67  68
ATOM     68  S   UNL A   1      47.144  37.150  28.630  1.00  0.00     0.124 S 
ATOM     69  O   UNL A   1      46.063  37.765  27.858  1.00  0.00    -0.237 OA
ATOM     70  O   UNL A   1      47.053  37.318  30.081  1.00  0.00    -0.237 OA
ATOM     71  O   UNL A   1      48.475  37.289  28.067  1.00  0.00    -0.744 OA
ENDBRANCH  67  68
ENDBRANCH  46  60
BRANCH  47  72
ATOM     72  C   UNL A   1      43.604  23.108  26.763  1.00  0.00     0.058 A 
ATOM     73  C   UNL A   1      43.544  22.576  25.467  1.00  0.00     0.135 A 
ATOM     74  C   UNL A   1      43.294  22.256  27.834  1.00  0.00     0.135 A 
ATOM     75  F   UNL A   1      43.825  23.353  24.410  1.00  0.00    -0.206 F 
ATOM     76  C   UNL A   1      43.173  21.255  25.237  1.00  0.00     0.059 A 
ATOM     77  C   UNL A   1      42.944  20.924  27.631  1.00  0.00     0.059 A 
ATOM     78  F   UNL A   1      43.350  22.711  29.096  1.00  0.00    -0.206 F 
ATOM     79  C   UNL A   1      42.875  20.436  26.327  1.00  0.00     0.060 A 
BRANCH  79  80
ATOM     80  S   UNL A   1      42.432  18.712  26.021  1.00  0.00     0.124 S 
ATOM     81  O   UNL A   1      43.331  18.368  24.926  1.00  0.00    -0.237 OA
ATOM     82  O   UNL A   1      42.723  18.087  27.308  1.00  0.00    -0.237 OA
ATOM     83  O   UNL A   1      41.015  18.787  25.677  1.00  0.00    -0.744 OA
ENDBRANCH  79  80
ENDBRANCH  47  72
BRANCH  59  84
ATOM     84  C   UNL A   1      49.659  26.556  26.402  1.00  0.00     0.058 A 
ATOM     85  C   UNL A   1      50.181  26.578  25.099  1.00  0.00     0.135 A 
ATOM     86  C   UNL A   1      50.513  26.160  27.444  1.00  0.00     0.135 A 
ATOM     87  F   UNL A   1      49.405  26.942  24.066  1.00  0.00    -0.206 F 
ATOM     88  C   UNL A   1      51.496  26.206  24.837  1.00  0.00     0.059 A 
ATOM     89  C   UNL A   1      51.838  25.808  27.208  1.00  0.00     0.059 A 
ATOM     90  F   UNL A   1      50.066  26.129  28.709  1.00  0.00    -0.206 F 
ATOM     91  C   UNL A   1      52.318  25.824  25.899  1.00  0.00     0.060 A 
BRANCH  91  92
ATOM     92  S   UNL A   1      54.033  25.380  25.551  1.00  0.00     0.124 S 
ATOM     93  O   UNL A   1      54.189  25.861  24.183  1.00  0.00    -0.237 OA
ATOM     94  O   UNL A   1      54.762  26.125  26.572  1.00  0.00    -0.237 OA
ATOM     95  O   UNL A   1      54.048  23.929  25.713  1.00  0.00    -0.744 OA
ENDBRANCH  91  92
ENDBRANCH  59  84
ENDBRANCH  33  34
ENDBRANCH  25  28
ENDBRANCH  23  24
ENDBRANCH  22  23
ENDBRANCH  21  22
ENDBRANCH   1  21
TORSDOF 19
ENDMDL
MODEL 3
REMARK VINA RESULT:     -10.8      1.972      3.783
REMARK SMILES CCc1ccc(CNC(=O)CCC(=O)NCCCCNC(=O)c2ccc(-c3c4nc(c(-c5c(F)cc(S(=O)(=O)[O-])cc5F)c5ccc([nH]5)c(-c5c(F)cc(S(=O)(=O)[O-])cc5F)c5nc(c(-c6c(F)cc(S(=O)(=O)[O-])cc6F)c6ccc3[nH]6)C=C5)C=C4)cc2)cc1
REMARK SMILES IDX 16 1 15 2 13 3 14 4 12 6 11 7 9 8 8 9 10 11 7 12 6 13 3 14
REMARK SMILES IDX 4 15 90 16 5 17 89 18 2 19 1 20 17 21 18 22 19 23 20 24
REMARK SMILES IDX 21 25 22 27 23 28 24 29 88 30 25 31 87 32 26 33 27 34 28 35
REMARK SMILES IDX 81 36 29 37 86 38 80 39 82 40 30 41 85 42 79 43 78 44 31 46
REMARK SMILES IDX 65 47 44 48 64 49 45 50 48 51 63 52 83 53 46 54 47 55 62 57
REMARK SMILES IDX 84 58 49 59 32 60 33 61 42 62 34 63 35 64 41 65 43 66 36 67
REMARK SMILES IDX 37 68 38 69 39 70 40 71 66 72 67 73 76 74 68 75 69 76 75 77
REMARK SMILES IDX 77 78 70 79 71 80 72 81 73 82 74 83 50 84 51 85 60 86 52 87
REMARK SMILES IDX 53 88 59 89 61 90 54 91 55 92 56 93 57 94 58 95
REMARK H PARENT 15 5 8 10 20 26 82 45 48 56
REMARK Flexibility Score: inf
ROOT
ATOM      1  C   UNL A   1      36.663  21.871  25.268  1.00  0.00     0.116 C 
ENDROOT
BRANCH   1   2
ATOM      2  N   UNL A   1      35.706  21.312  26.204  1.00  0.00    -0.356 N 
ATOM      3  C   UNL A   1      34.414  21.690  26.431  1.00  0.00     0.220 C 
ATOM      4  O   UNL A   1      33.583  20.852  26.787  1.00  0.00    -0.275 OA
ATOM      5  H   UNL A   1      36.031  20.558  26.748  1.00  0.00     0.163 HD
BRANCH   3   6
ATOM      6  C   UNL A   1      34.030  23.143  26.376  1.00  0.00     0.110 C 
BRANCH   6   7
ATOM      7  C   UNL A   1      32.739  23.286  25.568  1.00  0.00     0.110 C 
BRANCH   7   8
ATOM      8  C   UNL A   1      31.789  24.245  26.249  1.00  0.00     0.220 C 
ATOM      9  N   UNL A   1      31.339  25.371  25.628  1.00  0.00    -0.352 N 
ATOM     10  H   UNL A   1      30.563  25.792  26.064  1.00  0.00     0.163 HD
ATOM     11  O   UNL A   1      31.367  23.981  27.377  1.00  0.00    -0.275 OA
BRANCH   9  12
ATOM     12  C   UNL A   1      31.803  26.059  24.432  1.00  0.00     0.151 C 
BRANCH  12  13
ATOM     13  C   UNL A   1      31.098  27.368  24.128  1.00  0.00    -0.029 A 
ATOM     14  C   UNL A   1      29.753  29.858  23.735  1.00  0.00    -0.048 A 
ATOM     15  C   UNL A   1      30.949  29.788  24.453  1.00  0.00     0.004 A 
ATOM     16  C   UNL A   1      29.251  28.671  23.185  1.00  0.00     0.004 A 
ATOM     17  C   UNL A   1      31.580  28.561  24.676  1.00  0.00     0.006 A 
ATOM     18  C   UNL A   1      29.921  27.442  23.369  1.00  0.00     0.006 A 
BRANCH  14  19
ATOM     19  C   UNL A   1      29.091  31.211  23.579  1.00  0.00     0.032 C 
ATOM     20  C   UNL A   1      27.572  31.205  23.475  1.00  0.00     0.009 C 
ENDBRANCH  14  19
ENDBRANCH  12  13
ENDBRANCH   9  12
ENDBRANCH   7   8
ENDBRANCH   6   7
ENDBRANCH   3   6
ENDBRANCH   1   2
BRANCH   1  21
ATOM     21  C   UNL A   1      37.768  22.759  25.841  1.00  0.00     0.023 C 
BRANCH  21  22
ATOM     22  C   UNL A   1      39.117  22.114  26.175  1.00  0.00     0.023 C 
BRANCH  22  23
ATOM     23  C   UNL A   1      40.080  22.917  27.039  1.00  0.00     0.116 C 
BRANCH  23  24
ATOM     24  N   UNL A   1      41.168  23.481  26.260  1.00  0.00    -0.352 N 
ATOM     25  C   UNL A   1      41.701  24.744  26.236  1.00  0.00     0.251 C 
ATOM     26  H   UNL A   1      41.597  22.845  25.642  1.00  0.00     0.163 HD
ATOM     27  O   UNL A   1      42.448  25.042  25.303  1.00  0.00    -0.269 OA
BRANCH  25  28
ATOM     28  C   UNL A   1      41.422  25.753  27.292  1.00  0.00     0.039 A 
ATOM     29  C   UNL A   1      42.264  26.869  27.380  1.00  0.00     0.014 A 
ATOM     30  C   UNL A   1      40.435  25.567  28.265  1.00  0.00     0.014 A 
ATOM     31  C   UNL A   1      42.109  27.796  28.418  1.00  0.00     0.010 A 
ATOM     32  C   UNL A   1      40.240  26.526  29.265  1.00  0.00     0.010 A 
ATOM     33  C   UNL A   1      41.087  27.641  29.366  1.00  0.00    -0.014 A 
BRANCH  33  34
ATOM     34  C   UNL A   1      40.920  28.610  30.486  1.00  0.00     0.031 A 
ATOM     35  C   UNL A   1      41.789  28.510  31.714  1.00  0.00     0.074 A 
ATOM     36  C   UNL A   1      39.964  29.557  30.420  1.00  0.00     0.049 A 
ATOM     37  N   UNL A   1      41.745  29.209  32.821  1.00  0.00    -0.248 NA
ATOM     38  C   UNL A   1      42.831  27.470  31.707  1.00  0.00     0.031 C 
ATOM     39  C   UNL A   1      39.038  29.746  29.301  1.00  0.00     0.029 A 
ATOM     40  N   UNL A   1      39.602  30.534  31.316  1.00  0.00    -0.354 N 
ATOM     41  C   UNL A   1      42.736  28.683  33.645  1.00  0.00     0.074 A 
ATOM     42  C   UNL A   1      43.334  27.578  32.929  1.00  0.00     0.031 C 
ATOM     43  C   UNL A   1      38.225  30.782  29.572  1.00  0.00     0.029 A 
ATOM     44  C   UNL A   1      38.545  31.309  30.896  1.00  0.00     0.049 A 
ATOM     45  H   UNL A   1      40.056  30.667  32.180  1.00  0.00     0.167 HD
ATOM     46  C   UNL A   1      43.125  29.097  34.876  1.00  0.00     0.037 A 
ATOM     47  C   UNL A   1      37.899  32.320  31.508  1.00  0.00     0.037 A 
ATOM     48  C   UNL A   1      42.551  30.220  35.572  1.00  0.00     0.049 A 
ATOM     49  C   UNL A   1      38.351  32.761  32.875  1.00  0.00     0.074 A 
ATOM     50  C   UNL A   1      42.913  30.749  36.798  1.00  0.00     0.029 A 
ATOM     51  N   UNL A   1      41.498  30.991  35.101  1.00  0.00    -0.354 N 
ATOM     52  N   UNL A   1      39.320  32.282  33.618  1.00  0.00    -0.248 NA
ATOM     53  C   UNL A   1      37.626  33.886  33.486  1.00  0.00     0.031 C 
ATOM     54  C   UNL A   1      42.053  31.815  37.088  1.00  0.00     0.029 A 
ATOM     55  C   UNL A   1      41.187  31.980  36.020  1.00  0.00     0.049 A 
ATOM     56  H   UNL A   1      41.040  30.855  34.239  1.00  0.00     0.167 HD
ATOM     57  C   UNL A   1      39.339  33.063  34.769  1.00  0.00     0.074 A 
ATOM     58  C   UNL A   1      38.292  34.053  34.620  1.00  0.00     0.031 C 
ATOM     59  C   UNL A   1      40.150  32.967  35.852  1.00  0.00     0.037 A 
BRANCH  46  60
ATOM     60  C   UNL A   1      44.233  28.334  35.554  1.00  0.00     0.058 A 
ATOM     61  C   UNL A   1      43.969  27.264  36.424  1.00  0.00     0.135 A 
ATOM     62  C   UNL A   1      45.578  28.649  35.297  1.00  0.00     0.135 A 
ATOM     63  F   UNL A   1      42.702  26.927  36.714  1.00  0.00    -0.206 F 
ATOM     64  C   UNL A   1      44.995  26.553  37.038  1.00  0.00     0.059 A 
ATOM     65  C   UNL A   1      46.622  27.933  35.878  1.00  0.00     0.059 A 
ATOM     66  F   UNL A   1      45.891  29.660  34.471  1.00  0.00    -0.206 F 
ATOM     67  C   UNL A   1      46.319  26.896  36.761  1.00  0.00     0.060 A 
BRANCH  67  68
ATOM     68  S   UNL A   1      47.642  25.964  37.561  1.00  0.00     0.124 S 
ATOM     69  O   UNL A   1      47.674  26.587  38.884  1.00  0.00    -0.237 OA
ATOM     70  O   UNL A   1      47.124  24.596  37.524  1.00  0.00    -0.237 OA
ATOM     71  O   UNL A   1      48.798  26.217  36.720  1.00  0.00    -0.744 OA
ENDBRANCH  67  68
ENDBRANCH  46  60
BRANCH  47  72
ATOM     72  C   UNL A   1      36.763  33.000  30.828  1.00  0.00     0.058 A 
ATOM     73  C   UNL A   1      36.988  33.953  29.824  1.00  0.00     0.135 A 
ATOM     74  C   UNL A   1      35.432  32.708  31.165  1.00  0.00     0.135 A 
ATOM     75  F   UNL A   1      38.243  34.271  29.471  1.00  0.00    -0.206 F 
ATOM     76  C   UNL A   1      35.937  34.608  29.191  1.00  0.00     0.059 A 
ATOM     77  C   UNL A   1      34.364  33.331  30.528  1.00  0.00     0.059 A 
ATOM     78  F   UNL A   1      35.162  31.792  32.109  1.00  0.00    -0.206 F 
ATOM     79  C   UNL A   1      34.626  34.288  29.550  1.00  0.00     0.060 A 
BRANCH  79  80
ATOM     80  S   UNL A   1      33.267  35.115  28.694  1.00  0.00     0.124 S 
ATOM     81  O   UNL A   1      32.504  35.658  29.811  1.00  0.00    -0.237 OA
ATOM     82  O   UNL A   1      33.972  36.089  27.867  1.00  0.00    -0.237 OA
ATOM     83  O   UNL A   1      32.625  34.028  27.959  1.00  0.00    -0.744 OA
ENDBRANCH  79  80
ENDBRANCH  47  72
BRANCH  59  84
ATOM     84  C   UNL A   1      39.967  33.981  36.948  1.00  0.00     0.058 A 
ATOM     85  C   UNL A   1      40.588  35.239  36.901  1.00  0.00     0.135 A 
ATOM     86  C   UNL A   1      39.116  33.709  38.032  1.00  0.00     0.135 A 
ATOM     87  F   UNL A   1      41.415  35.546  35.890  1.00  0.00    -0.206 F 
ATOM     88  C   UNL A   1      40.385  36.186  37.900  1.00  0.00     0.059 A 
ATOM     89  C   UNL A   1      38.879  34.651  39.028  1.00  0.00     0.059 A 
ATOM     90  F   UNL A   1      38.491  32.525  38.120  1.00  0.00    -0.206 F 
ATOM     91  C   UNL A   1      39.526  35.884  38.959  1.00  0.00     0.060 A 
BRANCH  91  92
ATOM     92  S   UNL A   1      39.242  37.135  40.228  1.00  0.00     0.124 S 
ATOM     93  O   UNL A   1      40.607  37.501  40.592  1.00  0.00    -0.237 OA
ATOM     94  O   UNL A   1      38.486  38.151  39.502  1.00  0.00    -0.237 OA
ATOM     95  O   UNL A   1      38.490  36.417  41.252  1.00  0.00    -0.744 OA
ENDBRANCH  91  92
ENDBRANCH  59  84
ENDBRANCH  33  34
ENDBRANCH  25  28
ENDBRANCH  23  24
ENDBRANCH  22  23
ENDBRANCH  21  22
ENDBRANCH   1  21
TORSDOF 19
ENDMDL
