MODEL 1
REMARK VINA RESULT:     -11.5      0.000      0.000
REMARK SMILES CC[C@@](C)(NC(=O)c1cccc2ccccc12)C(=O)NCCCCNC(=O)c1ccc(-c2c3nc(c(-c4c(F)cc(S(=O)(=O)[O-])cc4F)c4ccc([nH]4)c(-c4c(F)cc(S(=O)(=O)[O-])cc4F)c4nc(c(-c5c(F)cc(S(=O)(=O)[O-])cc5F)c5ccc2[nH]5)C=C4)C=C3)cc1
REMARK SMILES IDX 23 1 22 2 21 3 20 4 18 5 19 6 3 8 4 9 2 10 1 11 5 12 6 13
REMARK SMILES IDX 7 15 8 16 9 17 17 18 10 19 12 20 16 21 11 22 13 23 15 24
REMARK SMILES IDX 14 25 24 26 25 27 26 28 27 30 28 31 29 32 93 33 30 34 92 35
REMARK SMILES IDX 31 36 32 37 33 38 86 39 34 40 91 41 85 42 87 43 35 44 90 45
REMARK SMILES IDX 84 46 83 47 36 49 70 50 49 51 69 52 50 53 53 54 68 55 88 56
REMARK SMILES IDX 51 57 52 58 67 60 89 61 54 62 37 63 38 64 47 65 39 66 40 67
REMARK SMILES IDX 46 68 48 69 41 70 42 71 43 72 44 73 45 74 71 75 72 76 81 77
REMARK SMILES IDX 73 78 74 79 80 80 82 81 75 82 76 83 77 84 78 85 79 86 55 87
REMARK SMILES IDX 56 88 65 89 57 90 58 91 64 92 66 93 59 94 60 95 61 96 62 97
REMARK SMILES IDX 63 98
REMARK H PARENT 20 7 5 14 25 29 87 48 53 59
REMARK Flexibility Score: inf
ROOT
ATOM      1  C   UNL A   1      33.370  27.555  25.530  1.00  0.00     0.023 C 
ENDROOT
BRANCH   1   2
ATOM      2  C   UNL A   1      33.272  26.059  25.242  1.00  0.00     0.023 C 
BRANCH   2   3
ATOM      3  C   UNL A   1      34.528  25.200  25.396  1.00  0.00     0.116 C 
BRANCH   3   4
ATOM      4  N   UNL A   1      35.089  24.577  24.208  1.00  0.00    -0.354 N 
ATOM      5  C   UNL A   1      35.770  23.409  23.991  1.00  0.00     0.245 C 
ATOM      6  O   UNL A   1      35.795  23.026  22.816  1.00  0.00    -0.272 OA
ATOM      7  H   UNL A   1      34.948  25.104  23.388  1.00  0.00     0.163 HD
BRANCH   5   8
ATOM      8  C   UNL A   1      36.408  22.561  25.135  1.00  0.00     0.116 C 
ATOM      9  C   UNL A   1      37.136  21.408  24.392  1.00  0.00     0.045 C 
BRANCH   8  10
ATOM     10  C   UNL A   1      37.470  23.307  25.997  1.00  0.00     0.035 C 
ATOM     11  C   UNL A   1      38.811  22.627  26.241  1.00  0.00     0.007 C 
ENDBRANCH   8  10
BRANCH   8  12
ATOM     12  N   UNL A   1      35.433  21.958  26.090  1.00  0.00    -0.338 N 
ATOM     13  C   UNL A   1      34.085  21.630  26.085  1.00  0.00     0.252 C 
ATOM     14  H   UNL A   1      35.858  21.734  26.949  1.00  0.00     0.164 HD
ATOM     15  O   UNL A   1      33.613  21.552  27.224  1.00  0.00    -0.269 OA
BRANCH  13  16
ATOM     16  C   UNL A   1      33.223  21.276  24.886  1.00  0.00     0.047 A 
ATOM     17  C   UNL A   1      32.578  22.286  24.170  1.00  0.00     0.014 A 
ATOM     18  C   UNL A   1      33.180  19.949  24.326  1.00  0.00    -0.006 A 
ATOM     19  C   UNL A   1      31.925  22.082  22.959  1.00  0.00     0.001 A 
ATOM     20  C   UNL A   1      32.516  19.758  23.073  1.00  0.00    -0.018 A 
ATOM     21  C   UNL A   1      33.759  18.780  24.889  1.00  0.00     0.009 A 
ATOM     22  C   UNL A   1      31.901  20.819  22.412  1.00  0.00     0.009 A 
ATOM     23  C   UNL A   1      32.480  18.506  22.445  1.00  0.00     0.009 A 
ATOM     24  C   UNL A   1      33.717  17.534  24.248  1.00  0.00     0.001 A 
ATOM     25  C   UNL A   1      33.083  17.399  23.024  1.00  0.00     0.001 A 
ENDBRANCH  13  16
ENDBRANCH   8  12
ENDBRANCH   5   8
ENDBRANCH   3   4
ENDBRANCH   2   3
ENDBRANCH   1   2
BRANCH   1  26
ATOM     26  C   UNL A   1      33.772  27.949  26.941  1.00  0.00     0.116 C 
BRANCH  26  27
ATOM     27  N   UNL A   1      33.501  29.346  27.227  1.00  0.00    -0.352 N 
ATOM     28  C   UNL A   1      34.306  30.280  27.827  1.00  0.00     0.251 C 
ATOM     29  H   UNL A   1      32.614  29.670  26.948  1.00  0.00     0.163 HD
ATOM     30  O   UNL A   1      33.831  31.378  28.132  1.00  0.00    -0.269 OA
BRANCH  28  31
ATOM     31  C   UNL A   1      35.721  29.976  28.131  1.00  0.00     0.039 A 
ATOM     32  C   UNL A   1      36.063  29.579  29.427  1.00  0.00     0.014 A 
ATOM     33  C   UNL A   1      36.717  30.100  27.157  1.00  0.00     0.014 A 
ATOM     34  C   UNL A   1      37.390  29.267  29.734  1.00  0.00     0.010 A 
ATOM     35  C   UNL A   1      38.024  29.715  27.443  1.00  0.00     0.010 A 
ATOM     36  C   UNL A   1      38.379  29.309  28.738  1.00  0.00    -0.014 A 
BRANCH  36  37
ATOM     37  C   UNL A   1      39.792  28.960  29.037  1.00  0.00     0.031 A 
ATOM     38  C   UNL A   1      40.710  29.992  29.636  1.00  0.00     0.074 A 
ATOM     39  C   UNL A   1      40.262  27.737  28.721  1.00  0.00     0.049 A 
ATOM     40  N   UNL A   1      41.988  29.906  29.903  1.00  0.00    -0.248 NA
ATOM     41  C   UNL A   1      40.120  31.303  29.952  1.00  0.00     0.031 C 
ATOM     42  C   UNL A   1      39.482  26.668  28.093  1.00  0.00     0.029 A 
ATOM     43  N   UNL A   1      41.511  27.190  28.872  1.00  0.00    -0.354 N 
ATOM     44  C   UNL A   1      42.356  31.151  30.403  1.00  0.00     0.074 A 
ATOM     45  C   UNL A   1      41.181  31.992  30.348  1.00  0.00     0.031 C 
ATOM     46  C   UNL A   1      40.266  25.590  27.929  1.00  0.00     0.029 A 
ATOM     47  C   UNL A   1      41.611  25.901  28.406  1.00  0.00     0.049 A 
ATOM     48  H   UNL A   1      42.266  27.675  29.277  1.00  0.00     0.167 HD
ATOM     49  C   UNL A   1      43.557  31.549  30.887  1.00  0.00     0.037 A 
ATOM     50  C   UNL A   1      42.667  25.066  28.358  1.00  0.00     0.037 A 
ATOM     51  C   UNL A   1      44.716  30.699  30.963  1.00  0.00     0.049 A 
ATOM     52  C   UNL A   1      43.991  25.528  28.907  1.00  0.00     0.074 A 
ATOM     53  C   UNL A   1      45.965  30.989  31.483  1.00  0.00     0.029 A 
ATOM     54  N   UNL A   1      44.767  29.389  30.507  1.00  0.00    -0.354 N 
ATOM     55  N   UNL A   1      44.305  26.690  29.428  1.00  0.00    -0.248 NA
ATOM     56  C   UNL A   1      45.099  24.564  28.872  1.00  0.00     0.031 C 
ATOM     57  C   UNL A   1      46.784  29.869  31.304  1.00  0.00     0.029 A 
ATOM     58  C   UNL A   1      46.031  28.864  30.719  1.00  0.00     0.049 A 
ATOM     59  H   UNL A   1      44.016  28.904  30.094  1.00  0.00     0.167 HD
ATOM     60  C   UNL A   1      45.641  26.590  29.805  1.00  0.00     0.074 A 
ATOM     61  C   UNL A   1      46.068  25.248  29.465  1.00  0.00     0.031 C 
ATOM     62  C   UNL A   1      46.439  27.522  30.380  1.00  0.00     0.037 A 
BRANCH  49  63
ATOM     63  C   UNL A   1      43.674  32.965  31.383  1.00  0.00     0.058 A 
ATOM     64  C   UNL A   1      43.422  33.299  32.724  1.00  0.00     0.135 A 
ATOM     65  C   UNL A   1      44.069  33.998  30.518  1.00  0.00     0.135 A 
ATOM     66  F   UNL A   1      43.025  32.355  33.593  1.00  0.00    -0.206 F 
ATOM     67  C   UNL A   1      43.526  34.609  33.182  1.00  0.00     0.059 A 
ATOM     68  C   UNL A   1      44.209  35.311  30.960  1.00  0.00     0.059 A 
ATOM     69  F   UNL A   1      44.323  33.737  29.226  1.00  0.00    -0.206 F 
ATOM     70  C   UNL A   1      43.919  35.609  32.291  1.00  0.00     0.060 A 
BRANCH  70  71
ATOM     71  S   UNL A   1      44.050  37.302  32.902  1.00  0.00     0.124 S 
ATOM     72  O   UNL A   1      45.377  37.290  33.509  1.00  0.00    -0.237 OA
ATOM     73  O   UNL A   1      43.921  38.087  31.678  1.00  0.00    -0.237 OA
ATOM     74  O   UNL A   1      42.934  37.414  33.836  1.00  0.00    -0.744 OA
ENDBRANCH  70  71
ENDBRANCH  49  63
BRANCH  50  75
ATOM     75  C   UNL A   1      42.510  23.703  27.785  1.00  0.00     0.058 A 
ATOM     76  C   UNL A   1      42.522  23.494  26.397  1.00  0.00     0.135 A 
ATOM     77  C   UNL A   1      42.361  22.578  28.611  1.00  0.00     0.135 A 
ATOM     78  F   UNL A   1      42.656  24.539  25.565  1.00  0.00    -0.206 F 
ATOM     79  C   UNL A   1      42.376  22.225  25.849  1.00  0.00     0.059 A 
ATOM     80  C   UNL A   1      42.239  21.295  28.087  1.00  0.00     0.059 A 
ATOM     81  F   UNL A   1      42.360  22.720  29.947  1.00  0.00    -0.206 F 
ATOM     82  C   UNL A   1      42.237  21.129  26.703  1.00  0.00     0.060 A 
BRANCH  82  83
ATOM     83  S   UNL A   1      42.097  19.480  25.982  1.00  0.00     0.124 S 
ATOM     84  O   UNL A   1      42.605  18.643  27.063  1.00  0.00    -0.237 OA
ATOM     85  O   UNL A   1      40.665  19.382  25.716  1.00  0.00    -0.237 OA
ATOM     86  O   UNL A   1      42.942  19.560  24.794  1.00  0.00    -0.744 OA
ENDBRANCH  82  83
ENDBRANCH  50  75
BRANCH  62  87
ATOM     87  C   UNL A   1      47.849  27.118  30.710  1.00  0.00     0.058 A 
ATOM     88  C   UNL A   1      48.880  27.196  29.763  1.00  0.00     0.135 A 
ATOM     89  C   UNL A   1      48.181  26.699  32.009  1.00  0.00     0.135 A 
ATOM     90  F   UNL A   1      48.615  27.585  28.506  1.00  0.00    -0.206 F 
ATOM     91  C   UNL A   1      50.190  26.852  30.084  1.00  0.00     0.059 A 
ATOM     92  C   UNL A   1      49.487  26.376  32.360  1.00  0.00     0.059 A 
ATOM     93  F   UNL A   1      47.234  26.616  32.957  1.00  0.00    -0.206 F 
ATOM     94  C   UNL A   1      50.484  26.444  31.388  1.00  0.00     0.060 A 
BRANCH  94  95
ATOM     95  S   UNL A   1      52.192  26.035  31.801  1.00  0.00     0.124 S 
ATOM     96  O   UNL A   1      52.397  26.821  33.013  1.00  0.00    -0.237 OA
ATOM     97  O   UNL A   1      52.132  24.590  31.984  1.00  0.00    -0.237 OA
ATOM     98  O   UNL A   1      52.942  26.482  30.629  1.00  0.00    -0.744 OA
ENDBRANCH  94  95
ENDBRANCH  62  87
ENDBRANCH  36  37
ENDBRANCH  28  31
ENDBRANCH  26  27
ENDBRANCH   1  26
TORSDOF 17
ENDMDL
MODEL 2
REMARK VINA RESULT:     -11.4      4.727     10.320
REMARK SMILES CC[C@@](C)(NC(=O)c1cccc2ccccc12)C(=O)NCCCCNC(=O)c1ccc(-c2c3nc(c(-c4c(F)cc(S(=O)(=O)[O-])cc4F)c4ccc([nH]4)c(-c4c(F)cc(S(=O)(=O)[O-])cc4F)c4nc(c(-c5c(F)cc(S(=O)(=O)[O-])cc5F)c5ccc2[nH]5)C=C4)C=C3)cc1
REMARK SMILES IDX 23 1 22 2 21 3 20 4 18 5 19 6 3 8 4 9 2 10 1 11 5 12 6 13
REMARK SMILES IDX 7 15 8 16 9 17 17 18 10 19 12 20 16 21 11 22 13 23 15 24
REMARK SMILES IDX 14 25 24 26 25 27 26 28 27 30 28 31 29 32 93 33 30 34 92 35
REMARK SMILES IDX 31 36 32 37 33 38 86 39 34 40 91 41 85 42 87 43 35 44 90 45
REMARK SMILES IDX 84 46 83 47 36 49 70 50 49 51 69 52 50 53 53 54 68 55 88 56
REMARK SMILES IDX 51 57 52 58 67 60 89 61 54 62 37 63 38 64 47 65 39 66 40 67
REMARK SMILES IDX 46 68 48 69 41 70 42 71 43 72 44 73 45 74 71 75 72 76 81 77
REMARK SMILES IDX 73 78 74 79 80 80 82 81 75 82 76 83 77 84 78 85 79 86 55 87
REMARK SMILES IDX 56 88 65 89 57 90 58 91 64 92 66 93 59 94 60 95 61 96 62 97
REMARK SMILES IDX 63 98
REMARK H PARENT 20 7 5 14 25 29 87 48 53 59
REMARK Flexibility Score: inf
ROOT
ATOM      1  C   UNL A   1      37.491  23.437  25.585  1.00  0.00     0.023 C 
ENDROOT
BRANCH   1   2
ATOM      2  C   UNL A   1      37.386  21.929  25.803  1.00  0.00     0.023 C 
BRANCH   2   3
ATOM      3  C   UNL A   1      36.786  21.070  24.690  1.00  0.00     0.116 C 
BRANCH   3   4
ATOM      4  N   UNL A   1      35.694  20.171  25.023  1.00  0.00    -0.354 N 
ATOM      5  C   UNL A   1      34.332  20.313  25.051  1.00  0.00     0.245 C 
ATOM      6  O   UNL A   1      33.692  19.256  25.046  1.00  0.00    -0.272 OA
ATOM      7  H   UNL A   1      35.996  19.270  25.283  1.00  0.00     0.163 HD
BRANCH   5   8
ATOM      8  C   UNL A   1      33.613  21.698  25.010  1.00  0.00     0.116 C 
ATOM      9  C   UNL A   1      32.113  21.340  24.827  1.00  0.00     0.045 C 
BRANCH   8  10
ATOM     10  C   UNL A   1      33.737  22.546  26.310  1.00  0.00     0.035 C 
ATOM     11  C   UNL A   1      32.459  22.960  27.029  1.00  0.00     0.007 C 
ENDBRANCH   8  10
BRANCH   8  12
ATOM     12  N   UNL A   1      34.021  22.586  23.883  1.00  0.00    -0.338 N 
ATOM     13  C   UNL A   1      33.449  23.617  23.152  1.00  0.00     0.252 C 
ATOM     14  H   UNL A   1      34.935  22.388  23.578  1.00  0.00     0.164 HD
ATOM     15  O   UNL A   1      33.983  23.766  22.047  1.00  0.00    -0.269 OA
BRANCH  13  16
ATOM     16  C   UNL A   1      32.368  24.584  23.603  1.00  0.00     0.047 A 
ATOM     17  C   UNL A   1      31.042  24.374  23.220  1.00  0.00     0.014 A 
ATOM     18  C   UNL A   1      32.612  25.621  24.574  1.00  0.00    -0.006 A 
ATOM     19  C   UNL A   1      29.965  25.091  23.732  1.00  0.00     0.001 A 
ATOM     20  C   UNL A   1      31.492  26.340  25.100  1.00  0.00    -0.018 A 
ATOM     21  C   UNL A   1      33.876  26.005  25.094  1.00  0.00     0.009 A 
ATOM     22  C   UNL A   1      30.193  26.068  24.674  1.00  0.00     0.009 A 
ATOM     23  C   UNL A   1      31.649  27.325  26.084  1.00  0.00     0.009 A 
ATOM     24  C   UNL A   1      34.019  26.991  26.080  1.00  0.00     0.001 A 
ATOM     25  C   UNL A   1      32.905  27.647  26.578  1.00  0.00     0.001 A 
ENDBRANCH  13  16
ENDBRANCH   8  12
ENDBRANCH   5   8
ENDBRANCH   3   4
ENDBRANCH   2   3
ENDBRANCH   1   2
BRANCH   1  26
ATOM     26  C   UNL A   1      38.437  24.190  26.504  1.00  0.00     0.116 C 
BRANCH  26  27
ATOM     27  N   UNL A   1      39.825  24.063  26.098  1.00  0.00    -0.352 N 
ATOM     28  C   UNL A   1      40.915  24.792  26.498  1.00  0.00     0.251 C 
ATOM     29  H   UNL A   1      40.011  23.351  25.445  1.00  0.00     0.163 HD
ATOM     30  O   UNL A   1      41.991  24.639  25.911  1.00  0.00    -0.269 OA
BRANCH  28  31
ATOM     31  C   UNL A   1      40.809  25.769  27.604  1.00  0.00     0.039 A 
ATOM     32  C   UNL A   1      41.780  26.768  27.716  1.00  0.00     0.014 A 
ATOM     33  C   UNL A   1      39.775  25.695  28.542  1.00  0.00     0.014 A 
ATOM     34  C   UNL A   1      41.690  27.715  28.740  1.00  0.00     0.010 A 
ATOM     35  C   UNL A   1      39.644  26.684  29.514  1.00  0.00     0.010 A 
ATOM     36  C   UNL A   1      40.608  27.695  29.634  1.00  0.00    -0.014 A 
BRANCH  36  37
ATOM     37  C   UNL A   1      40.481  28.706  30.716  1.00  0.00     0.031 A 
ATOM     38  C   UNL A   1      41.337  28.596  31.950  1.00  0.00     0.074 A 
ATOM     39  C   UNL A   1      39.563  29.687  30.614  1.00  0.00     0.049 A 
ATOM     40  N   UNL A   1      41.327  29.332  33.032  1.00  0.00    -0.248 NA
ATOM     41  C   UNL A   1      42.315  27.497  31.985  1.00  0.00     0.031 C 
ATOM     42  C   UNL A   1      38.642  29.869  29.490  1.00  0.00     0.029 A 
ATOM     43  N   UNL A   1      39.241  30.707  31.474  1.00  0.00    -0.354 N 
ATOM     44  C   UNL A   1      42.282  28.779  33.877  1.00  0.00     0.074 A 
ATOM     45  C   UNL A   1      42.813  27.612  33.208  1.00  0.00     0.031 C 
ATOM     46  C   UNL A   1      37.874  30.946  29.721  1.00  0.00     0.029 A 
ATOM     47  C   UNL A   1      38.219  31.509  31.023  1.00  0.00     0.049 A 
ATOM     48  H   UNL A   1      39.700  30.852  32.333  1.00  0.00     0.167 HD
ATOM     49  C   UNL A   1      42.698  29.218  35.090  1.00  0.00     0.037 A 
ATOM     50  C   UNL A   1      37.622  32.572  31.597  1.00  0.00     0.037 A 
ATOM     51  C   UNL A   1      42.185  30.396  35.739  1.00  0.00     0.049 A 
ATOM     52  C   UNL A   1      38.105  33.045  32.942  1.00  0.00     0.074 A 
ATOM     53  C   UNL A   1      42.574  30.955  36.943  1.00  0.00     0.029 A 
ATOM     54  N   UNL A   1      41.170  31.198  35.235  1.00  0.00    -0.354 N 
ATOM     55  N   UNL A   1      39.048  32.542  33.701  1.00  0.00    -0.248 NA
ATOM     56  C   UNL A   1      37.450  34.234  33.503  1.00  0.00     0.031 C 
ATOM     57  C   UNL A   1      41.767  32.071  37.188  1.00  0.00     0.029 A 
ATOM     58  C   UNL A   1      40.910  32.237  36.113  1.00  0.00     0.049 A 
ATOM     59  H   UNL A   1      40.705  31.050  34.380  1.00  0.00     0.167 HD
ATOM     60  C   UNL A   1      39.118  33.367  34.819  1.00  0.00     0.074 A 
ATOM     61  C   UNL A   1      38.130  34.409  34.628  1.00  0.00     0.031 C 
ATOM     62  C   UNL A   1      39.925  33.271  35.904  1.00  0.00     0.037 A 
BRANCH  49  63
ATOM     63  C   UNL A   1      43.771  28.425  35.788  1.00  0.00     0.058 A 
ATOM     64  C   UNL A   1      43.457  27.380  36.672  1.00  0.00     0.135 A 
ATOM     65  C   UNL A   1      45.129  28.692  35.550  1.00  0.00     0.135 A 
ATOM     66  F   UNL A   1      42.175  27.091  36.950  1.00  0.00    -0.206 F 
ATOM     67  C   UNL A   1      44.448  26.651  37.320  1.00  0.00     0.059 A 
ATOM     68  C   UNL A   1      46.138  27.956  36.164  1.00  0.00     0.059 A 
ATOM     69  F   UNL A   1      45.488  29.680  34.714  1.00  0.00    -0.206 F 
ATOM     70  C   UNL A   1      45.787  26.947  37.061  1.00  0.00     0.060 A 
BRANCH  70  71
ATOM     71  S   UNL A   1      47.061  25.990  37.909  1.00  0.00     0.124 S 
ATOM     72  O   UNL A   1      47.064  24.756  37.129  1.00  0.00    -0.237 OA
ATOM     73  O   UNL A   1      48.240  26.837  37.760  1.00  0.00    -0.237 OA
ATOM     74  O   UNL A   1      46.545  25.870  39.270  1.00  0.00    -0.744 OA
ENDBRANCH  70  71
ENDBRANCH  49  63
BRANCH  50  75
ATOM     75  C   UNL A   1      36.513  33.269  30.892  1.00  0.00     0.058 A 
ATOM     76  C   UNL A   1      35.185  33.142  31.326  1.00  0.00     0.135 A 
ATOM     77  C   UNL A   1      36.760  34.090  29.781  1.00  0.00     0.135 A 
ATOM     78  F   UNL A   1      34.898  32.363  32.381  1.00  0.00    -0.206 F 
ATOM     79  C   UNL A   1      34.140  33.789  30.676  1.00  0.00     0.059 A 
ATOM     80  C   UNL A   1      35.734  34.769  29.129  1.00  0.00     0.059 A 
ATOM     81  F   UNL A   1      38.015  34.260  29.335  1.00  0.00    -0.206 F 
ATOM     82  C   UNL A   1      34.425  34.603  29.579  1.00  0.00     0.060 A 
BRANCH  82  83
ATOM     83  S   UNL A   1      33.067  35.477  28.771  1.00  0.00     0.124 S 
ATOM     84  O   UNL A   1      33.784  36.492  28.008  1.00  0.00    -0.237 OA
ATOM     85  O   UNL A   1      32.438  34.415  27.991  1.00  0.00    -0.237 OA
ATOM     86  O   UNL A   1      32.273  35.973  29.893  1.00  0.00    -0.744 OA
ENDBRANCH  82  83
ENDBRANCH  50  75
BRANCH  62  87
ATOM     87  C   UNL A   1      39.801  34.338  36.956  1.00  0.00     0.058 A 
ATOM     88  C   UNL A   1      39.003  34.160  38.096  1.00  0.00     0.135 A 
ATOM     89  C   UNL A   1      40.534  35.530  36.847  1.00  0.00     0.135 A 
ATOM     90  F   UNL A   1      38.277  33.040  38.245  1.00  0.00    -0.206 F 
ATOM     91  C   UNL A   1      38.918  35.137  39.083  1.00  0.00     0.059 A 
ATOM     92  C   UNL A   1      40.486  36.509  37.835  1.00  0.00     0.059 A 
ATOM     93  F   UNL A   1      41.322  35.747  35.782  1.00  0.00    -0.206 F 
ATOM     94  C   UNL A   1      39.666  36.309  38.944  1.00  0.00     0.060 A 
BRANCH  94  95
ATOM     95  S   UNL A   1      39.574  37.553  40.248  1.00  0.00     0.124 S 
ATOM     96  O   UNL A   1      40.967  37.977  40.347  1.00  0.00    -0.237 OA
ATOM     97  O   UNL A   1      38.652  38.531  39.684  1.00  0.00    -0.237 OA
ATOM     98  O   UNL A   1      39.063  36.806  41.395  1.00  0.00    -0.744 OA
ENDBRANCH  94  95
ENDBRANCH  62  87
ENDBRANCH  36  37
ENDBRANCH  28  31
ENDBRANCH  26  27
ENDBRANCH   1  26
TORSDOF 17
ENDMDL
MODEL 3
REMARK VINA RESULT:     -11.4      4.781     10.438
REMARK SMILES CC[C@@](C)(NC(=O)c1cccc2ccccc12)C(=O)NCCCCNC(=O)c1ccc(-c2c3nc(c(-c4c(F)cc(S(=O)(=O)[O-])cc4F)c4ccc([nH]4)c(-c4c(F)cc(S(=O)(=O)[O-])cc4F)c4nc(c(-c5c(F)cc(S(=O)(=O)[O-])cc5F)c5ccc2[nH]5)C=C4)C=C3)cc1
REMARK SMILES IDX 23 1 22 2 21 3 20 4 18 5 19 6 3 8 4 9 2 10 1 11 5 12 6 13
REMARK SMILES IDX 7 15 8 16 9 17 17 18 10 19 12 20 16 21 11 22 13 23 15 24
REMARK SMILES IDX 14 25 24 26 25 27 26 28 27 30 28 31 29 32 93 33 30 34 92 35
REMARK SMILES IDX 31 36 32 37 33 38 86 39 34 40 91 41 85 42 87 43 35 44 90 45
REMARK SMILES IDX 84 46 83 47 36 49 70 50 49 51 69 52 50 53 53 54 68 55 88 56
REMARK SMILES IDX 51 57 52 58 67 60 89 61 54 62 37 63 38 64 47 65 39 66 40 67
REMARK SMILES IDX 46 68 48 69 41 70 42 71 43 72 44 73 45 74 71 75 72 76 81 77
REMARK SMILES IDX 73 78 74 79 80 80 82 81 75 82 76 83 77 84 78 85 79 86 55 87
REMARK SMILES IDX 56 88 65 89 57 90 58 91 64 92 66 93 59 94 60 95 61 96 62 97
REMARK SMILES IDX 63 98
REMARK H PARENT 20 7 5 14 25 29 87 48 53 59
REMARK Flexibility Score: inf
ROOT
ATOM      1  C   UNL A   1      37.821  23.589  26.010  1.00  0.00     0.023 C 
ENDROOT
BRANCH   1   2
ATOM      2  C   UNL A   1      37.588  22.277  25.265  1.00  0.00     0.023 C 
BRANCH   2   3
ATOM      3  C   UNL A   1      36.224  21.596  25.391  1.00  0.00     0.116 C 
BRANCH   3   4
ATOM      4  N   UNL A   1      35.458  21.804  26.609  1.00  0.00    -0.354 N 
ATOM      5  C   UNL A   1      34.228  22.349  26.866  1.00  0.00     0.245 C 
ATOM      6  O   UNL A   1      33.742  22.055  27.963  1.00  0.00    -0.272 OA
ATOM      7  H   UNL A   1      35.920  21.486  27.418  1.00  0.00     0.163 HD
BRANCH   5   8
ATOM      8  C   UNL A   1      33.440  23.213  25.833  1.00  0.00     0.116 C 
ATOM      9  C   UNL A   1      34.196  24.570  25.819  1.00  0.00     0.045 C 
BRANCH   8  10
ATOM     10  C   UNL A   1      33.437  22.663  24.375  1.00  0.00     0.035 C 
ATOM     11  C   UNL A   1      33.944  23.568  23.260  1.00  0.00     0.007 C 
ENDBRANCH   8  10
BRANCH   8  12
ATOM     12  N   UNL A   1      32.015  23.478  26.190  1.00  0.00    -0.338 N 
ATOM     13  C   UNL A   1      31.147  24.558  26.144  1.00  0.00     0.252 C 
ATOM     14  H   UNL A   1      31.578  22.675  26.554  1.00  0.00     0.164 HD
ATOM     15  O   UNL A   1      30.202  24.440  26.932  1.00  0.00    -0.269 OA
BRANCH  13  16
ATOM     16  C   UNL A   1      31.193  25.743  25.195  1.00  0.00     0.047 A 
ATOM     17  C   UNL A   1      30.811  25.583  23.861  1.00  0.00     0.014 A 
ATOM     18  C   UNL A   1      31.436  27.089  25.647  1.00  0.00    -0.006 A 
ATOM     19  C   UNL A   1      30.643  26.638  22.971  1.00  0.00     0.001 A 
ATOM     20  C   UNL A   1      31.246  28.165  24.723  1.00  0.00    -0.018 A 
ATOM     21  C   UNL A   1      31.839  27.478  26.953  1.00  0.00     0.009 A 
ATOM     22  C   UNL A   1      30.855  27.927  23.407  1.00  0.00     0.009 A 
ATOM     23  C   UNL A   1      31.414  29.502  25.107  1.00  0.00     0.009 A 
ATOM     24  C   UNL A   1      32.002  28.819  27.324  1.00  0.00     0.001 A 
ATOM     25  C   UNL A   1      31.785  29.831  26.403  1.00  0.00     0.001 A 
ENDBRANCH  13  16
ENDBRANCH   8  12
ENDBRANCH   5   8
ENDBRANCH   3   4
ENDBRANCH   2   3
ENDBRANCH   1   2
BRANCH   1  26
ATOM     26  C   UNL A   1      39.028  23.641  26.929  1.00  0.00     0.116 C 
BRANCH  26  27
ATOM     27  N   UNL A   1      40.265  23.884  26.209  1.00  0.00    -0.352 N 
ATOM     28  C   UNL A   1      41.140  24.935  26.319  1.00  0.00     0.251 C 
ATOM     29  H   UNL A   1      40.512  23.197  25.550  1.00  0.00     0.163 HD
ATOM     30  O   UNL A   1      42.056  25.045  25.499  1.00  0.00    -0.269 OA
BRANCH  28  31
ATOM     31  C   UNL A   1      40.983  25.941  27.392  1.00  0.00     0.039 A 
ATOM     32  C   UNL A   1      40.000  25.742  28.365  1.00  0.00     0.014 A 
ATOM     33  C   UNL A   1      41.781  27.089  27.435  1.00  0.00     0.014 A 
ATOM     34  C   UNL A   1      39.845  26.668  29.400  1.00  0.00     0.010 A 
ATOM     35  C   UNL A   1      41.679  27.969  28.509  1.00  0.00     0.010 A 
ATOM     36  C   UNL A   1      40.700  27.778  29.495  1.00  0.00    -0.014 A 
BRANCH  36  37
ATOM     37  C   UNL A   1      40.567  28.762  30.600  1.00  0.00     0.031 A 
ATOM     38  C   UNL A   1      41.430  28.634  31.828  1.00  0.00     0.074 A 
ATOM     39  C   UNL A   1      39.637  29.734  30.524  1.00  0.00     0.049 A 
ATOM     40  N   UNL A   1      41.416  29.344  32.926  1.00  0.00    -0.248 NA
ATOM     41  C   UNL A   1      42.420  27.545  31.833  1.00  0.00     0.031 C 
ATOM     42  C   UNL A   1      38.709  29.932  29.409  1.00  0.00     0.029 A 
ATOM     43  N   UNL A   1      39.308  30.731  31.408  1.00  0.00    -0.354 N 
ATOM     44  C   UNL A   1      42.381  28.782  33.754  1.00  0.00     0.074 A 
ATOM     45  C   UNL A   1      42.922  27.637  33.056  1.00  0.00     0.031 C 
ATOM     46  C   UNL A   1      37.931  30.995  29.668  1.00  0.00     0.029 A 
ATOM     47  C   UNL A   1      38.276  31.532  30.980  1.00  0.00     0.049 A 
ATOM     48  H   UNL A   1      39.769  30.862  32.269  1.00  0.00     0.167 HD
ATOM     49  C   UNL A   1      42.798  29.198  34.975  1.00  0.00     0.037 A 
ATOM     50  C   UNL A   1      37.669  32.574  31.581  1.00  0.00     0.037 A 
ATOM     51  C   UNL A   1      42.275  30.355  35.653  1.00  0.00     0.049 A 
ATOM     52  C   UNL A   1      38.153  33.022  32.935  1.00  0.00     0.074 A 
ATOM     53  C   UNL A   1      42.662  30.890  36.868  1.00  0.00     0.029 A 
ATOM     54  N   UNL A   1      41.249  31.157  35.172  1.00  0.00    -0.354 N 
ATOM     55  N   UNL A   1      39.105  32.512  33.678  1.00  0.00    -0.248 NA
ATOM     56  C   UNL A   1      37.487  34.190  33.526  1.00  0.00     0.031 C 
ATOM     57  C   UNL A   1      41.845  31.992  37.142  1.00  0.00     0.029 A 
ATOM     58  C   UNL A   1      40.980  32.173  36.074  1.00  0.00     0.049 A 
ATOM     59  H   UNL A   1      40.781  31.023  34.316  1.00  0.00     0.167 HD
ATOM     60  C   UNL A   1      39.171  33.312  34.815  1.00  0.00     0.074 A 
ATOM     61  C   UNL A   1      38.170  34.347  34.652  1.00  0.00     0.031 C 
ATOM     62  C   UNL A   1      39.984  33.200  35.893  1.00  0.00     0.037 A 
BRANCH  49  63
ATOM     63  C   UNL A   1      43.882  28.402  35.650  1.00  0.00     0.058 A 
ATOM     64  C   UNL A   1      45.242  28.659  35.412  1.00  0.00     0.135 A 
ATOM     65  C   UNL A   1      43.562  27.388  36.567  1.00  0.00     0.135 A 
ATOM     66  F   UNL A   1      45.608  29.606  34.532  1.00  0.00    -0.206 F 
ATOM     67  C   UNL A   1      46.244  27.920  36.032  1.00  0.00     0.059 A 
ATOM     68  C   UNL A   1      44.547  26.656  37.224  1.00  0.00     0.059 A 
ATOM     69  F   UNL A   1      42.278  27.098  36.834  1.00  0.00    -0.206 F 
ATOM     70  C   UNL A   1      45.886  26.919  36.936  1.00  0.00     0.060 A 
BRANCH  70  71
ATOM     71  S   UNL A   1      47.199  25.970  37.734  1.00  0.00     0.124 S 
ATOM     72  O   UNL A   1      47.515  24.988  36.702  1.00  0.00    -0.237 OA
ATOM     73  O   UNL A   1      48.218  26.987  37.974  1.00  0.00    -0.237 OA
ATOM     74  O   UNL A   1      46.554  25.438  38.931  1.00  0.00    -0.744 OA
ENDBRANCH  70  71
ENDBRANCH  49  63
BRANCH  50  75
ATOM     75  C   UNL A   1      36.550  33.275  30.897  1.00  0.00     0.058 A 
ATOM     76  C   UNL A   1      35.225  33.123  31.334  1.00  0.00     0.135 A 
ATOM     77  C   UNL A   1      36.782  34.124  29.804  1.00  0.00     0.135 A 
ATOM     78  F   UNL A   1      34.951  32.317  32.372  1.00  0.00    -0.206 F 
ATOM     79  C   UNL A   1      34.170  33.773  30.703  1.00  0.00     0.059 A 
ATOM     80  C   UNL A   1      35.746  34.806  29.173  1.00  0.00     0.059 A 
ATOM     81  F   UNL A   1      38.034  34.318  29.357  1.00  0.00    -0.206 F 
ATOM     82  C   UNL A   1      34.441  34.615  29.624  1.00  0.00     0.060 A 
BRANCH  82  83
ATOM     83  S   UNL A   1      33.070  35.493  28.842  1.00  0.00     0.124 S 
ATOM     84  O   UNL A   1      32.451  34.431  28.057  1.00  0.00    -0.237 OA
ATOM     85  O   UNL A   1      32.308  35.962  29.996  1.00  0.00    -0.237 OA
ATOM     86  O   UNL A   1      33.737  36.540  28.074  1.00  0.00    -0.744 OA
ENDBRANCH  82  83
ENDBRANCH  50  75
BRANCH  62  87
ATOM     87  C   UNL A   1      39.853  34.241  36.971  1.00  0.00     0.058 A 
ATOM     88  C   UNL A   1      40.459  35.501  36.857  1.00  0.00     0.135 A 
ATOM     89  C   UNL A   1      39.064  33.991  38.106  1.00  0.00     0.135 A 
ATOM     90  F   UNL A   1      41.228  35.788  35.796  1.00  0.00    -0.206 F 
ATOM     91  C   UNL A   1      40.306  36.471  37.843  1.00  0.00     0.059 A 
ATOM     92  C   UNL A   1      38.875  34.956  39.090  1.00  0.00     0.059 A 
ATOM     93  F   UNL A   1      38.453  32.805  38.258  1.00  0.00    -0.206 F 
ATOM     94  C   UNL A   1      39.510  36.189  38.955  1.00  0.00     0.060 A 
BRANCH  94  95
ATOM     95  S   UNL A   1      39.291  37.470  40.208  1.00  0.00     0.124 S 
ATOM     96  O   UNL A   1      40.625  38.059  40.262  1.00  0.00    -0.237 OA
ATOM     97  O   UNL A   1      38.251  38.307  39.622  1.00  0.00    -0.237 OA
ATOM     98  O   UNL A   1      38.889  36.719  41.395  1.00  0.00    -0.744 OA
ENDBRANCH  94  95
ENDBRANCH  62  87
ENDBRANCH  36  37
ENDBRANCH  28  31
ENDBRANCH  26  27
ENDBRANCH   1  26
TORSDOF 17
ENDMDL
