MODEL 1
REMARK VINA RESULT:     -11.2      0.000      0.000
REMARK SMILES COC(=O)[C@@H]1CCN(C(=O)NC(=O)COCC(=O)NCCCCNC(=O)c2ccc(-c3c4nc(c(-c5c(F)cc(S(=O)(=O)[O-])cc5F)c5ccc([nH]5)c(-c5c(F)cc(S(=O)(=O)[O-])cc5F)c5nc(c(-c6c(F)cc(S(=O)(=O)[O-])cc6F)c6ccc3[nH]6)C=C5)C=C4)cc2)C1
REMARK SMILES IDX 20 1 19 2 17 3 18 4 16 6 15 7 14 8 12 9 9 10 10 11 11 12
REMARK SMILES IDX 13 14 8 15 5 16 6 17 93 18 7 19 3 20 4 21 2 22 1 23 21 24
REMARK SMILES IDX 22 25 23 26 24 27 25 28 26 30 27 31 28 32 92 33 29 34 91 35
REMARK SMILES IDX 30 36 31 37 32 38 85 39 33 40 90 41 84 42 86 43 34 44 89 45
REMARK SMILES IDX 83 46 82 47 35 49 69 50 48 51 68 52 49 53 52 54 67 55 87 56
REMARK SMILES IDX 50 57 51 58 66 60 88 61 53 62 36 63 37 64 46 65 38 66 39 67
REMARK SMILES IDX 45 68 47 69 40 70 41 71 42 72 43 73 44 74 70 75 71 76 80 77
REMARK SMILES IDX 72 78 73 79 79 80 81 81 74 82 75 83 76 84 77 85 78 86 54 87
REMARK SMILES IDX 55 88 64 89 56 90 57 91 63 92 65 93 58 94 59 95 60 96 61 97
REMARK SMILES IDX 62 98
REMARK H PARENT 19 5 11 13 24 29 86 48 52 59
REMARK Flexibility Score: inf
ROOT
ATOM      1  C   UNL A   1      34.912  23.452  26.269  1.00  0.00     0.116 C 
ENDROOT
BRANCH   1   2
ATOM      2  N   UNL A   1      33.683  22.736  25.974  1.00  0.00    -0.354 N 
ATOM      3  C   UNL A   1      32.779  22.976  24.978  1.00  0.00     0.246 C 
ATOM      4  O   UNL A   1      31.803  22.236  24.855  1.00  0.00    -0.272 OA
ATOM      5  H   UNL A   1      33.474  21.980  26.570  1.00  0.00     0.163 HD
BRANCH   3   6
ATOM      6  C   UNL A   1      33.005  24.160  24.042  1.00  0.00     0.260 C 
BRANCH   6   7
ATOM      7  O   UNL A   1      31.808  24.888  23.815  1.00  0.00    -0.362 OA
BRANCH   7   8
ATOM      8  C   UNL A   1      31.563  25.149  22.446  1.00  0.00     0.261 C 
BRANCH   8   9
ATOM      9  C   UNL A   1      32.712  25.891  21.792  1.00  0.00     0.254 C 
ATOM     10  C   UNL A   1      32.541  28.396  22.638  1.00  0.00     0.324 C 
ATOM     11  O   UNL A   1      33.434  29.228  22.838  1.00  0.00    -0.248 OA
ATOM     12  N   UNL A   1      32.948  27.244  22.001  1.00  0.00    -0.276 N 
ATOM     13  H   UNL A   1      33.741  27.479  21.468  1.00  0.00     0.174 HD
ATOM     14  O   UNL A   1      33.497  25.288  21.050  1.00  0.00    -0.272 OA
BRANCH  10  15
ATOM     15  N   UNL A   1      31.254  28.664  22.976  1.00  0.00    -0.324 N 
ATOM     16  C   UNL A   1      29.001  29.210  22.388  1.00  0.00     0.120 C 
ATOM     17  C   UNL A   1      29.023  28.123  23.465  1.00  0.00     0.039 C 
ATOM     18  C   UNL A   1      30.466  29.577  22.152  1.00  0.00     0.136 C 
ATOM     19  C   UNL A   1      30.426  28.158  24.036  1.00  0.00     0.122 C 
BRANCH  16  20
ATOM     20  C   UNL A   1      28.131  30.391  22.766  1.00  0.00     0.310 C 
ATOM     21  O   UNL A   1      27.133  30.345  23.463  1.00  0.00    -0.252 OA
BRANCH  20  22
ATOM     22  O   UNL A   1      28.690  31.537  22.275  1.00  0.00    -0.469 OA
ATOM     23  C   UNL A   1      28.110  32.027  21.065  1.00  0.00     0.282 C 
ENDBRANCH  20  22
ENDBRANCH  16  20
ENDBRANCH  10  15
ENDBRANCH   8   9
ENDBRANCH   7   8
ENDBRANCH   6   7
ENDBRANCH   3   6
ENDBRANCH   1   2
BRANCH   1  24
ATOM     24  C   UNL A   1      36.155  22.734  25.741  1.00  0.00     0.023 C 
BRANCH  24  25
ATOM     25  C   UNL A   1      37.321  23.644  25.356  1.00  0.00     0.023 C 
BRANCH  25  26
ATOM     26  C   UNL A   1      38.206  24.100  26.508  1.00  0.00     0.116 C 
BRANCH  26  27
ATOM     27  N   UNL A   1      39.610  23.775  26.313  1.00  0.00    -0.352 N 
ATOM     28  C   UNL A   1      40.719  24.447  26.776  1.00  0.00     0.251 C 
ATOM     29  H   UNL A   1      39.792  22.967  25.779  1.00  0.00     0.163 HD
ATOM     30  O   UNL A   1      41.838  24.113  26.401  1.00  0.00    -0.269 OA
BRANCH  28  31
ATOM     31  C   UNL A   1      40.549  25.599  27.692  1.00  0.00     0.039 A 
ATOM     32  C   UNL A   1      39.482  25.596  28.593  1.00  0.00     0.014 A 
ATOM     33  C   UNL A   1      41.459  26.660  27.689  1.00  0.00     0.014 A 
ATOM     34  C   UNL A   1      39.375  26.616  29.543  1.00  0.00     0.010 A 
ATOM     35  C   UNL A   1      41.397  27.630  28.686  1.00  0.00     0.010 A 
ATOM     36  C   UNL A   1      40.357  27.617  29.627  1.00  0.00    -0.014 A 
BRANCH  36  37
ATOM     37  C   UNL A   1      40.324  28.652  30.697  1.00  0.00     0.031 A 
ATOM     38  C   UNL A   1      41.222  28.527  31.898  1.00  0.00     0.074 A 
ATOM     39  C   UNL A   1      39.432  29.662  30.624  1.00  0.00     0.049 A 
ATOM     40  N   UNL A   1      41.276  29.274  32.971  1.00  0.00    -0.248 NA
ATOM     41  C   UNL A   1      42.168  27.400  31.906  1.00  0.00     0.031 C 
ATOM     42  C   UNL A   1      38.477  29.871  29.535  1.00  0.00     0.029 A 
ATOM     43  N   UNL A   1      39.173  30.695  31.491  1.00  0.00    -0.354 N 
ATOM     44  C   UNL A   1      42.247  28.702  33.784  1.00  0.00     0.074 A 
ATOM     45  C   UNL A   1      42.718  27.514  33.106  1.00  0.00     0.031 C 
ATOM     46  C   UNL A   1      37.752  30.972  29.787  1.00  0.00     0.029 A 
ATOM     47  C   UNL A   1      38.155  31.524  31.078  1.00  0.00     0.049 A 
ATOM     48  H   UNL A   1      39.671  30.832  32.330  1.00  0.00     0.167 HD
ATOM     49  C   UNL A   1      42.720  29.138  34.977  1.00  0.00     0.037 A 
ATOM     50  C   UNL A   1      37.596  32.595  31.675  1.00  0.00     0.037 A 
ATOM     51  C   UNL A   1      42.258  30.331  35.638  1.00  0.00     0.049 A 
ATOM     52  C   UNL A   1      38.121  33.047  33.012  1.00  0.00     0.074 A 
ATOM     53  C   UNL A   1      42.712  30.887  36.822  1.00  0.00     0.029 A 
ATOM     54  N   UNL A   1      41.234  31.148  35.181  1.00  0.00    -0.354 N 
ATOM     55  N   UNL A   1      39.086  32.531  33.736  1.00  0.00    -0.248 NA
ATOM     56  C   UNL A   1      37.486  34.228  33.614  1.00  0.00     0.031 C 
ATOM     57  C   UNL A   1      41.926  32.006  37.110  1.00  0.00     0.029 A 
ATOM     58  C   UNL A   1      41.024  32.187  36.073  1.00  0.00     0.049 A 
ATOM     59  H   UNL A   1      40.731  31.010  34.346  1.00  0.00     0.167 HD
ATOM     60  C   UNL A   1      39.195  33.342  34.860  1.00  0.00     0.074 A 
ATOM     61  C   UNL A   1      38.204  34.389  34.717  1.00  0.00     0.031 C 
ATOM     62  C   UNL A   1      40.042  33.232  35.913  1.00  0.00     0.037 A 
BRANCH  49  63
ATOM     63  C   UNL A   1      43.792  28.322  35.647  1.00  0.00     0.058 A 
ATOM     64  C   UNL A   1      43.483  27.219  36.460  1.00  0.00     0.135 A 
ATOM     65  C   UNL A   1      45.150  28.619  35.441  1.00  0.00     0.135 A 
ATOM     66  F   UNL A   1      42.203  26.896  36.704  1.00  0.00    -0.206 F 
ATOM     67  C   UNL A   1      44.477  26.460  37.068  1.00  0.00     0.059 A 
ATOM     68  C   UNL A   1      46.162  27.854  36.013  1.00  0.00     0.059 A 
ATOM     69  F   UNL A   1      45.504  29.662  34.673  1.00  0.00    -0.206 F 
ATOM     70  C   UNL A   1      45.815  26.784  36.837  1.00  0.00     0.060 A 
BRANCH  70  71
ATOM     71  S   UNL A   1      47.092  25.785  37.630  1.00  0.00     0.124 S 
ATOM     72  O   UNL A   1      46.331  24.604  38.026  1.00  0.00    -0.237 OA
ATOM     73  O   UNL A   1      48.048  25.587  36.546  1.00  0.00    -0.237 OA
ATOM     74  O   UNL A   1      47.554  26.629  38.727  1.00  0.00    -0.744 OA
ENDBRANCH  70  71
ENDBRANCH  49  63
BRANCH  50  75
ATOM     75  C   UNL A   1      36.481  33.322  31.009  1.00  0.00     0.058 A 
ATOM     76  C   UNL A   1      36.715  34.138  29.892  1.00  0.00     0.135 A 
ATOM     77  C   UNL A   1      35.158  33.211  31.468  1.00  0.00     0.135 A 
ATOM     78  F   UNL A   1      37.962  34.284  29.418  1.00  0.00    -0.206 F 
ATOM     79  C   UNL A   1      35.684  34.830  29.264  1.00  0.00     0.059 A 
ATOM     80  C   UNL A   1      34.107  33.870  30.840  1.00  0.00     0.059 A 
ATOM     81  F   UNL A   1      34.876  32.431  32.524  1.00  0.00    -0.206 F 
ATOM     82  C   UNL A   1      34.381  34.686  29.743  1.00  0.00     0.060 A 
BRANCH  82  83
ATOM     83  S   UNL A   1      33.045  35.549  28.890  1.00  0.00     0.124 S 
ATOM     84  O   UNL A   1      33.783  36.529  28.101  1.00  0.00    -0.237 OA
ATOM     85  O   UNL A   1      32.414  34.468  28.138  1.00  0.00    -0.237 OA
ATOM     86  O   UNL A   1      32.244  36.093  29.983  1.00  0.00    -0.744 OA
ENDBRANCH  82  83
ENDBRANCH  50  75
BRANCH  62  87
ATOM     87  C   UNL A   1      39.973  34.290  36.982  1.00  0.00     0.058 A 
ATOM     88  C   UNL A   1      40.723  35.474  36.903  1.00  0.00     0.135 A 
ATOM     89  C   UNL A   1      39.087  34.147  38.063  1.00  0.00     0.135 A 
ATOM     90  F   UNL A   1      41.591  35.659  35.895  1.00  0.00    -0.206 F 
ATOM     91  C   UNL A   1      40.609  36.472  37.866  1.00  0.00     0.059 A 
ATOM     92  C   UNL A   1      38.934  35.145  39.020  1.00  0.00     0.059 A 
ATOM     93  F   UNL A   1      38.340  33.038  38.182  1.00  0.00    -0.206 F 
ATOM     94  C   UNL A   1      39.706  36.301  38.918  1.00  0.00     0.060 A 
BRANCH  94  95
ATOM     95  S   UNL A   1      39.529  37.627  40.130  1.00  0.00     0.124 S 
ATOM     96  O   UNL A   1      38.469  38.433  39.532  1.00  0.00    -0.237 OA
ATOM     97  O   UNL A   1      39.164  36.896  41.339  1.00  0.00    -0.237 OA
ATOM     98  O   UNL A   1      40.851  38.247  40.153  1.00  0.00    -0.744 OA
ENDBRANCH  94  95
ENDBRANCH  62  87
ENDBRANCH  36  37
ENDBRANCH  28  31
ENDBRANCH  26  27
ENDBRANCH  25  26
ENDBRANCH  24  25
ENDBRANCH   1  24
TORSDOF 20
ENDMDL
MODEL 2
REMARK VINA RESULT:     -11.2      1.718      2.853
REMARK SMILES COC(=O)[C@@H]1CCN(C(=O)NC(=O)COCC(=O)NCCCCNC(=O)c2ccc(-c3c4nc(c(-c5c(F)cc(S(=O)(=O)[O-])cc5F)c5ccc([nH]5)c(-c5c(F)cc(S(=O)(=O)[O-])cc5F)c5nc(c(-c6c(F)cc(S(=O)(=O)[O-])cc6F)c6ccc3[nH]6)C=C5)C=C4)cc2)C1
REMARK SMILES IDX 20 1 19 2 17 3 18 4 16 6 15 7 14 8 12 9 9 10 10 11 11 12
REMARK SMILES IDX 13 14 8 15 5 16 6 17 93 18 7 19 3 20 4 21 2 22 1 23 21 24
REMARK SMILES IDX 22 25 23 26 24 27 25 28 26 30 27 31 28 32 92 33 29 34 91 35
REMARK SMILES IDX 30 36 31 37 32 38 85 39 33 40 90 41 84 42 86 43 34 44 89 45
REMARK SMILES IDX 83 46 82 47 35 49 69 50 48 51 68 52 49 53 52 54 67 55 87 56
REMARK SMILES IDX 50 57 51 58 66 60 88 61 53 62 36 63 37 64 46 65 38 66 39 67
REMARK SMILES IDX 45 68 47 69 40 70 41 71 42 72 43 73 44 74 70 75 71 76 80 77
REMARK SMILES IDX 72 78 73 79 79 80 81 81 74 82 75 83 76 84 77 85 78 86 54 87
REMARK SMILES IDX 55 88 64 89 56 90 57 91 63 92 65 93 58 94 59 95 60 96 61 97
REMARK SMILES IDX 62 98
REMARK H PARENT 19 5 11 13 24 29 86 48 52 59
REMARK Flexibility Score: inf
ROOT
ATOM      1  C   UNL A   1      37.004  23.549  25.870  1.00  0.00     0.116 C 
ENDROOT
BRANCH   1   2
ATOM      2  N   UNL A   1      37.148  23.235  24.459  1.00  0.00    -0.354 N 
ATOM      3  C   UNL A   1      36.167  23.078  23.519  1.00  0.00     0.246 C 
ATOM      4  O   UNL A   1      36.479  22.848  22.352  1.00  0.00    -0.272 OA
ATOM      5  H   UNL A   1      38.071  23.120  24.137  1.00  0.00     0.163 HD
BRANCH   3   6
ATOM      6  C   UNL A   1      34.706  23.191  23.948  1.00  0.00     0.260 C 
BRANCH   6   7
ATOM      7  O   UNL A   1      34.072  21.922  23.996  1.00  0.00    -0.362 OA
BRANCH   7   8
ATOM      8  C   UNL A   1      32.660  22.004  24.031  1.00  0.00     0.261 C 
BRANCH   8   9
ATOM      9  C   UNL A   1      32.083  21.395  25.293  1.00  0.00     0.254 C 
ATOM     10  C   UNL A   1      30.775  23.346  26.517  1.00  0.00     0.324 C 
ATOM     11  O   UNL A   1      29.766  23.299  27.230  1.00  0.00    -0.248 OA
ATOM     12  N   UNL A   1      31.325  22.123  26.200  1.00  0.00    -0.276 N 
ATOM     13  H   UNL A   1      31.075  21.504  26.923  1.00  0.00     0.174 HD
ATOM     14  O   UNL A   1      32.265  20.196  25.542  1.00  0.00    -0.272 OA
BRANCH  10  15
ATOM     15  N   UNL A   1      31.310  24.538  26.148  1.00  0.00    -0.324 N 
ATOM     16  C   UNL A   1      31.170  26.914  25.899  1.00  0.00     0.120 C 
ATOM     17  C   UNL A   1      32.534  26.516  26.469  1.00  0.00     0.039 C 
ATOM     18  C   UNL A   1      30.438  25.596  25.643  1.00  0.00     0.136 C 
ATOM     19  C   UNL A   1      32.660  25.030  26.199  1.00  0.00     0.122 C 
BRANCH  16  20
ATOM     20  C   UNL A   1      31.284  27.794  24.672  1.00  0.00     0.310 C 
ATOM     21  O   UNL A   1      31.303  29.013  24.671  1.00  0.00    -0.252 OA
BRANCH  20  22
ATOM     22  O   UNL A   1      31.450  27.008  23.567  1.00  0.00    -0.469 OA
ATOM     23  C   UNL A   1      30.716  27.418  22.412  1.00  0.00     0.282 C 
ENDBRANCH  20  22
ENDBRANCH  16  20
ENDBRANCH  10  15
ENDBRANCH   8   9
ENDBRANCH   7   8
ENDBRANCH   6   7
ENDBRANCH   3   6
ENDBRANCH   1   2
BRANCH   1  24
ATOM     24  C   UNL A   1      38.332  23.922  26.530  1.00  0.00     0.023 C 
BRANCH  24  25
ATOM     25  C   UNL A   1      39.337  22.779  26.667  1.00  0.00     0.023 C 
BRANCH  25  26
ATOM     26  C   UNL A   1      40.769  23.197  26.975  1.00  0.00     0.116 C 
BRANCH  26  27
ATOM     27  N   UNL A   1      41.380  23.973  25.908  1.00  0.00    -0.352 N 
ATOM     28  C   UNL A   1      41.773  25.292  25.924  1.00  0.00     0.251 C 
ATOM     29  H   UNL A   1      41.532  23.492  25.062  1.00  0.00     0.163 HD
ATOM     30  O   UNL A   1      42.146  25.832  24.887  1.00  0.00    -0.269 OA
BRANCH  28  31
ATOM     31  C   UNL A   1      41.703  26.064  27.187  1.00  0.00     0.039 A 
ATOM     32  C   UNL A   1      42.664  27.046  27.435  1.00  0.00     0.014 A 
ATOM     33  C   UNL A   1      40.672  25.846  28.104  1.00  0.00     0.014 A 
ATOM     34  C   UNL A   1      42.545  27.863  28.564  1.00  0.00     0.010 A 
ATOM     35  C   UNL A   1      40.508  26.712  29.183  1.00  0.00     0.010 A 
ATOM     36  C   UNL A   1      41.440  27.733  29.423  1.00  0.00    -0.014 A 
BRANCH  36  37
ATOM     37  C   UNL A   1      41.234  28.660  30.569  1.00  0.00     0.031 A 
ATOM     38  C   UNL A   1      42.065  28.518  31.816  1.00  0.00     0.074 A 
ATOM     39  C   UNL A   1      40.249  29.580  30.516  1.00  0.00     0.049 A 
ATOM     40  N   UNL A   1      41.974  29.169  32.947  1.00  0.00    -0.248 NA
ATOM     41  C   UNL A   1      43.120  27.492  31.798  1.00  0.00     0.031 C 
ATOM     42  C   UNL A   1      39.346  29.791  29.383  1.00  0.00     0.029 A 
ATOM     43  N   UNL A   1      39.831  30.502  31.445  1.00  0.00    -0.354 N 
ATOM     44  C   UNL A   1      42.948  28.624  33.778  1.00  0.00     0.074 A 
ATOM     45  C   UNL A   1      43.580  27.553  33.039  1.00  0.00     0.031 C 
ATOM     46  C   UNL A   1      38.498  30.789  29.673  1.00  0.00     0.029 A 
ATOM     47  C   UNL A   1      38.760  31.261  31.030  1.00  0.00     0.049 A 
ATOM     48  H   UNL A   1      40.259  30.612  32.325  1.00  0.00     0.167 HD
ATOM     49  C   UNL A   1      43.298  28.997  35.032  1.00  0.00     0.037 A 
ATOM     50  C   UNL A   1      38.057  32.215  31.672  1.00  0.00     0.037 A 
ATOM     51  C   UNL A   1      42.675  30.076  35.755  1.00  0.00     0.049 A 
ATOM     52  C   UNL A   1      38.449  32.595  33.076  1.00  0.00     0.074 A 
ATOM     53  C   UNL A   1      42.995  30.566  37.009  1.00  0.00     0.029 A 
ATOM     54  N   UNL A   1      41.602  30.826  35.295  1.00  0.00    -0.354 N 
ATOM     55  N   UNL A   1      39.416  32.115  33.821  1.00  0.00    -0.248 NA
ATOM     56  C   UNL A   1      37.659  33.651  33.725  1.00  0.00     0.031 C 
ATOM     57  C   UNL A   1      42.081  31.573  37.332  1.00  0.00     0.029 A 
ATOM     58  C   UNL A   1      41.231  31.756  36.252  1.00  0.00     0.049 A 
ATOM     59  H   UNL A   1      41.169  30.713  34.419  1.00  0.00     0.167 HD
ATOM     60  C   UNL A   1      39.370  32.830  35.012  1.00  0.00     0.074 A 
ATOM     61  C   UNL A   1      38.287  33.783  34.886  1.00  0.00     0.031 C 
ATOM     62  C   UNL A   1      40.157  32.710  36.110  1.00  0.00     0.037 A 
BRANCH  49  63
ATOM     63  C   UNL A   1      44.406  28.233  35.707  1.00  0.00     0.058 A 
ATOM     64  C   UNL A   1      44.147  27.111  36.511  1.00  0.00     0.135 A 
ATOM     65  C   UNL A   1      45.747  28.602  35.514  1.00  0.00     0.135 A 
ATOM     66  F   UNL A   1      42.883  26.721  36.743  1.00  0.00    -0.206 F 
ATOM     67  C   UNL A   1      45.174  26.401  37.123  1.00  0.00     0.059 A 
ATOM     68  C   UNL A   1      46.793  27.887  36.091  1.00  0.00     0.059 A 
ATOM     69  F   UNL A   1      46.054  29.666  34.756  1.00  0.00    -0.206 F 
ATOM     70  C   UNL A   1      46.495  26.796  36.906  1.00  0.00     0.060 A 
BRANCH  70  71
ATOM     71  S   UNL A   1      47.815  25.859  37.704  1.00  0.00     0.124 S 
ATOM     72  O   UNL A   1      48.481  25.258  36.552  1.00  0.00    -0.237 OA
ATOM     73  O   UNL A   1      48.564  26.905  38.394  1.00  0.00    -0.237 OA
ATOM     74  O   UNL A   1      47.099  24.928  38.570  1.00  0.00    -0.744 OA
ENDBRANCH  70  71
ENDBRANCH  49  63
BRANCH  50  75
ATOM     75  C   UNL A   1      36.916  32.885  30.991  1.00  0.00     0.058 A 
ATOM     76  C   UNL A   1      35.589  32.554  31.305  1.00  0.00     0.135 A 
ATOM     77  C   UNL A   1      37.127  33.877  30.019  1.00  0.00     0.135 A 
ATOM     78  F   UNL A   1      35.334  31.607  32.221  1.00  0.00    -0.206 F 
ATOM     79  C   UNL A   1      34.514  33.166  30.670  1.00  0.00     0.059 A 
ATOM     80  C   UNL A   1      36.068  34.524  29.391  1.00  0.00     0.059 A 
ATOM     81  F   UNL A   1      38.376  34.244  29.692  1.00  0.00    -0.206 F 
ATOM     82  C   UNL A   1      34.763  34.154  29.717  1.00  0.00     0.060 A 
BRANCH  82  83
ATOM     83  S   UNL A   1      33.359  34.977  28.936  1.00  0.00     0.124 S 
ATOM     84  O   UNL A   1      32.508  35.264  30.085  1.00  0.00    -0.237 OA
ATOM     85  O   UNL A   1      33.993  36.132  28.308  1.00  0.00    -0.237 OA
ATOM     86  O   UNL A   1      32.851  33.970  28.010  1.00  0.00    -0.744 OA
ENDBRANCH  82  83
ENDBRANCH  50  75
BRANCH  62  87
ATOM     87  C   UNL A   1      39.914  33.657  37.254  1.00  0.00     0.058 A 
ATOM     88  C   UNL A   1      40.389  34.978  37.239  1.00  0.00     0.135 A 
ATOM     89  C   UNL A   1      39.128  33.257  38.349  1.00  0.00     0.135 A 
ATOM     90  F   UNL A   1      41.152  35.410  36.221  1.00  0.00    -0.206 F 
ATOM     91  C   UNL A   1      40.110  35.863  38.275  1.00  0.00     0.059 A 
ATOM     92  C   UNL A   1      38.810  34.135  39.381  1.00  0.00     0.059 A 
ATOM     93  F   UNL A   1      38.641  32.008  38.410  1.00  0.00    -0.206 F 
ATOM     94  C   UNL A   1      39.312  35.434  39.339  1.00  0.00     0.060 A 
BRANCH  94  95
ATOM     95  S   UNL A   1      38.913  36.610  40.649  1.00  0.00     0.124 S 
ATOM     96  O   UNL A   1      38.605  37.813  39.881  1.00  0.00    -0.237 OA
ATOM     97  O   UNL A   1      37.778  35.970  41.305  1.00  0.00    -0.237 OA
ATOM     98  O   UNL A   1      40.137  36.668  41.441  1.00  0.00    -0.744 OA
ENDBRANCH  94  95
ENDBRANCH  62  87
ENDBRANCH  36  37
ENDBRANCH  28  31
ENDBRANCH  26  27
ENDBRANCH  25  26
ENDBRANCH  24  25
ENDBRANCH   1  24
TORSDOF 20
ENDMDL
MODEL 3
REMARK VINA RESULT:     -11.1      2.126      3.268
REMARK SMILES COC(=O)[C@@H]1CCN(C(=O)NC(=O)COCC(=O)NCCCCNC(=O)c2ccc(-c3c4nc(c(-c5c(F)cc(S(=O)(=O)[O-])cc5F)c5ccc([nH]5)c(-c5c(F)cc(S(=O)(=O)[O-])cc5F)c5nc(c(-c6c(F)cc(S(=O)(=O)[O-])cc6F)c6ccc3[nH]6)C=C5)C=C4)cc2)C1
REMARK SMILES IDX 20 1 19 2 17 3 18 4 16 6 15 7 14 8 12 9 9 10 10 11 11 12
REMARK SMILES IDX 13 14 8 15 5 16 6 17 93 18 7 19 3 20 4 21 2 22 1 23 21 24
REMARK SMILES IDX 22 25 23 26 24 27 25 28 26 30 27 31 28 32 92 33 29 34 91 35
REMARK SMILES IDX 30 36 31 37 32 38 85 39 33 40 90 41 84 42 86 43 34 44 89 45
REMARK SMILES IDX 83 46 82 47 35 49 69 50 48 51 68 52 49 53 52 54 67 55 87 56
REMARK SMILES IDX 50 57 51 58 66 60 88 61 53 62 36 63 37 64 46 65 38 66 39 67
REMARK SMILES IDX 45 68 47 69 40 70 41 71 42 72 43 73 44 74 70 75 71 76 80 77
REMARK SMILES IDX 72 78 73 79 79 80 81 81 74 82 75 83 76 84 77 85 78 86 54 87
REMARK SMILES IDX 55 88 64 89 56 90 57 91 63 92 65 93 58 94 59 95 60 96 61 97
REMARK SMILES IDX 62 98
REMARK H PARENT 19 5 11 13 24 29 86 48 52 59
REMARK Flexibility Score: inf
ROOT
ATOM      1  C   UNL A   1      39.132  22.363  26.389  1.00  0.00     0.116 C 
ENDROOT
BRANCH   1   2
ATOM      2  N   UNL A   1      38.371  22.013  25.202  1.00  0.00    -0.354 N 
ATOM      3  C   UNL A   1      37.098  22.384  24.869  1.00  0.00     0.246 C 
ATOM      4  O   UNL A   1      36.623  22.019  23.794  1.00  0.00    -0.272 OA
ATOM      5  H   UNL A   1      38.831  21.431  24.554  1.00  0.00     0.163 HD
BRANCH   3   6
ATOM      6  C   UNL A   1      36.299  23.245  25.845  1.00  0.00     0.260 C 
BRANCH   6   7
ATOM      7  O   UNL A   1      34.917  22.923  25.819  1.00  0.00    -0.362 OA
BRANCH   7   8
ATOM      8  C   UNL A   1      34.079  24.040  26.046  1.00  0.00     0.261 C 
BRANCH   8   9
ATOM      9  C   UNL A   1      32.790  23.655  26.743  1.00  0.00     0.254 C 
ATOM     10  C   UNL A   1      31.123  25.681  26.370  1.00  0.00     0.324 C 
ATOM     11  O   UNL A   1      29.891  25.684  26.262  1.00  0.00    -0.248 OA
ATOM     12  N   UNL A   1      31.672  24.480  26.764  1.00  0.00    -0.276 N 
ATOM     13  H   UNL A   1      30.978  24.005  27.276  1.00  0.00     0.174 HD
ATOM     14  O   UNL A   1      32.695  22.560  27.313  1.00  0.00    -0.272 OA
BRANCH  10  15
ATOM     15  N   UNL A   1      31.841  26.815  26.172  1.00  0.00    -0.324 N 
ATOM     16  C   UNL A   1      33.246  28.577  26.976  1.00  0.00     0.120 C 
ATOM     17  C   UNL A   1      33.759  28.057  25.631  1.00  0.00     0.039 C 
ATOM     18  C   UNL A   1      31.964  27.791  27.252  1.00  0.00     0.136 C 
ATOM     19  C   UNL A   1      32.606  27.271  25.043  1.00  0.00     0.122 C 
BRANCH  16  20
ATOM     20  C   UNL A   1      33.051  30.079  26.986  1.00  0.00     0.310 C 
ATOM     21  O   UNL A   1      32.266  30.699  26.290  1.00  0.00    -0.252 OA
BRANCH  20  22
ATOM     22  O   UNL A   1      33.834  30.628  27.962  1.00  0.00    -0.469 OA
ATOM     23  C   UNL A   1      35.129  31.055  27.535  1.00  0.00     0.282 C 
ENDBRANCH  20  22
ENDBRANCH  16  20
ENDBRANCH  10  15
ENDBRANCH   8   9
ENDBRANCH   7   8
ENDBRANCH   6   7
ENDBRANCH   3   6
ENDBRANCH   1   2
BRANCH   1  24
ATOM     24  C   UNL A   1      40.563  21.825  26.352  1.00  0.00     0.023 C 
BRANCH  24  25
ATOM     25  C   UNL A   1      41.416  22.151  27.578  1.00  0.00     0.023 C 
BRANCH  25  26
ATOM     26  C   UNL A   1      42.500  23.199  27.364  1.00  0.00     0.116 C 
BRANCH  26  27
ATOM     27  N   UNL A   1      42.280  24.016  26.182  1.00  0.00    -0.352 N 
ATOM     28  C   UNL A   1      41.898  25.337  26.111  1.00  0.00     0.251 C 
ATOM     29  H   UNL A   1      42.422  23.565  25.318  1.00  0.00     0.163 HD
ATOM     30  O   UNL A   1      41.621  25.836  25.024  1.00  0.00    -0.269 OA
BRANCH  28  31
ATOM     31  C   UNL A   1      41.782  26.135  27.353  1.00  0.00     0.039 A 
ATOM     32  C   UNL A   1      42.758  27.094  27.635  1.00  0.00     0.014 A 
ATOM     33  C   UNL A   1      40.697  25.966  28.217  1.00  0.00     0.014 A 
ATOM     34  C   UNL A   1      42.602  27.937  28.741  1.00  0.00     0.010 A 
ATOM     35  C   UNL A   1      40.502  26.858  29.269  1.00  0.00     0.010 A 
ATOM     36  C   UNL A   1      41.450  27.856  29.541  1.00  0.00    -0.014 A 
BRANCH  36  37
ATOM     37  C   UNL A   1      41.210  28.812  30.657  1.00  0.00     0.031 A 
ATOM     38  C   UNL A   1      42.017  28.713  31.923  1.00  0.00     0.074 A 
ATOM     39  C   UNL A   1      40.216  29.719  30.559  1.00  0.00     0.049 A 
ATOM     40  N   UNL A   1      41.896  29.394  33.034  1.00  0.00    -0.248 NA
ATOM     41  C   UNL A   1      43.084  27.701  31.954  1.00  0.00     0.031 C 
ATOM     42  C   UNL A   1      39.333  29.887  29.403  1.00  0.00     0.029 A 
ATOM     43  N   UNL A   1      39.769  30.660  31.453  1.00  0.00    -0.354 N 
ATOM     44  C   UNL A   1      42.859  28.884  33.898  1.00  0.00     0.074 A 
ATOM     45  C   UNL A   1      43.518  27.800  33.202  1.00  0.00     0.031 C 
ATOM     46  C   UNL A   1      38.468  30.883  29.648  1.00  0.00     0.029 A 
ATOM     47  C   UNL A   1      38.698  31.394  30.996  1.00  0.00     0.049 A 
ATOM     48  H   UNL A   1      40.178  30.799  32.338  1.00  0.00     0.167 HD
ATOM     49  C   UNL A   1      43.179  29.295  35.149  1.00  0.00     0.037 A 
ATOM     50  C   UNL A   1      37.971  32.357  31.598  1.00  0.00     0.037 A 
ATOM     51  C   UNL A   1      42.530  30.386  35.829  1.00  0.00     0.049 A 
ATOM     52  C   UNL A   1      38.330  32.780  32.998  1.00  0.00     0.074 A 
ATOM     53  C   UNL A   1      42.819  30.914  37.075  1.00  0.00     0.029 A 
ATOM     54  N   UNL A   1      41.458  31.110  35.327  1.00  0.00    -0.354 N 
ATOM     55  N   UNL A   1      39.287  32.332  33.775  1.00  0.00    -0.248 NA
ATOM     56  C   UNL A   1      37.516  33.844  33.603  1.00  0.00     0.031 C 
ATOM     57  C   UNL A   1      41.887  31.918  37.352  1.00  0.00     0.029 A 
ATOM     58  C   UNL A   1      41.057  32.062  36.251  1.00  0.00     0.049 A 
ATOM     59  H   UNL A   1      41.044  30.969  34.446  1.00  0.00     0.167 HD
ATOM     60  C   UNL A   1      39.210  33.079  34.945  1.00  0.00     0.074 A 
ATOM     61  C   UNL A   1      38.118  34.015  34.772  1.00  0.00     0.031 C 
ATOM     62  C   UNL A   1      39.976  32.998  36.062  1.00  0.00     0.037 A 
BRANCH  49  63
ATOM     63  C   UNL A   1      44.282  28.564  35.866  1.00  0.00     0.058 A 
ATOM     64  C   UNL A   1      45.630  28.934  35.726  1.00  0.00     0.135 A 
ATOM     65  C   UNL A   1      43.985  27.503  36.739  1.00  0.00     0.135 A 
ATOM     66  F   UNL A   1      45.975  29.931  34.895  1.00  0.00    -0.206 F 
ATOM     67  C   UNL A   1      46.644  28.264  36.400  1.00  0.00     0.059 A 
ATOM     68  C   UNL A   1      44.981  26.839  37.449  1.00  0.00     0.059 A 
ATOM     69  F   UNL A   1      42.715  27.106  36.912  1.00  0.00    -0.206 F 
ATOM     70  C   UNL A   1      46.310  27.217  37.261  1.00  0.00     0.060 A 
BRANCH  70  71
ATOM     71  S   UNL A   1      47.639  26.361  38.131  1.00  0.00     0.124 S 
ATOM     72  O   UNL A   1      48.796  26.713  37.313  1.00  0.00    -0.237 OA
ATOM     73  O   UNL A   1      47.589  26.975  39.454  1.00  0.00    -0.237 OA
ATOM     74  O   UNL A   1      47.237  24.959  38.076  1.00  0.00    -0.744 OA
ENDBRANCH  70  71
ENDBRANCH  49  63
BRANCH  50  75
ATOM     75  C   UNL A   1      36.837  32.995  30.876  1.00  0.00     0.058 A 
ATOM     76  C   UNL A   1      37.056  34.033  29.957  1.00  0.00     0.135 A 
ATOM     77  C   UNL A   1      35.512  32.577  31.082  1.00  0.00     0.135 A 
ATOM     78  F   UNL A   1      38.303  34.474  29.730  1.00  0.00    -0.206 F 
ATOM     79  C   UNL A   1      36.005  34.644  29.282  1.00  0.00     0.059 A 
ATOM     80  C   UNL A   1      34.447  33.153  30.398  1.00  0.00     0.059 A 
ATOM     81  F   UNL A   1      35.248  31.578  31.939  1.00  0.00    -0.206 F 
ATOM     82  C   UNL A   1      34.702  34.194  29.505  1.00  0.00     0.060 A 
BRANCH  82  83
ATOM     83  S   UNL A   1      33.352  34.961  28.586  1.00  0.00     0.124 S 
ATOM     84  O   UNL A   1      32.524  35.489  29.664  1.00  0.00    -0.237 OA
ATOM     85  O   UNL A   1      34.056  35.952  27.778  1.00  0.00    -0.237 OA
ATOM     86  O   UNL A   1      32.779  33.846  27.838  1.00  0.00    -0.744 OA
ENDBRANCH  82  83
ENDBRANCH  50  75
BRANCH  62  87
ATOM     87  C   UNL A   1      39.698  33.974  37.174  1.00  0.00     0.058 A 
ATOM     88  C   UNL A   1      38.895  33.636  38.275  1.00  0.00     0.135 A 
ATOM     89  C   UNL A   1      40.307  35.240  37.172  1.00  0.00     0.135 A 
ATOM     90  F   UNL A   1      38.283  32.442  38.323  1.00  0.00    -0.206 F 
ATOM     91  C   UNL A   1      38.692  34.524  39.326  1.00  0.00     0.059 A 
ATOM     92  C   UNL A   1      40.143  36.133  38.227  1.00  0.00     0.059 A 
ATOM     93  F   UNL A   1      41.092  35.611  36.148  1.00  0.00    -0.206 F 
ATOM     94  C   UNL A   1      39.326  35.769  39.296  1.00  0.00     0.060 A 
BRANCH  94  95
ATOM     95  S   UNL A   1      39.096  36.890  40.693  1.00  0.00     0.124 S 
ATOM     96  O   UNL A   1      40.471  37.290  40.978  1.00  0.00    -0.237 OA
ATOM     97  O   UNL A   1      38.240  37.925  40.122  1.00  0.00    -0.237 OA
ATOM     98  O   UNL A   1      38.465  36.049  41.705  1.00  0.00    -0.744 OA
ENDBRANCH  94  95
ENDBRANCH  62  87
ENDBRANCH  36  37
ENDBRANCH  28  31
ENDBRANCH  26  27
ENDBRANCH  25  26
ENDBRANCH  24  25
ENDBRANCH   1  24
TORSDOF 20
ENDMDL
