MODEL 1
REMARK VINA RESULT:     -12.7      0.000      0.000
REMARK SMILES O=C(NCCCCNC(=O)[C@H]1CCCN(C(=O)C2CCN(S(=O)(=O)c3ccccc3)CC2)C1)c1ccc(-c2c3nc(c(-c4c(F)cc(S(=O)(=O)[O-])cc4F)c4ccc([nH]4)c(-c4c(F)cc(S(=O)(=O)[O-])cc4F)c4nc(c(-c5c(F)cc(S(=O)(=O)[O-])cc5F)c5ccc2[nH]5)C=C4)C=C3)cc1
REMARK SMILES IDX 6 1 5 2 4 3 3 4 1 5 2 6 34 8 35 9 99 10 36 11 98 12 37 13
REMARK SMILES IDX 38 14 39 15 92 16 40 17 97 18 91 19 93 20 41 21 96 22 90 23
REMARK SMILES IDX 89 24 42 26 76 27 55 28 75 29 56 30 59 31 74 32 94 33 57 34
REMARK SMILES IDX 58 35 73 37 95 38 60 39 43 40 44 41 53 42 45 43 46 44 52 45
REMARK SMILES IDX 54 46 47 47 48 48 49 49 50 50 51 51 77 52 78 53 87 54 79 55
REMARK SMILES IDX 80 56 86 57 88 58 81 59 82 60 83 61 84 62 85 63 61 64 62 65
REMARK SMILES IDX 71 66 63 67 64 68 70 69 72 70 65 71 66 72 67 73 68 74 69 75
REMARK SMILES IDX 7 76 8 77 9 78 10 80 11 81 12 82 33 83 13 84 15 85 14 86
REMARK SMILES IDX 16 87 17 88 18 89 19 90 32 91 20 92 31 93 21 94 22 95 23 96
REMARK SMILES IDX 24 97 25 98 26 99 30 100 27 101 29 102 28 103
REMARK H PARENT 3 7 93 25 59 36 8 79
REMARK Flexibility Score: inf
ROOT
ATOM      1  C   UNL A   1      39.008  23.805  27.183  1.00  0.00     0.023 C 
ENDROOT
BRANCH   1   2
ATOM      2  C   UNL A   1      40.201  22.849  27.178  1.00  0.00     0.023 C 
BRANCH   2   3
ATOM      3  C   UNL A   1      41.560  23.518  27.308  1.00  0.00     0.116 C 
BRANCH   3   4
ATOM      4  N   UNL A   1      41.961  24.241  26.113  1.00  0.00    -0.352 N 
ATOM      5  O   UNL A   1      42.257  26.078  24.828  1.00  0.00    -0.269 OA
ATOM      6  C   UNL A   1      41.991  25.602  25.926  1.00  0.00     0.251 C 
ATOM      7  H   UNL A   1      42.244  23.690  25.346  1.00  0.00     0.163 HD
BRANCH   6   8
ATOM      8  C   UNL A   1      41.656  26.475  27.069  1.00  0.00     0.039 A 
ATOM      9  C   UNL A   1      42.484  27.553  27.390  1.00  0.00     0.014 A 
ATOM     10  C   UNL A   1      40.547  26.167  27.862  1.00  0.00     0.014 A 
ATOM     11  C   UNL A   1      42.281  28.237  28.580  1.00  0.00     0.010 A 
ATOM     12  C   UNL A   1      40.300  26.911  29.018  1.00  0.00     0.010 A 
ATOM     13  C   UNL A   1      41.182  27.933  29.401  1.00  0.00    -0.014 A 
BRANCH  13  14
ATOM     14  C   UNL A   1      40.952  28.749  30.618  1.00  0.00     0.031 A 
ATOM     15  C   UNL A   1      41.854  28.643  31.816  1.00  0.00     0.074 A 
ATOM     16  C   UNL A   1      39.940  29.637  30.600  1.00  0.00     0.049 A 
ATOM     17  N   UNL A   1      41.811  29.321  32.935  1.00  0.00    -0.248 NA
ATOM     18  C   UNL A   1      42.934  27.647  31.761  1.00  0.00     0.031 C 
ATOM     19  C   UNL A   1      38.989  29.806  29.497  1.00  0.00     0.029 A 
ATOM     20  N   UNL A   1      39.556  30.582  31.515  1.00  0.00    -0.354 N 
ATOM     21  C   UNL A   1      42.846  28.830  33.721  1.00  0.00     0.074 A 
ATOM     22  C   UNL A   1      43.487  27.777  32.961  1.00  0.00     0.031 C 
ATOM     23  C   UNL A   1      38.167  30.827  29.775  1.00  0.00     0.029 A 
ATOM     24  C   UNL A   1      38.497  31.350  31.095  1.00  0.00     0.049 A 
ATOM     25  H   UNL A   1      39.996  30.699  32.387  1.00  0.00     0.167 HD
ATOM     26  C   UNL A   1      43.229  29.228  34.960  1.00  0.00     0.037 A 
ATOM     27  C   UNL A   1      37.854  32.361  31.707  1.00  0.00     0.037 A 
ATOM     28  C   UNL A   1      42.591  30.285  35.703  1.00  0.00     0.049 A 
ATOM     29  C   UNL A   1      38.315  32.796  33.066  1.00  0.00     0.074 A 
ATOM     30  C   UNL A   1      42.898  30.758  36.967  1.00  0.00     0.029 A 
ATOM     31  N   UNL A   1      41.518  31.039  35.247  1.00  0.00    -0.354 N 
ATOM     32  N   UNL A   1      39.295  32.316  33.793  1.00  0.00    -0.248 NA
ATOM     33  C   UNL A   1      37.586  33.907  33.688  1.00  0.00     0.031 C 
ATOM     34  C   UNL A   1      41.999  31.784  37.283  1.00  0.00     0.029 A 
ATOM     35  C   UNL A   1      41.152  31.971  36.203  1.00  0.00     0.049 A 
ATOM     36  H   UNL A   1      41.083  30.927  34.371  1.00  0.00     0.167 HD
ATOM     37  C   UNL A   1      39.298  33.062  34.963  1.00  0.00     0.074 A 
ATOM     38  C   UNL A   1      38.244  34.049  34.830  1.00  0.00     0.031 C 
ATOM     39  C   UNL A   1      40.093  32.936  36.054  1.00  0.00     0.037 A 
BRANCH  26  40
ATOM     40  C   UNL A   1      44.391  28.515  35.596  1.00  0.00     0.058 A 
ATOM     41  C   UNL A   1      45.711  28.958  35.414  1.00  0.00     0.135 A 
ATOM     42  C   UNL A   1      44.181  27.411  36.438  1.00  0.00     0.135 A 
ATOM     43  F   UNL A   1      45.969  29.998  34.607  1.00  0.00    -0.206 F 
ATOM     44  C   UNL A   1      46.783  28.322  36.033  1.00  0.00     0.059 A 
ATOM     45  C   UNL A   1      45.237  26.772  37.083  1.00  0.00     0.059 A 
ATOM     46  F   UNL A   1      42.939  26.946  36.646  1.00  0.00    -0.206 F 
ATOM     47  C   UNL A   1      46.536  27.229  36.866  1.00  0.00     0.060 A 
BRANCH  47  48
ATOM     48  S   UNL A   1      47.936  26.421  37.673  1.00  0.00     0.124 S 
ATOM     49  O   UNL A   1      48.370  25.489  36.637  1.00  0.00    -0.237 OA
ATOM     50  O   UNL A   1      48.836  27.540  37.936  1.00  0.00    -0.237 OA
ATOM     51  O   UNL A   1      47.340  25.810  38.857  1.00  0.00    -0.744 OA
ENDBRANCH  47  48
ENDBRANCH  26  40
BRANCH  27  52
ATOM     52  C   UNL A   1      36.704  33.013  31.033  1.00  0.00     0.058 A 
ATOM     53  C   UNL A   1      35.392  32.824  31.488  1.00  0.00     0.135 A 
ATOM     54  C   UNL A   1      36.903  33.871  29.940  1.00  0.00     0.135 A 
ATOM     55  F   UNL A   1      35.155  32.013  32.530  1.00  0.00    -0.206 F 
ATOM     56  C   UNL A   1      34.313  33.454  30.877  1.00  0.00     0.059 A 
ATOM     57  C   UNL A   1      35.845  34.532  29.328  1.00  0.00     0.059 A 
ATOM     58  F   UNL A   1      38.144  34.101  29.482  1.00  0.00    -0.206 F 
ATOM     59  C   UNL A   1      34.551  34.307  29.797  1.00  0.00     0.060 A 
BRANCH  59  60
ATOM     60  S   UNL A   1      33.157  35.170  29.040  1.00  0.00     0.124 S 
ATOM     61  O   UNL A   1      32.716  34.198  28.047  1.00  0.00    -0.237 OA
ATOM     62  O   UNL A   1      32.262  35.375  30.175  1.00  0.00    -0.237 OA
ATOM     63  O   UNL A   1      33.769  36.386  28.511  1.00  0.00    -0.744 OA
ENDBRANCH  59  60
ENDBRANCH  27  52
BRANCH  39  64
ATOM     64  C   UNL A   1      39.841  33.894  37.182  1.00  0.00     0.058 A 
ATOM     65  C   UNL A   1      40.508  35.127  37.254  1.00  0.00     0.135 A 
ATOM     66  C   UNL A   1      38.924  33.579  38.195  1.00  0.00     0.135 A 
ATOM     67  F   UNL A   1      41.401  35.468  36.311  1.00  0.00    -0.206 F 
ATOM     68  C   UNL A   1      40.299  36.003  38.313  1.00  0.00     0.059 A 
ATOM     69  C   UNL A   1      38.682  34.450  39.253  1.00  0.00     0.059 A 
ATOM     70  F   UNL A   1      38.255  32.415  38.165  1.00  0.00    -0.206 F 
ATOM     71  C   UNL A   1      39.389  35.651  39.312  1.00  0.00     0.060 A 
BRANCH  71  72
ATOM     72  S   UNL A   1      39.121  36.794  40.684  1.00  0.00     0.124 S 
ATOM     73  O   UNL A   1      38.405  37.880  40.023  1.00  0.00    -0.237 OA
ATOM     74  O   UNL A   1      38.335  35.992  41.616  1.00  0.00    -0.237 OA
ATOM     75  O   UNL A   1      40.475  37.111  41.127  1.00  0.00    -0.744 OA
ENDBRANCH  71  72
ENDBRANCH  39  64
ENDBRANCH  13  14
ENDBRANCH   6   8
ENDBRANCH   3   4
ENDBRANCH   2   3
ENDBRANCH   1   2
BRANCH   1  76
ATOM     76  C   UNL A   1      38.038  23.625  26.017  1.00  0.00     0.116 C 
BRANCH  76  77
ATOM     77  N   UNL A   1      38.167  22.314  25.409  1.00  0.00    -0.356 N 
ATOM     78  C   UNL A   1      37.226  21.542  24.802  1.00  0.00     0.224 C 
ATOM     79  H   UNL A   1      39.070  21.925  25.440  1.00  0.00     0.163 HD
ATOM     80  O   UNL A   1      37.563  20.432  24.390  1.00  0.00    -0.275 OA
BRANCH  78  81
ATOM     81  C   UNL A   1      35.816  22.075  24.644  1.00  0.00     0.098 C 
ATOM     82  C   UNL A   1      35.723  22.941  23.376  1.00  0.00     0.017 C 
ATOM     83  C   UNL A   1      34.805  20.921  24.581  1.00  0.00     0.133 C 
ATOM     84  C   UNL A   1      34.287  23.380  23.135  1.00  0.00     0.022 C 
ATOM     85  N   UNL A   1      33.445  21.430  24.341  1.00  0.00    -0.342 N 
ATOM     86  C   UNL A   1      33.359  22.164  23.099  1.00  0.00     0.119 C 
BRANCH  85  87
ATOM     87  C   UNL A   1      32.467  21.253  25.302  1.00  0.00     0.225 C 
ATOM     88  O   UNL A   1      31.813  20.198  25.308  1.00  0.00    -0.275 OA
BRANCH  87  89
ATOM     89  C   UNL A   1      32.137  22.269  26.428  1.00  0.00     0.081 C 
ATOM     90  C   UNL A   1      30.798  22.986  26.448  1.00  0.00     0.030 C 
ATOM     91  C   UNL A   1      33.256  23.201  26.852  1.00  0.00     0.030 C 
ATOM     92  C   UNL A   1      30.750  24.424  25.947  1.00  0.00     0.103 C 
ATOM     93  C   UNL A   1      33.302  24.496  26.074  1.00  0.00     0.103 C 
ATOM     94  N   UNL A   1      32.022  25.235  26.000  1.00  0.00    -0.198 NA
BRANCH  94  95
ATOM     95  S   UNL A   1      31.928  26.489  24.780  1.00  0.00     0.243 S 
ATOM     96  O   UNL A   1      33.204  26.524  24.088  1.00  0.00    -0.207 OA
ATOM     97  O   UNL A   1      30.716  26.231  24.034  1.00  0.00    -0.207 OA
BRANCH  95  98
ATOM     98  C   UNL A   1      31.775  28.081  25.561  1.00  0.00     0.082 A 
ATOM     99  C   UNL A   1      31.271  29.151  24.815  1.00  0.00     0.022 A 
ATOM    100  C   UNL A   1      32.391  28.329  26.795  1.00  0.00     0.022 A 
ATOM    101  C   UNL A   1      31.354  30.450  25.320  1.00  0.00     0.001 A 
ATOM    102  C   UNL A   1      32.430  29.621  27.317  1.00  0.00     0.001 A 
ATOM    103  C   UNL A   1      31.918  30.683  26.576  1.00  0.00     0.000 A 
ENDBRANCH  95  98
ENDBRANCH  94  95
ENDBRANCH  87  89
ENDBRANCH  85  87
ENDBRANCH  78  81
ENDBRANCH  76  77
ENDBRANCH   1  76
TORSDOF 18
ENDMDL
MODEL 2
REMARK VINA RESULT:     -12.0      5.742      7.986
REMARK SMILES O=C(NCCCCNC(=O)[C@H]1CCCN(C(=O)C2CCN(S(=O)(=O)c3ccccc3)CC2)C1)c1ccc(-c2c3nc(c(-c4c(F)cc(S(=O)(=O)[O-])cc4F)c4ccc([nH]4)c(-c4c(F)cc(S(=O)(=O)[O-])cc4F)c4nc(c(-c5c(F)cc(S(=O)(=O)[O-])cc5F)c5ccc2[nH]5)C=C4)C=C3)cc1
REMARK SMILES IDX 6 1 5 2 4 3 3 4 1 5 2 6 34 8 35 9 99 10 36 11 98 12 37 13
REMARK SMILES IDX 38 14 39 15 92 16 40 17 97 18 91 19 93 20 41 21 96 22 90 23
REMARK SMILES IDX 89 24 42 26 76 27 55 28 75 29 56 30 59 31 74 32 94 33 57 34
REMARK SMILES IDX 58 35 73 37 95 38 60 39 43 40 44 41 53 42 45 43 46 44 52 45
REMARK SMILES IDX 54 46 47 47 48 48 49 49 50 50 51 51 77 52 78 53 87 54 79 55
REMARK SMILES IDX 80 56 86 57 88 58 81 59 82 60 83 61 84 62 85 63 61 64 62 65
REMARK SMILES IDX 71 66 63 67 64 68 70 69 72 70 65 71 66 72 67 73 68 74 69 75
REMARK SMILES IDX 7 76 8 77 9 78 10 80 11 81 12 82 33 83 13 84 15 85 14 86
REMARK SMILES IDX 16 87 17 88 18 89 19 90 32 91 20 92 31 93 21 94 22 95 23 96
REMARK SMILES IDX 24 97 25 98 26 99 30 100 27 101 29 102 28 103
REMARK H PARENT 3 7 93 25 59 36 8 79
REMARK Flexibility Score: inf
ROOT
ATOM      1  C   UNL A   1      38.687  22.505  26.147  1.00  0.00     0.023 C 
ENDROOT
BRANCH   1   2
ATOM      2  C   UNL A   1      39.037  21.109  25.629  1.00  0.00     0.023 C 
BRANCH   2   3
ATOM      3  C   UNL A   1      39.637  20.173  26.665  1.00  0.00     0.116 C 
BRANCH   3   4
ATOM      4  N   UNL A   1      40.725  19.362  26.145  1.00  0.00    -0.352 N 
ATOM      5  O   UNL A   1      42.820  18.986  25.378  1.00  0.00    -0.269 OA
ATOM      6  C   UNL A   1      42.025  19.748  25.916  1.00  0.00     0.251 C 
ATOM      7  H   UNL A   1      40.506  18.426  25.930  1.00  0.00     0.163 HD
BRANCH   6   8
ATOM      8  C   UNL A   1      42.427  21.117  26.297  1.00  0.00     0.039 A 
ATOM      9  C   UNL A   1      42.558  22.104  25.317  1.00  0.00     0.014 A 
ATOM     10  C   UNL A   1      42.744  21.390  27.630  1.00  0.00     0.014 A 
ATOM     11  C   UNL A   1      43.134  23.322  25.649  1.00  0.00     0.010 A 
ATOM     12  C   UNL A   1      43.248  22.647  27.975  1.00  0.00     0.010 A 
ATOM     13  C   UNL A   1      43.475  23.611  26.981  1.00  0.00    -0.014 A 
BRANCH  13  14
ATOM     14  C   UNL A   1      44.005  24.959  27.306  1.00  0.00     0.031 A 
ATOM     15  C   UNL A   1      45.444  25.317  27.058  1.00  0.00     0.074 A 
ATOM     16  C   UNL A   1      43.143  25.879  27.779  1.00  0.00     0.049 A 
ATOM     17  N   UNL A   1      46.046  26.464  27.246  1.00  0.00    -0.248 NA
ATOM     18  C   UNL A   1      46.323  24.256  26.545  1.00  0.00     0.031 C 
ATOM     19  C   UNL A   1      41.729  25.630  28.078  1.00  0.00     0.029 A 
ATOM     20  N   UNL A   1      43.312  27.208  28.064  1.00  0.00    -0.354 N 
ATOM     21  C   UNL A   1      47.373  26.264  26.887  1.00  0.00     0.074 A 
ATOM     22  C   UNL A   1      47.496  24.877  26.491  1.00  0.00     0.031 C 
ATOM     23  C   UNL A   1      41.149  26.779  28.452  1.00  0.00     0.029 A 
ATOM     24  C   UNL A   1      42.157  27.831  28.470  1.00  0.00     0.049 A 
ATOM     25  H   UNL A   1      44.177  27.671  27.984  1.00  0.00     0.167 HD
ATOM     26  C   UNL A   1      48.391  27.160  26.881  1.00  0.00     0.037 A 
ATOM     27  C   UNL A   1      41.933  29.109  28.827  1.00  0.00     0.037 A 
ATOM     28  C   UNL A   1      48.254  28.542  27.266  1.00  0.00     0.049 A 
ATOM     29  C   UNL A   1      43.072  30.083  28.788  1.00  0.00     0.074 A 
ATOM     30  C   UNL A   1      49.225  29.529  27.302  1.00  0.00     0.029 A 
ATOM     31  N   UNL A   1      47.069  29.138  27.675  1.00  0.00    -0.354 N 
ATOM     32  N   UNL A   1      44.321  29.872  28.446  1.00  0.00    -0.248 NA
ATOM     33  C   UNL A   1      42.774  31.465  29.179  1.00  0.00     0.031 C 
ATOM     34  C   UNL A   1      48.632  30.714  27.752  1.00  0.00     0.029 A 
ATOM     35  C   UNL A   1      47.284  30.474  27.966  1.00  0.00     0.049 A 
ATOM     36  H   UNL A   1      46.202  28.676  27.747  1.00  0.00     0.167 HD
ATOM     37  C   UNL A   1      44.962  31.095  28.588  1.00  0.00     0.074 A 
ATOM     38  C   UNL A   1      43.954  32.048  29.012  1.00  0.00     0.031 C 
ATOM     39  C   UNL A   1      46.269  31.401  28.397  1.00  0.00     0.037 A 
BRANCH  26  40
ATOM     40  C   UNL A   1      49.747  26.675  26.449  1.00  0.00     0.058 A 
ATOM     41  C   UNL A   1      50.592  25.981  27.328  1.00  0.00     0.135 A 
ATOM     42  C   UNL A   1      50.187  26.859  25.128  1.00  0.00     0.135 A 
ATOM     43  F   UNL A   1      50.228  25.791  28.606  1.00  0.00    -0.206 F 
ATOM     44  C   UNL A   1      51.832  25.498  26.918  1.00  0.00     0.059 A 
ATOM     45  C   UNL A   1      51.415  26.368  24.690  1.00  0.00     0.059 A 
ATOM     46  F   UNL A   1      49.418  27.517  24.245  1.00  0.00    -0.206 F 
ATOM     47  C   UNL A   1      52.235  25.697  25.596  1.00  0.00     0.060 A 
BRANCH  47  48
ATOM     48  S   UNL A   1      53.840  25.055  25.074  1.00  0.00     0.124 S 
ATOM     49  O   UNL A   1      54.007  25.709  23.779  1.00  0.00    -0.237 OA
ATOM     50  O   UNL A   1      54.726  25.520  26.137  1.00  0.00    -0.237 OA
ATOM     51  O   UNL A   1      53.630  23.611  25.025  1.00  0.00    -0.744 OA
ENDBRANCH  47  48
ENDBRANCH  26  40
BRANCH  27  52
ATOM     52  C   UNL A   1      40.574  29.521  29.259  1.00  0.00     0.058 A 
ATOM     53  C   UNL A   1      40.293  29.799  30.604  1.00  0.00     0.135 A 
ATOM     54  C   UNL A   1      39.540  29.682  28.324  1.00  0.00     0.135 A 
ATOM     55  F   UNL A   1      41.251  29.660  31.532  1.00  0.00    -0.206 F 
ATOM     56  C   UNL A   1      39.028  30.212  31.010  1.00  0.00     0.059 A 
ATOM     57  C   UNL A   1      38.276  30.118  28.702  1.00  0.00     0.059 A 
ATOM     58  F   UNL A   1      39.768  29.450  27.022  1.00  0.00    -0.206 F 
ATOM     59  C   UNL A   1      38.026  30.369  30.051  1.00  0.00     0.060 A 
BRANCH  59  60
ATOM     60  S   UNL A   1      36.402  30.961  30.570  1.00  0.00     0.124 S 
ATOM     61  O   UNL A   1      35.660  30.914  29.316  1.00  0.00    -0.237 OA
ATOM     62  O   UNL A   1      36.016  29.976  31.576  1.00  0.00    -0.237 OA
ATOM     63  O   UNL A   1      36.686  32.295  31.090  1.00  0.00    -0.744 OA
ENDBRANCH  59  60
ENDBRANCH  27  52
BRANCH  39  64
ATOM     64  C   UNL A   1      46.668  32.826  28.648  1.00  0.00     0.058 A 
ATOM     65  C   UNL A   1      47.026  33.267  29.931  1.00  0.00     0.135 A 
ATOM     66  C   UNL A   1      46.697  33.755  27.597  1.00  0.00     0.135 A 
ATOM     67  F   UNL A   1      47.006  32.416  30.969  1.00  0.00    -0.206 F 
ATOM     68  C   UNL A   1      47.368  34.593  30.171  1.00  0.00     0.059 A 
ATOM     69  C   UNL A   1      47.056  35.082  27.811  1.00  0.00     0.059 A 
ATOM     70  F   UNL A   1      46.370  33.378  26.351  1.00  0.00    -0.206 F 
ATOM     71  C   UNL A   1      47.373  35.495  29.105  1.00  0.00     0.060 A 
BRANCH  71  72
ATOM     72  S   UNL A   1      47.818  37.215  29.424  1.00  0.00     0.124 S 
ATOM     73  O   UNL A   1      46.555  37.758  29.912  1.00  0.00    -0.237 OA
ATOM     74  O   UNL A   1      48.880  37.089  30.418  1.00  0.00    -0.237 OA
ATOM     75  O   UNL A   1      48.248  37.700  28.116  1.00  0.00    -0.744 OA
ENDBRANCH  71  72
ENDBRANCH  39  64
ENDBRANCH  13  14
ENDBRANCH   6   8
ENDBRANCH   3   4
ENDBRANCH   2   3
ENDBRANCH   1   2
BRANCH   1  76
ATOM     76  C   UNL A   1      37.399  23.096  25.574  1.00  0.00     0.116 C 
BRANCH  76  77
ATOM     77  N   UNL A   1      37.416  23.113  24.123  1.00  0.00    -0.356 N 
ATOM     78  C   UNL A   1      36.389  22.973  23.243  1.00  0.00     0.224 C 
ATOM     79  H   UNL A   1      38.301  23.247  23.716  1.00  0.00     0.163 HD
ATOM     80  O   UNL A   1      36.652  22.982  22.039  1.00  0.00    -0.275 OA
BRANCH  78  81
ATOM     81  C   UNL A   1      34.974  22.827  23.766  1.00  0.00     0.098 C 
ATOM     82  C   UNL A   1      33.992  22.705  22.588  1.00  0.00     0.017 C 
ATOM     83  C   UNL A   1      34.861  21.605  24.688  1.00  0.00     0.133 C 
ATOM     84  C   UNL A   1      32.584  22.432  23.096  1.00  0.00     0.022 C 
ATOM     85  N   UNL A   1      33.472  21.409  25.128  1.00  0.00    -0.342 N 
ATOM     86  C   UNL A   1      32.578  21.206  24.010  1.00  0.00     0.119 C 
BRANCH  85  87
ATOM     87  C   UNL A   1      33.154  21.523  26.469  1.00  0.00     0.225 C 
ATOM     88  O   UNL A   1      33.459  20.600  27.240  1.00  0.00    -0.275 OA
BRANCH  87  89
ATOM     89  C   UNL A   1      32.469  22.757  27.116  1.00  0.00     0.081 C 
ATOM     90  C   UNL A   1      30.993  23.026  26.883  1.00  0.00     0.030 C 
ATOM     91  C   UNL A   1      33.262  24.050  27.118  1.00  0.00     0.030 C 
ATOM     92  C   UNL A   1      30.614  24.091  25.861  1.00  0.00     0.103 C 
ATOM     93  C   UNL A   1      33.035  24.909  25.895  1.00  0.00     0.103 C 
ATOM     94  N   UNL A   1      31.617  25.179  25.565  1.00  0.00    -0.198 NA
BRANCH  94  95
ATOM     95  S   UNL A   1      31.306  25.795  23.955  1.00  0.00     0.243 S 
ATOM     96  O   UNL A   1      32.579  25.868  23.260  1.00  0.00    -0.207 OA
ATOM     97  O   UNL A   1      30.242  24.978  23.414  1.00  0.00    -0.207 OA
BRANCH  95  98
ATOM     98  C   UNL A   1      30.728  27.475  24.053  1.00  0.00     0.082 A 
ATOM     99  C   UNL A   1      29.852  27.943  23.069  1.00  0.00     0.022 A 
ATOM    100  C   UNL A   1      31.338  28.386  24.925  1.00  0.00     0.022 A 
ATOM    101  C   UNL A   1      29.566  29.307  22.986  1.00  0.00     0.001 A 
ATOM    102  C   UNL A   1      31.014  29.741  24.869  1.00  0.00     0.001 A 
ATOM    103  C   UNL A   1      30.134  30.203  23.895  1.00  0.00     0.000 A 
ENDBRANCH  95  98
ENDBRANCH  94  95
ENDBRANCH  87  89
ENDBRANCH  85  87
ENDBRANCH  78  81
ENDBRANCH  76  77
ENDBRANCH   1  76
TORSDOF 18
ENDMDL
MODEL 3
REMARK VINA RESULT:     -12.0      5.873      8.300
REMARK SMILES O=C(NCCCCNC(=O)[C@H]1CCCN(C(=O)C2CCN(S(=O)(=O)c3ccccc3)CC2)C1)c1ccc(-c2c3nc(c(-c4c(F)cc(S(=O)(=O)[O-])cc4F)c4ccc([nH]4)c(-c4c(F)cc(S(=O)(=O)[O-])cc4F)c4nc(c(-c5c(F)cc(S(=O)(=O)[O-])cc5F)c5ccc2[nH]5)C=C4)C=C3)cc1
REMARK SMILES IDX 6 1 5 2 4 3 3 4 1 5 2 6 34 8 35 9 99 10 36 11 98 12 37 13
REMARK SMILES IDX 38 14 39 15 92 16 40 17 97 18 91 19 93 20 41 21 96 22 90 23
REMARK SMILES IDX 89 24 42 26 76 27 55 28 75 29 56 30 59 31 74 32 94 33 57 34
REMARK SMILES IDX 58 35 73 37 95 38 60 39 43 40 44 41 53 42 45 43 46 44 52 45
REMARK SMILES IDX 54 46 47 47 48 48 49 49 50 50 51 51 77 52 78 53 87 54 79 55
REMARK SMILES IDX 80 56 86 57 88 58 81 59 82 60 83 61 84 62 85 63 61 64 62 65
REMARK SMILES IDX 71 66 63 67 64 68 70 69 72 70 65 71 66 72 67 73 68 74 69 75
REMARK SMILES IDX 7 76 8 77 9 78 10 80 11 81 12 82 33 83 13 84 15 85 14 86
REMARK SMILES IDX 16 87 17 88 18 89 19 90 32 91 20 92 31 93 21 94 22 95 23 96
REMARK SMILES IDX 24 97 25 98 26 99 30 100 27 101 29 102 28 103
REMARK H PARENT 3 7 93 25 59 36 8 79
REMARK Flexibility Score: inf
ROOT
ATOM      1  C   UNL A   1      37.309  19.522  25.006  1.00  0.00     0.023 C 
ENDROOT
BRANCH   1   2
ATOM      2  C   UNL A   1      38.610  20.324  24.952  1.00  0.00     0.023 C 
BRANCH   2   3
ATOM      3  C   UNL A   1      39.468  20.240  26.204  1.00  0.00     0.116 C 
BRANCH   3   4
ATOM      4  N   UNL A   1      40.580  19.313  26.076  1.00  0.00    -0.352 N 
ATOM      5  O   UNL A   1      42.761  18.733  25.930  1.00  0.00    -0.269 OA
ATOM      6  C   UNL A   1      41.923  19.597  26.157  1.00  0.00     0.251 C 
ATOM      7  H   UNL A   1      40.344  18.371  25.911  1.00  0.00     0.163 HD
BRANCH   6   8
ATOM      8  C   UNL A   1      42.329  20.979  26.483  1.00  0.00     0.039 A 
ATOM      9  C   UNL A   1      42.562  21.898  25.458  1.00  0.00     0.014 A 
ATOM     10  C   UNL A   1      42.546  21.330  27.818  1.00  0.00     0.014 A 
ATOM     11  C   UNL A   1      43.142  23.122  25.758  1.00  0.00     0.010 A 
ATOM     12  C   UNL A   1      43.054  22.596  28.123  1.00  0.00     0.010 A 
ATOM     13  C   UNL A   1      43.383  23.490  27.093  1.00  0.00    -0.014 A 
BRANCH  13  14
ATOM     14  C   UNL A   1      43.921  24.844  27.375  1.00  0.00     0.031 A 
ATOM     15  C   UNL A   1      45.347  25.203  27.064  1.00  0.00     0.074 A 
ATOM     16  C   UNL A   1      43.074  25.768  27.868  1.00  0.00     0.049 A 
ATOM     17  N   UNL A   1      45.951  26.355  27.210  1.00  0.00    -0.248 NA
ATOM     18  C   UNL A   1      46.209  24.137  26.532  1.00  0.00     0.031 C 
ATOM     19  C   UNL A   1      41.675  25.519  28.228  1.00  0.00     0.029 A 
ATOM     20  N   UNL A   1      43.250  27.102  28.126  1.00  0.00    -0.354 N 
ATOM     21  C   UNL A   1      47.264  26.154  26.800  1.00  0.00     0.074 A 
ATOM     22  C   UNL A   1      47.376  24.761  26.421  1.00  0.00     0.031 C 
ATOM     23  C   UNL A   1      41.106  26.672  28.608  1.00  0.00     0.029 A 
ATOM     24  C   UNL A   1      42.110  27.727  28.569  1.00  0.00     0.049 A 
ATOM     25  H   UNL A   1      44.109  27.567  28.004  1.00  0.00     0.167 HD
ATOM     26  C   UNL A   1      48.277  27.053  26.739  1.00  0.00     0.037 A 
ATOM     27  C   UNL A   1      41.895  29.010  28.915  1.00  0.00     0.037 A 
ATOM     28  C   UNL A   1      48.150  28.441  27.108  1.00  0.00     0.049 A 
ATOM     29  C   UNL A   1      43.027  29.987  28.814  1.00  0.00     0.074 A 
ATOM     30  C   UNL A   1      49.118  29.431  27.089  1.00  0.00     0.029 A 
ATOM     31  N   UNL A   1      46.980  29.039  27.555  1.00  0.00    -0.354 N 
ATOM     32  N   UNL A   1      44.262  29.775  28.426  1.00  0.00    -0.248 NA
ATOM     33  C   UNL A   1      42.740  31.375  29.196  1.00  0.00     0.031 C 
ATOM     34  C   UNL A   1      48.538  30.621  27.545  1.00  0.00     0.029 A 
ATOM     35  C   UNL A   1      47.202  30.380  27.817  1.00  0.00     0.049 A 
ATOM     36  H   UNL A   1      46.119  28.575  27.670  1.00  0.00     0.167 HD
ATOM     37  C   UNL A   1      44.904  31.003  28.523  1.00  0.00     0.074 A 
ATOM     38  C   UNL A   1      43.910  31.959  28.972  1.00  0.00     0.031 C 
ATOM     39  C   UNL A   1      46.201  31.310  28.274  1.00  0.00     0.037 A 
BRANCH  26  40
ATOM     40  C   UNL A   1      49.616  26.566  26.259  1.00  0.00     0.058 A 
ATOM     41  C   UNL A   1      50.095  26.880  24.977  1.00  0.00     0.135 A 
ATOM     42  C   UNL A   1      50.455  25.824  27.107  1.00  0.00     0.135 A 
ATOM     43  F   UNL A   1      49.328  27.573  24.121  1.00  0.00    -0.206 F 
ATOM     44  C   UNL A   1      51.351  26.462  24.547  1.00  0.00     0.059 A 
ATOM     45  C   UNL A   1      51.723  25.412  26.704  1.00  0.00     0.059 A 
ATOM     46  F   UNL A   1      50.046  25.496  28.343  1.00  0.00    -0.206 F 
ATOM     47  C   UNL A   1      52.158  25.728  25.417  1.00  0.00     0.060 A 
BRANCH  47  48
ATOM     48  S   UNL A   1      53.791  25.202  24.850  1.00  0.00     0.124 S 
ATOM     49  O   UNL A   1      53.836  23.825  25.332  1.00  0.00    -0.237 OA
ATOM     50  O   UNL A   1      53.688  25.364  23.403  1.00  0.00    -0.237 OA
ATOM     51  O   UNL A   1      54.697  26.131  25.518  1.00  0.00    -0.744 OA
ENDBRANCH  47  48
ENDBRANCH  26  40
BRANCH  27  52
ATOM     52  C   UNL A   1      40.553  29.424  29.396  1.00  0.00     0.058 A 
ATOM     53  C   UNL A   1      40.311  29.665  30.755  1.00  0.00     0.135 A 
ATOM     54  C   UNL A   1      39.497  29.625  28.494  1.00  0.00     0.135 A 
ATOM     55  F   UNL A   1      41.292  29.487  31.653  1.00  0.00    -0.206 F 
ATOM     56  C   UNL A   1      39.063  30.080  31.207  1.00  0.00     0.059 A 
ATOM     57  C   UNL A   1      38.248  30.063  28.919  1.00  0.00     0.059 A 
ATOM     58  F   UNL A   1      39.687  29.429  27.180  1.00  0.00    -0.206 F 
ATOM     59  C   UNL A   1      38.038  30.276  30.280  1.00  0.00     0.060 A 
BRANCH  59  60
ATOM     60  S   UNL A   1      36.434  30.871  30.860  1.00  0.00     0.124 S 
ATOM     61  O   UNL A   1      35.960  29.727  31.630  1.00  0.00    -0.237 OA
ATOM     62  O   UNL A   1      36.800  32.053  31.634  1.00  0.00    -0.237 OA
ATOM     63  O   UNL A   1      35.714  31.144  29.620  1.00  0.00    -0.744 OA
ENDBRANCH  59  60
ENDBRANCH  27  52
BRANCH  39  64
ATOM     64  C   UNL A   1      46.604  32.740  28.486  1.00  0.00     0.058 A 
ATOM     65  C   UNL A   1      46.505  33.686  27.455  1.00  0.00     0.135 A 
ATOM     66  C   UNL A   1      47.089  33.168  29.731  1.00  0.00     0.135 A 
ATOM     67  F   UNL A   1      46.054  33.322  26.244  1.00  0.00    -0.206 F 
ATOM     68  C   UNL A   1      46.906  35.004  27.640  1.00  0.00     0.059 A 
ATOM     69  C   UNL A   1      47.475  34.487  29.946  1.00  0.00     0.059 A 
ATOM     70  F   UNL A   1      47.194  32.301  30.751  1.00  0.00    -0.206 F 
ATOM     71  C   UNL A   1      47.397  35.393  28.889  1.00  0.00     0.060 A 
BRANCH  71  72
ATOM     72  S   UNL A   1      47.915  37.107  29.123  1.00  0.00     0.124 S 
ATOM     73  O   UNL A   1      47.448  37.724  27.886  1.00  0.00    -0.237 OA
ATOM     74  O   UNL A   1      47.196  37.493  30.334  1.00  0.00    -0.237 OA
ATOM     75  O   UNL A   1      49.363  37.004  29.267  1.00  0.00    -0.744 OA
ENDBRANCH  71  72
ENDBRANCH  39  64
ENDBRANCH  13  14
ENDBRANCH   6   8
ENDBRANCH   3   4
ENDBRANCH   2   3
ENDBRANCH   1   2
BRANCH   1  76
ATOM     76  C   UNL A   1      36.035  20.365  25.002  1.00  0.00     0.116 C 
BRANCH  76  77
ATOM     77  N   UNL A   1      34.843  19.538  24.994  1.00  0.00    -0.356 N 
ATOM     78  C   UNL A   1      33.539  19.894  25.134  1.00  0.00     0.224 C 
ATOM     79  H   UNL A   1      35.003  18.575  24.868  1.00  0.00     0.163 HD
ATOM     80  O   UNL A   1      32.690  19.001  25.134  1.00  0.00    -0.275 OA
BRANCH  78  81
ATOM     81  C   UNL A   1      33.178  21.360  25.269  1.00  0.00     0.098 C 
ATOM     82  C   UNL A   1      33.270  21.787  26.744  1.00  0.00     0.017 C 
ATOM     83  C   UNL A   1      34.100  22.227  24.401  1.00  0.00     0.133 C 
ATOM     84  C   UNL A   1      33.033  23.283  26.881  1.00  0.00     0.022 C 
ATOM     85  N   UNL A   1      33.810  23.656  24.595  1.00  0.00    -0.342 N 
ATOM     86  C   UNL A   1      33.990  24.057  25.973  1.00  0.00     0.119 C 
BRANCH  85  87
ATOM     87  C   UNL A   1      33.334  24.410  23.539  1.00  0.00     0.225 C 
ATOM     88  O   UNL A   1      34.140  24.855  22.707  1.00  0.00    -0.275 OA
BRANCH  87  89
ATOM     89  C   UNL A   1      31.836  24.718  23.274  1.00  0.00     0.081 C 
ATOM     90  C   UNL A   1      31.417  25.479  22.029  1.00  0.00     0.030 C 
ATOM     91  C   UNL A   1      31.007  25.143  24.472  1.00  0.00     0.030 C 
ATOM     92  C   UNL A   1      31.087  26.959  22.173  1.00  0.00     0.103 C 
ATOM     93  C   UNL A   1      30.991  26.636  24.706  1.00  0.00     0.103 C 
ATOM     94  N   UNL A   1      30.641  27.458  23.525  1.00  0.00    -0.198 NA
BRANCH  94  95
ATOM     95  S   UNL A   1      31.019  29.165  23.638  1.00  0.00     0.243 S 
ATOM     96  O   UNL A   1      31.115  29.501  25.048  1.00  0.00    -0.207 OA
ATOM     97  O   UNL A   1      32.157  29.379  22.773  1.00  0.00    -0.207 OA
BRANCH  95  98
ATOM     98  C   UNL A   1      29.656  30.127  23.019  1.00  0.00     0.082 A 
ATOM     99  C   UNL A   1      29.389  30.110  21.647  1.00  0.00     0.022 A 
ATOM    100  C   UNL A   1      29.036  31.086  23.831  1.00  0.00     0.022 A 
ATOM    101  C   UNL A   1      28.484  31.024  21.104  1.00  0.00     0.001 A 
ATOM    102  C   UNL A   1      28.098  31.966  23.293  1.00  0.00     0.001 A 
ATOM    103  C   UNL A   1      27.828  31.940  21.928  1.00  0.00     0.000 A 
ENDBRANCH  95  98
ENDBRANCH  94  95
ENDBRANCH  87  89
ENDBRANCH  85  87
ENDBRANCH  78  81
ENDBRANCH  76  77
ENDBRANCH   1  76
TORSDOF 18
ENDMDL
