MODEL 1
REMARK VINA RESULT:     -12.8      0.000      0.000
REMARK SMILES O=C(NCCCCNC(=O)[C@H]1CC[C@@H]2CCCC[C@H]2N1C(=O)Cn1cnnn1)c1ccc(-c2c3nc(c(-c4c(F)cc(S(=O)(=O)[O-])cc4F)c4ccc([nH]4)c(-c4c(F)cc(S(=O)(=O)[O-])cc4F)c4nc(c(-c5c(F)cc(S(=O)(=O)[O-])cc5F)c5ccc2[nH]5)C=C4)C=C3)cc1
REMARK SMILES IDX 5 1 4 2 3 3 1 4 2 5 29 7 30 8 94 9 31 10 93 11 32 12 33 13
REMARK SMILES IDX 34 14 87 15 35 16 92 17 86 18 88 19 36 20 91 21 85 22 84 23
REMARK SMILES IDX 37 25 71 26 50 27 70 28 51 29 54 30 69 31 89 32 52 33 53 34
REMARK SMILES IDX 68 36 90 37 55 38 38 39 39 40 48 41 40 42 41 43 47 44 49 45
REMARK SMILES IDX 42 46 43 47 44 48 45 49 46 50 72 51 73 52 82 53 74 54 75 55
REMARK SMILES IDX 81 56 83 57 76 58 77 59 78 60 79 61 80 62 56 63 57 64 66 65
REMARK SMILES IDX 58 66 59 67 65 68 67 69 60 70 61 71 62 72 63 73 64 74 6 75
REMARK SMILES IDX 7 76 8 77 9 78 10 80 11 81 12 82 20 83 13 84 19 85 14 86
REMARK SMILES IDX 18 87 15 88 17 89 16 90 21 91 22 92 23 93 24 94 25 95 28 96
REMARK SMILES IDX 26 97 27 98
REMARK H PARENT 3 6 88 24 54 35 8 79
REMARK Flexibility Score: inf
ROOT
ATOM      1  C   UNL A   1      36.226  21.295  25.648  1.00  0.00     0.023 C 
ENDROOT
BRANCH   1   2
ATOM      2  C   UNL A   1      37.413  22.166  25.242  1.00  0.00     0.116 C 
BRANCH   2   3
ATOM      3  N   UNL A   1      38.700  21.630  25.621  1.00  0.00    -0.352 N 
ATOM      4  O   UNL A   1      40.641  21.251  26.581  1.00  0.00    -0.269 OA
ATOM      5  C   UNL A   1      39.742  22.075  26.385  1.00  0.00     0.251 C 
ATOM      6  H   UNL A   1      38.865  20.738  25.240  1.00  0.00     0.163 HD
BRANCH   5   7
ATOM      7  C   UNL A   1      39.896  23.453  26.936  1.00  0.00     0.039 A 
ATOM      8  C   UNL A   1      39.000  24.511  26.774  1.00  0.00     0.014 A 
ATOM      9  C   UNL A   1      41.062  23.676  27.696  1.00  0.00     0.014 A 
ATOM     10  C   UNL A   1      39.291  25.768  27.312  1.00  0.00     0.010 A 
ATOM     11  C   UNL A   1      41.354  24.926  28.237  1.00  0.00     0.010 A 
ATOM     12  C   UNL A   1      40.475  25.982  28.029  1.00  0.00    -0.014 A 
BRANCH  12  13
ATOM     13  C   UNL A   1      40.654  27.267  28.708  1.00  0.00     0.031 A 
ATOM     14  C   UNL A   1      41.754  28.104  28.153  1.00  0.00     0.074 A 
ATOM     15  C   UNL A   1      39.846  27.773  29.663  1.00  0.00     0.049 A 
ATOM     16  N   UNL A   1      42.880  28.405  28.711  1.00  0.00    -0.248 NA
ATOM     17  C   UNL A   1      41.638  28.565  26.761  1.00  0.00     0.031 C 
ATOM     18  C   UNL A   1      38.556  27.258  30.123  1.00  0.00     0.029 A 
ATOM     19  N   UNL A   1      39.984  28.932  30.376  1.00  0.00    -0.354 N 
ATOM     20  C   UNL A   1      43.531  29.267  27.832  1.00  0.00     0.074 A 
ATOM     21  C   UNL A   1      42.800  29.199  26.592  1.00  0.00     0.031 C 
ATOM     22  C   UNL A   1      37.942  28.199  30.878  1.00  0.00     0.029 A 
ATOM     23  C   UNL A   1      38.844  29.324  31.070  1.00  0.00     0.049 A 
ATOM     24  H   UNL A   1      40.823  29.448  30.395  1.00  0.00     0.167 HD
ATOM     25  C   UNL A   1      44.499  30.127  28.256  1.00  0.00     0.037 A 
ATOM     26  C   UNL A   1      38.643  30.503  31.718  1.00  0.00     0.037 A 
ATOM     27  C   UNL A   1      44.975  29.774  29.569  1.00  0.00     0.049 A 
ATOM     28  C   UNL A   1      39.979  31.079  32.016  1.00  0.00     0.074 A 
ATOM     29  C   UNL A   1      45.571  28.660  30.127  1.00  0.00     0.029 A 
ATOM     30  N   UNL A   1      44.541  30.534  30.626  1.00  0.00    -0.354 N 
ATOM     31  N   UNL A   1      40.821  30.571  32.872  1.00  0.00    -0.248 NA
ATOM     32  C   UNL A   1      40.551  32.014  31.060  1.00  0.00     0.031 C 
ATOM     33  C   UNL A   1      45.033  28.575  31.445  1.00  0.00     0.029 A 
ATOM     34  C   UNL A   1      44.191  29.672  31.630  1.00  0.00     0.049 A 
ATOM     35  H   UNL A   1      44.491  31.517  30.657  1.00  0.00     0.167 HD
ATOM     36  C   UNL A   1      42.066  30.764  32.295  1.00  0.00     0.074 A 
ATOM     37  C   UNL A   1      41.846  31.748  31.240  1.00  0.00     0.031 C 
ATOM     38  C   UNL A   1      43.098  29.907  32.547  1.00  0.00     0.037 A 
BRANCH  25  39
ATOM     39  C   UNL A   1      44.776  31.486  27.654  1.00  0.00     0.058 A 
ATOM     40  C   UNL A   1      46.004  31.714  26.996  1.00  0.00     0.135 A 
ATOM     41  C   UNL A   1      44.024  32.643  27.952  1.00  0.00     0.135 A 
ATOM     42  F   UNL A   1      46.807  30.687  26.669  1.00  0.00    -0.206 F 
ATOM     43  C   UNL A   1      46.484  32.996  26.727  1.00  0.00     0.059 A 
ATOM     44  C   UNL A   1      44.458  33.928  27.644  1.00  0.00     0.059 A 
ATOM     45  F   UNL A   1      42.880  32.591  28.645  1.00  0.00    -0.206 F 
ATOM     46  C   UNL A   1      45.708  34.099  27.071  1.00  0.00     0.060 A 
BRANCH  46  47
ATOM     47  S   UNL A   1      46.367  35.756  26.818  1.00  0.00     0.124 S 
ATOM     48  O   UNL A   1      47.132  35.953  28.045  1.00  0.00    -0.237 OA
ATOM     49  O   UNL A   1      47.149  35.587  25.598  1.00  0.00    -0.237 OA
ATOM     50  O   UNL A   1      45.168  36.575  26.680  1.00  0.00    -0.744 OA
ENDBRANCH  46  47
ENDBRANCH  25  39
BRANCH  26  51
ATOM     51  C   UNL A   1      37.399  31.311  31.852  1.00  0.00     0.058 A 
ATOM     52  C   UNL A   1      36.940  31.745  33.112  1.00  0.00     0.135 A 
ATOM     53  C   UNL A   1      36.807  31.930  30.734  1.00  0.00     0.135 A 
ATOM     54  F   UNL A   1      37.456  31.224  34.235  1.00  0.00    -0.206 F 
ATOM     55  C   UNL A   1      36.003  32.775  33.254  1.00  0.00     0.059 A 
ATOM     56  C   UNL A   1      35.864  32.950  30.851  1.00  0.00     0.059 A 
ATOM     57  F   UNL A   1      37.203  31.628  29.488  1.00  0.00    -0.206 F 
ATOM     58  C   UNL A   1      35.488  33.390  32.114  1.00  0.00     0.060 A 
BRANCH  58  59
ATOM     59  S   UNL A   1      34.432  34.849  32.289  1.00  0.00     0.124 S 
ATOM     60  O   UNL A   1      33.267  34.299  32.975  1.00  0.00    -0.237 OA
ATOM     61  O   UNL A   1      35.269  35.746  33.077  1.00  0.00    -0.237 OA
ATOM     62  O   UNL A   1      34.203  35.268  30.909  1.00  0.00    -0.744 OA
ENDBRANCH  58  59
ENDBRANCH  26  51
BRANCH  38  63
ATOM     63  C   UNL A   1      42.995  28.983  33.731  1.00  0.00     0.058 A 
ATOM     64  C   UNL A   1      43.385  29.306  35.044  1.00  0.00     0.135 A 
ATOM     65  C   UNL A   1      42.341  27.756  33.541  1.00  0.00     0.135 A 
ATOM     66  F   UNL A   1      43.920  30.501  35.335  1.00  0.00    -0.206 F 
ATOM     67  C   UNL A   1      43.172  28.425  36.106  1.00  0.00     0.059 A 
ATOM     68  C   UNL A   1      42.086  26.880  34.590  1.00  0.00     0.059 A 
ATOM     69  F   UNL A   1      41.893  27.414  32.320  1.00  0.00    -0.206 F 
ATOM     70  C   UNL A   1      42.519  27.215  35.870  1.00  0.00     0.060 A 
BRANCH  70  71
ATOM     71  S   UNL A   1      42.175  26.114  37.260  1.00  0.00     0.124 S 
ATOM     72  O   UNL A   1      43.147  26.556  38.250  1.00  0.00    -0.237 OA
ATOM     73  O   UNL A   1      40.778  26.411  37.561  1.00  0.00    -0.237 OA
ATOM     74  O   UNL A   1      42.411  24.781  36.703  1.00  0.00    -0.744 OA
ENDBRANCH  70  71
ENDBRANCH  38  63
ENDBRANCH  12  13
ENDBRANCH   5   7
ENDBRANCH   2   3
ENDBRANCH   1   2
BRANCH   1  75
ATOM     75  C   UNL A   1      35.023  21.291  24.680  1.00  0.00     0.023 C 
BRANCH  75  76
ATOM     76  C   UNL A   1      33.675  21.739  25.263  1.00  0.00     0.116 C 
BRANCH  76  77
ATOM     77  N   UNL A   1      32.872  22.358  24.233  1.00  0.00    -0.354 N 
ATOM     78  C   UNL A   1      31.991  23.389  24.297  1.00  0.00     0.242 C 
ATOM     79  H   UNL A   1      32.982  21.967  23.336  1.00  0.00     0.163 HD
ATOM     80  O   UNL A   1      31.046  23.262  23.523  1.00  0.00    -0.273 OA
BRANCH  78  81
ATOM     81  C   UNL A   1      32.330  24.696  25.071  1.00  0.00     0.174 C 
ATOM     82  C   UNL A   1      33.780  25.017  24.642  1.00  0.00     0.036 C 
ATOM     83  N   UNL A   1      31.537  25.986  25.121  1.00  0.00    -0.326 N 
ATOM     84  C   UNL A   1      34.437  26.021  25.573  1.00  0.00     0.008 C 
ATOM     85  C   UNL A   1      32.145  26.995  26.076  1.00  0.00     0.089 C 
ATOM     86  C   UNL A   1      33.612  27.304  25.664  1.00  0.00     0.012 C 
ATOM     87  C   UNL A   1      31.402  28.334  26.314  1.00  0.00     0.025 C 
ATOM     88  C   UNL A   1      34.312  28.273  26.631  1.00  0.00     0.006 C 
ATOM     89  C   UNL A   1      32.120  29.275  27.279  1.00  0.00     0.002 C 
ATOM     90  C   UNL A   1      33.535  29.568  26.807  1.00  0.00     0.000 C 
BRANCH  83  91
ATOM     91  C   UNL A   1      30.456  26.364  24.313  1.00  0.00     0.245 C 
ATOM     92  O   UNL A   1      29.300  25.982  24.544  1.00  0.00    -0.273 OA
BRANCH  91  93
ATOM     93  C   UNL A   1      30.591  27.177  23.054  1.00  0.00     0.248 C 
BRANCH  93  94
ATOM     94  N   UNL A   1      31.800  26.932  22.307  1.00  0.00    -0.223 N 
ATOM     95  C   UNL A   1      32.049  25.886  21.469  1.00  0.00     0.246 A 
ATOM     96  N   UNL A   1      32.894  27.709  22.391  1.00  0.00    -0.045 NA
ATOM     97  N   UNL A   1      33.289  25.978  21.047  1.00  0.00    -0.117 NA
ATOM     98  N   UNL A   1      33.804  27.108  21.637  1.00  0.00    -0.024 NA
ENDBRANCH  93  94
ENDBRANCH  91  93
ENDBRANCH  83  91
ENDBRANCH  78  81
ENDBRANCH  76  77
ENDBRANCH  75  76
ENDBRANCH   1  75
TORSDOF 17
ENDMDL
MODEL 2
REMARK VINA RESULT:     -12.7      2.749      9.146
REMARK SMILES O=C(NCCCCNC(=O)[C@H]1CC[C@@H]2CCCC[C@H]2N1C(=O)Cn1cnnn1)c1ccc(-c2c3nc(c(-c4c(F)cc(S(=O)(=O)[O-])cc4F)c4ccc([nH]4)c(-c4c(F)cc(S(=O)(=O)[O-])cc4F)c4nc(c(-c5c(F)cc(S(=O)(=O)[O-])cc5F)c5ccc2[nH]5)C=C4)C=C3)cc1
REMARK SMILES IDX 5 1 4 2 3 3 1 4 2 5 29 7 30 8 94 9 31 10 93 11 32 12 33 13
REMARK SMILES IDX 34 14 87 15 35 16 92 17 86 18 88 19 36 20 91 21 85 22 84 23
REMARK SMILES IDX 37 25 71 26 50 27 70 28 51 29 54 30 69 31 89 32 52 33 53 34
REMARK SMILES IDX 68 36 90 37 55 38 38 39 39 40 48 41 40 42 41 43 47 44 49 45
REMARK SMILES IDX 42 46 43 47 44 48 45 49 46 50 72 51 73 52 82 53 74 54 75 55
REMARK SMILES IDX 81 56 83 57 76 58 77 59 78 60 79 61 80 62 56 63 57 64 66 65
REMARK SMILES IDX 58 66 59 67 65 68 67 69 60 70 61 71 62 72 63 73 64 74 6 75
REMARK SMILES IDX 7 76 8 77 9 78 10 80 11 81 12 82 20 83 13 84 19 85 14 86
REMARK SMILES IDX 18 87 15 88 17 89 16 90 21 91 22 92 23 93 24 94 25 95 28 96
REMARK SMILES IDX 26 97 27 98
REMARK H PARENT 3 6 88 24 54 35 8 79
REMARK Flexibility Score: inf
ROOT
ATOM      1  C   UNL A   1      33.339  28.877  27.347  1.00  0.00     0.023 C 
ENDROOT
BRANCH   1   2
ATOM      2  C   UNL A   1      33.596  30.300  26.857  1.00  0.00     0.116 C 
BRANCH   2   3
ATOM      3  N   UNL A   1      33.703  31.282  27.911  1.00  0.00    -0.352 N 
ATOM      4  O   UNL A   1      34.433  32.655  29.466  1.00  0.00    -0.269 OA
ATOM      5  C   UNL A   1      34.689  31.662  28.778  1.00  0.00     0.251 C 
ATOM      6  H   UNL A   1      32.873  31.796  28.034  1.00  0.00     0.163 HD
BRANCH   5   7
ATOM      7  C   UNL A   1      35.987  30.957  28.988  1.00  0.00     0.039 A 
ATOM      8  C   UNL A   1      36.159  29.587  29.189  1.00  0.00     0.014 A 
ATOM      9  C   UNL A   1      37.133  31.777  28.968  1.00  0.00     0.014 A 
ATOM     10  C   UNL A   1      37.435  29.063  29.415  1.00  0.00     0.010 A 
ATOM     11  C   UNL A   1      38.408  31.259  29.189  1.00  0.00     0.010 A 
ATOM     12  C   UNL A   1      38.558  29.899  29.433  1.00  0.00    -0.014 A 
BRANCH  12  13
ATOM     13  C   UNL A   1      39.884  29.282  29.510  1.00  0.00     0.031 A 
ATOM     14  C   UNL A   1      40.398  29.111  30.899  1.00  0.00     0.074 A 
ATOM     15  C   UNL A   1      40.574  28.763  28.474  1.00  0.00     0.049 A 
ATOM     16  N   UNL A   1      41.383  29.729  31.460  1.00  0.00    -0.248 NA
ATOM     17  C   UNL A   1      39.652  28.229  31.809  1.00  0.00     0.031 C 
ATOM     18  C   UNL A   1      40.119  28.554  27.099  1.00  0.00     0.029 A 
ATOM     19  N   UNL A   1      41.832  28.226  28.465  1.00  0.00    -0.354 N 
ATOM     20  C   UNL A   1      41.520  29.170  32.729  1.00  0.00     0.074 A 
ATOM     21  C   UNL A   1      40.338  28.375  32.944  1.00  0.00     0.031 C 
ATOM     22  C   UNL A   1      41.003  27.756  26.452  1.00  0.00     0.029 A 
ATOM     23  C   UNL A   1      42.148  27.511  27.315  1.00  0.00     0.049 A 
ATOM     24  H   UNL A   1      42.463  28.337  29.213  1.00  0.00     0.167 HD
ATOM     25  C   UNL A   1      42.693  29.238  33.419  1.00  0.00     0.037 A 
ATOM     26  C   UNL A   1      43.250  26.742  27.104  1.00  0.00     0.037 A 
ATOM     27  C   UNL A   1      43.579  30.222  32.851  1.00  0.00     0.049 A 
ATOM     28  C   UNL A   1      44.295  27.190  28.060  1.00  0.00     0.074 A 
ATOM     29  C   UNL A   1      43.513  31.581  32.620  1.00  0.00     0.029 A 
ATOM     30  N   UNL A   1      44.632  29.766  32.097  1.00  0.00    -0.354 N 
ATOM     31  N   UNL A   1      44.896  28.346  27.998  1.00  0.00    -0.248 NA
ATOM     32  C   UNL A   1      44.393  26.505  29.338  1.00  0.00     0.031 C 
ATOM     33  C   UNL A   1      44.199  31.780  31.386  1.00  0.00     0.029 A 
ATOM     34  C   UNL A   1      44.691  30.543  30.971  1.00  0.00     0.049 A 
ATOM     35  H   UNL A   1      45.233  29.020  32.323  1.00  0.00     0.167 HD
ATOM     36  C   UNL A   1      45.055  28.728  29.320  1.00  0.00     0.074 A 
ATOM     37  C   UNL A   1      44.827  27.514  30.097  1.00  0.00     0.031 C 
ATOM     38  C   UNL A   1      45.087  30.046  29.671  1.00  0.00     0.037 A 
BRANCH  25  39
ATOM     39  C   UNL A   1      43.194  28.187  34.384  1.00  0.00     0.058 A 
ATOM     40  C   UNL A   1      43.535  28.564  35.701  1.00  0.00     0.135 A 
ATOM     41  C   UNL A   1      43.628  26.904  33.989  1.00  0.00     0.135 A 
ATOM     42  F   UNL A   1      43.180  29.767  36.183  1.00  0.00    -0.206 F 
ATOM     43  C   UNL A   1      44.316  27.761  36.533  1.00  0.00     0.059 A 
ATOM     44  C   UNL A   1      44.361  26.064  34.821  1.00  0.00     0.059 A 
ATOM     45  F   UNL A   1      43.450  26.442  32.745  1.00  0.00    -0.206 F 
ATOM     46  C   UNL A   1      44.738  26.517  36.075  1.00  0.00     0.060 A 
BRANCH  46  47
ATOM     47  S   UNL A   1      45.830  25.521  37.105  1.00  0.00     0.124 S 
ATOM     48  O   UNL A   1      45.668  24.201  36.505  1.00  0.00    -0.237 OA
ATOM     49  O   UNL A   1      47.121  26.167  36.890  1.00  0.00    -0.237 OA
ATOM     50  O   UNL A   1      45.269  25.683  38.442  1.00  0.00    -0.744 OA
ENDBRANCH  46  47
ENDBRANCH  25  39
BRANCH  26  51
ATOM     51  C   UNL A   1      43.385  25.468  26.344  1.00  0.00     0.058 A 
ATOM     52  C   UNL A   1      44.354  25.318  25.332  1.00  0.00     0.135 A 
ATOM     53  C   UNL A   1      42.781  24.280  26.799  1.00  0.00     0.135 A 
ATOM     54  F   UNL A   1      44.995  26.392  24.846  1.00  0.00    -0.206 F 
ATOM     55  C   UNL A   1      44.746  24.064  24.850  1.00  0.00     0.059 A 
ATOM     56  C   UNL A   1      43.148  23.021  26.326  1.00  0.00     0.059 A 
ATOM     57  F   UNL A   1      41.881  24.300  27.793  1.00  0.00    -0.206 F 
ATOM     58  C   UNL A   1      44.154  22.916  25.372  1.00  0.00     0.060 A 
BRANCH  58  59
ATOM     59  S   UNL A   1      44.792  21.290  24.901  1.00  0.00     0.124 S 
ATOM     60  O   UNL A   1      43.882  20.392  25.603  1.00  0.00    -0.237 OA
ATOM     61  O   UNL A   1      44.667  21.316  23.448  1.00  0.00    -0.237 OA
ATOM     62  O   UNL A   1      46.164  21.307  25.404  1.00  0.00    -0.744 OA
ENDBRANCH  58  59
ENDBRANCH  26  51
BRANCH  38  63
ATOM     63  C   UNL A   1      45.326  31.073  28.598  1.00  0.00     0.058 A 
ATOM     64  C   UNL A   1      44.353  31.538  27.693  1.00  0.00     0.135 A 
ATOM     65  C   UNL A   1      46.575  31.714  28.579  1.00  0.00     0.135 A 
ATOM     66  F   UNL A   1      43.102  31.057  27.713  1.00  0.00    -0.206 F 
ATOM     67  C   UNL A   1      44.630  32.561  26.784  1.00  0.00     0.059 A 
ATOM     68  C   UNL A   1      46.860  32.759  27.708  1.00  0.00     0.059 A 
ATOM     69  F   UNL A   1      47.528  31.355  29.457  1.00  0.00    -0.206 F 
ATOM     70  C   UNL A   1      45.886  33.169  26.801  1.00  0.00     0.060 A 
BRANCH  70  71
ATOM     71  S   UNL A   1      46.214  34.544  25.678  1.00  0.00     0.124 S 
ATOM     72  O   UNL A   1      47.624  34.356  25.365  1.00  0.00    -0.237 OA
ATOM     73  O   UNL A   1      45.279  34.293  24.587  1.00  0.00    -0.237 OA
ATOM     74  O   UNL A   1      45.907  35.724  26.488  1.00  0.00    -0.744 OA
ENDBRANCH  70  71
ENDBRANCH  38  63
ENDBRANCH  12  13
ENDBRANCH   5   7
ENDBRANCH   2   3
ENDBRANCH   1   2
BRANCH   1  75
ATOM     75  C   UNL A   1      31.864  28.421  27.372  1.00  0.00     0.023 C 
BRANCH  75  76
ATOM     76  C   UNL A   1      31.433  27.443  26.269  1.00  0.00     0.116 C 
BRANCH  76  77
ATOM     77  N   UNL A   1      30.982  26.202  26.858  1.00  0.00    -0.354 N 
ATOM     78  C   UNL A   1      31.177  24.915  26.472  1.00  0.00     0.242 C 
ATOM     79  H   UNL A   1      30.443  26.308  27.675  1.00  0.00     0.163 HD
ATOM     80  O   UNL A   1      30.218  24.189  26.716  1.00  0.00    -0.273 OA
BRANCH  78  81
ATOM     81  C   UNL A   1      32.582  24.407  26.035  1.00  0.00     0.174 C 
ATOM     82  C   UNL A   1      32.905  23.287  27.050  1.00  0.00     0.036 C 
ATOM     83  N   UNL A   1      33.029  23.962  24.656  1.00  0.00    -0.326 N 
ATOM     84  C   UNL A   1      34.381  22.930  27.048  1.00  0.00     0.008 C 
ATOM     85  C   UNL A   1      34.509  23.638  24.611  1.00  0.00     0.089 C 
ATOM     86  C   UNL A   1      34.845  22.530  25.647  1.00  0.00     0.012 C 
ATOM     87  C   UNL A   1      35.145  23.258  23.251  1.00  0.00     0.025 C 
ATOM     88  C   UNL A   1      36.346  22.198  25.702  1.00  0.00     0.006 C 
ATOM     89  C   UNL A   1      36.636  22.935  23.335  1.00  0.00     0.002 C 
ATOM     90  C   UNL A   1      36.899  21.823  24.336  1.00  0.00     0.000 C 
BRANCH  83  91
ATOM     91  C   UNL A   1      32.229  23.697  23.536  1.00  0.00     0.245 C 
ATOM     92  O   UNL A   1      32.004  22.542  23.150  1.00  0.00    -0.273 OA
BRANCH  91  93
ATOM     93  C   UNL A   1      31.649  24.763  22.644  1.00  0.00     0.248 C 
BRANCH  93  94
ATOM     94  N   UNL A   1      32.500  25.910  22.448  1.00  0.00    -0.223 N 
ATOM     95  C   UNL A   1      32.469  27.083  23.142  1.00  0.00     0.246 A 
ATOM     96  N   UNL A   1      33.432  25.987  21.481  1.00  0.00    -0.045 NA
ATOM     97  N   UNL A   1      33.346  27.904  22.611  1.00  0.00    -0.117 NA
ATOM     98  N   UNL A   1      33.927  27.213  21.574  1.00  0.00    -0.024 NA
ENDBRANCH  93  94
ENDBRANCH  91  93
ENDBRANCH  83  91
ENDBRANCH  78  81
ENDBRANCH  76  77
ENDBRANCH  75  76
ENDBRANCH   1  75
TORSDOF 17
ENDMDL
MODEL 3
REMARK VINA RESULT:     -12.7      1.064      1.880
REMARK SMILES O=C(NCCCCNC(=O)[C@H]1CC[C@@H]2CCCC[C@H]2N1C(=O)Cn1cnnn1)c1ccc(-c2c3nc(c(-c4c(F)cc(S(=O)(=O)[O-])cc4F)c4ccc([nH]4)c(-c4c(F)cc(S(=O)(=O)[O-])cc4F)c4nc(c(-c5c(F)cc(S(=O)(=O)[O-])cc5F)c5ccc2[nH]5)C=C4)C=C3)cc1
REMARK SMILES IDX 5 1 4 2 3 3 1 4 2 5 29 7 30 8 94 9 31 10 93 11 32 12 33 13
REMARK SMILES IDX 34 14 87 15 35 16 92 17 86 18 88 19 36 20 91 21 85 22 84 23
REMARK SMILES IDX 37 25 71 26 50 27 70 28 51 29 54 30 69 31 89 32 52 33 53 34
REMARK SMILES IDX 68 36 90 37 55 38 38 39 39 40 48 41 40 42 41 43 47 44 49 45
REMARK SMILES IDX 42 46 43 47 44 48 45 49 46 50 72 51 73 52 82 53 74 54 75 55
REMARK SMILES IDX 81 56 83 57 76 58 77 59 78 60 79 61 80 62 56 63 57 64 66 65
REMARK SMILES IDX 58 66 59 67 65 68 67 69 60 70 61 71 62 72 63 73 64 74 6 75
REMARK SMILES IDX 7 76 8 77 9 78 10 80 11 81 12 82 20 83 13 84 19 85 14 86
REMARK SMILES IDX 18 87 15 88 17 89 16 90 21 91 22 92 23 93 24 94 25 95 28 96
REMARK SMILES IDX 26 97 27 98
REMARK H PARENT 3 6 88 24 54 35 8 79
REMARK Flexibility Score: inf
ROOT
ATOM      1  C   UNL A   1      37.141  21.516  24.481  1.00  0.00     0.023 C 
ENDROOT
BRANCH   1   2
ATOM      2  C   UNL A   1      37.867  22.002  25.733  1.00  0.00     0.116 C 
BRANCH   2   3
ATOM      3  N   UNL A   1      39.267  21.649  25.783  1.00  0.00    -0.352 N 
ATOM      4  O   UNL A   1      41.412  21.536  26.255  1.00  0.00    -0.269 OA
ATOM      5  C   UNL A   1      40.389  22.227  26.307  1.00  0.00     0.251 C 
ATOM      6  H   UNL A   1      39.456  20.793  25.335  1.00  0.00     0.163 HD
BRANCH   5   7
ATOM      7  C   UNL A   1      40.480  23.606  26.868  1.00  0.00     0.039 A 
ATOM      8  C   UNL A   1      39.636  24.676  26.570  1.00  0.00     0.014 A 
ATOM      9  C   UNL A   1      41.524  23.816  27.793  1.00  0.00     0.014 A 
ATOM     10  C   UNL A   1      39.863  25.932  27.140  1.00  0.00     0.010 A 
ATOM     11  C   UNL A   1      41.751  25.066  28.366  1.00  0.00     0.010 A 
ATOM     12  C   UNL A   1      40.930  26.133  28.025  1.00  0.00    -0.014 A 
BRANCH  12  13
ATOM     13  C   UNL A   1      41.025  27.420  28.718  1.00  0.00     0.031 A 
ATOM     14  C   UNL A   1      42.106  28.310  28.208  1.00  0.00     0.074 A 
ATOM     15  C   UNL A   1      40.161  27.882  29.645  1.00  0.00     0.049 A 
ATOM     16  N   UNL A   1      43.195  28.657  28.809  1.00  0.00    -0.248 NA
ATOM     17  C   UNL A   1      42.020  28.775  26.816  1.00  0.00     0.031 C 
ATOM     18  C   UNL A   1      38.880  27.305  30.054  1.00  0.00     0.029 A 
ATOM     19  N   UNL A   1      40.220  29.041  30.369  1.00  0.00    -0.354 N 
ATOM     20  C   UNL A   1      43.839  29.554  27.959  1.00  0.00     0.074 A 
ATOM     21  C   UNL A   1      43.157  29.463  26.693  1.00  0.00     0.031 C 
ATOM     22  C   UNL A   1      38.196  28.212  30.792  1.00  0.00     0.029 A 
ATOM     23  C   UNL A   1      39.039  29.376  31.023  1.00  0.00     0.049 A 
ATOM     24  H   UNL A   1      41.033  29.594  30.422  1.00  0.00     0.167 HD
ATOM     25  C   UNL A   1      44.751  30.453  28.423  1.00  0.00     0.037 A 
ATOM     26  C   UNL A   1      38.761  30.539  31.670  1.00  0.00     0.037 A 
ATOM     27  C   UNL A   1      45.194  30.112  29.752  1.00  0.00     0.049 A 
ATOM     28  C   UNL A   1      40.058  31.173  32.021  1.00  0.00     0.074 A 
ATOM     29  C   UNL A   1      45.819  29.022  30.324  1.00  0.00     0.029 A 
ATOM     30  N   UNL A   1      44.688  30.845  30.796  1.00  0.00    -0.354 N 
ATOM     31  N   UNL A   1      40.890  30.697  32.904  1.00  0.00    -0.248 NA
ATOM     32  C   UNL A   1      40.621  32.139  31.092  1.00  0.00     0.031 C 
ATOM     33  C   UNL A   1      45.237  28.904  31.621  1.00  0.00     0.029 A 
ATOM     34  C   UNL A   1      44.340  29.960  31.782  1.00  0.00     0.049 A 
ATOM     35  H   UNL A   1      44.592  31.824  30.831  1.00  0.00     0.167 HD
ATOM     36  C   UNL A   1      42.145  30.950  32.375  1.00  0.00     0.074 A 
ATOM     37  C   UNL A   1      41.920  31.931  31.317  1.00  0.00     0.031 C 
ATOM     38  C   UNL A   1      43.205  30.139  32.659  1.00  0.00     0.037 A 
BRANCH  25  39
ATOM     39  C   UNL A   1      44.987  31.828  27.841  1.00  0.00     0.058 A 
ATOM     40  C   UNL A   1      46.222  32.112  27.217  1.00  0.00     0.135 A 
ATOM     41  C   UNL A   1      44.181  32.951  28.128  1.00  0.00     0.135 A 
ATOM     42  F   UNL A   1      47.075  31.122  26.904  1.00  0.00    -0.206 F 
ATOM     43  C   UNL A   1      46.656  33.415  26.972  1.00  0.00     0.059 A 
ATOM     44  C   UNL A   1      44.570  34.255  27.841  1.00  0.00     0.059 A 
ATOM     45  F   UNL A   1      43.022  32.845  28.789  1.00  0.00    -0.206 F 
ATOM     46  C   UNL A   1      45.827  34.482  27.304  1.00  0.00     0.060 A 
BRANCH  46  47
ATOM     47  S   UNL A   1      46.424  36.167  27.082  1.00  0.00     0.124 S 
ATOM     48  O   UNL A   1      47.192  36.365  28.306  1.00  0.00    -0.237 OA
ATOM     49  O   UNL A   1      47.199  36.053  25.851  1.00  0.00    -0.237 OA
ATOM     50  O   UNL A   1      45.195  36.945  26.972  1.00  0.00    -0.744 OA
ENDBRANCH  46  47
ENDBRANCH  25  39
BRANCH  26  51
ATOM     51  C   UNL A   1      37.477  31.289  31.763  1.00  0.00     0.058 A 
ATOM     52  C   UNL A   1      36.940  31.669  33.009  1.00  0.00     0.135 A 
ATOM     53  C   UNL A   1      36.914  31.913  30.633  1.00  0.00     0.135 A 
ATOM     54  F   UNL A   1      37.424  31.139  34.143  1.00  0.00    -0.206 F 
ATOM     55  C   UNL A   1      35.952  32.653  33.131  1.00  0.00     0.059 A 
ATOM     56  C   UNL A   1      35.922  32.888  30.729  1.00  0.00     0.059 A 
ATOM     57  F   UNL A   1      37.382  31.662  29.402  1.00  0.00    -0.206 F 
ATOM     58  C   UNL A   1      35.466  33.277  31.983  1.00  0.00     0.060 A 
BRANCH  58  59
ATOM     59  S   UNL A   1      34.339  34.684  32.143  1.00  0.00     0.124 S 
ATOM     60  O   UNL A   1      33.216  34.092  32.863  1.00  0.00    -0.237 OA
ATOM     61  O   UNL A   1      35.143  35.641  32.894  1.00  0.00    -0.237 OA
ATOM     62  O   UNL A   1      34.066  35.057  30.757  1.00  0.00    -0.744 OA
ENDBRANCH  58  59
ENDBRANCH  26  51
BRANCH  38  63
ATOM     63  C   UNL A   1      43.101  29.202  33.833  1.00  0.00     0.058 A 
ATOM     64  C   UNL A   1      43.387  29.545  35.167  1.00  0.00     0.135 A 
ATOM     65  C   UNL A   1      42.554  27.930  33.601  1.00  0.00     0.135 A 
ATOM     66  F   UNL A   1      43.812  30.774  35.493  1.00  0.00    -0.206 F 
ATOM     67  C   UNL A   1      43.177  28.644  36.214  1.00  0.00     0.059 A 
ATOM     68  C   UNL A   1      42.303  27.032  34.632  1.00  0.00     0.059 A 
ATOM     69  F   UNL A   1      42.207  27.564  32.355  1.00  0.00    -0.206 F 
ATOM     70  C   UNL A   1      42.631  27.390  35.937  1.00  0.00     0.060 A 
BRANCH  70  71
ATOM     71  S   UNL A   1      42.289  26.258  37.301  1.00  0.00     0.124 S 
ATOM     72  O   UNL A   1      40.903  26.574  37.622  1.00  0.00    -0.237 OA
ATOM     73  O   UNL A   1      42.519  24.951  36.694  1.00  0.00    -0.237 OA
ATOM     74  O   UNL A   1      43.269  26.643  38.317  1.00  0.00    -0.744 OA
ENDBRANCH  70  71
ENDBRANCH  38  63
ENDBRANCH  12  13
ENDBRANCH   5   7
ENDBRANCH   2   3
ENDBRANCH   1   2
BRANCH   1  75
ATOM     75  C   UNL A   1      36.601  22.613  23.538  1.00  0.00     0.023 C 
BRANCH  75  76
ATOM     76  C   UNL A   1      35.187  23.134  23.836  1.00  0.00     0.116 C 
BRANCH  76  77
ATOM     77  N   UNL A   1      34.691  23.890  22.709  1.00  0.00    -0.354 N 
ATOM     78  C   UNL A   1      33.654  24.761  22.613  1.00  0.00     0.242 C 
ATOM     79  H   UNL A   1      35.189  23.750  21.870  1.00  0.00     0.163 HD
ATOM     80  O   UNL A   1      33.091  24.720  21.522  1.00  0.00    -0.273 OA
BRANCH  78  81
ATOM     81  C   UNL A   1      33.424  25.864  23.686  1.00  0.00     0.174 C 
ATOM     82  C   UNL A   1      33.601  27.186  22.904  1.00  0.00     0.036 C 
ATOM     83  N   UNL A   1      32.255  26.012  24.640  1.00  0.00    -0.326 N 
ATOM     84  C   UNL A   1      33.807  28.370  23.833  1.00  0.00     0.008 C 
ATOM     85  C   UNL A   1      32.450  27.162  25.609  1.00  0.00     0.089 C 
ATOM     86  C   UNL A   1      32.653  28.491  24.829  1.00  0.00     0.012 C 
ATOM     87  C   UNL A   1      31.387  27.390  26.713  1.00  0.00     0.025 C 
ATOM     88  C   UNL A   1      32.923  29.690  25.753  1.00  0.00     0.006 C 
ATOM     89  C   UNL A   1      31.682  28.587  27.616  1.00  0.00     0.002 C 
ATOM     90  C   UNL A   1      31.836  29.861  26.802  1.00  0.00     0.000 C 
BRANCH  83  91
ATOM     91  C   UNL A   1      31.031  25.330  24.614  1.00  0.00     0.245 C 
ATOM     92  O   UNL A   1      29.951  25.926  24.498  1.00  0.00    -0.273 OA
BRANCH  91  93
ATOM     93  C   UNL A   1      30.891  23.845  24.813  1.00  0.00     0.248 C 
BRANCH  93  94
ATOM     94  N   UNL A   1      31.622  23.319  25.939  1.00  0.00    -0.223 N 
ATOM     95  C   UNL A   1      32.570  22.340  25.917  1.00  0.00     0.246 A 
ATOM     96  N   UNL A   1      31.411  23.709  27.209  1.00  0.00    -0.045 NA
ATOM     97  N   UNL A   1      32.939  22.089  27.153  1.00  0.00    -0.117 NA
ATOM     98  N   UNL A   1      32.201  22.939  27.943  1.00  0.00    -0.024 NA
ENDBRANCH  93  94
ENDBRANCH  91  93
ENDBRANCH  83  91
ENDBRANCH  78  81
ENDBRANCH  76  77
ENDBRANCH  75  76
ENDBRANCH   1  75
TORSDOF 17
ENDMDL
