MODEL 1
REMARK VINA RESULT:     -11.3      0.000      0.000
REMARK SMILES C[NH2+][C@@]1(C(=O)NCCCCNC(=O)c2ccc(-c3c4nc(c(-c5c(F)cc(S(=O)(=O)[O-])cc5F)c5ccc([nH]5)c(-c5c(F)cc(S(=O)(=O)[O-])cc5F)c5nc(c(-c6c(F)cc(S(=O)(=O)[O-])cc6F)c6ccc3[nH]6)C=C5)C=C4)cc2)CCC[C@H]([N@H+](C)C2CC[NH+](C)CC2)C1
REMARK SMILES IDX 9 1 8 2 7 3 6 4 4 5 5 6 3 8 80 9 93 10 81 11 83 12 82 13
REMARK SMILES IDX 2 14 1 15 84 18 85 19 86 21 87 22 92 23 88 24 91 25 89 26
REMARK SMILES IDX 90 27 10 29 11 30 12 31 13 33 14 34 15 35 79 36 16 37 78 38
REMARK SMILES IDX 17 39 18 40 19 41 72 42 20 43 77 44 71 45 73 46 21 47 76 48
REMARK SMILES IDX 70 49 69 50 22 52 56 53 35 54 55 55 36 56 39 57 54 58 74 59
REMARK SMILES IDX 37 60 38 61 53 63 75 64 40 65 23 66 24 67 33 68 25 69 26 70
REMARK SMILES IDX 32 71 34 72 27 73 28 74 29 75 30 76 31 77 57 78 58 79 67 80
REMARK SMILES IDX 59 81 60 82 66 83 68 84 61 85 62 86 63 87 64 88 65 89 41 90
REMARK SMILES IDX 42 91 51 92 43 93 44 94 50 95 52 96 45 97 46 98 47 99 48 100
REMARK SMILES IDX 49 101
REMARK H PARENT 6 7 2 16 2 17 84 20 89 28 11 32 73 51 39 62
REMARK Flexibility Score: inf
ROOT
ATOM      1  C   UNL A   1      32.324  28.820  27.090  1.00  0.00     0.023 C 
ENDROOT
BRANCH   1   2
ATOM      2  C   UNL A   1      32.489  27.339  26.673  1.00  0.00     0.023 C 
BRANCH   2   3
ATOM      3  C   UNL A   1      33.660  26.969  25.737  1.00  0.00     0.116 C 
BRANCH   3   4
ATOM      4  N   UNL A   1      34.340  25.720  26.127  1.00  0.00    -0.351 N 
ATOM      5  C   UNL A   1      34.706  24.693  25.248  1.00  0.00     0.281 C 
ATOM      6  O   UNL A   1      34.732  24.862  24.029  1.00  0.00    -0.268 OA
ATOM      7  H   UNL A   1      34.555  25.600  27.080  1.00  0.00     0.163 HD
BRANCH   5   8
ATOM      8  C   UNL A   1      35.216  23.324  25.918  1.00  0.00     0.181 C 
ATOM      9  C   UNL A   1      35.574  22.174  24.918  1.00  0.00     0.079 C 
ATOM     10  C   UNL A   1      34.179  22.777  26.925  1.00  0.00     0.144 C 
ATOM     11  C   UNL A   1      34.516  21.144  24.516  1.00  0.00     0.013 C 
ATOM     12  C   UNL A   1      32.917  22.168  26.238  1.00  0.00     0.190 C 
ATOM     13  C   UNL A   1      33.385  20.923  25.497  1.00  0.00     0.065 C 
BRANCH   8  14
ATOM     14  N   UNL A   1      36.466  23.680  26.692  1.00  0.00    -0.336 N 
ATOM     15  C   UNL A   1      37.688  23.656  25.876  1.00  0.00     0.331 C 
ATOM     16  H   UNL A   1      36.352  24.619  27.075  1.00  0.00     0.346 HD
ATOM     17  H   UNL A   1      36.578  22.977  27.422  1.00  0.00     0.346 HD
ENDBRANCH   8  14
BRANCH  12  18
ATOM     18  N   UNL A   1      32.122  23.244  25.595  1.00  0.00    -0.332 N 
ATOM     19  C   UNL A   1      31.247  23.765  26.690  1.00  0.00     0.333 C 
ATOM     20  H   UNL A   1      32.849  23.829  25.184  1.00  0.00     0.348 HD
BRANCH  18  21
ATOM     21  C   UNL A   1      31.278  23.071  24.366  1.00  0.00     0.195 C 
ATOM     22  C   UNL A   1      31.796  22.544  23.015  1.00  0.00     0.126 C 
ATOM     23  C   UNL A   1      30.596  24.420  23.981  1.00  0.00     0.126 C 
ATOM     24  C   UNL A   1      32.651  23.540  22.229  1.00  0.00     0.268 C 
ATOM     25  C   UNL A   1      31.361  25.347  23.032  1.00  0.00     0.268 C 
ATOM     26  N   UNL A   1      31.864  24.704  21.822  1.00  0.00    -0.337 N 
ATOM     27  C   UNL A   1      32.734  25.658  21.111  1.00  0.00     0.332 C 
ATOM     28  H   UNL A   1      31.098  24.417  21.212  1.00  0.00     0.347 HD
ENDBRANCH  18  21
ENDBRANCH  12  18
ENDBRANCH   5   8
ENDBRANCH   3   4
ENDBRANCH   2   3
ENDBRANCH   1   2
BRANCH   1  29
ATOM     29  C   UNL A   1      33.472  29.820  26.865  1.00  0.00     0.116 C 
BRANCH  29  30
ATOM     30  N   UNL A   1      33.637  30.848  27.892  1.00  0.00    -0.352 N 
ATOM     31  C   UNL A   1      34.757  31.133  28.657  1.00  0.00     0.251 C 
ATOM     32  H   UNL A   1      32.849  31.412  28.063  1.00  0.00     0.163 HD
ATOM     33  O   UNL A   1      34.774  32.114  29.400  1.00  0.00    -0.269 OA
BRANCH  31  34
ATOM     34  C   UNL A   1      35.899  30.193  28.650  1.00  0.00     0.039 A 
ATOM     35  C   UNL A   1      36.623  30.049  27.463  1.00  0.00     0.014 A 
ATOM     36  C   UNL A   1      36.347  29.582  29.822  1.00  0.00     0.014 A 
ATOM     37  C   UNL A   1      37.887  29.459  27.498  1.00  0.00     0.010 A 
ATOM     38  C   UNL A   1      37.630  29.043  29.870  1.00  0.00     0.010 A 
ATOM     39  C   UNL A   1      38.438  29.051  28.726  1.00  0.00    -0.014 A 
BRANCH  39  40
ATOM     40  C   UNL A   1      39.904  28.843  28.857  1.00  0.00     0.031 A 
ATOM     41  C   UNL A   1      40.549  27.533  28.522  1.00  0.00     0.074 A 
ATOM     42  C   UNL A   1      40.640  29.846  29.381  1.00  0.00     0.049 A 
ATOM     43  N   UNL A   1      41.811  27.198  28.600  1.00  0.00    -0.248 NA
ATOM     44  C   UNL A   1      39.663  26.452  28.066  1.00  0.00     0.031 C 
ATOM     45  C   UNL A   1      40.108  31.139  29.831  1.00  0.00     0.029 A 
ATOM     46  N   UNL A   1      41.985  29.944  29.632  1.00  0.00    -0.354 N 
ATOM     47  C   UNL A   1      41.877  25.870  28.200  1.00  0.00     0.074 A 
ATOM     48  C   UNL A   1      40.518  25.446  27.928  1.00  0.00     0.031 C 
ATOM     49  C   UNL A   1      41.119  31.909  30.261  1.00  0.00     0.029 A 
ATOM     50  C   UNL A   1      42.364  31.160  30.151  1.00  0.00     0.049 A 
ATOM     51  H   UNL A   1      42.620  29.211  29.457  1.00  0.00     0.167 HD
ATOM     52  C   UNL A   1      42.972  25.087  28.051  1.00  0.00     0.037 A 
ATOM     53  C   UNL A   1      43.580  31.628  30.494  1.00  0.00     0.037 A 
ATOM     54  C   UNL A   1      44.321  25.517  28.321  1.00  0.00     0.049 A 
ATOM     55  C   UNL A   1      44.781  30.746  30.299  1.00  0.00     0.074 A 
ATOM     56  C   UNL A   1      45.500  24.812  28.158  1.00  0.00     0.029 A 
ATOM     57  N   UNL A   1      44.669  26.767  28.816  1.00  0.00    -0.354 N 
ATOM     58  N   UNL A   1      44.832  29.518  29.841  1.00  0.00    -0.248 NA
ATOM     59  C   UNL A   1      46.087  31.311  30.660  1.00  0.00     0.031 C 
ATOM     60  C   UNL A   1      46.560  25.625  28.580  1.00  0.00     0.029 A 
ATOM     61  C   UNL A   1      46.043  26.849  28.973  1.00  0.00     0.049 A 
ATOM     62  H   UNL A   1      44.033  27.488  29.025  1.00  0.00     0.167 HD
ATOM     63  C   UNL A   1      46.177  29.173  29.835  1.00  0.00     0.074 A 
ATOM     64  C   UNL A   1      46.907  30.325  30.325  1.00  0.00     0.031 C 
ATOM     65  C   UNL A   1      46.755  28.007  29.456  1.00  0.00     0.037 A 
BRANCH  52  66
ATOM     66  C   UNL A   1      42.754  23.684  27.557  1.00  0.00     0.058 A 
ATOM     67  C   UNL A   1      42.589  22.615  28.452  1.00  0.00     0.135 A 
ATOM     68  C   UNL A   1      42.683  23.404  26.182  1.00  0.00     0.135 A 
ATOM     69  F   UNL A   1      42.659  22.825  29.776  1.00  0.00    -0.206 F 
ATOM     70  C   UNL A   1      42.397  21.313  28.003  1.00  0.00     0.059 A 
ATOM     71  C   UNL A   1      42.467  22.113  25.711  1.00  0.00     0.059 A 
ATOM     72  F   UNL A   1      42.829  24.391  25.283  1.00  0.00    -0.206 F 
ATOM     73  C   UNL A   1      42.343  21.070  26.629  1.00  0.00     0.060 A 
BRANCH  73  74
ATOM     74  S   UNL A   1      42.102  19.373  26.062  1.00  0.00     0.124 S 
ATOM     75  O   UNL A   1      42.989  19.326  24.903  1.00  0.00    -0.237 OA
ATOM     76  O   UNL A   1      42.529  18.591  27.217  1.00  0.00    -0.237 OA
ATOM     77  O   UNL A   1      40.675  19.315  25.762  1.00  0.00    -0.744 OA
ENDBRANCH  73  74
ENDBRANCH  52  66
BRANCH  53  78
ATOM     78  C   UNL A   1      43.726  33.014  31.010  1.00  0.00     0.058 A 
ATOM     79  C   UNL A   1      43.620  33.281  32.383  1.00  0.00     0.135 A 
ATOM     80  C   UNL A   1      43.995  34.091  30.153  1.00  0.00     0.135 A 
ATOM     81  F   UNL A   1      43.363  32.283  33.242  1.00  0.00    -0.206 F 
ATOM     82  C   UNL A   1      43.756  34.571  32.887  1.00  0.00     0.059 A 
ATOM     83  C   UNL A   1      44.157  35.386  30.635  1.00  0.00     0.059 A 
ATOM     84  F   UNL A   1      44.128  33.883  28.833  1.00  0.00    -0.206 F 
ATOM     85  C   UNL A   1      44.025  35.617  32.004  1.00  0.00     0.060 A 
BRANCH  85  86
ATOM     86  S   UNL A   1      44.248  37.281  32.672  1.00  0.00     0.124 S 
ATOM     87  O   UNL A   1      43.207  37.329  33.692  1.00  0.00    -0.237 OA
ATOM     88  O   UNL A   1      45.622  37.235  33.163  1.00  0.00    -0.237 OA
ATOM     89  O   UNL A   1      44.036  38.138  31.510  1.00  0.00    -0.744 OA
ENDBRANCH  85  86
ENDBRANCH  53  78
BRANCH  65  90
ATOM     90  C   UNL A   1      48.253  27.927  29.529  1.00  0.00     0.058 A 
ATOM     91  C   UNL A   1      48.909  27.468  30.681  1.00  0.00     0.135 A 
ATOM     92  C   UNL A   1      49.038  28.267  28.416  1.00  0.00     0.135 A 
ATOM     93  F   UNL A   1      48.203  27.140  31.775  1.00  0.00    -0.206 F 
ATOM     94  C   UNL A   1      50.295  27.363  30.734  1.00  0.00     0.059 A 
ATOM     95  C   UNL A   1      50.424  28.149  28.438  1.00  0.00     0.059 A 
ATOM     96  F   UNL A   1      48.457  28.706  27.287  1.00  0.00    -0.206 F 
ATOM     97  C   UNL A   1      51.044  27.705  29.606  1.00  0.00     0.060 A 
BRANCH  97  98
ATOM     98  S   UNL A   1      52.839  27.524  29.669  1.00  0.00     0.124 S 
ATOM     99  O   UNL A   1      53.277  28.914  29.604  1.00  0.00    -0.237 OA
ATOM    100  O   UNL A   1      53.043  26.854  30.950  1.00  0.00    -0.237 OA
ATOM    101  O   UNL A   1      53.139  26.714  28.492  1.00  0.00    -0.744 OA
ENDBRANCH  97  98
ENDBRANCH  65  90
ENDBRANCH  39  40
ENDBRANCH  31  34
ENDBRANCH  29  30
ENDBRANCH   1  29
TORSDOF 17
ENDMDL
MODEL 2
REMARK VINA RESULT:     -11.3      1.159      8.341
REMARK SMILES C[NH2+][C@@]1(C(=O)NCCCCNC(=O)c2ccc(-c3c4nc(c(-c5c(F)cc(S(=O)(=O)[O-])cc5F)c5ccc([nH]5)c(-c5c(F)cc(S(=O)(=O)[O-])cc5F)c5nc(c(-c6c(F)cc(S(=O)(=O)[O-])cc6F)c6ccc3[nH]6)C=C5)C=C4)cc2)CCC[C@H]([N@H+](C)C2CC[NH+](C)CC2)C1
REMARK SMILES IDX 9 1 8 2 7 3 6 4 4 5 5 6 3 8 80 9 93 10 81 11 83 12 82 13
REMARK SMILES IDX 2 14 1 15 84 18 85 19 86 21 87 22 92 23 88 24 91 25 89 26
REMARK SMILES IDX 90 27 10 29 11 30 12 31 13 33 14 34 15 35 79 36 16 37 78 38
REMARK SMILES IDX 17 39 18 40 19 41 72 42 20 43 77 44 71 45 73 46 21 47 76 48
REMARK SMILES IDX 70 49 69 50 22 52 56 53 35 54 55 55 36 56 39 57 54 58 74 59
REMARK SMILES IDX 37 60 38 61 53 63 75 64 40 65 23 66 24 67 33 68 25 69 26 70
REMARK SMILES IDX 32 71 34 72 27 73 28 74 29 75 30 76 31 77 57 78 58 79 67 80
REMARK SMILES IDX 59 81 60 82 66 83 68 84 61 85 62 86 63 87 64 88 65 89 41 90
REMARK SMILES IDX 42 91 51 92 43 93 44 94 50 95 52 96 45 97 46 98 47 99 48 100
REMARK SMILES IDX 49 101
REMARK H PARENT 6 7 2 16 2 17 84 20 89 28 11 32 73 51 39 62
REMARK Flexibility Score: inf
ROOT
ATOM      1  C   UNL A   1      32.050  29.238  26.957  1.00  0.00     0.023 C 
ENDROOT
BRANCH   1   2
ATOM      2  C   UNL A   1      31.813  27.805  27.491  1.00  0.00     0.023 C 
BRANCH   2   3
ATOM      3  C   UNL A   1      31.232  26.750  26.524  1.00  0.00     0.116 C 
BRANCH   3   4
ATOM      4  N   UNL A   1      32.010  25.498  26.498  1.00  0.00    -0.351 N 
ATOM      5  C   UNL A   1      33.334  25.381  26.057  1.00  0.00     0.281 C 
ATOM      6  O   UNL A   1      34.055  26.367  25.903  1.00  0.00    -0.268 OA
ATOM      7  H   UNL A   1      31.564  24.681  26.817  1.00  0.00     0.163 HD
BRANCH   5   8
ATOM      8  C   UNL A   1      33.904  23.888  25.889  1.00  0.00     0.181 C 
ATOM      9  C   UNL A   1      35.298  23.772  25.184  1.00  0.00     0.079 C 
ATOM     10  C   UNL A   1      32.904  22.993  25.122  1.00  0.00     0.144 C 
ATOM     11  C   UNL A   1      35.381  23.572  23.669  1.00  0.00     0.013 C 
ATOM     12  C   UNL A   1      32.832  23.319  23.598  1.00  0.00     0.190 C 
ATOM     13  C   UNL A   1      34.181  22.931  23.008  1.00  0.00     0.065 C 
BRANCH   8  14
ATOM     14  N   UNL A   1      34.038  23.334  27.290  1.00  0.00    -0.336 N 
ATOM     15  C   UNL A   1      34.251  21.880  27.328  1.00  0.00     0.331 C 
ATOM     16  H   UNL A   1      34.831  23.788  27.743  1.00  0.00     0.346 HD
ATOM     17  H   UNL A   1      33.159  23.521  27.773  1.00  0.00     0.346 HD
ENDBRANCH   8  14
BRANCH  12  18
ATOM     18  N   UNL A   1      32.209  24.650  23.393  1.00  0.00    -0.332 N 
ATOM     19  C   UNL A   1      30.749  24.359  23.247  1.00  0.00     0.333 C 
ATOM     20  H   UNL A   1      32.560  25.175  24.194  1.00  0.00     0.348 HD
BRANCH  18  21
ATOM     21  C   UNL A   1      32.599  25.625  22.321  1.00  0.00     0.195 C 
ATOM     22  C   UNL A   1      33.440  26.893  22.556  1.00  0.00     0.126 C 
ATOM     23  C   UNL A   1      31.330  26.172  21.596  1.00  0.00     0.126 C 
ATOM     24  C   UNL A   1      32.694  28.032  23.254  1.00  0.00     0.268 C 
ATOM     25  C   UNL A   1      30.682  27.434  22.174  1.00  0.00     0.268 C 
ATOM     26  N   UNL A   1      31.605  28.538  22.420  1.00  0.00    -0.337 N 
ATOM     27  C   UNL A   1      30.884  29.598  23.147  1.00  0.00     0.332 C 
ATOM     28  H   UNL A   1      31.973  28.912  21.544  1.00  0.00     0.347 HD
ENDBRANCH  18  21
ENDBRANCH  12  18
ENDBRANCH   5   8
ENDBRANCH   3   4
ENDBRANCH   2   3
ENDBRANCH   1   2
BRANCH   1  29
ATOM     29  C   UNL A   1      33.460  29.854  26.994  1.00  0.00     0.116 C 
BRANCH  29  30
ATOM     30  N   UNL A   1      33.665  30.928  27.965  1.00  0.00    -0.352 N 
ATOM     31  C   UNL A   1      34.806  31.231  28.691  1.00  0.00     0.251 C 
ATOM     32  H   UNL A   1      32.890  31.514  28.125  1.00  0.00     0.163 HD
ATOM     33  O   UNL A   1      34.855  32.246  29.384  1.00  0.00    -0.269 OA
BRANCH  31  34
ATOM     34  C   UNL A   1      35.932  30.271  28.707  1.00  0.00     0.039 A 
ATOM     35  C   UNL A   1      36.721  30.167  27.557  1.00  0.00     0.014 A 
ATOM     36  C   UNL A   1      36.302  29.600  29.873  1.00  0.00     0.014 A 
ATOM     37  C   UNL A   1      37.972  29.554  27.637  1.00  0.00     0.010 A 
ATOM     38  C   UNL A   1      37.571  29.036  29.970  1.00  0.00     0.010 A 
ATOM     39  C   UNL A   1      38.445  29.081  28.875  1.00  0.00    -0.014 A 
BRANCH  39  40
ATOM     40  C   UNL A   1      39.897  28.841  29.080  1.00  0.00     0.031 A 
ATOM     41  C   UNL A   1      40.805  29.907  29.614  1.00  0.00     0.074 A 
ATOM     42  C   UNL A   1      40.404  27.656  28.680  1.00  0.00     0.049 A 
ATOM     43  N   UNL A   1      42.094  29.850  29.833  1.00  0.00    -0.248 NA
ATOM     44  C   UNL A   1      40.197  31.209  29.918  1.00  0.00     0.031 C 
ATOM     45  C   UNL A   1      39.632  26.572  28.060  1.00  0.00     0.029 A 
ATOM     46  N   UNL A   1      41.682  27.158  28.727  1.00  0.00    -0.354 N 
ATOM     47  C   UNL A   1      42.455  31.104  30.304  1.00  0.00     0.074 A 
ATOM     48  C   UNL A   1      41.256  31.918  30.291  1.00  0.00     0.031 C 
ATOM     49  C   UNL A   1      40.441  25.529  27.825  1.00  0.00     0.029 A 
ATOM     50  C   UNL A   1      41.794  25.875  28.243  1.00  0.00     0.049 A 
ATOM     51  H   UNL A   1      42.447  27.672  29.074  1.00  0.00     0.167 HD
ATOM     52  C   UNL A   1      43.669  31.529  30.730  1.00  0.00     0.037 A 
ATOM     53  C   UNL A   1      42.863  25.061  28.153  1.00  0.00     0.037 A 
ATOM     54  C   UNL A   1      44.857  30.712  30.741  1.00  0.00     0.049 A 
ATOM     55  C   UNL A   1      44.194  25.550  28.652  1.00  0.00     0.074 A 
ATOM     56  C   UNL A   1      46.122  31.038  31.195  1.00  0.00     0.029 A 
ATOM     57  N   UNL A   1      44.924  29.407  30.273  1.00  0.00    -0.354 N 
ATOM     58  N   UNL A   1      44.499  26.715  29.171  1.00  0.00    -0.248 NA
ATOM     59  C   UNL A   1      45.323  24.615  28.559  1.00  0.00     0.031 C 
ATOM     60  C   UNL A   1      46.963  29.939  30.976  1.00  0.00     0.029 A 
ATOM     61  C   UNL A   1      46.212  28.917  30.419  1.00  0.00     0.049 A 
ATOM     62  H   UNL A   1      44.169  28.904  29.893  1.00  0.00     0.167 HD
ATOM     63  C   UNL A   1      45.849  26.644  29.491  1.00  0.00     0.074 A 
ATOM     64  C   UNL A   1      46.298  25.319  29.116  1.00  0.00     0.031 C 
ATOM     65  C   UNL A   1      46.642  27.592  30.046  1.00  0.00     0.037 A 
BRANCH  52  66
ATOM     66  C   UNL A   1      43.767  32.942  31.234  1.00  0.00     0.058 A 
ATOM     67  C   UNL A   1      43.509  33.254  32.578  1.00  0.00     0.135 A 
ATOM     68  C   UNL A   1      44.143  33.990  30.378  1.00  0.00     0.135 A 
ATOM     69  F   UNL A   1      43.135  32.291  33.436  1.00  0.00    -0.206 F 
ATOM     70  C   UNL A   1      43.587  34.560  33.050  1.00  0.00     0.059 A 
ATOM     71  C   UNL A   1      44.251  35.301  30.834  1.00  0.00     0.059 A 
ATOM     72  F   UNL A   1      44.405  33.746  29.085  1.00  0.00    -0.206 F 
ATOM     73  C   UNL A   1      43.953  35.579  32.169  1.00  0.00     0.060 A 
BRANCH  73  74
ATOM     74  S   UNL A   1      44.041  37.271  32.794  1.00  0.00     0.124 S 
ATOM     75  O   UNL A   1      42.948  37.279  33.761  1.00  0.00    -0.237 OA
ATOM     76  O   UNL A   1      45.385  37.329  33.357  1.00  0.00    -0.237 OA
ATOM     77  O   UNL A   1      43.828  38.084  31.601  1.00  0.00    -0.744 OA
ENDBRANCH  73  74
ENDBRANCH  52  66
BRANCH  53  78
ATOM     78  C   UNL A   1      42.708  23.685  27.613  1.00  0.00     0.058 A 
ATOM     79  C   UNL A   1      42.455  22.604  28.469  1.00  0.00     0.135 A 
ATOM     80  C   UNL A   1      42.787  23.425  26.236  1.00  0.00     0.135 A 
ATOM     81  F   UNL A   1      42.371  22.804  29.794  1.00  0.00    -0.206 F 
ATOM     82  C   UNL A   1      42.304  21.309  27.984  1.00  0.00     0.059 A 
ATOM     83  C   UNL A   1      42.618  22.142  25.725  1.00  0.00     0.059 A 
ATOM     84  F   UNL A   1      43.005  24.430  25.373  1.00  0.00    -0.206 F 
ATOM     85  C   UNL A   1      42.387  21.089  26.609  1.00  0.00     0.060 A 
BRANCH  85  86
ATOM     86  S   UNL A   1      42.142  19.412  25.982  1.00  0.00     0.124 S 
ATOM     87  O   UNL A   1      42.976  19.422  24.786  1.00  0.00    -0.237 OA
ATOM     88  O   UNL A   1      42.626  18.594  27.092  1.00  0.00    -0.237 OA
ATOM     89  O   UNL A   1      40.703  19.349  25.750  1.00  0.00    -0.744 OA
ENDBRANCH  85  86
ENDBRANCH  53  78
BRANCH  65  90
ATOM     90  C   UNL A   1      48.074  27.221  30.308  1.00  0.00     0.058 A 
ATOM     91  C   UNL A   1      49.079  27.453  29.357  1.00  0.00     0.135 A 
ATOM     92  C   UNL A   1      48.452  26.673  31.544  1.00  0.00     0.135 A 
ATOM     93  F   UNL A   1      48.767  27.966  28.156  1.00  0.00    -0.206 F 
ATOM     94  C   UNL A   1      50.409  27.140  29.617  1.00  0.00     0.059 A 
ATOM     95  C   UNL A   1      49.779  26.373  31.834  1.00  0.00     0.059 A 
ATOM     96  F   UNL A   1      47.527  26.438  32.490  1.00  0.00    -0.206 F 
ATOM     97  C   UNL A   1      50.749  26.601  30.859  1.00  0.00     0.060 A 
BRANCH  97  98
ATOM     98  S   UNL A   1      52.484  26.239  31.203  1.00  0.00     0.124 S 
ATOM     99  O   UNL A   1      52.389  24.936  31.851  1.00  0.00    -0.237 OA
ATOM    100  O   UNL A   1      53.076  26.241  29.868  1.00  0.00    -0.237 OA
ATOM    101  O   UNL A   1      52.896  27.342  32.065  1.00  0.00    -0.744 OA
ENDBRANCH  97  98
ENDBRANCH  65  90
ENDBRANCH  39  40
ENDBRANCH  31  34
ENDBRANCH  29  30
ENDBRANCH   1  29
TORSDOF 17
ENDMDL
MODEL 3
REMARK VINA RESULT:     -11.2      2.895      8.159
REMARK SMILES C[NH2+][C@@]1(C(=O)NCCCCNC(=O)c2ccc(-c3c4nc(c(-c5c(F)cc(S(=O)(=O)[O-])cc5F)c5ccc([nH]5)c(-c5c(F)cc(S(=O)(=O)[O-])cc5F)c5nc(c(-c6c(F)cc(S(=O)(=O)[O-])cc6F)c6ccc3[nH]6)C=C5)C=C4)cc2)CCC[C@H]([N@H+](C)C2CC[NH+](C)CC2)C1
REMARK SMILES IDX 9 1 8 2 7 3 6 4 4 5 5 6 3 8 80 9 93 10 81 11 83 12 82 13
REMARK SMILES IDX 2 14 1 15 84 18 85 19 86 21 87 22 92 23 88 24 91 25 89 26
REMARK SMILES IDX 90 27 10 29 11 30 12 31 13 33 14 34 15 35 79 36 16 37 78 38
REMARK SMILES IDX 17 39 18 40 19 41 72 42 20 43 77 44 71 45 73 46 21 47 76 48
REMARK SMILES IDX 70 49 69 50 22 52 56 53 35 54 55 55 36 56 39 57 54 58 74 59
REMARK SMILES IDX 37 60 38 61 53 63 75 64 40 65 23 66 24 67 33 68 25 69 26 70
REMARK SMILES IDX 32 71 34 72 27 73 28 74 29 75 30 76 31 77 57 78 58 79 67 80
REMARK SMILES IDX 59 81 60 82 66 83 68 84 61 85 62 86 63 87 64 88 65 89 41 90
REMARK SMILES IDX 42 91 51 92 43 93 44 94 50 95 52 96 45 97 46 98 47 99 48 100
REMARK SMILES IDX 49 101
REMARK H PARENT 6 7 2 16 2 17 84 20 89 28 11 32 73 51 39 62
REMARK Flexibility Score: inf
ROOT
ATOM      1  C   UNL A   1      36.976  22.577  23.990  1.00  0.00     0.023 C 
ENDROOT
BRANCH   1   2
ATOM      2  C   UNL A   1      35.550  23.075  23.652  1.00  0.00     0.023 C 
BRANCH   2   3
ATOM      3  C   UNL A   1      34.942  24.199  24.520  1.00  0.00     0.116 C 
BRANCH   3   4
ATOM      4  N   UNL A   1      33.477  24.298  24.395  1.00  0.00    -0.351 N 
ATOM      5  C   UNL A   1      32.572  24.275  25.464  1.00  0.00     0.281 C 
ATOM      6  O   UNL A   1      32.940  24.440  26.627  1.00  0.00    -0.268 OA
ATOM      7  H   UNL A   1      33.105  24.388  23.488  1.00  0.00     0.163 HD
BRANCH   5   8
ATOM      8  C   UNL A   1      31.016  24.153  25.084  1.00  0.00     0.181 C 
ATOM      9  C   UNL A   1      30.664  24.419  23.582  1.00  0.00     0.079 C 
ATOM     10  C   UNL A   1      30.154  25.097  25.952  1.00  0.00     0.144 C 
ATOM     11  C   UNL A   1      30.281  25.827  23.118  1.00  0.00     0.013 C 
ATOM     12  C   UNL A   1      30.306  26.600  25.561  1.00  0.00     0.190 C 
ATOM     13  C   UNL A   1      29.704  26.748  24.170  1.00  0.00     0.065 C 
BRANCH   8  14
ATOM     14  N   UNL A   1      30.617  22.731  25.415  1.00  0.00    -0.336 N 
ATOM     15  C   UNL A   1      29.904  22.605  26.694  1.00  0.00     0.331 C 
ATOM     16  H   UNL A   1      30.011  22.384  24.672  1.00  0.00     0.346 HD
ATOM     17  H   UNL A   1      31.477  22.189  25.496  1.00  0.00     0.346 HD
ENDBRANCH   8  14
BRANCH  12  18
ATOM     18  N   UNL A   1      31.665  27.081  25.913  1.00  0.00    -0.332 N 
ATOM     19  C   UNL A   1      31.519  27.632  27.296  1.00  0.00     0.333 C 
ATOM     20  H   UNL A   1      32.235  26.254  25.737  1.00  0.00     0.348 HD
BRANCH  18  21
ATOM     21  C   UNL A   1      32.466  28.059  25.105  1.00  0.00     0.195 C 
ATOM     22  C   UNL A   1      33.987  28.262  25.233  1.00  0.00     0.126 C 
ATOM     23  C   UNL A   1      31.901  29.502  25.281  1.00  0.00     0.126 C 
ATOM     24  C   UNL A   1      34.424  29.016  26.491  1.00  0.00     0.268 C 
ATOM     25  C   UNL A   1      32.474  30.345  26.425  1.00  0.00     0.268 C 
ATOM     26  N   UNL A   1      33.932  30.393  26.478  1.00  0.00    -0.337 N 
ATOM     27  C   UNL A   1      34.334  31.068  27.725  1.00  0.00     0.332 C 
ATOM     28  H   UNL A   1      34.313  30.898  25.676  1.00  0.00     0.347 HD
ENDBRANCH  18  21
ENDBRANCH  12  18
ENDBRANCH   5   8
ENDBRANCH   3   4
ENDBRANCH   2   3
ENDBRANCH   1   2
BRANCH   1  29
ATOM     29  C   UNL A   1      37.519  22.702  25.424  1.00  0.00     0.116 C 
BRANCH  29  30
ATOM     30  N   UNL A   1      38.892  22.243  25.632  1.00  0.00    -0.352 N 
ATOM     31  C   UNL A   1      39.907  22.853  26.352  1.00  0.00     0.251 C 
ATOM     32  H   UNL A   1      39.126  21.388  25.205  1.00  0.00     0.163 HD
ATOM     33  O   UNL A   1      40.980  22.277  26.532  1.00  0.00    -0.269 OA
BRANCH  31  34
ATOM     34  C   UNL A   1      39.731  24.245  26.819  1.00  0.00     0.039 A 
ATOM     35  C   UNL A   1      39.089  24.450  28.044  1.00  0.00     0.014 A 
ATOM     36  C   UNL A   1      40.316  25.319  26.148  1.00  0.00     0.014 A 
ATOM     37  C   UNL A   1      39.205  25.685  28.681  1.00  0.00     0.010 A 
ATOM     38  C   UNL A   1      40.480  26.536  26.806  1.00  0.00     0.010 A 
ATOM     39  C   UNL A   1      39.995  26.699  28.110  1.00  0.00    -0.014 A 
BRANCH  39  40
ATOM     40  C   UNL A   1      40.491  27.824  28.946  1.00  0.00     0.031 A 
ATOM     41  C   UNL A   1      41.832  27.780  29.612  1.00  0.00     0.074 A 
ATOM     42  C   UNL A   1      39.655  28.860  29.171  1.00  0.00     0.049 A 
ATOM     43  N   UNL A   1      42.394  28.677  30.381  1.00  0.00    -0.248 NA
ATOM     44  C   UNL A   1      42.636  26.566  29.412  1.00  0.00     0.031 C 
ATOM     45  C   UNL A   1      38.287  28.971  28.649  1.00  0.00     0.029 A 
ATOM     46  N   UNL A   1      39.821  30.013  29.896  1.00  0.00    -0.354 N 
ATOM     47  C   UNL A   1      43.619  28.143  30.756  1.00  0.00     0.074 A 
ATOM     48  C   UNL A   1      43.696  26.820  30.169  1.00  0.00     0.031 C 
ATOM     49  C   UNL A   1      37.759  30.143  29.036  1.00  0.00     0.029 A 
ATOM     50  C   UNL A   1      38.731  30.852  29.858  1.00  0.00     0.049 A 
ATOM     51  H   UNL A   1      40.643  30.220  30.396  1.00  0.00     0.167 HD
ATOM     52  C   UNL A   1      44.596  28.714  31.501  1.00  0.00     0.037 A 
ATOM     53  C   UNL A   1      38.535  32.062  30.416  1.00  0.00     0.037 A 
ATOM     54  C   UNL A   1      44.512  30.031  32.079  1.00  0.00     0.049 A 
ATOM     55  C   UNL A   1      39.644  32.681  31.219  1.00  0.00     0.074 A 
ATOM     56  C   UNL A   1      45.466  30.714  32.811  1.00  0.00     0.029 A 
ATOM     57  N   UNL A   1      43.404  30.864  31.994  1.00  0.00    -0.354 N 
ATOM     58  N   UNL A   1      40.829  32.193  31.495  1.00  0.00    -0.248 NA
ATOM     59  C   UNL A   1      39.393  34.014  31.782  1.00  0.00     0.031 C 
ATOM     60  C   UNL A   1      44.927  31.949  33.192  1.00  0.00     0.029 A 
ATOM     61  C   UNL A   1      43.649  32.050  32.667  1.00  0.00     0.049 A 
ATOM     62  H   UNL A   1      42.568  30.644  31.524  1.00  0.00     0.167 HD
ATOM     63  C   UNL A   1      41.476  33.170  32.242  1.00  0.00     0.074 A 
ATOM     64  C   UNL A   1      40.553  34.281  32.365  1.00  0.00     0.031 C 
ATOM     65  C   UNL A   1      42.721  33.149  32.775  1.00  0.00     0.037 A 
BRANCH  52  66
ATOM     66  C   UNL A   1      45.851  27.915  31.718  1.00  0.00     0.058 A 
ATOM     67  C   UNL A   1      46.962  28.062  30.872  1.00  0.00     0.135 A 
ATOM     68  C   UNL A   1      45.959  27.015  32.790  1.00  0.00     0.135 A 
ATOM     69  F   UNL A   1      46.909  28.901  29.825  1.00  0.00    -0.206 F 
ATOM     70  C   UNL A   1      48.123  27.319  31.060  1.00  0.00     0.059 A 
ATOM     71  C   UNL A   1      47.120  26.279  33.012  1.00  0.00     0.059 A 
ATOM     72  F   UNL A   1      44.928  26.840  33.632  1.00  0.00    -0.206 F 
ATOM     73  C   UNL A   1      48.190  26.425  32.129  1.00  0.00     0.060 A 
BRANCH  73  74
ATOM     74  S   UNL A   1      49.701  25.462  32.355  1.00  0.00     0.124 S 
ATOM     75  O   UNL A   1      49.929  24.961  31.003  1.00  0.00    -0.237 OA
ATOM     76  O   UNL A   1      50.648  26.466  32.826  1.00  0.00    -0.237 OA
ATOM     77  O   UNL A   1      49.317  24.455  33.339  1.00  0.00    -0.744 OA
ENDBRANCH  73  74
ENDBRANCH  52  66
BRANCH  53  78
ATOM     78  C   UNL A   1      37.257  32.786  30.192  1.00  0.00     0.058 A 
ATOM     79  C   UNL A   1      37.120  33.682  29.122  1.00  0.00     0.135 A 
ATOM     80  C   UNL A   1      36.145  32.586  31.024  1.00  0.00     0.135 A 
ATOM     81  F   UNL A   1      38.156  33.907  28.299  1.00  0.00    -0.206 F 
ATOM     82  C   UNL A   1      35.932  34.369  28.892  1.00  0.00     0.059 A 
ATOM     83  C   UNL A   1      34.939  33.244  30.803  1.00  0.00     0.059 A 
ATOM     84  F   UNL A   1      36.219  31.722  32.048  1.00  0.00    -0.206 F 
ATOM     85  C   UNL A   1      34.847  34.142  29.740  1.00  0.00     0.060 A 
BRANCH  85  86
ATOM     86  S   UNL A   1      33.292  35.001  29.407  1.00  0.00     0.124 S 
ATOM     87  O   UNL A   1      32.677  35.015  30.729  1.00  0.00    -0.237 OA
ATOM     88  O   UNL A   1      33.754  36.292  28.904  1.00  0.00    -0.237 OA
ATOM     89  O   UNL A   1      32.644  34.148  28.416  1.00  0.00    -0.744 OA
ENDBRANCH  85  86
ENDBRANCH  53  78
BRANCH  65  90
ATOM     90  C   UNL A   1      43.171  34.374  33.518  1.00  0.00     0.058 A 
ATOM     91  C   UNL A   1      43.765  35.459  32.856  1.00  0.00     0.135 A 
ATOM     92  C   UNL A   1      42.961  34.483  34.902  1.00  0.00     0.135 A 
ATOM     93  F   UNL A   1      43.997  35.399  31.534  1.00  0.00    -0.206 F 
ATOM     94  C   UNL A   1      44.149  36.606  33.543  1.00  0.00     0.059 A 
ATOM     95  C   UNL A   1      43.317  35.629  35.606  1.00  0.00     0.059 A 
ATOM     96  F   UNL A   1      42.391  33.473  35.581  1.00  0.00    -0.206 F 
ATOM     97  C   UNL A   1      43.920  36.681  34.918  1.00  0.00     0.060 A 
BRANCH  97  98
ATOM     98  S   UNL A   1      44.383  38.191  35.793  1.00  0.00     0.124 S 
ATOM     99  O   UNL A   1      43.858  39.220  34.902  1.00  0.00    -0.237 OA
ATOM    100  O   UNL A   1      43.687  38.042  37.068  1.00  0.00    -0.237 OA
ATOM    101  O   UNL A   1      45.838  38.106  35.868  1.00  0.00    -0.744 OA
ENDBRANCH  97  98
ENDBRANCH  65  90
ENDBRANCH  39  40
ENDBRANCH  31  34
ENDBRANCH  29  30
ENDBRANCH   1  29
TORSDOF 17
ENDMDL
