MODEL 1
REMARK VINA RESULT:     -12.8      0.000      0.000
REMARK SMILES CC(=O)Nc1cccc(-c2cc(F)ccc2C(=O)NCCCCNC(=O)c2ccc(-c3c4nc(c(-c5c(F)cc(S(=O)(=O)[O-])cc5F)c5ccc([nH]5)c(-c5c(F)cc(S(=O)(=O)[O-])cc5F)c5nc(c(-c6c(F)cc(S(=O)(=O)[O-])cc6F)c6ccc3[nH]6)C=C5)C=C4)cc2)c1
REMARK SMILES IDX 22 1 21 2 20 3 19 4 17 5 18 6 16 8 10 9 11 10 12 11 15 12
REMARK SMILES IDX 13 13 14 14 9 15 5 16 6 17 93 18 7 19 8 20 4 21 1 22 2 23
REMARK SMILES IDX 3 24 23 26 24 27 25 28 26 30 27 31 28 32 92 33 29 34 91 35
REMARK SMILES IDX 30 36 31 37 32 38 85 39 33 40 90 41 84 42 86 43 34 44 89 45
REMARK SMILES IDX 83 46 82 47 35 49 69 50 48 51 68 52 49 53 52 54 67 55 87 56
REMARK SMILES IDX 50 57 51 58 66 60 88 61 53 62 36 63 37 64 46 65 38 66 39 67
REMARK SMILES IDX 45 68 47 69 40 70 41 71 42 72 43 73 44 74 70 75 71 76 80 77
REMARK SMILES IDX 72 78 73 79 79 80 81 81 74 82 75 83 76 84 77 85 78 86 54 87
REMARK SMILES IDX 55 88 64 89 56 90 57 91 63 92 65 93 58 94 59 95 60 96 61 97
REMARK SMILES IDX 62 98
REMARK H PARENT 19 7 4 25 24 29 86 48 52 59
REMARK Flexibility Score: inf
ROOT
ATOM      1  C   UNL A   1      32.655  30.553  26.786  1.00  0.00     0.023 C 
ENDROOT
BRANCH   1   2
ATOM      2  C   UNL A   1      32.122  29.300  26.089  1.00  0.00     0.023 C 
BRANCH   2   3
ATOM      3  C   UNL A   1      32.205  27.979  26.839  1.00  0.00     0.116 C 
BRANCH   3   4
ATOM      4  N   UNL A   1      31.034  27.141  26.816  1.00  0.00    -0.352 N 
ATOM      5  C   UNL A   1      30.558  26.296  25.842  1.00  0.00     0.251 C 
ATOM      6  O   UNL A   1      29.603  25.577  26.152  1.00  0.00    -0.269 OA
ATOM      7  H   UNL A   1      30.484  27.180  27.632  1.00  0.00     0.163 HD
BRANCH   5   8
ATOM      8  C   UNL A   1      31.029  26.228  24.414  1.00  0.00     0.047 A 
ATOM      9  C   UNL A   1      30.625  27.004  23.298  1.00  0.00    -0.003 A 
ATOM     10  C   UNL A   1      31.310  26.813  22.070  1.00  0.00     0.048 A 
ATOM     11  C   UNL A   1      32.351  25.902  21.942  1.00  0.00     0.123 A 
ATOM     12  C   UNL A   1      32.101  25.311  24.244  1.00  0.00     0.017 A 
ATOM     13  F   UNL A   1      32.969  25.765  20.761  1.00  0.00    -0.207 F 
ATOM     14  C   UNL A   1      32.754  25.144  23.022  1.00  0.00     0.040 A 
BRANCH   9  15
ATOM     15  C   UNL A   1      29.544  28.004  23.275  1.00  0.00    -0.015 A 
ATOM     16  C   UNL A   1      28.751  30.309  23.358  1.00  0.00     0.041 A 
ATOM     17  C   UNL A   1      27.434  29.841  23.453  1.00  0.00     0.026 A 
ATOM     18  C   UNL A   1      29.799  29.386  23.239  1.00  0.00     0.034 A 
ATOM     19  C   UNL A   1      27.156  28.478  23.427  1.00  0.00     0.003 A 
ATOM     20  C   UNL A   1      28.203  27.567  23.336  1.00  0.00     0.009 A 
BRANCH  16  21
ATOM     21  N   UNL A   1      28.928  31.689  23.552  1.00  0.00    -0.326 N 
ATOM     22  C   UNL A   1      28.136  32.646  21.394  1.00  0.00     0.114 C 
ATOM     23  C   UNL A   1      28.857  32.756  22.707  1.00  0.00     0.221 C 
ATOM     24  O   UNL A   1      29.354  33.827  23.060  1.00  0.00    -0.275 OA
ATOM     25  H   UNL A   1      29.147  31.934  24.480  1.00  0.00     0.169 HD
ENDBRANCH  16  21
ENDBRANCH   9  15
ENDBRANCH   5   8
ENDBRANCH   3   4
ENDBRANCH   2   3
ENDBRANCH   1   2
BRANCH   1  26
ATOM     26  C   UNL A   1      34.009  30.489  27.496  1.00  0.00     0.116 C 
BRANCH  26  27
ATOM     27  N   UNL A   1      34.109  31.235  28.743  1.00  0.00    -0.352 N 
ATOM     28  C   UNL A   1      35.186  31.378  29.597  1.00  0.00     0.251 C 
ATOM     29  H   UNL A   1      33.290  31.708  29.017  1.00  0.00     0.163 HD
ATOM     30  O   UNL A   1      35.139  32.191  30.512  1.00  0.00    -0.269 OA
BRANCH  28  31
ATOM     31  C   UNL A   1      36.358  30.488  29.442  1.00  0.00     0.039 A 
ATOM     32  C   UNL A   1      36.972  30.413  28.187  1.00  0.00     0.014 A 
ATOM     33  C   UNL A   1      36.923  29.848  30.545  1.00  0.00     0.014 A 
ATOM     34  C   UNL A   1      38.238  29.833  28.074  1.00  0.00     0.010 A 
ATOM     35  C   UNL A   1      38.214  29.332  30.443  1.00  0.00     0.010 A 
ATOM     36  C   UNL A   1      38.905  29.372  29.220  1.00  0.00    -0.014 A 
BRANCH  36  37
ATOM     37  C   UNL A   1      40.361  29.061  29.198  1.00  0.00     0.031 A 
ATOM     38  C   UNL A   1      41.379  30.145  29.401  1.00  0.00     0.074 A 
ATOM     39  C   UNL A   1      40.758  27.817  28.858  1.00  0.00     0.049 A 
ATOM     40  N   UNL A   1      42.678  30.093  29.252  1.00  0.00    -0.248 NA
ATOM     41  C   UNL A   1      40.870  31.468  29.796  1.00  0.00     0.031 C 
ATOM     42  C   UNL A   1      39.865  26.689  28.571  1.00  0.00     0.029 A 
ATOM     43  N   UNL A   1      42.014  27.294  28.659  1.00  0.00    -0.354 N 
ATOM     44  C   UNL A   1      43.141  31.378  29.506  1.00  0.00     0.074 A 
ATOM     45  C   UNL A   1      41.980  32.194  29.796  1.00  0.00     0.031 C 
ATOM     46  C   UNL A   1      40.598  25.615  28.238  1.00  0.00     0.029 A 
ATOM     47  C   UNL A   1      42.010  25.983  28.242  1.00  0.00     0.049 A 
ATOM     48  H   UNL A   1      42.840  27.811  28.803  1.00  0.00     0.167 HD
ATOM     49  C   UNL A   1      44.417  31.832  29.505  1.00  0.00     0.037 A 
ATOM     50  C   UNL A   1      43.022  25.171  27.878  1.00  0.00     0.037 A 
ATOM     51  C   UNL A   1      45.572  31.010  29.247  1.00  0.00     0.049 A 
ATOM     52  C   UNL A   1      44.430  25.695  27.906  1.00  0.00     0.074 A 
ATOM     53  C   UNL A   1      46.909  31.362  29.308  1.00  0.00     0.029 A 
ATOM     54  N   UNL A   1      45.527  29.675  28.875  1.00  0.00    -0.354 N 
ATOM     55  N   UNL A   1      44.853  26.896  28.219  1.00  0.00    -0.248 NA
ATOM     56  C   UNL A   1      45.498  24.758  27.530  1.00  0.00     0.031 C 
ATOM     57  C   UNL A   1      47.672  30.248  28.940  1.00  0.00     0.029 A 
ATOM     58  C   UNL A   1      46.811  29.193  28.684  1.00  0.00     0.049 A 
ATOM     59  H   UNL A   1      44.704  29.147  28.764  1.00  0.00     0.167 HD
ATOM     60  C   UNL A   1      46.236  26.856  28.089  1.00  0.00     0.074 A 
ATOM     61  C   UNL A   1      46.580  25.507  27.686  1.00  0.00     0.031 C 
ATOM     62  C   UNL A   1      47.138  27.848  28.283  1.00  0.00     0.037 A 
BRANCH  49  63
ATOM     63  C   UNL A   1      44.638  33.290  29.797  1.00  0.00     0.058 A 
ATOM     64  C   UNL A   1      44.631  34.251  28.776  1.00  0.00     0.135 A 
ATOM     65  C   UNL A   1      44.817  33.735  31.117  1.00  0.00     0.135 A 
ATOM     66  F   UNL A   1      44.476  33.877  27.496  1.00  0.00    -0.206 F 
ATOM     67  C   UNL A   1      44.818  35.602  29.049  1.00  0.00     0.059 A 
ATOM     68  C   UNL A   1      44.983  35.083  31.416  1.00  0.00     0.059 A 
ATOM     69  F   UNL A   1      44.831  32.854  32.131  1.00  0.00    -0.206 F 
ATOM     70  C   UNL A   1      44.996  36.009  30.372  1.00  0.00     0.060 A 
BRANCH  70  71
ATOM     71  S   UNL A   1      45.226  37.766  30.713  1.00  0.00     0.124 S 
ATOM     72  O   UNL A   1      46.206  38.134  29.696  1.00  0.00    -0.237 OA
ATOM     73  O   UNL A   1      43.882  38.303  30.519  1.00  0.00    -0.237 OA
ATOM     74  O   UNL A   1      45.712  37.785  32.089  1.00  0.00    -0.744 OA
ENDBRANCH  70  71
ENDBRANCH  49  63
BRANCH  50  75
ATOM     75  C   UNL A   1      42.739  23.777  27.447  1.00  0.00     0.058 A 
ATOM     76  C   UNL A   1      42.632  23.452  26.087  1.00  0.00     0.135 A 
ATOM     77  C   UNL A   1      42.578  22.742  28.381  1.00  0.00     0.135 A 
ATOM     78  F   UNL A   1      42.771  24.409  25.157  1.00  0.00    -0.206 F 
ATOM     79  C   UNL A   1      42.360  22.153  25.667  1.00  0.00     0.059 A 
ATOM     80  C   UNL A   1      42.327  21.432  27.986  1.00  0.00     0.059 A 
ATOM     81  F   UNL A   1      42.688  22.998  29.694  1.00  0.00    -0.206 F 
ATOM     82  C   UNL A   1      42.209  21.149  26.625  1.00  0.00     0.060 A 
BRANCH  82  83
ATOM     83  S   UNL A   1      41.909  19.456  26.072  1.00  0.00     0.124 S 
ATOM     84  O   UNL A   1      40.479  19.490  25.789  1.00  0.00    -0.237 OA
ATOM     85  O   UNL A   1      42.787  19.349  24.910  1.00  0.00    -0.237 OA
ATOM     86  O   UNL A   1      42.308  18.654  27.224  1.00  0.00    -0.744 OA
ENDBRANCH  82  83
ENDBRANCH  50  75
BRANCH  62  87
ATOM     87  C   UNL A   1      48.587  27.511  28.077  1.00  0.00     0.058 A 
ATOM     88  C   UNL A   1      49.349  26.908  29.089  1.00  0.00     0.135 A 
ATOM     89  C   UNL A   1      49.204  27.745  26.838  1.00  0.00     0.135 A 
ATOM     90  F   UNL A   1      48.805  26.675  30.294  1.00  0.00    -0.206 F 
ATOM     91  C   UNL A   1      50.678  26.558  28.884  1.00  0.00     0.059 A 
ATOM     92  C   UNL A   1      50.527  27.382  26.604  1.00  0.00     0.059 A 
ATOM     93  F   UNL A   1      48.516  28.313  25.836  1.00  0.00    -0.206 F 
ATOM     94  C   UNL A   1      51.258  26.796  27.637  1.00  0.00     0.060 A 
BRANCH  94  95
ATOM     95  S   UNL A   1      52.972  26.296  27.365  1.00  0.00     0.124 S 
ATOM     96  O   UNL A   1      53.509  26.342  28.722  1.00  0.00    -0.237 OA
ATOM     97  O   UNL A   1      52.824  24.965  26.788  1.00  0.00    -0.237 OA
ATOM     98  O   UNL A   1      53.482  27.315  26.453  1.00  0.00    -0.744 OA
ENDBRANCH  94  95
ENDBRANCH  62  87
ENDBRANCH  36  37
ENDBRANCH  28  31
ENDBRANCH  26  27
ENDBRANCH   1  26
TORSDOF 16
ENDMDL
MODEL 2
REMARK VINA RESULT:     -12.7      6.622     11.959
REMARK SMILES CC(=O)Nc1cccc(-c2cc(F)ccc2C(=O)NCCCCNC(=O)c2ccc(-c3c4nc(c(-c5c(F)cc(S(=O)(=O)[O-])cc5F)c5ccc([nH]5)c(-c5c(F)cc(S(=O)(=O)[O-])cc5F)c5nc(c(-c6c(F)cc(S(=O)(=O)[O-])cc6F)c6ccc3[nH]6)C=C5)C=C4)cc2)c1
REMARK SMILES IDX 22 1 21 2 20 3 19 4 17 5 18 6 16 8 10 9 11 10 12 11 15 12
REMARK SMILES IDX 13 13 14 14 9 15 5 16 6 17 93 18 7 19 8 20 4 21 1 22 2 23
REMARK SMILES IDX 3 24 23 26 24 27 25 28 26 30 27 31 28 32 92 33 29 34 91 35
REMARK SMILES IDX 30 36 31 37 32 38 85 39 33 40 90 41 84 42 86 43 34 44 89 45
REMARK SMILES IDX 83 46 82 47 35 49 69 50 48 51 68 52 49 53 52 54 67 55 87 56
REMARK SMILES IDX 50 57 51 58 66 60 88 61 53 62 36 63 37 64 46 65 38 66 39 67
REMARK SMILES IDX 45 68 47 69 40 70 41 71 42 72 43 73 44 74 70 75 71 76 80 77
REMARK SMILES IDX 72 78 73 79 79 80 81 81 74 82 75 83 76 84 77 85 78 86 54 87
REMARK SMILES IDX 55 88 64 89 56 90 57 91 63 92 65 93 58 94 59 95 60 96 61 97
REMARK SMILES IDX 62 98
REMARK H PARENT 19 7 4 25 24 29 86 48 52 59
REMARK Flexibility Score: inf
ROOT
ATOM      1  C   UNL A   1      38.906  22.150  26.313  1.00  0.00     0.023 C 
ENDROOT
BRANCH   1   2
ATOM      2  C   UNL A   1      37.513  22.535  25.809  1.00  0.00     0.023 C 
BRANCH   2   3
ATOM      3  C   UNL A   1      36.816  21.585  24.848  1.00  0.00     0.116 C 
BRANCH   3   4
ATOM      4  N   UNL A   1      36.238  22.163  23.663  1.00  0.00    -0.352 N 
ATOM      5  C   UNL A   1      35.028  22.787  23.470  1.00  0.00     0.251 C 
ATOM      6  O   UNL A   1      34.853  23.328  22.374  1.00  0.00    -0.269 OA
ATOM      7  H   UNL A   1      36.802  22.103  22.858  1.00  0.00     0.163 HD
BRANCH   5   8
ATOM      8  C   UNL A   1      33.869  22.795  24.430  1.00  0.00     0.047 A 
ATOM      9  C   UNL A   1      32.971  21.748  24.761  1.00  0.00    -0.003 A 
ATOM     10  C   UNL A   1      32.021  21.985  25.788  1.00  0.00     0.048 A 
ATOM     11  C   UNL A   1      31.956  23.196  26.466  1.00  0.00     0.123 A 
ATOM     12  C   UNL A   1      33.774  24.017  25.149  1.00  0.00     0.017 A 
ATOM     13  F   UNL A   1      31.044  23.365  27.433  1.00  0.00    -0.207 F 
ATOM     14  C   UNL A   1      32.826  24.220  26.154  1.00  0.00     0.040 A 
BRANCH   9  15
ATOM     15  C   UNL A   1      32.914  20.416  24.135  1.00  0.00    -0.015 A 
ATOM     16  C   UNL A   1      33.661  18.102  23.944  1.00  0.00     0.041 A 
ATOM     17  C   UNL A   1      32.921  17.973  22.761  1.00  0.00     0.026 A 
ATOM     18  C   UNL A   1      33.629  19.317  24.642  1.00  0.00     0.034 A 
ATOM     19  C   UNL A   1      32.156  19.030  22.277  1.00  0.00     0.003 A 
ATOM     20  C   UNL A   1      32.151  20.241  22.961  1.00  0.00     0.009 A 
BRANCH  16  21
ATOM     21  N   UNL A   1      34.517  17.032  24.254  1.00  0.00    -0.326 N 
ATOM     22  C   UNL A   1      32.984  15.422  25.376  1.00  0.00     0.114 C 
ATOM     23  C   UNL A   1      34.357  15.917  25.020  1.00  0.00     0.221 C 
ATOM     24  O   UNL A   1      35.359  15.293  25.375  1.00  0.00    -0.275 OA
ATOM     25  H   UNL A   1      35.405  17.101  23.836  1.00  0.00     0.169 HD
ENDBRANCH  16  21
ENDBRANCH   9  15
ENDBRANCH   5   8
ENDBRANCH   3   4
ENDBRANCH   2   3
ENDBRANCH   1   2
BRANCH   1  26
ATOM     26  C   UNL A   1      39.821  23.241  26.872  1.00  0.00     0.116 C 
BRANCH  26  27
ATOM     27  N   UNL A   1      40.231  24.273  25.928  1.00  0.00    -0.352 N 
ATOM     28  C   UNL A   1      40.829  25.495  26.168  1.00  0.00     0.251 C 
ATOM     29  H   UNL A   1      40.058  24.069  24.981  1.00  0.00     0.163 HD
ATOM     30  O   UNL A   1      41.265  26.158  25.235  1.00  0.00    -0.269 OA
BRANCH  28  31
ATOM     31  C   UNL A   1      40.866  26.026  27.549  1.00  0.00     0.039 A 
ATOM     32  C   UNL A   1      42.087  26.490  28.048  1.00  0.00     0.014 A 
ATOM     33  C   UNL A   1      39.693  26.190  28.286  1.00  0.00     0.014 A 
ATOM     34  C   UNL A   1      42.106  27.264  29.212  1.00  0.00     0.010 A 
ATOM     35  C   UNL A   1      39.705  27.018  29.407  1.00  0.00     0.010 A 
ATOM     36  C   UNL A   1      40.902  27.609  29.846  1.00  0.00    -0.014 A 
BRANCH  36  37
ATOM     37  C   UNL A   1      40.847  28.687  30.871  1.00  0.00     0.031 A 
ATOM     38  C   UNL A   1      41.675  28.602  32.119  1.00  0.00     0.074 A 
ATOM     39  C   UNL A   1      39.940  29.678  30.729  1.00  0.00     0.049 A 
ATOM     40  N   UNL A   1      41.634  29.355  33.188  1.00  0.00    -0.248 NA
ATOM     41  C   UNL A   1      42.660  27.511  32.188  1.00  0.00     0.031 C 
ATOM     42  C   UNL A   1      39.028  29.838  29.591  1.00  0.00     0.029 A 
ATOM     43  N   UNL A   1      39.607  30.720  31.561  1.00  0.00    -0.354 N 
ATOM     44  C   UNL A   1      42.563  28.815  34.069  1.00  0.00     0.074 A 
ATOM     45  C   UNL A   1      43.136  27.655  33.417  1.00  0.00     0.031 C 
ATOM     46  C   UNL A   1      38.247  30.910  29.795  1.00  0.00     0.029 A 
ATOM     47  C   UNL A   1      38.566  31.490  31.095  1.00  0.00     0.049 A 
ATOM     48  H   UNL A   1      40.071  30.900  32.410  1.00  0.00     0.167 HD
ATOM     49  C   UNL A   1      42.912  29.252  35.303  1.00  0.00     0.037 A 
ATOM     50  C   UNL A   1      37.919  32.530  31.657  1.00  0.00     0.037 A 
ATOM     51  C   UNL A   1      42.362  30.424  35.934  1.00  0.00     0.049 A 
ATOM     52  C   UNL A   1      38.339  33.007  33.018  1.00  0.00     0.074 A 
ATOM     53  C   UNL A   1      42.714  30.994  37.146  1.00  0.00     0.029 A 
ATOM     54  N   UNL A   1      41.343  31.204  35.408  1.00  0.00    -0.354 N 
ATOM     55  N   UNL A   1      39.271  32.525  33.805  1.00  0.00    -0.248 NA
ATOM     56  C   UNL A   1      37.622  34.165  33.571  1.00  0.00     0.031 C 
ATOM     57  C   UNL A   1      41.884  32.099  37.368  1.00  0.00     0.029 A 
ATOM     58  C   UNL A   1      41.039  32.237  36.279  1.00  0.00     0.049 A 
ATOM     59  H   UNL A   1      40.900  31.046  34.543  1.00  0.00     0.167 HD
ATOM     60  C   UNL A   1      39.260  33.328  34.940  1.00  0.00     0.074 A 
ATOM     61  C   UNL A   1      38.241  34.337  34.731  1.00  0.00     0.031 C 
ATOM     62  C   UNL A   1      40.023  33.234  36.056  1.00  0.00     0.037 A 
BRANCH  49  63
ATOM     63  C   UNL A   1      43.942  28.460  36.057  1.00  0.00     0.058 A 
ATOM     64  C   UNL A   1      45.307  28.778  35.986  1.00  0.00     0.135 A 
ATOM     65  C   UNL A   1      43.558  27.398  36.890  1.00  0.00     0.135 A 
ATOM     66  F   UNL A   1      45.729  29.777  35.194  1.00  0.00    -0.206 F 
ATOM     67  C   UNL A   1      46.259  28.055  36.698  1.00  0.00     0.059 A 
ATOM     68  C   UNL A   1      44.490  26.675  37.629  1.00  0.00     0.059 A 
ATOM     69  F   UNL A   1      42.264  27.053  36.993  1.00  0.00    -0.206 F 
ATOM     70  C   UNL A   1      45.841  27.004  37.515  1.00  0.00     0.060 A 
BRANCH  70  71
ATOM     71  S   UNL A   1      47.086  26.082  38.442  1.00  0.00     0.124 S 
ATOM     72  O   UNL A   1      46.548  24.726  38.379  1.00  0.00    -0.237 OA
ATOM     73  O   UNL A   1      48.297  26.317  37.662  1.00  0.00    -0.237 OA
ATOM     74  O   UNL A   1      47.061  26.706  39.760  1.00  0.00    -0.744 OA
ENDBRANCH  70  71
ENDBRANCH  49  63
BRANCH  50  75
ATOM     75  C   UNL A   1      36.798  33.188  30.935  1.00  0.00     0.058 A 
ATOM     76  C   UNL A   1      35.465  32.928  31.287  1.00  0.00     0.135 A 
ATOM     77  C   UNL A   1      37.034  34.091  29.888  1.00  0.00     0.135 A 
ATOM     78  F   UNL A   1      35.189  32.066  32.276  1.00  0.00    -0.206 F 
ATOM     79  C   UNL A   1      34.404  33.530  30.616  1.00  0.00     0.059 A 
ATOM     80  C   UNL A   1      35.991  34.722  29.216  1.00  0.00     0.059 A 
ATOM     81  F   UNL A   1      38.292  34.386  29.524  1.00  0.00    -0.206 F 
ATOM     82  C   UNL A   1      34.678  34.426  29.581  1.00  0.00     0.060 A 
BRANCH  82  83
ATOM     83  S   UNL A   1      33.298  35.243  28.750  1.00  0.00     0.124 S 
ATOM     84  O   UNL A   1      32.526  35.739  29.883  1.00  0.00    -0.237 OA
ATOM     85  O   UNL A   1      33.976  36.256  27.946  1.00  0.00    -0.237 OA
ATOM     86  O   UNL A   1      32.681  34.161  27.988  1.00  0.00    -0.744 OA
ENDBRANCH  82  83
ENDBRANCH  50  75
BRANCH  62  87
ATOM     87  C   UNL A   1      39.797  34.257  37.132  1.00  0.00     0.058 A 
ATOM     88  C   UNL A   1      38.984  33.984  38.242  1.00  0.00     0.135 A 
ATOM     89  C   UNL A   1      40.443  35.503  37.079  1.00  0.00     0.135 A 
ATOM     90  F   UNL A   1      38.337  32.811  38.332  1.00  0.00    -0.206 F 
ATOM     91  C   UNL A   1      38.808  34.915  39.259  1.00  0.00     0.059 A 
ATOM     92  C   UNL A   1      40.298  36.441  38.096  1.00  0.00     0.059 A 
ATOM     93  F   UNL A   1      41.236  35.809  36.041  1.00  0.00    -0.206 F 
ATOM     94  C   UNL A   1      39.472  36.141  39.179  1.00  0.00     0.060 A 
BRANCH  94  95
ATOM     95  S   UNL A   1      39.275  37.326  40.526  1.00  0.00     0.124 S 
ATOM     96  O   UNL A   1      38.903  36.452  41.634  1.00  0.00    -0.237 OA
ATOM     97  O   UNL A   1      40.600  37.929  40.613  1.00  0.00    -0.237 OA
ATOM     98  O   UNL A   1      38.220  38.214  40.045  1.00  0.00    -0.744 OA
ENDBRANCH  94  95
ENDBRANCH  62  87
ENDBRANCH  36  37
ENDBRANCH  28  31
ENDBRANCH  26  27
ENDBRANCH   1  26
TORSDOF 16
ENDMDL
MODEL 3
REMARK VINA RESULT:     -12.6      2.226      4.460
REMARK SMILES CC(=O)Nc1cccc(-c2cc(F)ccc2C(=O)NCCCCNC(=O)c2ccc(-c3c4nc(c(-c5c(F)cc(S(=O)(=O)[O-])cc5F)c5ccc([nH]5)c(-c5c(F)cc(S(=O)(=O)[O-])cc5F)c5nc(c(-c6c(F)cc(S(=O)(=O)[O-])cc6F)c6ccc3[nH]6)C=C5)C=C4)cc2)c1
REMARK SMILES IDX 22 1 21 2 20 3 19 4 17 5 18 6 16 8 10 9 11 10 12 11 15 12
REMARK SMILES IDX 13 13 14 14 9 15 5 16 6 17 93 18 7 19 8 20 4 21 1 22 2 23
REMARK SMILES IDX 3 24 23 26 24 27 25 28 26 30 27 31 28 32 92 33 29 34 91 35
REMARK SMILES IDX 30 36 31 37 32 38 85 39 33 40 90 41 84 42 86 43 34 44 89 45
REMARK SMILES IDX 83 46 82 47 35 49 69 50 48 51 68 52 49 53 52 54 67 55 87 56
REMARK SMILES IDX 50 57 51 58 66 60 88 61 53 62 36 63 37 64 46 65 38 66 39 67
REMARK SMILES IDX 45 68 47 69 40 70 41 71 42 72 43 73 44 74 70 75 71 76 80 77
REMARK SMILES IDX 72 78 73 79 79 80 81 81 74 82 75 83 76 84 77 85 78 86 54 87
REMARK SMILES IDX 55 88 64 89 56 90 57 91 63 92 65 93 58 94 59 95 60 96 61 97
REMARK SMILES IDX 62 98
REMARK H PARENT 19 7 4 25 24 29 86 48 52 59
REMARK Flexibility Score: inf
ROOT
ATOM      1  C   UNL A   1      31.989  28.788  27.267  1.00  0.00     0.023 C 
ENDROOT
BRANCH   1   2
ATOM      2  C   UNL A   1      31.664  27.644  26.304  1.00  0.00     0.023 C 
BRANCH   2   3
ATOM      3  C   UNL A   1      32.277  26.281  26.586  1.00  0.00     0.116 C 
BRANCH   3   4
ATOM      4  N   UNL A   1      31.438  25.131  26.368  1.00  0.00    -0.352 N 
ATOM      5  C   UNL A   1      31.332  24.294  25.283  1.00  0.00     0.251 C 
ATOM      6  O   UNL A   1      30.633  23.286  25.428  1.00  0.00    -0.269 OA
ATOM      7  H   UNL A   1      30.842  24.908  27.120  1.00  0.00     0.163 HD
BRANCH   5   8
ATOM      8  C   UNL A   1      31.911  24.533  23.915  1.00  0.00     0.047 A 
ATOM      9  C   UNL A   1      32.920  23.810  23.229  1.00  0.00    -0.003 A 
ATOM     10  C   UNL A   1      33.211  24.180  21.889  1.00  0.00     0.048 A 
ATOM     11  C   UNL A   1      32.539  25.213  21.248  1.00  0.00     0.123 A 
ATOM     12  C   UNL A   1      31.242  25.579  23.223  1.00  0.00     0.017 A 
ATOM     13  F   UNL A   1      32.847  25.516  19.980  1.00  0.00    -0.207 F 
ATOM     14  C   UNL A   1      31.553  25.919  21.905  1.00  0.00     0.040 A 
BRANCH   9  15
ATOM     15  C   UNL A   1      33.719  22.698  23.770  1.00  0.00    -0.015 A 
ATOM     16  C   UNL A   1      33.913  20.463  24.728  1.00  0.00     0.041 A 
ATOM     17  C   UNL A   1      35.266  20.709  24.998  1.00  0.00     0.026 A 
ATOM     18  C   UNL A   1      33.153  21.451  24.087  1.00  0.00     0.034 A 
ATOM     19  C   UNL A   1      35.861  21.913  24.635  1.00  0.00     0.003 A 
ATOM     20  C   UNL A   1      35.093  22.899  24.024  1.00  0.00     0.009 A 
BRANCH  16  21
ATOM     21  N   UNL A   1      33.381  19.284  25.276  1.00  0.00    -0.326 N 
ATOM     22  C   UNL A   1      32.812  17.955  23.249  1.00  0.00     0.114 C 
ATOM     23  C   UNL A   1      32.724  18.226  24.724  1.00  0.00     0.221 C 
ATOM     24  O   UNL A   1      32.094  17.467  25.464  1.00  0.00    -0.275 OA
ATOM     25  H   UNL A   1      33.508  19.207  26.249  1.00  0.00     0.169 HD
ENDBRANCH  16  21
ENDBRANCH   9  15
ENDBRANCH   5   8
ENDBRANCH   3   4
ENDBRANCH   2   3
ENDBRANCH   1   2
BRANCH   1  26
ATOM     26  C   UNL A   1      33.345  29.490  27.156  1.00  0.00     0.116 C 
BRANCH  26  27
ATOM     27  N   UNL A   1      33.523  30.665  27.999  1.00  0.00    -0.352 N 
ATOM     28  C   UNL A   1      34.668  31.144  28.606  1.00  0.00     0.251 C 
ATOM     29  H   UNL A   1      32.710  31.195  28.159  1.00  0.00     0.163 HD
ATOM     30  O   UNL A   1      34.665  32.249  29.136  1.00  0.00    -0.269 OA
BRANCH  28  31
ATOM     31  C   UNL A   1      35.867  30.280  28.676  1.00  0.00     0.039 A 
ATOM     32  C   UNL A   1      36.681  30.180  27.542  1.00  0.00     0.014 A 
ATOM     33  C   UNL A   1      36.257  29.691  29.879  1.00  0.00     0.014 A 
ATOM     34  C   UNL A   1      37.960  29.630  27.658  1.00  0.00     0.010 A 
ATOM     35  C   UNL A   1      37.558  29.206  30.008  1.00  0.00     0.010 A 
ATOM     36  C   UNL A   1      38.439  29.224  28.914  1.00  0.00    -0.014 A 
BRANCH  36  37
ATOM     37  C   UNL A   1      39.885  28.951  29.141  1.00  0.00     0.031 A 
ATOM     38  C   UNL A   1      40.814  30.049  29.571  1.00  0.00     0.074 A 
ATOM     39  C   UNL A   1      40.378  27.735  28.824  1.00  0.00     0.049 A 
ATOM     40  N   UNL A   1      42.120  30.036  29.656  1.00  0.00    -0.248 NA
ATOM     41  C   UNL A   1      40.199  31.338  29.925  1.00  0.00     0.031 C 
ATOM     42  C   UNL A   1      39.588  26.600  28.333  1.00  0.00     0.029 A 
ATOM     43  N   UNL A   1      41.666  27.254  28.833  1.00  0.00    -0.354 N 
ATOM     44  C   UNL A   1      42.487  31.319  30.044  1.00  0.00     0.074 A 
ATOM     45  C   UNL A   1      41.266  32.091  30.155  1.00  0.00     0.031 C 
ATOM     46  C   UNL A   1      40.404  25.562  28.092  1.00  0.00     0.029 A 
ATOM     47  C   UNL A   1      41.779  25.965  28.366  1.00  0.00     0.049 A 
ATOM     48  H   UNL A   1      42.435  27.784  29.146  1.00  0.00     0.167 HD
ATOM     49  C   UNL A   1      43.727  31.804  30.293  1.00  0.00     0.037 A 
ATOM     50  C   UNL A   1      42.866  25.197  28.155  1.00  0.00     0.037 A 
ATOM     51  C   UNL A   1      44.936  31.024  30.211  1.00  0.00     0.049 A 
ATOM     52  C   UNL A   1      44.229  25.753  28.459  1.00  0.00     0.074 A 
ATOM     53  C   UNL A   1      46.228  31.406  30.528  1.00  0.00     0.029 A 
ATOM     54  N   UNL A   1      45.002  29.708  29.781  1.00  0.00    -0.354 N 
ATOM     55  N   UNL A   1      44.549  26.948  28.894  1.00  0.00    -0.248 NA
ATOM     56  C   UNL A   1      45.377  24.863  28.241  1.00  0.00     0.031 C 
ATOM     57  C   UNL A   1      47.081  30.330  30.256  1.00  0.00     0.029 A 
ATOM     58  C   UNL A   1      46.315  29.268  29.803  1.00  0.00     0.049 A 
ATOM     59  H   UNL A   1      44.230  29.166  29.500  1.00  0.00     0.167 HD
ATOM     60  C   UNL A   1      45.934  26.948  29.014  1.00  0.00     0.074 A 
ATOM     61  C   UNL A   1      46.389  25.630  28.622  1.00  0.00     0.031 C 
ATOM     62  C   UNL A   1      46.753  27.953  29.410  1.00  0.00     0.037 A 
BRANCH  49  63
ATOM     63  C   UNL A   1      43.843  33.251  30.682  1.00  0.00     0.058 A 
ATOM     64  C   UNL A   1      43.945  33.643  32.025  1.00  0.00     0.135 A 
ATOM     65  C   UNL A   1      43.894  34.253  29.700  1.00  0.00     0.135 A 
ATOM     66  F   UNL A   1      43.890  32.725  33.004  1.00  0.00    -0.206 F 
ATOM     67  C   UNL A   1      44.071  34.981  32.384  1.00  0.00     0.059 A 
ATOM     68  C   UNL A   1      44.041  35.596  30.034  1.00  0.00     0.059 A 
ATOM     69  F   UNL A   1      43.800  33.931  28.400  1.00  0.00    -0.206 F 
ATOM     70  C   UNL A   1      44.115  35.951  31.382  1.00  0.00     0.060 A 
BRANCH  70  71
ATOM     71  S   UNL A   1      44.289  37.682  31.861  1.00  0.00     0.124 S 
ATOM     72  O   UNL A   1      45.711  37.753  32.181  1.00  0.00    -0.237 OA
ATOM     73  O   UNL A   1      43.879  38.386  30.650  1.00  0.00    -0.237 OA
ATOM     74  O   UNL A   1      43.382  37.814  32.997  1.00  0.00    -0.744 OA
ENDBRANCH  70  71
ENDBRANCH  49  63
BRANCH  50  75
ATOM     75  C   UNL A   1      42.712  23.818  27.621  1.00  0.00     0.058 A 
ATOM     76  C   UNL A   1      42.539  22.727  28.484  1.00  0.00     0.135 A 
ATOM     77  C   UNL A   1      42.726  23.565  26.241  1.00  0.00     0.135 A 
ATOM     78  F   UNL A   1      42.526  22.918  29.812  1.00  0.00    -0.206 F 
ATOM     79  C   UNL A   1      42.400  21.429  28.000  1.00  0.00     0.059 A 
ATOM     80  C   UNL A   1      42.568  22.280  25.731  1.00  0.00     0.059 A 
ATOM     81  F   UNL A   1      42.872  24.578  25.372  1.00  0.00    -0.206 F 
ATOM     82  C   UNL A   1      42.416  21.216  26.620  1.00  0.00     0.060 A 
BRANCH  82  83
ATOM     83  S   UNL A   1      42.184  19.537  25.996  1.00  0.00     0.124 S 
ATOM     84  O   UNL A   1      42.639  18.738  27.128  1.00  0.00    -0.237 OA
ATOM     85  O   UNL A   1      40.749  19.502  25.726  1.00  0.00    -0.237 OA
ATOM     86  O   UNL A   1      43.036  19.501  24.812  1.00  0.00    -0.744 OA
ENDBRANCH  82  83
ENDBRANCH  50  75
BRANCH  62  87
ATOM     87  C   UNL A   1      48.226  27.662  29.454  1.00  0.00     0.058 A 
ATOM     88  C   UNL A   1      48.818  27.053  30.570  1.00  0.00     0.135 A 
ATOM     89  C   UNL A   1      49.042  27.947  28.347  1.00  0.00     0.135 A 
ATOM     90  F   UNL A   1      48.080  26.772  31.655  1.00  0.00    -0.206 F 
ATOM     91  C   UNL A   1      50.174  26.745  30.594  1.00  0.00     0.059 A 
ATOM     92  C   UNL A   1      50.396  27.628  28.342  1.00  0.00     0.059 A 
ATOM     93  F   UNL A   1      48.521  28.524  27.253  1.00  0.00    -0.206 F 
ATOM     94  C   UNL A   1      50.955  27.034  29.473  1.00  0.00     0.060 A 
BRANCH  94  95
ATOM     95  S   UNL A   1      52.705  26.590  29.496  1.00  0.00     0.124 S 
ATOM     96  O   UNL A   1      52.849  25.905  28.215  1.00  0.00    -0.237 OA
ATOM     97  O   UNL A   1      53.359  27.889  29.596  1.00  0.00    -0.237 OA
ATOM     98  O   UNL A   1      52.824  25.742  30.679  1.00  0.00    -0.744 OA
ENDBRANCH  94  95
ENDBRANCH  62  87
ENDBRANCH  36  37
ENDBRANCH  28  31
ENDBRANCH  26  27
ENDBRANCH   1  26
TORSDOF 16
ENDMDL
