MODEL 1
REMARK VINA RESULT:     -11.1      0.000      0.000
REMARK SMILES CC(C)[C@H](Sc1ccncc1)C(=O)NCCCCNC(=O)c1ccc(-c2c3nc(c(-c4c(F)cc(S(=O)(=O)[O-])cc4F)c4ccc([nH]4)c(-c4c(F)cc(S(=O)(=O)[O-])cc4F)c4nc(c(-c5c(F)cc(S(=O)(=O)[O-])cc5F)c5ccc2[nH]5)C=C4)C=C3)cc1
REMARK SMILES IDX 17 1 16 2 15 3 14 4 12 5 13 6 4 8 2 9 1 10 3 11 5 12 6 13
REMARK SMILES IDX 7 14 11 15 8 16 10 17 9 18 18 19 19 20 20 21 21 23 22 24
REMARK SMILES IDX 23 25 87 26 24 27 86 28 25 29 26 30 27 31 80 32 28 33 85 34
REMARK SMILES IDX 79 35 81 36 29 37 84 38 78 39 77 40 30 42 64 43 43 44 63 45
REMARK SMILES IDX 44 46 47 47 62 48 82 49 45 50 46 51 61 53 83 54 48 55 31 56
REMARK SMILES IDX 32 57 41 58 33 59 34 60 40 61 42 62 35 63 36 64 37 65 38 66
REMARK SMILES IDX 39 67 65 68 66 69 75 70 67 71 68 72 74 73 76 74 69 75 70 76
REMARK SMILES IDX 71 77 72 78 73 79 49 80 50 81 59 82 51 83 52 84 58 85 60 86
REMARK SMILES IDX 53 87 54 88 55 89 56 90 57 91
REMARK H PARENT 14 7 19 22 81 41 47 52
REMARK Flexibility Score: inf
ROOT
ATOM      1  C   UNL A   1      39.459  22.286  26.777  1.00  0.00     0.023 C 
ENDROOT
BRANCH   1   2
ATOM      2  C   UNL A   1      38.360  22.954  25.955  1.00  0.00     0.023 C 
BRANCH   2   3
ATOM      3  C   UNL A   1      37.267  22.010  25.466  1.00  0.00     0.116 C 
BRANCH   3   4
ATOM      4  N   UNL A   1      36.273  21.728  26.488  1.00  0.00    -0.355 N 
ATOM      5  C   UNL A   1      34.907  21.778  26.422  1.00  0.00     0.233 C 
ATOM      6  O   UNL A   1      34.267  21.483  27.437  1.00  0.00    -0.274 OA
ATOM      7  H   UNL A   1      36.639  21.459  27.362  1.00  0.00     0.163 HD
BRANCH   5   8
ATOM      8  C   UNL A   1      34.172  22.150  25.110  1.00  0.00     0.143 C 
BRANCH   8   9
ATOM      9  C   UNL A   1      34.263  23.683  24.828  1.00  0.00     0.006 C 
ATOM     10  C   UNL A   1      34.779  23.964  23.401  1.00  0.00     0.009 C 
ATOM     11  C   UNL A   1      32.931  24.418  24.979  1.00  0.00     0.009 C 
ENDBRANCH   8   9
BRANCH   8  12
ATOM     12  S   UNL A   1      32.499  21.326  25.283  1.00  0.00    -0.112 SA
BRANCH  12  13
ATOM     13  C   UNL A   1      32.651  19.643  24.761  1.00  0.00     0.011 A 
ATOM     14  C   UNL A   1      32.891  18.563  25.599  1.00  0.00     0.035 A 
ATOM     15  C   UNL A   1      32.449  19.402  23.400  1.00  0.00     0.035 A 
ATOM     16  C   UNL A   1      33.011  17.305  25.028  1.00  0.00     0.112 A 
ATOM     17  C   UNL A   1      32.560  18.107  22.926  1.00  0.00     0.112 A 
ATOM     18  N   UNL A   1      32.857  17.053  23.710  1.00  0.00    -0.265 NA
ENDBRANCH  12  13
ENDBRANCH   8  12
ENDBRANCH   5   8
ENDBRANCH   3   4
ENDBRANCH   2   3
ENDBRANCH   1   2
BRANCH   1  19
ATOM     19  C   UNL A   1      40.635  23.186  27.142  1.00  0.00     0.116 C 
BRANCH  19  20
ATOM     20  N   UNL A   1      41.010  24.098  26.071  1.00  0.00    -0.352 N 
ATOM     21  C   UNL A   1      41.126  25.464  26.087  1.00  0.00     0.251 C 
ATOM     22  H   UNL A   1      41.210  23.669  25.207  1.00  0.00     0.163 HD
ATOM     23  O   UNL A   1      41.324  26.066  25.033  1.00  0.00    -0.269 OA
BRANCH  21  24
ATOM     24  C   UNL A   1      40.982  26.214  27.354  1.00  0.00     0.039 A 
ATOM     25  C   UNL A   1      42.000  27.091  27.731  1.00  0.00     0.014 A 
ATOM     26  C   UNL A   1      39.855  26.060  28.167  1.00  0.00     0.014 A 
ATOM     27  C   UNL A   1      41.857  27.860  28.888  1.00  0.00     0.010 A 
ATOM     28  C   UNL A   1      39.674  26.891  29.272  1.00  0.00     0.010 A 
ATOM     29  C   UNL A   1      40.676  27.796  29.649  1.00  0.00    -0.014 A 
BRANCH  29  30
ATOM     30  C   UNL A   1      40.485  28.697  30.815  1.00  0.00     0.031 A 
ATOM     31  C   UNL A   1      41.329  28.550  32.053  1.00  0.00     0.074 A 
ATOM     32  C   UNL A   1      39.522  29.640  30.765  1.00  0.00     0.049 A 
ATOM     33  N   UNL A   1      41.337  29.285  33.136  1.00  0.00    -0.248 NA
ATOM     34  C   UNL A   1      42.268  27.418  32.093  1.00  0.00     0.031 C 
ATOM     35  C   UNL A   1      38.584  29.829  29.656  1.00  0.00     0.029 A 
ATOM     36  N   UNL A   1      39.176  30.620  31.661  1.00  0.00    -0.354 N 
ATOM     37  C   UNL A   1      42.273  28.705  33.984  1.00  0.00     0.074 A 
ATOM     38  C   UNL A   1      42.768  27.521  33.316  1.00  0.00     0.031 C 
ATOM     39  C   UNL A   1      37.800  30.887  29.917  1.00  0.00     0.029 A 
ATOM     40  C   UNL A   1      38.156  31.432  31.222  1.00  0.00     0.049 A 
ATOM     41  H   UNL A   1      39.615  30.732  32.534  1.00  0.00     0.167 HD
ATOM     42  C   UNL A   1      42.699  29.132  35.198  1.00  0.00     0.037 A 
ATOM     43  C   UNL A   1      37.577  32.503  31.800  1.00  0.00     0.037 A 
ATOM     44  C   UNL A   1      42.209  30.321  35.850  1.00  0.00     0.049 A 
ATOM     45  C   UNL A   1      38.092  32.981  33.130  1.00  0.00     0.074 A 
ATOM     46  C   UNL A   1      42.622  30.877  37.049  1.00  0.00     0.029 A 
ATOM     47  N   UNL A   1      41.193  31.132  35.365  1.00  0.00    -0.354 N 
ATOM     48  N   UNL A   1      39.043  32.471  33.878  1.00  0.00    -0.248 NA
ATOM     49  C   UNL A   1      37.471  34.190  33.684  1.00  0.00     0.031 C 
ATOM     50  C   UNL A   1      41.821  31.993  37.314  1.00  0.00     0.029 A 
ATOM     51  C   UNL A   1      40.949  32.171  36.251  1.00  0.00     0.049 A 
ATOM     52  H   UNL A   1      40.715  30.990  34.516  1.00  0.00     0.167 HD
ATOM     53  C   UNL A   1      39.150  33.312  34.980  1.00  0.00     0.074 A 
ATOM     54  C   UNL A   1      38.182  34.374  34.788  1.00  0.00     0.031 C 
ATOM     55  C   UNL A   1      39.976  33.216  36.053  1.00  0.00     0.037 A 
BRANCH  42  56
ATOM     56  C   UNL A   1      43.749  28.312  35.900  1.00  0.00     0.058 A 
ATOM     57  C   UNL A   1      45.121  28.584  35.757  1.00  0.00     0.135 A 
ATOM     58  C   UNL A   1      43.380  27.260  36.755  1.00  0.00     0.135 A 
ATOM     59  F   UNL A   1      45.534  29.567  34.942  1.00  0.00    -0.206 F 
ATOM     60  C   UNL A   1      46.087  27.824  36.409  1.00  0.00     0.059 A 
ATOM     61  C   UNL A   1      44.329  26.507  37.443  1.00  0.00     0.059 A 
ATOM     62  F   UNL A   1      42.085  26.954  36.932  1.00  0.00    -0.206 F 
ATOM     63  C   UNL A   1      45.681  26.787  37.251  1.00  0.00     0.060 A 
BRANCH  63  64
ATOM     64  S   UNL A   1      46.947  25.813  38.092  1.00  0.00     0.124 S 
ATOM     65  O   UNL A   1      46.345  25.627  39.408  1.00  0.00    -0.237 OA
ATOM     66  O   UNL A   1      47.027  24.619  37.255  1.00  0.00    -0.237 OA
ATOM     67  O   UNL A   1      48.122  26.679  38.056  1.00  0.00    -0.744 OA
ENDBRANCH  63  64
ENDBRANCH  42  56
BRANCH  43  68
ATOM     68  C   UNL A   1      36.474  33.214  31.100  1.00  0.00     0.058 A 
ATOM     69  C   UNL A   1      35.150  33.133  31.558  1.00  0.00     0.135 A 
ATOM     70  C   UNL A   1      36.726  34.013  29.974  1.00  0.00     0.135 A 
ATOM     71  F   UNL A   1      34.857  32.379  32.629  1.00  0.00    -0.206 F 
ATOM     72  C   UNL A   1      34.114  33.803  30.918  1.00  0.00     0.059 A 
ATOM     73  C   UNL A   1      35.712  34.716  29.333  1.00  0.00     0.059 A 
ATOM     74  F   UNL A   1      37.979  34.141  29.508  1.00  0.00    -0.206 F 
ATOM     75  C   UNL A   1      34.407  34.597  29.807  1.00  0.00     0.060 A 
BRANCH  75  76
ATOM     76  S   UNL A   1      33.064  35.513  29.019  1.00  0.00     0.124 S 
ATOM     77  O   UNL A   1      32.538  34.520  28.089  1.00  0.00    -0.237 OA
ATOM     78  O   UNL A   1      32.210  35.843  30.154  1.00  0.00    -0.237 OA
ATOM     79  O   UNL A   1      33.748  36.648  28.407  1.00  0.00    -0.744 OA
ENDBRANCH  75  76
ENDBRANCH  43  68
BRANCH  55  80
ATOM     80  C   UNL A   1      39.889  34.311  37.084  1.00  0.00     0.058 A 
ATOM     81  C   UNL A   1      39.099  34.184  38.237  1.00  0.00     0.135 A 
ATOM     82  C   UNL A   1      40.613  35.503  36.916  1.00  0.00     0.135 A 
ATOM     83  F   UNL A   1      38.386  33.066  38.449  1.00  0.00    -0.206 F 
ATOM     84  C   UNL A   1      38.986  35.220  39.159  1.00  0.00     0.059 A 
ATOM     85  C   UNL A   1      40.541  36.538  37.842  1.00  0.00     0.059 A 
ATOM     86  F   UNL A   1      41.399  35.672  35.840  1.00  0.00    -0.206 F 
ATOM     87  C   UNL A   1      39.706  36.397  38.948  1.00  0.00     0.060 A 
BRANCH  87  88
ATOM     88  S   UNL A   1      39.537  37.743  40.139  1.00  0.00     0.124 S 
ATOM     89  O   UNL A   1      38.477  38.541  39.531  1.00  0.00    -0.237 OA
ATOM     90  O   UNL A   1      39.176  37.034  41.363  1.00  0.00    -0.237 OA
ATOM     91  O   UNL A   1      40.861  38.359  40.145  1.00  0.00    -0.744 OA
ENDBRANCH  87  88
ENDBRANCH  55  80
ENDBRANCH  29  30
ENDBRANCH  21  24
ENDBRANCH  19  20
ENDBRANCH   1  19
TORSDOF 17
ENDMDL
MODEL 2
REMARK VINA RESULT:     -11.0      3.384      9.510
REMARK SMILES CC(C)[C@H](Sc1ccncc1)C(=O)NCCCCNC(=O)c1ccc(-c2c3nc(c(-c4c(F)cc(S(=O)(=O)[O-])cc4F)c4ccc([nH]4)c(-c4c(F)cc(S(=O)(=O)[O-])cc4F)c4nc(c(-c5c(F)cc(S(=O)(=O)[O-])cc5F)c5ccc2[nH]5)C=C4)C=C3)cc1
REMARK SMILES IDX 17 1 16 2 15 3 14 4 12 5 13 6 4 8 2 9 1 10 3 11 5 12 6 13
REMARK SMILES IDX 7 14 11 15 8 16 10 17 9 18 18 19 19 20 20 21 21 23 22 24
REMARK SMILES IDX 23 25 87 26 24 27 86 28 25 29 26 30 27 31 80 32 28 33 85 34
REMARK SMILES IDX 79 35 81 36 29 37 84 38 78 39 77 40 30 42 64 43 43 44 63 45
REMARK SMILES IDX 44 46 47 47 62 48 82 49 45 50 46 51 61 53 83 54 48 55 31 56
REMARK SMILES IDX 32 57 41 58 33 59 34 60 40 61 42 62 35 63 36 64 37 65 38 66
REMARK SMILES IDX 39 67 65 68 66 69 75 70 67 71 68 72 74 73 76 74 69 75 70 76
REMARK SMILES IDX 71 77 72 78 73 79 49 80 50 81 59 82 51 83 52 84 58 85 60 86
REMARK SMILES IDX 53 87 54 88 55 89 56 90 57 91
REMARK H PARENT 14 7 19 22 81 41 47 52
REMARK Flexibility Score: inf
ROOT
ATOM      1  C   UNL A   1      33.390  27.543  26.536  1.00  0.00     0.023 C 
ENDROOT
BRANCH   1   2
ATOM      2  C   UNL A   1      31.870  27.673  26.584  1.00  0.00     0.023 C 
BRANCH   2   3
ATOM      3  C   UNL A   1      31.116  26.661  25.728  1.00  0.00     0.116 C 
BRANCH   3   4
ATOM      4  N   UNL A   1      30.572  25.563  26.509  1.00  0.00    -0.355 N 
ATOM      5  C   UNL A   1      30.895  24.232  26.497  1.00  0.00     0.233 C 
ATOM      6  O   UNL A   1      30.289  23.483  27.269  1.00  0.00    -0.274 OA
ATOM      7  H   UNL A   1      29.864  25.814  27.145  1.00  0.00     0.163 HD
BRANCH   5   8
ATOM      8  C   UNL A   1      32.011  23.677  25.578  1.00  0.00     0.143 C 
BRANCH   8   9
ATOM      9  C   UNL A   1      31.409  22.942  24.339  1.00  0.00     0.006 C 
ATOM     10  C   UNL A   1      30.663  23.923  23.410  1.00  0.00     0.009 C 
ATOM     11  C   UNL A   1      32.450  22.216  23.486  1.00  0.00     0.009 C 
ENDBRANCH   8   9
BRANCH   8  12
ATOM     12  S   UNL A   1      33.145  22.760  26.753  1.00  0.00    -0.112 SA
BRANCH  12  13
ATOM     13  C   UNL A   1      34.774  22.755  26.065  1.00  0.00     0.011 A 
ATOM     14  C   UNL A   1      35.501  23.886  25.721  1.00  0.00     0.035 A 
ATOM     15  C   UNL A   1      35.377  21.502  25.924  1.00  0.00     0.035 A 
ATOM     16  C   UNL A   1      36.759  23.711  25.164  1.00  0.00     0.112 A 
ATOM     17  C   UNL A   1      36.649  21.430  25.385  1.00  0.00     0.112 A 
ATOM     18  N   UNL A   1      37.348  22.509  24.983  1.00  0.00    -0.265 NA
ENDBRANCH  12  13
ENDBRANCH   8  12
ENDBRANCH   5   8
ENDBRANCH   3   4
ENDBRANCH   2   3
ENDBRANCH   1   2
BRANCH   1  19
ATOM     19  C   UNL A   1      34.113  28.649  25.775  1.00  0.00     0.116 C 
BRANCH  19  20
ATOM     20  N   UNL A   1      33.794  29.982  26.265  1.00  0.00    -0.352 N 
ATOM     21  C   UNL A   1      34.398  30.717  27.254  1.00  0.00     0.251 C 
ATOM     22  H   UNL A   1      33.034  30.420  25.820  1.00  0.00     0.163 HD
ATOM     23  O   UNL A   1      33.888  31.776  27.615  1.00  0.00    -0.269 OA
BRANCH  21  24
ATOM     24  C   UNL A   1      35.630  30.225  27.907  1.00  0.00     0.039 A 
ATOM     25  C   UNL A   1      36.851  30.406  27.253  1.00  0.00     0.014 A 
ATOM     26  C   UNL A   1      35.593  29.594  29.154  1.00  0.00     0.014 A 
ATOM     27  C   UNL A   1      38.035  30.012  27.878  1.00  0.00     0.010 A 
ATOM     28  C   UNL A   1      36.780  29.282  29.813  1.00  0.00     0.010 A 
ATOM     29  C   UNL A   1      38.015  29.482  29.181  1.00  0.00    -0.014 A 
BRANCH  29  30
ATOM     30  C   UNL A   1      39.287  29.167  29.882  1.00  0.00     0.031 A 
ATOM     31  C   UNL A   1      39.687  29.909  31.130  1.00  0.00     0.074 A 
ATOM     32  C   UNL A   1      40.101  28.221  29.372  1.00  0.00     0.049 A 
ATOM     33  N   UNL A   1      40.730  29.723  31.899  1.00  0.00    -0.248 NA
ATOM     34  C   UNL A   1      38.821  31.018  31.556  1.00  0.00     0.031 C 
ATOM     35  C   UNL A   1      39.865  27.490  28.124  1.00  0.00     0.029 A 
ATOM     36  N   UNL A   1      41.283  27.704  29.838  1.00  0.00    -0.354 N 
ATOM     37  C   UNL A   1      40.647  30.691  32.894  1.00  0.00     0.074 A 
ATOM     38  C   UNL A   1      39.486  31.501  32.595  1.00  0.00     0.031 C 
ATOM     39  C   UNL A   1      40.846  26.591  27.947  1.00  0.00     0.029 A 
ATOM     40  C   UNL A   1      41.796  26.701  29.049  1.00  0.00     0.049 A 
ATOM     41  H   UNL A   1      41.723  28.021  30.659  1.00  0.00     0.167 HD
ATOM     42  C   UNL A   1      41.450  30.872  33.971  1.00  0.00     0.037 A 
ATOM     43  C   UNL A   1      42.901  25.945  29.200  1.00  0.00     0.037 A 
ATOM     44  C   UNL A   1      42.597  30.050  34.267  1.00  0.00     0.049 A 
ATOM     45  C   UNL A   1      43.756  26.139  30.422  1.00  0.00     0.074 A 
ATOM     46  C   UNL A   1      43.438  30.109  35.366  1.00  0.00     0.029 A 
ATOM     47  N   UNL A   1      43.072  29.027  33.458  1.00  0.00    -0.354 N 
ATOM     48  N   UNL A   1      43.612  27.001  31.402  1.00  0.00    -0.248 NA
ATOM     49  C   UNL A   1      44.911  25.246  30.570  1.00  0.00     0.031 C 
ATOM     50  C   UNL A   1      44.449  29.157  35.196  1.00  0.00     0.029 A 
ATOM     51  C   UNL A   1      44.206  28.463  34.021  1.00  0.00     0.049 A 
ATOM     52  H   UNL A   1      42.664  28.745  32.608  1.00  0.00     0.167 HD
ATOM     53  C   UNL A   1      44.645  26.736  32.294  1.00  0.00     0.074 A 
ATOM     54  C   UNL A   1      45.391  25.620  31.747  1.00  0.00     0.031 C 
ATOM     55  C   UNL A   1      44.946  27.358  33.462  1.00  0.00     0.037 A 
BRANCH  42  56
ATOM     56  C   UNL A   1      41.116  32.000  34.911  1.00  0.00     0.058 A 
ATOM     57  C   UNL A   1      40.218  31.834  35.979  1.00  0.00     0.135 A 
ATOM     58  C   UNL A   1      41.728  33.257  34.764  1.00  0.00     0.135 A 
ATOM     59  F   UNL A   1      39.592  30.661  36.161  1.00  0.00    -0.206 F 
ATOM     60  C   UNL A   1      39.914  32.880  36.846  1.00  0.00     0.059 A 
ATOM     61  C   UNL A   1      41.462  34.308  35.639  1.00  0.00     0.059 A 
ATOM     62  F   UNL A   1      42.595  33.474  33.762  1.00  0.00    -0.206 F 
ATOM     63  C   UNL A   1      40.542  34.113  36.668  1.00  0.00     0.060 A 
BRANCH  63  64
ATOM     64  S   UNL A   1      40.139  35.457  37.803  1.00  0.00     0.124 S 
ATOM     65  O   UNL A   1      39.029  34.880  38.555  1.00  0.00    -0.237 OA
ATOM     66  O   UNL A   1      41.386  35.625  38.543  1.00  0.00    -0.237 OA
ATOM     67  O   UNL A   1      39.788  36.560  36.914  1.00  0.00    -0.744 OA
ENDBRANCH  63  64
ENDBRANCH  42  56
BRANCH  43  68
ATOM     68  C   UNL A   1      43.233  24.910  28.183  1.00  0.00     0.058 A 
ATOM     69  C   UNL A   1      42.856  23.571  28.360  1.00  0.00     0.135 A 
ATOM     70  C   UNL A   1      43.912  25.247  27.002  1.00  0.00     0.135 A 
ATOM     71  F   UNL A   1      42.209  23.198  29.475  1.00  0.00    -0.206 F 
ATOM     72  C   UNL A   1      43.152  22.598  27.410  1.00  0.00     0.059 A 
ATOM     73  C   UNL A   1      44.194  24.299  26.024  1.00  0.00     0.059 A 
ATOM     74  F   UNL A   1      44.277  26.519  26.775  1.00  0.00    -0.206 F 
ATOM     75  C   UNL A   1      43.819  22.974  26.242  1.00  0.00     0.060 A 
BRANCH  75  76
ATOM     76  S   UNL A   1      44.145  21.716  24.988  1.00  0.00     0.124 S 
ATOM     77  O   UNL A   1      43.113  20.730  25.287  1.00  0.00    -0.237 OA
ATOM     78  O   UNL A   1      43.973  22.466  23.749  1.00  0.00    -0.237 OA
ATOM     79  O   UNL A   1      45.515  21.303  25.277  1.00  0.00    -0.744 OA
ENDBRANCH  75  76
ENDBRANCH  43  68
BRANCH  55  80
ATOM     80  C   UNL A   1      46.117  26.820  34.242  1.00  0.00     0.058 A 
ATOM     81  C   UNL A   1      45.967  25.811  35.207  1.00  0.00     0.135 A 
ATOM     82  C   UNL A   1      47.410  27.320  34.016  1.00  0.00     0.135 A 
ATOM     83  F   UNL A   1      44.753  25.297  35.465  1.00  0.00    -0.206 F 
ATOM     84  C   UNL A   1      47.045  25.356  35.957  1.00  0.00     0.059 A 
ATOM     85  C   UNL A   1      48.509  26.856  34.731  1.00  0.00     0.059 A 
ATOM     86  F   UNL A   1      47.615  28.273  33.093  1.00  0.00    -0.206 F 
ATOM     87  C   UNL A   1      48.313  25.891  35.717  1.00  0.00     0.060 A 
BRANCH  87  88
ATOM     88  S   UNL A   1      49.703  25.307  36.709  1.00  0.00     0.124 S 
ATOM     89  O   UNL A   1      49.951  23.994  36.122  1.00  0.00    -0.237 OA
ATOM     90  O   UNL A   1      50.721  26.321  36.450  1.00  0.00    -0.237 OA
ATOM     91  O   UNL A   1      49.170  25.296  38.069  1.00  0.00    -0.744 OA
ENDBRANCH  87  88
ENDBRANCH  55  80
ENDBRANCH  29  30
ENDBRANCH  21  24
ENDBRANCH  19  20
ENDBRANCH   1  19
TORSDOF 17
ENDMDL
MODEL 3
REMARK VINA RESULT:     -10.9      5.187     10.075
REMARK SMILES CC(C)[C@H](Sc1ccncc1)C(=O)NCCCCNC(=O)c1ccc(-c2c3nc(c(-c4c(F)cc(S(=O)(=O)[O-])cc4F)c4ccc([nH]4)c(-c4c(F)cc(S(=O)(=O)[O-])cc4F)c4nc(c(-c5c(F)cc(S(=O)(=O)[O-])cc5F)c5ccc2[nH]5)C=C4)C=C3)cc1
REMARK SMILES IDX 17 1 16 2 15 3 14 4 12 5 13 6 4 8 2 9 1 10 3 11 5 12 6 13
REMARK SMILES IDX 7 14 11 15 8 16 10 17 9 18 18 19 19 20 20 21 21 23 22 24
REMARK SMILES IDX 23 25 87 26 24 27 86 28 25 29 26 30 27 31 80 32 28 33 85 34
REMARK SMILES IDX 79 35 81 36 29 37 84 38 78 39 77 40 30 42 64 43 43 44 63 45
REMARK SMILES IDX 44 46 47 47 62 48 82 49 45 50 46 51 61 53 83 54 48 55 31 56
REMARK SMILES IDX 32 57 41 58 33 59 34 60 40 61 42 62 35 63 36 64 37 65 38 66
REMARK SMILES IDX 39 67 65 68 66 69 75 70 67 71 68 72 74 73 76 74 69 75 70 76
REMARK SMILES IDX 71 77 72 78 73 79 49 80 50 81 59 82 51 83 52 84 58 85 60 86
REMARK SMILES IDX 53 87 54 88 55 89 56 90 57 91
REMARK H PARENT 14 7 19 22 81 41 47 52
REMARK Flexibility Score: inf
ROOT
ATOM      1  C   UNL A   1      32.781  27.464  27.136  1.00  0.00     0.023 C 
ENDROOT
BRANCH   1   2
ATOM      2  C   UNL A   1      31.426  27.687  26.468  1.00  0.00     0.023 C 
BRANCH   2   3
ATOM      3  C   UNL A   1      30.897  26.490  25.685  1.00  0.00     0.116 C 
BRANCH   3   4
ATOM      4  N   UNL A   1      30.617  25.346  26.536  1.00  0.00    -0.355 N 
ATOM      5  C   UNL A   1      31.257  24.138  26.621  1.00  0.00     0.233 C 
ATOM      6  O   UNL A   1      30.831  23.314  27.437  1.00  0.00    -0.274 OA
ATOM      7  H   UNL A   1      29.851  25.455  27.143  1.00  0.00     0.163 HD
BRANCH   5   8
ATOM      8  C   UNL A   1      32.502  23.817  25.758  1.00  0.00     0.143 C 
BRANCH   8   9
ATOM      9  C   UNL A   1      32.092  23.185  24.390  1.00  0.00     0.006 C 
ATOM     10  C   UNL A   1      33.045  23.624  23.259  1.00  0.00     0.009 C 
ATOM     11  C   UNL A   1      32.074  21.656  24.398  1.00  0.00     0.009 C 
ENDBRANCH   8   9
BRANCH   8  12
ATOM     12  S   UNL A   1      33.627  22.879  26.925  1.00  0.00    -0.112 SA
BRANCH  12  13
ATOM     13  C   UNL A   1      35.190  22.654  26.129  1.00  0.00     0.011 A 
ATOM     14  C   UNL A   1      36.113  23.660  25.878  1.00  0.00     0.035 A 
ATOM     15  C   UNL A   1      35.523  21.340  25.791  1.00  0.00     0.035 A 
ATOM     16  C   UNL A   1      37.285  23.323  25.217  1.00  0.00     0.112 A 
ATOM     17  C   UNL A   1      36.730  21.097  25.160  1.00  0.00     0.112 A 
ATOM     18  N   UNL A   1      37.613  22.066  24.847  1.00  0.00    -0.265 NA
ENDBRANCH  12  13
ENDBRANCH   8  12
ENDBRANCH   5   8
ENDBRANCH   3   4
ENDBRANCH   2   3
ENDBRANCH   1   2
BRANCH   1  19
ATOM     19  C   UNL A   1      33.873  28.449  26.733  1.00  0.00     0.116 C 
BRANCH  19  20
ATOM     20  N   UNL A   1      33.689  29.773  27.309  1.00  0.00    -0.352 N 
ATOM     21  C   UNL A   1      34.546  30.518  28.079  1.00  0.00     0.251 C 
ATOM     22  H   UNL A   1      32.821  30.195  27.118  1.00  0.00     0.163 HD
ATOM     23  O   UNL A   1      34.146  31.565  28.586  1.00  0.00    -0.269 OA
BRANCH  21  24
ATOM     24  C   UNL A   1      35.928  30.053  28.326  1.00  0.00     0.039 A 
ATOM     25  C   UNL A   1      36.854  30.122  27.284  1.00  0.00     0.014 A 
ATOM     26  C   UNL A   1      36.316  29.556  29.574  1.00  0.00     0.014 A 
ATOM     27  C   UNL A   1      38.181  29.753  27.512  1.00  0.00     0.010 A 
ATOM     28  C   UNL A   1      37.658  29.271  29.824  1.00  0.00     0.010 A 
ATOM     29  C   UNL A   1      38.604  29.361  28.794  1.00  0.00    -0.014 A 
BRANCH  29  30
ATOM     30  C   UNL A   1      40.040  29.075  29.055  1.00  0.00     0.031 A 
ATOM     31  C   UNL A   1      40.642  27.744  28.694  1.00  0.00     0.074 A 
ATOM     32  C   UNL A   1      40.799  30.019  29.648  1.00  0.00     0.049 A 
ATOM     33  N   UNL A   1      41.885  27.347  28.798  1.00  0.00    -0.248 NA
ATOM     34  C   UNL A   1      39.729  26.714  28.175  1.00  0.00     0.031 C 
ATOM     35  C   UNL A   1      40.312  31.318  30.120  1.00  0.00     0.029 A 
ATOM     36  N   UNL A   1      42.138  30.039  29.948  1.00  0.00    -0.354 N 
ATOM     37  C   UNL A   1      41.903  26.028  28.362  1.00  0.00     0.074 A 
ATOM     38  C   UNL A   1      40.535  25.670  28.052  1.00  0.00     0.031 C 
ATOM     39  C   UNL A   1      41.345  32.024  30.609  1.00  0.00     0.029 A 
ATOM     40  C   UNL A   1      42.558  31.219  30.515  1.00  0.00     0.049 A 
ATOM     41  H   UNL A   1      42.740  29.281  29.774  1.00  0.00     0.167 HD
ATOM     42  C   UNL A   1      42.964  25.198  28.210  1.00  0.00     0.037 A 
ATOM     43  C   UNL A   1      43.785  31.615  30.907  1.00  0.00     0.037 A 
ATOM     44  C   UNL A   1      44.325  25.568  28.509  1.00  0.00     0.049 A 
ATOM     45  C   UNL A   1      44.952  30.692  30.694  1.00  0.00     0.074 A 
ATOM     46  C   UNL A   1      45.478  24.824  28.329  1.00  0.00     0.029 A 
ATOM     47  N   UNL A   1      44.716  26.780  29.059  1.00  0.00    -0.354 N 
ATOM     48  N   UNL A   1      44.964  29.478  30.195  1.00  0.00    -0.248 NA
ATOM     49  C   UNL A   1      46.275  31.198  31.078  1.00  0.00     0.031 C 
ATOM     50  C   UNL A   1      46.559  25.566  28.817  1.00  0.00     0.029 A 
ATOM     51  C   UNL A   1      46.089  26.797  29.246  1.00  0.00     0.049 A 
ATOM     52  H   UNL A   1      44.106  27.520  29.284  1.00  0.00     0.167 HD
ATOM     53  C   UNL A   1      46.297  29.085  30.183  1.00  0.00     0.074 A 
ATOM     54  C   UNL A   1      47.063  30.200  30.703  1.00  0.00     0.031 C 
ATOM     55  C   UNL A   1      46.839  27.910  29.775  1.00  0.00     0.037 A 
BRANCH  42  56
ATOM     56  C   UNL A   1      42.696  23.807  27.696  1.00  0.00     0.058 A 
ATOM     57  C   UNL A   1      42.510  22.719  28.566  1.00  0.00     0.135 A 
ATOM     58  C   UNL A   1      42.591  23.563  26.316  1.00  0.00     0.135 A 
ATOM     59  F   UNL A   1      42.613  22.888  29.893  1.00  0.00    -0.206 F 
ATOM     60  C   UNL A   1      42.261  21.436  28.086  1.00  0.00     0.059 A 
ATOM     61  C   UNL A   1      42.311  22.294  25.816  1.00  0.00     0.059 A 
ATOM     62  F   UNL A   1      42.759  24.564  25.438  1.00  0.00    -0.206 F 
ATOM     63  C   UNL A   1      42.163  21.234  26.709  1.00  0.00     0.060 A 
BRANCH  63  64
ATOM     64  S   UNL A   1      41.837  19.564  26.104  1.00  0.00     0.124 S 
ATOM     65  O   UNL A   1      42.736  19.490  24.956  1.00  0.00    -0.237 OA
ATOM     66  O   UNL A   1      42.206  18.741  27.252  1.00  0.00    -0.237 OA
ATOM     67  O   UNL A   1      40.413  19.589  25.786  1.00  0.00    -0.744 OA
ENDBRANCH  63  64
ENDBRANCH  42  56
BRANCH  43  68
ATOM     68  C   UNL A   1      43.970  32.967  31.501  1.00  0.00     0.058 A 
ATOM     69  C   UNL A   1      43.862  33.174  32.885  1.00  0.00     0.135 A 
ATOM     70  C   UNL A   1      44.284  34.074  30.699  1.00  0.00     0.135 A 
ATOM     71  F   UNL A   1      43.559  32.147  33.694  1.00  0.00    -0.206 F 
ATOM     72  C   UNL A   1      44.045  34.431  33.451  1.00  0.00     0.059 A 
ATOM     73  C   UNL A   1      44.500  35.336  31.244  1.00  0.00     0.059 A 
ATOM     74  F   UNL A   1      44.419  33.926  29.371  1.00  0.00    -0.206 F 
ATOM     75  C   UNL A   1      44.368  35.506  32.621  1.00  0.00     0.060 A 
BRANCH  75  76
ATOM     76  S   UNL A   1      44.663  37.122  33.372  1.00  0.00     0.124 S 
ATOM     77  O   UNL A   1      46.068  37.343  33.050  1.00  0.00    -0.237 OA
ATOM     78  O   UNL A   1      43.705  37.967  32.669  1.00  0.00    -0.237 OA
ATOM     79  O   UNL A   1      44.368  36.893  34.784  1.00  0.00    -0.744 OA
ENDBRANCH  75  76
ENDBRANCH  43  68
BRANCH  55  80
ATOM     80  C   UNL A   1      48.339  27.786  29.846  1.00  0.00     0.058 A 
ATOM     81  C   UNL A   1      49.164  28.115  28.758  1.00  0.00     0.135 A 
ATOM     82  C   UNL A   1      48.959  27.335  31.023  1.00  0.00     0.135 A 
ATOM     83  F   UNL A   1      48.626  28.551  27.608  1.00  0.00    -0.206 F 
ATOM     84  C   UNL A   1      50.544  27.950  28.817  1.00  0.00     0.059 A 
ATOM     85  C   UNL A   1      50.339  27.194  31.115  1.00  0.00     0.059 A 
ATOM     86  F   UNL A   1      48.219  27.023  32.100  1.00  0.00    -0.206 F 
ATOM     87  C   UNL A   1      51.122  27.481  29.998  1.00  0.00     0.060 A 
BRANCH  87  88
ATOM     88  S   UNL A   1      52.911  27.252  30.058  1.00  0.00     0.124 S 
ATOM     89  O   UNL A   1      53.086  26.651  31.377  1.00  0.00    -0.237 OA
ATOM     90  O   UNL A   1      53.152  26.368  28.922  1.00  0.00    -0.237 OA
ATOM     91  O   UNL A   1      53.432  28.608  29.912  1.00  0.00    -0.744 OA
ENDBRANCH  87  88
ENDBRANCH  55  80
ENDBRANCH  29  30
ENDBRANCH  21  24
ENDBRANCH  19  20
ENDBRANCH   1  19
TORSDOF 17
ENDMDL
