MODEL 1
REMARK VINA RESULT:     -12.2      0.000      0.000
REMARK SMILES O=C(NCCCCNC(=O)c1cn(C2C[NH+](CC(F)(F)F)C2)nn1)c1ccc(-c2c3nc(c(-c4c(F)cc(S(=O)(=O)[O-])cc4F)c4ccc([nH]4)c(-c4c(F)cc(S(=O)(=O)[O-])cc4F)c4nc(c(-c5c(F)cc(S(=O)(=O)[O-])cc5F)c5ccc2[nH]5)C=C4)C=C3)cc1
REMARK SMILES IDX 5 1 4 2 3 3 1 4 2 5 25 7 26 8 90 9 27 10 89 11 28 12 29 13
REMARK SMILES IDX 30 14 83 15 31 16 88 17 82 18 84 19 32 20 87 21 81 22 80 23
REMARK SMILES IDX 33 25 67 26 46 27 66 28 47 29 50 30 65 31 85 32 48 33 49 34
REMARK SMILES IDX 64 36 86 37 51 38 34 39 35 40 44 41 36 42 37 43 43 44 45 45
REMARK SMILES IDX 38 46 39 47 40 48 41 49 42 50 68 51 69 52 78 53 70 54 71 55
REMARK SMILES IDX 77 56 79 57 72 58 73 59 74 60 75 61 76 62 52 63 53 64 62 65
REMARK SMILES IDX 54 66 55 67 61 68 63 69 56 70 57 71 58 72 59 73 60 74 6 75
REMARK SMILES IDX 7 76 8 77 9 78 10 80 11 81 12 82 24 83 13 84 23 85 14 86
REMARK SMILES IDX 15 87 22 88 16 89 17 91 18 92 19 93 20 94 21 95
REMARK H PARENT 3 6 84 24 50 35 8 79 16 90
REMARK Flexibility Score: inf
ROOT
ATOM      1  C   UNL A   1      37.116  22.090  24.421  1.00  0.00     0.023 C 
ENDROOT
BRANCH   1   2
ATOM      2  C   UNL A   1      37.826  21.889  25.759  1.00  0.00     0.116 C 
BRANCH   2   3
ATOM      3  N   UNL A   1      39.261  21.720  25.661  1.00  0.00    -0.352 N 
ATOM      4  O   UNL A   1      41.422  21.764  26.056  1.00  0.00    -0.269 OA
ATOM      5  C   UNL A   1      40.349  22.363  26.184  1.00  0.00     0.251 C 
ATOM      6  H   UNL A   1      39.512  20.966  25.081  1.00  0.00     0.163 HD
BRANCH   5   7
ATOM      7  C   UNL A   1      40.356  23.716  26.814  1.00  0.00     0.039 A 
ATOM      8  C   UNL A   1      39.496  24.772  26.517  1.00  0.00     0.014 A 
ATOM      9  C   UNL A   1      41.371  23.936  27.771  1.00  0.00     0.014 A 
ATOM     10  C   UNL A   1      39.695  26.028  27.103  1.00  0.00     0.010 A 
ATOM     11  C   UNL A   1      41.575  25.186  28.355  1.00  0.00     0.010 A 
ATOM     12  C   UNL A   1      40.755  26.247  27.996  1.00  0.00    -0.014 A 
BRANCH  12  13
ATOM     13  C   UNL A   1      40.836  27.538  28.688  1.00  0.00     0.031 A 
ATOM     14  C   UNL A   1      41.938  28.404  28.182  1.00  0.00     0.074 A 
ATOM     15  C   UNL A   1      39.968  28.012  29.610  1.00  0.00     0.049 A 
ATOM     16  N   UNL A   1      43.048  28.687  28.779  1.00  0.00    -0.248 NA
ATOM     17  C   UNL A   1      41.869  28.885  26.793  1.00  0.00     0.031 C 
ATOM     18  C   UNL A   1      38.680  27.449  30.019  1.00  0.00     0.029 A 
ATOM     19  N   UNL A   1      40.034  29.167  30.341  1.00  0.00    -0.354 N 
ATOM     20  C   UNL A   1      43.721  29.570  27.939  1.00  0.00     0.074 A 
ATOM     21  C   UNL A   1      43.041  29.512  26.671  1.00  0.00     0.031 C 
ATOM     22  C   UNL A   1      38.001  28.363  30.756  1.00  0.00     0.029 A 
ATOM     23  C   UNL A   1      38.852  29.519  30.994  1.00  0.00     0.049 A 
ATOM     24  H   UNL A   1      40.854  29.710  30.401  1.00  0.00     0.167 HD
ATOM     25  C   UNL A   1      44.644  30.445  28.429  1.00  0.00     0.037 A 
ATOM     26  C   UNL A   1      38.586  30.680  31.655  1.00  0.00     0.037 A 
ATOM     27  C   UNL A   1      45.053  30.075  29.761  1.00  0.00     0.049 A 
ATOM     28  C   UNL A   1      39.890  31.289  32.021  1.00  0.00     0.074 A 
ATOM     29  C   UNL A   1      45.633  28.957  30.329  1.00  0.00     0.029 A 
ATOM     30  N   UNL A   1      44.528  30.795  30.806  1.00  0.00    -0.354 N 
ATOM     31  N   UNL A   1      40.709  30.781  32.898  1.00  0.00    -0.248 NA
ATOM     32  C   UNL A   1      40.482  32.228  31.082  1.00  0.00     0.031 C 
ATOM     33  C   UNL A   1      44.994  28.817  31.596  1.00  0.00     0.029 A 
ATOM     34  C   UNL A   1      44.126  29.896  31.759  1.00  0.00     0.049 A 
ATOM     35  H   UNL A   1      44.454  31.775  30.860  1.00  0.00     0.167 HD
ATOM     36  C   UNL A   1      41.966  30.963  32.345  1.00  0.00     0.074 A 
ATOM     37  C   UNL A   1      41.771  31.935  31.269  1.00  0.00     0.031 C 
ATOM     38  C   UNL A   1      42.990  30.106  32.627  1.00  0.00     0.037 A 
BRANCH  25  39
ATOM     39  C   UNL A   1      44.899  31.831  27.880  1.00  0.00     0.058 A 
ATOM     40  C   UNL A   1      46.158  32.125  27.313  1.00  0.00     0.135 A 
ATOM     41  C   UNL A   1      44.080  32.949  28.151  1.00  0.00     0.135 A 
ATOM     42  F   UNL A   1      47.023  31.141  27.019  1.00  0.00    -0.206 F 
ATOM     43  C   UNL A   1      46.601  33.432  27.106  1.00  0.00     0.059 A 
ATOM     44  C   UNL A   1      44.481  34.258  27.904  1.00  0.00     0.059 A 
ATOM     45  F   UNL A   1      42.894  32.836  28.759  1.00  0.00    -0.206 F 
ATOM     46  C   UNL A   1      45.757  34.492  27.417  1.00  0.00     0.060 A 
BRANCH  46  47
ATOM     47  S   UNL A   1      46.354  36.181  27.223  1.00  0.00     0.124 S 
ATOM     48  O   UNL A   1      45.163  36.951  27.564  1.00  0.00    -0.237 OA
ATOM     49  O   UNL A   1      47.445  36.227  28.189  1.00  0.00    -0.237 OA
ATOM     50  O   UNL A   1      46.761  36.232  25.822  1.00  0.00    -0.744 OA
ENDBRANCH  46  47
ENDBRANCH  25  39
BRANCH  26  51
ATOM     51  C   UNL A   1      37.320  31.471  31.730  1.00  0.00     0.058 A 
ATOM     52  C   UNL A   1      36.732  31.809  32.968  1.00  0.00     0.135 A 
ATOM     53  C   UNL A   1      36.842  32.179  30.612  1.00  0.00     0.135 A 
ATOM     54  F   UNL A   1      37.133  31.202  34.095  1.00  0.00    -0.206 F 
ATOM     55  C   UNL A   1      35.779  32.829  33.095  1.00  0.00     0.059 A 
ATOM     56  C   UNL A   1      35.889  33.193  30.713  1.00  0.00     0.059 A 
ATOM     57  F   UNL A   1      37.363  31.972  29.393  1.00  0.00    -0.206 F 
ATOM     58  C   UNL A   1      35.381  33.536  31.961  1.00  0.00     0.060 A 
BRANCH  58  59
ATOM     59  S   UNL A   1      34.301  34.979  32.137  1.00  0.00     0.124 S 
ATOM     60  O   UNL A   1      34.048  35.342  30.747  1.00  0.00    -0.237 OA
ATOM     61  O   UNL A   1      33.164  34.430  32.869  1.00  0.00    -0.237 OA
ATOM     62  O   UNL A   1      35.121  35.926  32.889  1.00  0.00    -0.744 OA
ENDBRANCH  58  59
ENDBRANCH  26  51
BRANCH  38  63
ATOM     63  C   UNL A   1      42.852  29.180  33.805  1.00  0.00     0.058 A 
ATOM     64  C   UNL A   1      43.065  29.536  35.149  1.00  0.00     0.135 A 
ATOM     65  C   UNL A   1      42.357  27.890  33.556  1.00  0.00     0.135 A 
ATOM     66  F   UNL A   1      43.433  30.781  35.488  1.00  0.00    -0.206 F 
ATOM     67  C   UNL A   1      42.846  28.630  36.190  1.00  0.00     0.059 A 
ATOM     68  C   UNL A   1      42.097  26.985  34.578  1.00  0.00     0.059 A 
ATOM     69  F   UNL A   1      42.077  27.508  32.299  1.00  0.00    -0.206 F 
ATOM     70  C   UNL A   1      42.363  27.354  35.893  1.00  0.00     0.060 A 
BRANCH  70  71
ATOM     71  S   UNL A   1      42.035  26.195  37.238  1.00  0.00     0.124 S 
ATOM     72  O   UNL A   1      40.698  26.593  37.665  1.00  0.00    -0.237 OA
ATOM     73  O   UNL A   1      42.130  24.900  36.569  1.00  0.00    -0.237 OA
ATOM     74  O   UNL A   1      43.103  26.471  38.196  1.00  0.00    -0.744 OA
ENDBRANCH  70  71
ENDBRANCH  38  63
ENDBRANCH  12  13
ENDBRANCH   5   7
ENDBRANCH   2   3
ENDBRANCH   1   2
BRANCH   1  75
ATOM     75  C   UNL A   1      35.584  22.049  24.467  1.00  0.00     0.023 C 
BRANCH  75  76
ATOM     76  C   UNL A   1      34.960  21.413  25.709  1.00  0.00     0.116 C 
BRANCH  76  77
ATOM     77  N   UNL A   1      34.090  20.291  25.397  1.00  0.00    -0.351 N 
ATOM     78  C   UNL A   1      32.742  20.271  25.108  1.00  0.00     0.273 C 
ATOM     79  H   UNL A   1      34.531  19.411  25.393  1.00  0.00     0.163 HD
ATOM     80  O   UNL A   1      32.182  19.186  25.001  1.00  0.00    -0.267 OA
BRANCH  78  81
ATOM     81  C   UNL A   1      32.036  21.530  24.932  1.00  0.00     0.170 A 
ATOM     82  C   UNL A   1      31.905  22.304  23.795  1.00  0.00     0.145 A 
ATOM     83  N   UNL A   1      31.325  22.122  25.949  1.00  0.00    -0.125 NA
ATOM     84  N   UNL A   1      31.212  23.401  24.219  1.00  0.00    -0.237 N 
ATOM     85  N   UNL A   1      30.841  23.272  25.503  1.00  0.00    -0.066 NA
BRANCH  84  86
ATOM     86  C   UNL A   1      30.908  24.596  23.494  1.00  0.00     0.218 C 
ATOM     87  C   UNL A   1      30.323  25.747  24.350  1.00  0.00     0.296 C 
ATOM     88  C   UNL A   1      32.113  25.547  23.302  1.00  0.00     0.296 C 
ATOM     89  N   UNL A   1      31.272  26.687  23.721  1.00  0.00    -0.323 N 
ATOM     90  H   UNL A   1      31.676  27.459  24.252  1.00  0.00     0.348 HD
BRANCH  89  91
ATOM     91  C   UNL A   1      30.675  27.429  22.575  1.00  0.00     0.379 C 
BRANCH  91  92
ATOM     92  C   UNL A   1      29.896  28.756  22.708  1.00  0.00     0.438 C 
ATOM     93  F   UNL A   1      30.255  29.441  23.815  1.00  0.00    -0.165 F 
ATOM     94  F   UNL A   1      30.143  29.555  21.643  1.00  0.00    -0.165 F 
ATOM     95  F   UNL A   1      28.562  28.554  22.753  1.00  0.00    -0.165 F 
ENDBRANCH  91  92
ENDBRANCH  89  91
ENDBRANCH  84  86
ENDBRANCH  78  81
ENDBRANCH  76  77
ENDBRANCH  75  76
ENDBRANCH   1  75
TORSDOF 17
ENDMDL
MODEL 2
REMARK VINA RESULT:     -12.2      4.137      6.590
REMARK SMILES O=C(NCCCCNC(=O)c1cn(C2C[NH+](CC(F)(F)F)C2)nn1)c1ccc(-c2c3nc(c(-c4c(F)cc(S(=O)(=O)[O-])cc4F)c4ccc([nH]4)c(-c4c(F)cc(S(=O)(=O)[O-])cc4F)c4nc(c(-c5c(F)cc(S(=O)(=O)[O-])cc5F)c5ccc2[nH]5)C=C4)C=C3)cc1
REMARK SMILES IDX 5 1 4 2 3 3 1 4 2 5 25 7 26 8 90 9 27 10 89 11 28 12 29 13
REMARK SMILES IDX 30 14 83 15 31 16 88 17 82 18 84 19 32 20 87 21 81 22 80 23
REMARK SMILES IDX 33 25 67 26 46 27 66 28 47 29 50 30 65 31 85 32 48 33 49 34
REMARK SMILES IDX 64 36 86 37 51 38 34 39 35 40 44 41 36 42 37 43 43 44 45 45
REMARK SMILES IDX 38 46 39 47 40 48 41 49 42 50 68 51 69 52 78 53 70 54 71 55
REMARK SMILES IDX 77 56 79 57 72 58 73 59 74 60 75 61 76 62 52 63 53 64 62 65
REMARK SMILES IDX 54 66 55 67 61 68 63 69 56 70 57 71 58 72 59 73 60 74 6 75
REMARK SMILES IDX 7 76 8 77 9 78 10 80 11 81 12 82 24 83 13 84 23 85 14 86
REMARK SMILES IDX 15 87 22 88 16 89 17 91 18 92 19 93 20 94 21 95
REMARK H PARENT 3 6 84 24 50 35 8 79 16 90
REMARK Flexibility Score: inf
ROOT
ATOM      1  C   UNL A   1      41.212  20.321  27.447  1.00  0.00     0.023 C 
ENDROOT
BRANCH   1   2
ATOM      2  C   UNL A   1      41.109  21.369  26.341  1.00  0.00     0.116 C 
BRANCH   2   3
ATOM      3  N   UNL A   1      39.756  21.751  25.996  1.00  0.00    -0.352 N 
ATOM      4  O   UNL A   1      37.966  22.891  25.425  1.00  0.00    -0.269 OA
ATOM      5  C   UNL A   1      39.037  22.915  26.041  1.00  0.00     0.251 C 
ATOM      6  H   UNL A   1      39.229  20.996  25.648  1.00  0.00     0.163 HD
BRANCH   5   7
ATOM      7  C   UNL A   1      39.397  24.146  26.805  1.00  0.00     0.039 A 
ATOM      8  C   UNL A   1      38.986  24.467  28.098  1.00  0.00     0.014 A 
ATOM      9  C   UNL A   1      40.198  25.079  26.112  1.00  0.00     0.014 A 
ATOM     10  C   UNL A   1      39.304  25.714  28.647  1.00  0.00     0.010 A 
ATOM     11  C   UNL A   1      40.513  26.325  26.653  1.00  0.00     0.010 A 
ATOM     12  C   UNL A   1      40.038  26.659  27.913  1.00  0.00    -0.014 A 
BRANCH  12  13
ATOM     13  C   UNL A   1      40.463  27.893  28.583  1.00  0.00     0.031 A 
ATOM     14  C   UNL A   1      41.685  28.495  27.979  1.00  0.00     0.074 A 
ATOM     15  C   UNL A   1      39.804  28.541  29.569  1.00  0.00     0.049 A 
ATOM     16  N   UNL A   1      42.876  28.517  28.478  1.00  0.00    -0.248 NA
ATOM     17  C   UNL A   1      41.611  28.992  26.596  1.00  0.00     0.031 C 
ATOM     18  C   UNL A   1      38.462  28.278  30.090  1.00  0.00     0.029 A 
ATOM     19  N   UNL A   1      40.188  29.646  30.281  1.00  0.00    -0.354 N 
ATOM     20  C   UNL A   1      43.658  29.234  27.576  1.00  0.00     0.074 A 
ATOM     21  C   UNL A   1      42.879  29.341  26.370  1.00  0.00     0.031 C 
ATOM     22  C   UNL A   1      38.069  29.314  30.872  1.00  0.00     0.029 A 
ATOM     23  C   UNL A   1      39.173  30.248  31.026  1.00  0.00     0.049 A 
ATOM     24  H   UNL A   1      41.111  29.990  30.267  1.00  0.00     0.167 HD
ATOM     25  C   UNL A   1      44.791  29.875  27.979  1.00  0.00     0.037 A 
ATOM     26  C   UNL A   1      39.230  31.434  31.696  1.00  0.00     0.037 A 
ATOM     27  C   UNL A   1      45.216  29.411  29.276  1.00  0.00     0.049 A 
ATOM     28  C   UNL A   1      40.663  31.731  31.945  1.00  0.00     0.074 A 
ATOM     29  C   UNL A   1      45.577  28.187  29.805  1.00  0.00     0.029 A 
ATOM     30  N   UNL A   1      44.955  30.221  30.353  1.00  0.00    -0.354 N 
ATOM     31  N   UNL A   1      41.418  31.045  32.756  1.00  0.00    -0.248 NA
ATOM     32  C   UNL A   1      41.371  32.522  30.951  1.00  0.00     0.031 C 
ATOM     33  C   UNL A   1      45.031  28.182  31.122  1.00  0.00     0.029 A 
ATOM     34  C   UNL A   1      44.443  29.427  31.346  1.00  0.00     0.049 A 
ATOM     35  H   UNL A   1      45.107  31.192  30.404  1.00  0.00     0.167 HD
ATOM     36  C   UNL A   1      42.634  30.946  32.099  1.00  0.00     0.074 A 
ATOM     37  C   UNL A   1      42.572  31.946  31.033  1.00  0.00     0.031 C 
ATOM     38  C   UNL A   1      43.459  29.879  32.303  1.00  0.00     0.037 A 
BRANCH  25  39
ATOM     39  C   UNL A   1      45.304  31.173  27.397  1.00  0.00     0.058 A 
ATOM     40  C   UNL A   1      46.639  31.244  26.942  1.00  0.00     0.135 A 
ATOM     41  C   UNL A   1      44.644  32.415  27.537  1.00  0.00     0.135 A 
ATOM     42  F   UNL A   1      47.366  30.128  26.778  1.00  0.00    -0.206 F 
ATOM     43  C   UNL A   1      47.293  32.457  26.722  1.00  0.00     0.059 A 
ATOM     44  C   UNL A   1      45.262  33.633  27.272  1.00  0.00     0.059 A 
ATOM     45  F   UNL A   1      43.405  32.514  28.031  1.00  0.00    -0.206 F 
ATOM     46  C   UNL A   1      46.596  33.647  26.903  1.00  0.00     0.060 A 
BRANCH  46  47
ATOM     47  S   UNL A   1      47.460  35.214  26.693  1.00  0.00     0.124 S 
ATOM     48  O   UNL A   1      48.048  35.046  25.369  1.00  0.00    -0.237 OA
ATOM     49  O   UNL A   1      46.367  36.175  26.792  1.00  0.00    -0.237 OA
ATOM     50  O   UNL A   1      48.402  35.228  27.807  1.00  0.00    -0.744 OA
ENDBRANCH  46  47
ENDBRANCH  25  39
BRANCH  26  51
ATOM     51  C   UNL A   1      38.184  32.487  31.867  1.00  0.00     0.058 A 
ATOM     52  C   UNL A   1      37.562  33.097  30.757  1.00  0.00     0.135 A 
ATOM     53  C   UNL A   1      37.550  32.682  33.108  1.00  0.00     0.135 A 
ATOM     54  F   UNL A   1      38.082  32.956  29.528  1.00  0.00    -0.206 F 
ATOM     55  C   UNL A   1      36.354  33.801  30.864  1.00  0.00     0.059 A 
ATOM     56  C   UNL A   1      36.351  33.383  33.240  1.00  0.00     0.059 A 
ATOM     57  F   UNL A   1      38.028  32.107  34.222  1.00  0.00    -0.206 F 
ATOM     58  C   UNL A   1      35.740  33.917  32.110  1.00  0.00     0.060 A 
BRANCH  58  59
ATOM     59  S   UNL A   1      34.089  34.651  32.231  1.00  0.00     0.124 S 
ATOM     60  O   UNL A   1      34.378  35.958  32.811  1.00  0.00    -0.237 OA
ATOM     61  O   UNL A   1      33.647  34.655  30.840  1.00  0.00    -0.237 OA
ATOM     62  O   UNL A   1      33.371  33.727  33.106  1.00  0.00    -0.744 OA
ENDBRANCH  58  59
ENDBRANCH  26  51
BRANCH  38  63
ATOM     63  C   UNL A   1      43.216  28.997  33.498  1.00  0.00     0.058 A 
ATOM     64  C   UNL A   1      43.769  29.188  34.777  1.00  0.00     0.135 A 
ATOM     65  C   UNL A   1      42.269  27.969  33.359  1.00  0.00     0.135 A 
ATOM     66  F   UNL A   1      44.599  30.212  35.028  1.00  0.00    -0.206 F 
ATOM     67  C   UNL A   1      43.434  28.359  35.851  1.00  0.00     0.059 A 
ATOM     68  C   UNL A   1      41.894  27.157  34.421  1.00  0.00     0.059 A 
ATOM     69  F   UNL A   1      41.661  27.771  32.177  1.00  0.00    -0.206 F 
ATOM     70  C   UNL A   1      42.495  27.344  35.662  1.00  0.00     0.060 A 
BRANCH  70  71
ATOM     71  S   UNL A   1      42.025  26.300  37.058  1.00  0.00     0.124 S 
ATOM     72  O   UNL A   1      42.076  24.965  36.471  1.00  0.00    -0.237 OA
ATOM     73  O   UNL A   1      43.061  26.602  38.042  1.00  0.00    -0.237 OA
ATOM     74  O   UNL A   1      40.689  26.776  37.406  1.00  0.00    -0.744 OA
ENDBRANCH  70  71
ENDBRANCH  38  63
ENDBRANCH  12  13
ENDBRANCH   5   7
ENDBRANCH   2   3
ENDBRANCH   1   2
BRANCH   1  75
ATOM     75  C   UNL A   1      42.506  19.498  27.467  1.00  0.00     0.023 C 
BRANCH  75  76
ATOM     76  C   UNL A   1      42.748  18.586  26.265  1.00  0.00     0.116 C 
BRANCH  76  77
ATOM     77  N   UNL A   1      44.118  18.108  26.179  1.00  0.00    -0.351 N 
ATOM     78  C   UNL A   1      45.200  18.642  25.512  1.00  0.00     0.273 C 
ATOM     79  H   UNL A   1      44.301  17.276  26.672  1.00  0.00     0.163 HD
ATOM     80  O   UNL A   1      46.241  17.996  25.471  1.00  0.00    -0.267 OA
BRANCH  78  81
ATOM     81  C   UNL A   1      45.074  19.950  24.888  1.00  0.00     0.170 A 
ATOM     82  C   UNL A   1      45.416  21.191  25.391  1.00  0.00     0.145 A 
ATOM     83  N   UNL A   1      44.600  20.112  23.608  1.00  0.00    -0.125 NA
ATOM     84  N   UNL A   1      45.014  22.064  24.420  1.00  0.00    -0.237 N 
ATOM     85  N   UNL A   1      44.555  21.408  23.342  1.00  0.00    -0.066 NA
BRANCH  84  86
ATOM     86  C   UNL A   1      44.998  23.494  24.461  1.00  0.00     0.218 C 
ATOM     87  C   UNL A   1      43.755  24.112  25.147  1.00  0.00     0.296 C 
ATOM     88  C   UNL A   1      45.777  24.104  25.650  1.00  0.00     0.296 C 
ATOM     89  N   UNL A   1      44.638  25.003  25.927  1.00  0.00    -0.323 N 
ATOM     90  H   UNL A   1      44.407  25.263  26.886  1.00  0.00     0.348 HD
BRANCH  89  91
ATOM     91  C   UNL A   1      44.788  26.350  25.308  1.00  0.00     0.379 C 
BRANCH  91  92
ATOM     92  C   UNL A   1      46.051  27.230  25.434  1.00  0.00     0.438 C 
ATOM     93  F   UNL A   1      45.813  28.508  25.066  1.00  0.00    -0.165 F 
ATOM     94  F   UNL A   1      46.483  27.255  26.717  1.00  0.00    -0.165 F 
ATOM     95  F   UNL A   1      47.069  26.759  24.682  1.00  0.00    -0.165 F 
ENDBRANCH  91  92
ENDBRANCH  89  91
ENDBRANCH  84  86
ENDBRANCH  78  81
ENDBRANCH  76  77
ENDBRANCH  75  76
ENDBRANCH   1  75
TORSDOF 17
ENDMDL
MODEL 3
REMARK VINA RESULT:     -12.2      3.812      9.761
REMARK SMILES O=C(NCCCCNC(=O)c1cn(C2C[NH+](CC(F)(F)F)C2)nn1)c1ccc(-c2c3nc(c(-c4c(F)cc(S(=O)(=O)[O-])cc4F)c4ccc([nH]4)c(-c4c(F)cc(S(=O)(=O)[O-])cc4F)c4nc(c(-c5c(F)cc(S(=O)(=O)[O-])cc5F)c5ccc2[nH]5)C=C4)C=C3)cc1
REMARK SMILES IDX 5 1 4 2 3 3 1 4 2 5 25 7 26 8 90 9 27 10 89 11 28 12 29 13
REMARK SMILES IDX 30 14 83 15 31 16 88 17 82 18 84 19 32 20 87 21 81 22 80 23
REMARK SMILES IDX 33 25 67 26 46 27 66 28 47 29 50 30 65 31 85 32 48 33 49 34
REMARK SMILES IDX 64 36 86 37 51 38 34 39 35 40 44 41 36 42 37 43 43 44 45 45
REMARK SMILES IDX 38 46 39 47 40 48 41 49 42 50 68 51 69 52 78 53 70 54 71 55
REMARK SMILES IDX 77 56 79 57 72 58 73 59 74 60 75 61 76 62 52 63 53 64 62 65
REMARK SMILES IDX 54 66 55 67 61 68 63 69 56 70 57 71 58 72 59 73 60 74 6 75
REMARK SMILES IDX 7 76 8 77 9 78 10 80 11 81 12 82 24 83 13 84 23 85 14 86
REMARK SMILES IDX 15 87 22 88 16 89 17 91 18 92 19 93 20 94 21 95
REMARK H PARENT 3 6 84 24 50 35 8 79 16 90
REMARK Flexibility Score: inf
ROOT
ATOM      1  C   UNL A   1      32.821  29.425  26.897  1.00  0.00     0.023 C 
ENDROOT
BRANCH   1   2
ATOM      2  C   UNL A   1      33.641  30.713  26.860  1.00  0.00     0.116 C 
BRANCH   2   3
ATOM      3  N   UNL A   1      33.617  31.479  28.089  1.00  0.00    -0.352 N 
ATOM      4  O   UNL A   1      34.176  32.732  29.805  1.00  0.00    -0.269 OA
ATOM      5  C   UNL A   1      34.556  31.872  29.003  1.00  0.00     0.251 C 
ATOM      6  H   UNL A   1      32.712  31.789  28.321  1.00  0.00     0.163 HD
BRANCH   5   7
ATOM      7  C   UNL A   1      35.932  31.314  29.150  1.00  0.00     0.039 A 
ATOM      8  C   UNL A   1      37.080  32.025  29.498  1.00  0.00     0.014 A 
ATOM      9  C   UNL A   1      36.066  29.939  28.860  1.00  0.00     0.014 A 
ATOM     10  C   UNL A   1      38.330  31.394  29.481  1.00  0.00     0.010 A 
ATOM     11  C   UNL A   1      37.308  29.308  28.837  1.00  0.00     0.010 A 
ATOM     12  C   UNL A   1      38.451  30.044  29.117  1.00  0.00    -0.014 A 
BRANCH  12  13
ATOM     13  C   UNL A   1      39.760  29.394  29.250  1.00  0.00     0.031 A 
ATOM     14  C   UNL A   1      40.127  29.105  30.665  1.00  0.00     0.074 A 
ATOM     15  C   UNL A   1      40.551  28.964  28.242  1.00  0.00     0.049 A 
ATOM     16  N   UNL A   1      41.017  29.708  31.382  1.00  0.00    -0.248 NA
ATOM     17  C   UNL A   1      39.309  28.141  31.418  1.00  0.00     0.031 C 
ATOM     18  C   UNL A   1      40.241  28.890  26.813  1.00  0.00     0.029 A 
ATOM     19  N   UNL A   1      41.807  28.426  28.302  1.00  0.00    -0.354 N 
ATOM     20  C   UNL A   1      41.034  29.048  32.608  1.00  0.00     0.074 A 
ATOM     21  C   UNL A   1      39.853  28.225  32.635  1.00  0.00     0.031 C 
ATOM     22  C   UNL A   1      41.188  28.151  26.183  1.00  0.00     0.029 A 
ATOM     23  C   UNL A   1      42.244  27.815  27.125  1.00  0.00     0.049 A 
ATOM     24  H   UNL A   1      42.362  28.465  29.116  1.00  0.00     0.167 HD
ATOM     25  C   UNL A   1      42.141  29.065  33.404  1.00  0.00     0.037 A 
ATOM     26  C   UNL A   1      43.372  27.072  26.947  1.00  0.00     0.037 A 
ATOM     27  C   UNL A   1      43.059  30.097  32.991  1.00  0.00     0.049 A 
ATOM     28  C   UNL A   1      44.316  27.436  28.034  1.00  0.00     0.074 A 
ATOM     29  C   UNL A   1      42.988  31.470  32.856  1.00  0.00     0.029 A 
ATOM     30  N   UNL A   1      44.168  29.709  32.282  1.00  0.00    -0.354 N 
ATOM     31  N   UNL A   1      44.896  28.598  28.135  1.00  0.00    -0.248 NA
ATOM     32  C   UNL A   1      44.269  26.652  29.258  1.00  0.00     0.031 C 
ATOM     33  C   UNL A   1      43.743  31.762  31.682  1.00  0.00     0.029 A 
ATOM     34  C   UNL A   1      44.295  30.566  31.221  1.00  0.00     0.049 A 
ATOM     35  H   UNL A   1      44.763  28.955  32.496  1.00  0.00     0.167 HD
ATOM     36  C   UNL A   1      44.866  28.885  29.490  1.00  0.00     0.074 A 
ATOM     37  C   UNL A   1      44.547  27.615  30.140  1.00  0.00     0.031 C 
ATOM     38  C   UNL A   1      44.827  30.174  29.936  1.00  0.00     0.037 A 
BRANCH  25  39
ATOM     39  C   UNL A   1      42.578  27.929  34.301  1.00  0.00     0.058 A 
ATOM     40  C   UNL A   1      42.623  28.134  35.697  1.00  0.00     0.135 A 
ATOM     41  C   UNL A   1      43.229  26.764  33.837  1.00  0.00     0.135 A 
ATOM     42  F   UNL A   1      42.044  29.211  36.250  1.00  0.00    -0.206 F 
ATOM     43  C   UNL A   1      43.328  27.290  36.556  1.00  0.00     0.059 A 
ATOM     44  C   UNL A   1      43.893  25.882  34.683  1.00  0.00     0.059 A 
ATOM     45  F   UNL A   1      43.338  26.477  32.535  1.00  0.00    -0.206 F 
ATOM     46  C   UNL A   1      43.971  26.172  36.035  1.00  0.00     0.060 A 
BRANCH  46  47
ATOM     47  S   UNL A   1      44.944  25.125  37.130  1.00  0.00     0.124 S 
ATOM     48  O   UNL A   1      44.681  23.801  36.576  1.00  0.00    -0.237 OA
ATOM     49  O   UNL A   1      46.291  25.648  36.928  1.00  0.00    -0.237 OA
ATOM     50  O   UNL A   1      44.366  25.387  38.444  1.00  0.00    -0.744 OA
ENDBRANCH  46  47
ENDBRANCH  25  39
BRANCH  26  51
ATOM     51  C   UNL A   1      43.593  25.854  26.112  1.00  0.00     0.058 A 
ATOM     52  C   UNL A   1      44.786  25.665  25.382  1.00  0.00     0.135 A 
ATOM     53  C   UNL A   1      42.785  24.712  26.268  1.00  0.00     0.135 A 
ATOM     54  F   UNL A   1      45.632  26.689  25.193  1.00  0.00    -0.206 F 
ATOM     55  C   UNL A   1      45.181  24.411  24.894  1.00  0.00     0.059 A 
ATOM     56  C   UNL A   1      43.154  23.455  25.787  1.00  0.00     0.059 A 
ATOM     57  F   UNL A   1      41.652  24.766  26.985  1.00  0.00    -0.206 F 
ATOM     58  C   UNL A   1      44.368  23.303  25.126  1.00  0.00     0.060 A 
BRANCH  58  59
ATOM     59  S   UNL A   1      44.955  21.650  24.676  1.00  0.00     0.124 S 
ATOM     60  O   UNL A   1      44.193  20.798  25.583  1.00  0.00    -0.237 OA
ATOM     61  O   UNL A   1      44.591  21.564  23.265  1.00  0.00    -0.237 OA
ATOM     62  O   UNL A   1      46.390  21.717  24.941  1.00  0.00    -0.744 OA
ENDBRANCH  58  59
ENDBRANCH  26  51
BRANCH  38  63
ATOM     63  C   UNL A   1      45.174  31.281  28.976  1.00  0.00     0.058 A 
ATOM     64  C   UNL A   1      46.471  31.766  28.729  1.00  0.00     0.135 A 
ATOM     65  C   UNL A   1      44.138  31.788  28.176  1.00  0.00     0.135 A 
ATOM     66  F   UNL A   1      47.536  31.261  29.370  1.00  0.00    -0.206 F 
ATOM     67  C   UNL A   1      46.713  32.751  27.768  1.00  0.00     0.059 A 
ATOM     68  C   UNL A   1      44.362  32.740  27.189  1.00  0.00     0.059 A 
ATOM     69  F   UNL A   1      42.886  31.323  28.322  1.00  0.00    -0.206 F 
ATOM     70  C   UNL A   1      45.650  33.233  27.003  1.00  0.00     0.060 A 
BRANCH  70  71
ATOM     71  S   UNL A   1      45.965  34.472  25.728  1.00  0.00     0.124 S 
ATOM     72  O   UNL A   1      45.034  34.073  24.678  1.00  0.00    -0.237 OA
ATOM     73  O   UNL A   1      45.650  35.721  26.416  1.00  0.00    -0.237 OA
ATOM     74  O   UNL A   1      47.378  34.285  25.411  1.00  0.00    -0.744 OA
ENDBRANCH  70  71
ENDBRANCH  38  63
ENDBRANCH  12  13
ENDBRANCH   5   7
ENDBRANCH   2   3
ENDBRANCH   1   2
BRANCH   1  75
ATOM     75  C   UNL A   1      33.627  28.123  26.984  1.00  0.00     0.023 C 
BRANCH  75  76
ATOM     76  C   UNL A   1      33.153  26.973  26.095  1.00  0.00     0.116 C 
BRANCH  76  77
ATOM     77  N   UNL A   1      31.735  27.040  25.785  1.00  0.00    -0.351 N 
ATOM     78  C   UNL A   1      30.819  26.025  25.606  1.00  0.00     0.273 C 
ATOM     79  H   UNL A   1      31.372  27.950  25.687  1.00  0.00     0.163 HD
ATOM     80  O   UNL A   1      29.692  26.313  25.221  1.00  0.00    -0.267 OA
BRANCH  78  81
ATOM     81  C   UNL A   1      31.217  24.654  25.886  1.00  0.00     0.170 A 
ATOM     82  C   UNL A   1      31.604  23.662  25.005  1.00  0.00     0.145 A 
ATOM     83  N   UNL A   1      31.301  24.160  27.166  1.00  0.00    -0.125 NA
ATOM     84  N   UNL A   1      31.790  22.568  25.799  1.00  0.00    -0.237 N 
ATOM     85  N   UNL A   1      31.636  22.881  27.097  1.00  0.00    -0.066 NA
BRANCH  84  86
ATOM     86  C   UNL A   1      32.066  21.220  25.407  1.00  0.00     0.218 C 
ATOM     87  C   UNL A   1      32.585  21.058  23.957  1.00  0.00     0.296 C 
ATOM     88  C   UNL A   1      33.472  20.716  25.810  1.00  0.00     0.296 C 
ATOM     89  N   UNL A   1      33.663  20.177  24.449  1.00  0.00    -0.323 N 
ATOM     90  H   UNL A   1      34.587  20.184  24.015  1.00  0.00     0.348 HD
BRANCH  89  91
ATOM     91  C   UNL A   1      33.322  18.731  24.336  1.00  0.00     0.379 C 
BRANCH  91  92
ATOM     92  C   UNL A   1      34.363  17.600  24.185  1.00  0.00     0.438 C 
ATOM     93  F   UNL A   1      35.607  18.013  24.513  1.00  0.00    -0.165 F 
ATOM     94  F   UNL A   1      34.056  16.564  25.001  1.00  0.00    -0.165 F 
ATOM     95  F   UNL A   1      34.401  17.115  22.925  1.00  0.00    -0.165 F 
ENDBRANCH  91  92
ENDBRANCH  89  91
ENDBRANCH  84  86
ENDBRANCH  78  81
ENDBRANCH  76  77
ENDBRANCH  75  76
ENDBRANCH   1  75
TORSDOF 17
ENDMDL
