MODEL 1
REMARK VINA RESULT:      -9.1      0.000      0.000
REMARK SMILES C[C@@H](CCCO)[NH2+][C@@H](C)CC(=O)NCCCCNC(=O)c1ccc(-c2c3nc(c(-c4c(F)cc(S(=O)(=O)[O-])cc4F)c4ccc([nH]4)c(-c4c(F)cc(S(=O)(=O)[O-])cc4F)c4nc(c(-c5c(F)cc(S(=O)(=O)[O-])cc5F)c5ccc2[nH]5)C=C4)C=C3)cc1
REMARK SMILES IDX 11 1 12 2 13 3 10 5 8 6 9 7 7 8 2 11 1 12 3 13 4 14 5 15
REMARK SMILES IDX 6 16 14 18 15 19 16 20 17 21 18 22 19 23 20 25 21 26 22 27
REMARK SMILES IDX 86 28 23 29 85 30 24 31 25 32 26 33 79 34 27 35 84 36 78 37
REMARK SMILES IDX 80 38 28 39 83 40 77 41 76 42 29 44 63 45 42 46 62 47 43 48
REMARK SMILES IDX 46 49 61 50 81 51 44 52 45 53 60 55 82 56 47 57 30 58 31 59
REMARK SMILES IDX 40 60 32 61 33 62 39 63 41 64 34 65 35 66 36 67 37 68 38 69
REMARK SMILES IDX 64 70 65 71 74 72 66 73 67 74 73 75 75 76 68 77 69 78 70 79
REMARK SMILES IDX 71 80 72 81 48 82 49 83 58 84 50 85 51 86 57 87 59 88 52 89
REMARK SMILES IDX 53 90 54 91 55 92 56 93
REMARK H PARENT 13 4 7 9 7 10 6 17 18 24 80 43 46 54
REMARK Flexibility Score: inf
ROOT
ATOM      1  C   UNL A   1      32.529  26.539  22.023  1.00  0.00     0.225 C 
ATOM      2  O   UNL A   1      31.703  26.224  21.164  1.00  0.00    -0.275 OA
ATOM      3  N   UNL A   1      32.788  27.860  22.230  1.00  0.00    -0.356 N 
ATOM      4  H   UNL A   1      32.190  28.493  21.771  1.00  0.00     0.163 HD
ENDROOT
BRANCH   1   5
ATOM      5  C   UNL A   1      33.205  25.479  22.872  1.00  0.00     0.164 C 
BRANCH   5   6
ATOM      6  C   UNL A   1      32.400  25.057  24.124  1.00  0.00     0.188 C 
ATOM      7  C   UNL A   1      32.935  23.702  24.609  1.00  0.00     0.075 C 
BRANCH   6   8
ATOM      8  N   UNL A   1      30.973  24.975  23.753  1.00  0.00    -0.341 N 
ATOM      9  H   UNL A   1      30.881  25.335  22.803  1.00  0.00     0.346 HD
ATOM     10  H   UNL A   1      30.726  23.993  23.869  1.00  0.00     0.346 HD
BRANCH   8  11
ATOM     11  C   UNL A   1      30.019  25.708  24.596  1.00  0.00     0.179 C 
ATOM     12  C   UNL A   1      30.777  26.426  25.720  1.00  0.00     0.075 C 
BRANCH  11  13
ATOM     13  C   UNL A   1      29.185  26.730  23.785  1.00  0.00     0.067 C 
BRANCH  13  14
ATOM     14  C   UNL A   1      29.677  28.190  23.723  1.00  0.00     0.034 C 
BRANCH  14  15
ATOM     15  C   UNL A   1      29.223  29.027  22.529  1.00  0.00     0.156 C 
BRANCH  15  16
ATOM     16  O   UNL A   1      30.219  29.010  21.513  1.00  0.00    -0.396 OA
ATOM     17  H   UNL A   1      30.851  29.728  21.669  1.00  0.00     0.210 HD
ENDBRANCH  15  16
ENDBRANCH  14  15
ENDBRANCH  13  14
ENDBRANCH  11  13
ENDBRANCH   8  11
ENDBRANCH   6   8
ENDBRANCH   5   6
ENDBRANCH   1   5
BRANCH   3  18
ATOM     18  C   UNL A   1      33.832  28.455  23.041  1.00  0.00     0.116 C 
BRANCH  18  19
ATOM     19  C   UNL A   1      33.369  28.624  24.484  1.00  0.00     0.023 C 
BRANCH  19  20
ATOM     20  C   UNL A   1      34.349  28.151  25.550  1.00  0.00     0.023 C 
BRANCH  20  21
ATOM     21  C   UNL A   1      33.814  28.228  26.969  1.00  0.00     0.116 C 
BRANCH  21  22
ATOM     22  N   UNL A   1      33.593  29.590  27.439  1.00  0.00    -0.352 N 
ATOM     23  C   UNL A   1      34.482  30.432  28.064  1.00  0.00     0.251 C 
ATOM     24  H   UNL A   1      32.691  29.953  27.289  1.00  0.00     0.163 HD
ATOM     25  O   UNL A   1      34.106  31.525  28.478  1.00  0.00    -0.269 OA
BRANCH  23  26
ATOM     26  C   UNL A   1      35.879  29.990  28.271  1.00  0.00     0.039 A 
ATOM     27  C   UNL A   1      36.801  30.148  27.234  1.00  0.00     0.014 A 
ATOM     28  C   UNL A   1      36.286  29.454  29.496  1.00  0.00     0.014 A 
ATOM     29  C   UNL A   1      38.141  29.818  27.447  1.00  0.00     0.010 A 
ATOM     30  C   UNL A   1      37.633  29.229  29.740  1.00  0.00     0.010 A 
ATOM     31  C   UNL A   1      38.571  29.378  28.710  1.00  0.00    -0.014 A 
BRANCH  31  32
ATOM     32  C   UNL A   1      39.984  29.003  28.960  1.00  0.00     0.031 A 
ATOM     33  C   UNL A   1      40.924  30.016  29.561  1.00  0.00     0.074 A 
ATOM     34  C   UNL A   1      40.433  27.785  28.600  1.00  0.00     0.049 A 
ATOM     35  N   UNL A   1      42.204  29.914  29.807  1.00  0.00    -0.248 NA
ATOM     36  C   UNL A   1      40.357  31.336  29.892  1.00  0.00     0.031 C 
ATOM     37  C   UNL A   1      39.637  26.744  27.946  1.00  0.00     0.029 A 
ATOM     38  N   UNL A   1      41.676  27.217  28.730  1.00  0.00    -0.354 N 
ATOM     39  C   UNL A   1      42.595  31.156  30.296  1.00  0.00     0.074 A 
ATOM     40  C   UNL A   1      41.435  32.017  30.245  1.00  0.00     0.031 C 
ATOM     41  C   UNL A   1      40.400  25.654  27.763  1.00  0.00     0.029 A 
ATOM     42  C   UNL A   1      41.746  25.926  28.262  1.00  0.00     0.049 A 
ATOM     43  H   UNL A   1      42.445  27.689  29.123  1.00  0.00     0.167 HD
ATOM     44  C   UNL A   1      43.801  31.537  30.779  1.00  0.00     0.037 A 
ATOM     45  C   UNL A   1      42.777  25.060  28.248  1.00  0.00     0.037 A 
ATOM     46  C   UNL A   1      44.935  30.659  30.875  1.00  0.00     0.049 A 
ATOM     47  C   UNL A   1      44.091  25.484  28.847  1.00  0.00     0.074 A 
ATOM     48  C   UNL A   1      46.188  30.921  31.399  1.00  0.00     0.029 A 
ATOM     49  N   UNL A   1      44.947  29.338  30.449  1.00  0.00    -0.354 N 
ATOM     50  N   UNL A   1      44.428  26.645  29.358  1.00  0.00    -0.248 NA
ATOM     51  C   UNL A   1      45.159  24.477  28.886  1.00  0.00     0.031 C 
ATOM     52  C   UNL A   1      46.966  29.766  31.268  1.00  0.00     0.029 A 
ATOM     53  C   UNL A   1      46.184  28.772  30.701  1.00  0.00     0.049 A 
ATOM     54  H   UNL A   1      44.187  28.873  30.031  1.00  0.00     0.167 HD
ATOM     55  C   UNL A   1      45.733  26.496  29.814  1.00  0.00     0.074 A 
ATOM     56  C   UNL A   1      46.121  25.130  29.524  1.00  0.00     0.031 C 
ATOM     57  C   UNL A   1      46.538  27.403  30.421  1.00  0.00     0.037 A 
BRANCH  44  58
ATOM     58  C   UNL A   1      43.940  32.956  31.257  1.00  0.00     0.058 A 
ATOM     59  C   UNL A   1      43.664  33.316  32.587  1.00  0.00     0.135 A 
ATOM     60  C   UNL A   1      44.365  33.969  30.382  1.00  0.00     0.135 A 
ATOM     61  F   UNL A   1      43.234  32.393  33.462  1.00  0.00    -0.206 F 
ATOM     62  C   UNL A   1      43.768  34.633  33.023  1.00  0.00     0.059 A 
ATOM     63  C   UNL A   1      44.505  35.288  30.804  1.00  0.00     0.059 A 
ATOM     64  F   UNL A   1      44.639  33.683  29.100  1.00  0.00    -0.206 F 
ATOM     65  C   UNL A   1      44.188  35.613  32.123  1.00  0.00     0.060 A 
BRANCH  65  66
ATOM     66  S   UNL A   1      44.320  37.317  32.704  1.00  0.00     0.124 S 
ATOM     67  O   UNL A   1      45.573  37.272  33.452  1.00  0.00    -0.237 OA
ATOM     68  O   UNL A   1      44.354  38.072  31.456  1.00  0.00    -0.237 OA
ATOM     69  O   UNL A   1      43.115  37.495  33.508  1.00  0.00    -0.744 OA
ENDBRANCH  65  66
ENDBRANCH  44  58
BRANCH  45  70
ATOM     70  C   UNL A   1      42.592  23.688  27.705  1.00  0.00     0.058 A 
ATOM     71  C   UNL A   1      42.654  23.445  26.324  1.00  0.00     0.135 A 
ATOM     72  C   UNL A   1      42.359  22.593  28.550  1.00  0.00     0.135 A 
ATOM     73  F   UNL A   1      42.873  24.461  25.475  1.00  0.00    -0.206 F 
ATOM     74  C   UNL A   1      42.467  22.172  25.797  1.00  0.00     0.059 A 
ATOM     75  C   UNL A   1      42.193  21.305  28.050  1.00  0.00     0.059 A 
ATOM     76  F   UNL A   1      42.312  22.767  29.880  1.00  0.00    -0.206 F 
ATOM     77  C   UNL A   1      42.236  21.106  26.669  1.00  0.00     0.060 A 
BRANCH  77  78
ATOM     78  S   UNL A   1      42.033  19.450  25.978  1.00  0.00     0.124 S 
ATOM     79  O   UNL A   1      42.861  19.529  24.780  1.00  0.00    -0.237 OA
ATOM     80  O   UNL A   1      42.541  18.603  27.051  1.00  0.00    -0.237 OA
ATOM     81  O   UNL A   1      40.594  19.359  25.746  1.00  0.00    -0.744 OA
ENDBRANCH  77  78
ENDBRANCH  45  70
BRANCH  57  82
ATOM     82  C   UNL A   1      47.894  26.931  30.865  1.00  0.00     0.058 A 
ATOM     83  C   UNL A   1      49.009  26.971  30.013  1.00  0.00     0.135 A 
ATOM     84  C   UNL A   1      48.082  26.460  32.174  1.00  0.00     0.135 A 
ATOM     85  F   UNL A   1      48.880  27.412  28.752  1.00  0.00    -0.206 F 
ATOM     86  C   UNL A   1      50.258  26.526  30.434  1.00  0.00     0.059 A 
ATOM     87  C   UNL A   1      49.327  26.036  32.624  1.00  0.00     0.059 A 
ATOM     88  F   UNL A   1      47.051  26.415  33.033  1.00  0.00    -0.206 F 
ATOM     89  C   UNL A   1      50.405  26.055  31.740  1.00  0.00     0.060 A 
BRANCH  89  90
ATOM     90  S   UNL A   1      52.030  25.485  32.279  1.00  0.00     0.124 S 
ATOM     91  O   UNL A   1      52.170  26.167  33.561  1.00  0.00    -0.237 OA
ATOM     92  O   UNL A   1      51.850  24.037  32.346  1.00  0.00    -0.237 OA
ATOM     93  O   UNL A   1      52.921  25.950  31.218  1.00  0.00    -0.744 OA
ENDBRANCH  89  90
ENDBRANCH  57  82
ENDBRANCH  31  32
ENDBRANCH  23  26
ENDBRANCH  21  22
ENDBRANCH  20  21
ENDBRANCH  19  20
ENDBRANCH  18  19
ENDBRANCH   3  18
TORSDOF 21
ENDMDL
MODEL 2
REMARK VINA RESULT:      -8.5      1.311      3.168
REMARK SMILES C[C@@H](CCCO)[NH2+][C@@H](C)CC(=O)NCCCCNC(=O)c1ccc(-c2c3nc(c(-c4c(F)cc(S(=O)(=O)[O-])cc4F)c4ccc([nH]4)c(-c4c(F)cc(S(=O)(=O)[O-])cc4F)c4nc(c(-c5c(F)cc(S(=O)(=O)[O-])cc5F)c5ccc2[nH]5)C=C4)C=C3)cc1
REMARK SMILES IDX 11 1 12 2 13 3 10 5 8 6 9 7 7 8 2 11 1 12 3 13 4 14 5 15
REMARK SMILES IDX 6 16 14 18 15 19 16 20 17 21 18 22 19 23 20 25 21 26 22 27
REMARK SMILES IDX 86 28 23 29 85 30 24 31 25 32 26 33 79 34 27 35 84 36 78 37
REMARK SMILES IDX 80 38 28 39 83 40 77 41 76 42 29 44 63 45 42 46 62 47 43 48
REMARK SMILES IDX 46 49 61 50 81 51 44 52 45 53 60 55 82 56 47 57 30 58 31 59
REMARK SMILES IDX 40 60 32 61 33 62 39 63 41 64 34 65 35 66 36 67 37 68 38 69
REMARK SMILES IDX 64 70 65 71 74 72 66 73 67 74 73 75 75 76 68 77 69 78 70 79
REMARK SMILES IDX 71 80 72 81 48 82 49 83 58 84 50 85 51 86 57 87 59 88 52 89
REMARK SMILES IDX 53 90 54 91 55 92 56 93
REMARK H PARENT 13 4 7 9 7 10 6 17 18 24 80 43 46 54
REMARK Flexibility Score: inf
ROOT
ATOM      1  C   UNL A   1      30.948  24.404  24.900  1.00  0.00     0.225 C 
ATOM      2  O   UNL A   1      30.933  23.954  23.752  1.00  0.00    -0.275 OA
ATOM      3  N   UNL A   1      30.669  25.724  25.090  1.00  0.00    -0.356 N 
ATOM      4  H   UNL A   1      30.334  26.210  24.303  1.00  0.00     0.163 HD
ENDROOT
BRANCH   1   5
ATOM      5  C   UNL A   1      31.218  23.495  26.084  1.00  0.00     0.164 C 
BRANCH   5   6
ATOM      6  C   UNL A   1      32.657  22.930  26.137  1.00  0.00     0.188 C 
ATOM      7  C   UNL A   1      33.629  24.100  26.348  1.00  0.00     0.075 C 
BRANCH   6   8
ATOM      8  N   UNL A   1      32.927  22.224  24.868  1.00  0.00    -0.341 N 
ATOM      9  H   UNL A   1      32.056  22.202  24.338  1.00  0.00     0.346 HD
ATOM     10  H   UNL A   1      33.686  22.746  24.432  1.00  0.00     0.346 HD
BRANCH   8  11
ATOM     11  C   UNL A   1      33.422  20.844  24.962  1.00  0.00     0.179 C 
ATOM     12  C   UNL A   1      32.617  19.947  24.011  1.00  0.00     0.075 C 
BRANCH  11  13
ATOM     13  C   UNL A   1      34.931  20.739  24.635  1.00  0.00     0.067 C 
BRANCH  13  14
ATOM     14  C   UNL A   1      35.944  21.209  25.699  1.00  0.00     0.034 C 
BRANCH  14  15
ATOM     15  C   UNL A   1      37.154  21.999  25.207  1.00  0.00     0.156 C 
BRANCH  15  16
ATOM     16  O   UNL A   1      37.645  22.839  26.245  1.00  0.00    -0.396 OA
ATOM     17  H   UNL A   1      37.154  23.676  26.243  1.00  0.00     0.210 HD
ENDBRANCH  15  16
ENDBRANCH  14  15
ENDBRANCH  13  14
ENDBRANCH  11  13
ENDBRANCH   8  11
ENDBRANCH   6   8
ENDBRANCH   5   6
ENDBRANCH   1   5
BRANCH   3  18
ATOM     18  C   UNL A   1      30.804  26.504  26.304  1.00  0.00     0.116 C 
BRANCH  18  19
ATOM     19  C   UNL A   1      31.475  27.843  26.017  1.00  0.00     0.023 C 
BRANCH  19  20
ATOM     20  C   UNL A   1      32.962  27.778  25.694  1.00  0.00     0.023 C 
BRANCH  20  21
ATOM     21  C   UNL A   1      33.870  28.171  26.846  1.00  0.00     0.116 C 
BRANCH  21  22
ATOM     22  N   UNL A   1      33.623  29.513  27.356  1.00  0.00    -0.352 N 
ATOM     23  C   UNL A   1      34.492  30.347  28.020  1.00  0.00     0.251 C 
ATOM     24  H   UNL A   1      32.719  29.869  27.205  1.00  0.00     0.163 HD
ATOM     25  O   UNL A   1      34.095  31.421  28.463  1.00  0.00    -0.269 OA
BRANCH  23  26
ATOM     26  C   UNL A   1      35.892  29.917  28.232  1.00  0.00     0.039 A 
ATOM     27  C   UNL A   1      36.816  30.081  27.198  1.00  0.00     0.014 A 
ATOM     28  C   UNL A   1      36.299  29.388  29.460  1.00  0.00     0.014 A 
ATOM     29  C   UNL A   1      38.158  29.762  27.416  1.00  0.00     0.010 A 
ATOM     30  C   UNL A   1      37.647  29.175  29.709  1.00  0.00     0.010 A 
ATOM     31  C   UNL A   1      38.588  29.330  28.681  1.00  0.00    -0.014 A 
BRANCH  31  32
ATOM     32  C   UNL A   1      40.003  28.967  28.937  1.00  0.00     0.031 A 
ATOM     33  C   UNL A   1      40.928  29.985  29.554  1.00  0.00     0.074 A 
ATOM     34  C   UNL A   1      40.467  27.757  28.569  1.00  0.00     0.049 A 
ATOM     35  N   UNL A   1      42.208  29.895  29.807  1.00  0.00    -0.248 NA
ATOM     36  C   UNL A   1      40.345  31.296  29.893  1.00  0.00     0.031 C 
ATOM     37  C   UNL A   1      39.686  26.714  27.901  1.00  0.00     0.029 A 
ATOM     38  N   UNL A   1      41.715  27.202  28.702  1.00  0.00    -0.354 N 
ATOM     39  C   UNL A   1      42.582  31.136  30.309  1.00  0.00     0.074 A 
ATOM     40  C   UNL A   1      41.414  31.984  30.258  1.00  0.00     0.031 C 
ATOM     41  C   UNL A   1      40.462  25.634  27.713  1.00  0.00     0.029 A 
ATOM     42  C   UNL A   1      41.802  25.916  28.223  1.00  0.00     0.049 A 
ATOM     43  H   UNL A   1      42.476  27.678  29.104  1.00  0.00     0.167 HD
ATOM     44  C   UNL A   1      43.782  31.525  30.803  1.00  0.00     0.037 A 
ATOM     45  C   UNL A   1      42.841  25.061  28.208  1.00  0.00     0.037 A 
ATOM     46  C   UNL A   1      44.925  30.658  30.898  1.00  0.00     0.049 A 
ATOM     47  C   UNL A   1      44.148  25.494  28.819  1.00  0.00     0.074 A 
ATOM     48  C   UNL A   1      46.171  30.929  31.433  1.00  0.00     0.029 A 
ATOM     49  N   UNL A   1      44.953  29.342  30.460  1.00  0.00    -0.354 N 
ATOM     50  N   UNL A   1      44.469  26.653  29.342  1.00  0.00    -0.248 NA
ATOM     51  C   UNL A   1      45.226  24.497  28.856  1.00  0.00     0.031 C 
ATOM     52  C   UNL A   1      46.962  29.783  31.296  1.00  0.00     0.029 A 
ATOM     53  C   UNL A   1      46.194  28.786  30.715  1.00  0.00     0.049 A 
ATOM     54  H   UNL A   1      44.200  28.872  30.033  1.00  0.00     0.167 HD
ATOM     55  C   UNL A   1      45.773  26.514  29.806  1.00  0.00     0.074 A 
ATOM     56  C   UNL A   1      46.177  25.155  29.506  1.00  0.00     0.031 C 
ATOM     57  C   UNL A   1      46.565  27.424  30.426  1.00  0.00     0.037 A 
BRANCH  44  58
ATOM     58  C   UNL A   1      43.903  32.942  31.295  1.00  0.00     0.058 A 
ATOM     59  C   UNL A   1      44.235  33.997  30.429  1.00  0.00     0.135 A 
ATOM     60  C   UNL A   1      43.675  33.252  32.645  1.00  0.00     0.135 A 
ATOM     61  F   UNL A   1      44.485  33.755  29.132  1.00  0.00    -0.206 F 
ATOM     62  C   UNL A   1      44.371  35.302  30.889  1.00  0.00     0.059 A 
ATOM     63  C   UNL A   1      43.776  34.556  33.122  1.00  0.00     0.059 A 
ATOM     64  F   UNL A   1      43.358  32.283  33.518  1.00  0.00    -0.206 F 
ATOM     65  C   UNL A   1      44.142  35.572  32.239  1.00  0.00     0.060 A 
BRANCH  65  66
ATOM     66  S   UNL A   1      44.322  37.271  32.821  1.00  0.00     0.124 S 
ATOM     67  O   UNL A   1      44.357  38.007  31.560  1.00  0.00    -0.237 OA
ATOM     68  O   UNL A   1      43.121  37.455  33.628  1.00  0.00    -0.237 OA
ATOM     69  O   UNL A   1      45.577  37.243  33.566  1.00  0.00    -0.744 OA
ENDBRANCH  65  66
ENDBRANCH  44  58
BRANCH  45  70
ATOM     70  C   UNL A   1      42.675  23.692  27.651  1.00  0.00     0.058 A 
ATOM     71  C   UNL A   1      42.441  22.594  28.493  1.00  0.00     0.135 A 
ATOM     72  C   UNL A   1      42.738  23.452  26.270  1.00  0.00     0.135 A 
ATOM     73  F   UNL A   1      42.375  22.772  29.822  1.00  0.00    -0.206 F 
ATOM     74  C   UNL A   1      42.301  21.305  27.991  1.00  0.00     0.059 A 
ATOM     75  C   UNL A   1      42.576  22.176  25.741  1.00  0.00     0.059 A 
ATOM     76  F   UNL A   1      42.938  24.471  25.419  1.00  0.00    -0.206 F 
ATOM     77  C   UNL A   1      42.371  21.105  26.611  1.00  0.00     0.060 A 
BRANCH  77  78
ATOM     78  S   UNL A   1      42.147  19.433  25.966  1.00  0.00     0.124 S 
ATOM     79  O   UNL A   1      40.720  19.421  25.670  1.00  0.00    -0.237 OA
ATOM     80  O   UNL A   1      43.040  19.426  24.812  1.00  0.00    -0.237 OA
ATOM     81  O   UNL A   1      42.568  18.587  27.080  1.00  0.00    -0.744 OA
ENDBRANCH  77  78
ENDBRANCH  45  70
BRANCH  57  82
ATOM     82  C   UNL A   1      47.923  26.962  30.873  1.00  0.00     0.058 A 
ATOM     83  C   UNL A   1      48.119  26.323  32.107  1.00  0.00     0.135 A 
ATOM     84  C   UNL A   1      49.036  27.137  30.037  1.00  0.00     0.135 A 
ATOM     85  F   UNL A   1      47.086  26.133  32.942  1.00  0.00    -0.206 F 
ATOM     86  C   UNL A   1      49.383  25.905  32.512  1.00  0.00     0.059 A 
ATOM     87  C   UNL A   1      50.304  26.702  30.410  1.00  0.00     0.059 A 
ATOM     88  F   UNL A   1      48.899  27.730  28.840  1.00  0.00    -0.206 F 
ATOM     89  C   UNL A   1      50.469  26.103  31.658  1.00  0.00     0.060 A 
BRANCH  89  90
ATOM     90  S   UNL A   1      52.103  25.552  32.190  1.00  0.00     0.124 S 
ATOM     91  O   UNL A   1      52.896  25.782  30.987  1.00  0.00    -0.237 OA
ATOM     92  O   UNL A   1      52.385  26.441  33.314  1.00  0.00    -0.237 OA
ATOM     93  O   UNL A   1      51.890  24.152  32.545  1.00  0.00    -0.744 OA
ENDBRANCH  89  90
ENDBRANCH  57  82
ENDBRANCH  31  32
ENDBRANCH  23  26
ENDBRANCH  21  22
ENDBRANCH  20  21
ENDBRANCH  19  20
ENDBRANCH  18  19
ENDBRANCH   3  18
TORSDOF 21
ENDMDL
MODEL 3
REMARK VINA RESULT:      -8.4      2.950      4.257
REMARK SMILES C[C@@H](CCCO)[NH2+][C@@H](C)CC(=O)NCCCCNC(=O)c1ccc(-c2c3nc(c(-c4c(F)cc(S(=O)(=O)[O-])cc4F)c4ccc([nH]4)c(-c4c(F)cc(S(=O)(=O)[O-])cc4F)c4nc(c(-c5c(F)cc(S(=O)(=O)[O-])cc5F)c5ccc2[nH]5)C=C4)C=C3)cc1
REMARK SMILES IDX 11 1 12 2 13 3 10 5 8 6 9 7 7 8 2 11 1 12 3 13 4 14 5 15
REMARK SMILES IDX 6 16 14 18 15 19 16 20 17 21 18 22 19 23 20 25 21 26 22 27
REMARK SMILES IDX 86 28 23 29 85 30 24 31 25 32 26 33 79 34 27 35 84 36 78 37
REMARK SMILES IDX 80 38 28 39 83 40 77 41 76 42 29 44 63 45 42 46 62 47 43 48
REMARK SMILES IDX 46 49 61 50 81 51 44 52 45 53 60 55 82 56 47 57 30 58 31 59
REMARK SMILES IDX 40 60 32 61 33 62 39 63 41 64 34 65 35 66 36 67 37 68 38 69
REMARK SMILES IDX 64 70 65 71 74 72 66 73 67 74 73 75 75 76 68 77 69 78 70 79
REMARK SMILES IDX 71 80 72 81 48 82 49 83 58 84 50 85 51 86 57 87 59 88 52 89
REMARK SMILES IDX 53 90 54 91 55 92 56 93
REMARK H PARENT 13 4 7 9 7 10 6 17 18 24 80 43 46 54
REMARK Flexibility Score: inf
ROOT
ATOM      1  C   UNL A   1      32.004  23.774  25.284  1.00  0.00     0.225 C 
ATOM      2  O   UNL A   1      31.665  23.032  24.360  1.00  0.00    -0.275 OA
ATOM      3  N   UNL A   1      31.321  24.938  25.474  1.00  0.00    -0.356 N 
ATOM      4  H   UNL A   1      30.501  25.047  24.940  1.00  0.00     0.163 HD
ENDROOT
BRANCH   1   5
ATOM      5  C   UNL A   1      33.124  23.376  26.226  1.00  0.00     0.164 C 
BRANCH   5   6
ATOM      6  C   UNL A   1      34.512  23.264  25.552  1.00  0.00     0.188 C 
ATOM      7  C   UNL A   1      34.820  24.597  24.854  1.00  0.00     0.075 C 
BRANCH   6   8
ATOM      8  N   UNL A   1      34.474  22.144  24.590  1.00  0.00    -0.341 N 
ATOM      9  H   UNL A   1      33.620  21.615  24.768  1.00  0.00     0.346 HD
ATOM     10  H   UNL A   1      34.526  22.584  23.671  1.00  0.00     0.346 HD
BRANCH   8  11
ATOM     11  C   UNL A   1      35.595  21.196  24.620  1.00  0.00     0.179 C 
ATOM     12  C   UNL A   1      36.642  21.676  25.635  1.00  0.00     0.075 C 
BRANCH  11  13
ATOM     13  C   UNL A   1      35.139  19.759  24.972  1.00  0.00     0.067 C 
BRANCH  13  14
ATOM     14  C   UNL A   1      33.838  19.228  24.335  1.00  0.00     0.034 C 
BRANCH  14  15
ATOM     15  C   UNL A   1      32.651  18.996  25.267  1.00  0.00     0.156 C 
BRANCH  15  16
ATOM     16  O   UNL A   1      31.904  20.197  25.416  1.00  0.00    -0.396 OA
ATOM     17  H   UNL A   1      31.222  20.241  24.728  1.00  0.00     0.210 HD
ENDBRANCH  15  16
ENDBRANCH  14  15
ENDBRANCH  13  14
ENDBRANCH  11  13
ENDBRANCH   8  11
ENDBRANCH   6   8
ENDBRANCH   5   6
ENDBRANCH   1   5
BRANCH   3  18
ATOM     18  C   UNL A   1      31.647  26.036  26.363  1.00  0.00     0.116 C 
BRANCH  18  19
ATOM     19  C   UNL A   1      31.816  27.334  25.581  1.00  0.00     0.023 C 
BRANCH  19  20
ATOM     20  C   UNL A   1      33.253  27.754  25.304  1.00  0.00     0.023 C 
BRANCH  20  21
ATOM     21  C   UNL A   1      33.990  28.301  26.514  1.00  0.00     0.116 C 
BRANCH  21  22
ATOM     22  N   UNL A   1      33.707  29.703  26.788  1.00  0.00    -0.352 N 
ATOM     23  C   UNL A   1      34.443  30.592  27.535  1.00  0.00     0.251 C 
ATOM     24  H   UNL A   1      32.883  30.060  26.387  1.00  0.00     0.163 HD
ATOM     25  O   UNL A   1      34.016  31.724  27.741  1.00  0.00    -0.269 OA
BRANCH  23  26
ATOM     26  C   UNL A   1      35.730  30.156  28.121  1.00  0.00     0.039 A 
ATOM     27  C   UNL A   1      36.913  30.404  27.421  1.00  0.00     0.014 A 
ATOM     28  C   UNL A   1      35.773  29.539  29.374  1.00  0.00     0.014 A 
ATOM     29  C   UNL A   1      38.140  30.079  28.004  1.00  0.00     0.010 A 
ATOM     30  C   UNL A   1      36.993  29.316  29.995  1.00  0.00     0.010 A 
ATOM     31  C   UNL A   1      38.190  29.554  29.306  1.00  0.00    -0.014 A 
BRANCH  31  32
ATOM     32  C   UNL A   1      39.477  29.183  29.943  1.00  0.00     0.031 A 
ATOM     33  C   UNL A   1      39.958  29.954  31.145  1.00  0.00     0.074 A 
ATOM     34  C   UNL A   1      40.232  28.200  29.415  1.00  0.00     0.049 A 
ATOM     35  N   UNL A   1      41.074  29.832  31.815  1.00  0.00    -0.248 NA
ATOM     36  C   UNL A   1      39.085  31.036  31.635  1.00  0.00     0.031 C 
ATOM     37  C   UNL A   1      39.907  27.429  28.214  1.00  0.00     0.029 A 
ATOM     38  N   UNL A   1      41.437  27.684  29.822  1.00  0.00    -0.354 N 
ATOM     39  C   UNL A   1      41.046  30.830  32.782  1.00  0.00     0.074 A 
ATOM     40  C   UNL A   1      39.838  31.594  32.568  1.00  0.00     0.031 C 
ATOM     41  C   UNL A   1      40.869  26.517  28.000  1.00  0.00     0.029 A 
ATOM     42  C   UNL A   1      41.893  26.655  29.033  1.00  0.00     0.049 A 
ATOM     43  H   UNL A   1      41.929  28.019  30.606  1.00  0.00     0.167 HD
ATOM     44  C   UNL A   1      41.927  31.069  33.783  1.00  0.00     0.037 A 
ATOM     45  C   UNL A   1      43.005  25.903  29.139  1.00  0.00     0.037 A 
ATOM     46  C   UNL A   1      43.099  30.271  34.020  1.00  0.00     0.049 A 
ATOM     47  C   UNL A   1      43.939  26.145  30.295  1.00  0.00     0.074 A 
ATOM     48  C   UNL A   1      44.030  30.386  35.036  1.00  0.00     0.029 A 
ATOM     49  N   UNL A   1      43.492  29.196  33.235  1.00  0.00    -0.354 N 
ATOM     50  N   UNL A   1      43.867  27.057  31.235  1.00  0.00    -0.248 NA
ATOM     51  C   UNL A   1      45.092  25.244  30.417  1.00  0.00     0.031 C 
ATOM     52  C   UNL A   1      45.001  29.395  34.852  1.00  0.00     0.029 A 
ATOM     53  C   UNL A   1      44.650  28.637  33.746  1.00  0.00     0.049 A 
ATOM     54  H   UNL A   1      43.016  28.877  32.434  1.00  0.00     0.167 HD
ATOM     55  C   UNL A   1      44.944  26.816  32.082  1.00  0.00     0.074 A 
ATOM     56  C   UNL A   1      45.646  25.668  31.545  1.00  0.00     0.031 C 
ATOM     57  C   UNL A   1      45.318  27.481  33.204  1.00  0.00     0.037 A 
BRANCH  44  58
ATOM     58  C   UNL A   1      41.638  32.224  34.701  1.00  0.00     0.058 A 
ATOM     59  C   UNL A   1      42.140  33.511  34.447  1.00  0.00     0.135 A 
ATOM     60  C   UNL A   1      40.841  32.048  35.844  1.00  0.00     0.135 A 
ATOM     61  F   UNL A   1      42.925  33.733  33.381  1.00  0.00    -0.206 F 
ATOM     62  C   UNL A   1      41.893  34.573  35.311  1.00  0.00     0.059 A 
ATOM     63  C   UNL A   1      40.556  33.103  36.706  1.00  0.00     0.059 A 
ATOM     64  F   UNL A   1      40.338  30.839  36.138  1.00  0.00    -0.206 F 
ATOM     65  C   UNL A   1      41.101  34.359  36.440  1.00  0.00     0.060 A 
BRANCH  65  66
ATOM     66  S   UNL A   1      40.789  35.747  37.550  1.00  0.00     0.124 S 
ATOM     67  O   UNL A   1      42.129  36.310  37.693  1.00  0.00    -0.237 OA
ATOM     68  O   UNL A   1      39.842  36.553  36.786  1.00  0.00    -0.237 OA
ATOM     69  O   UNL A   1      40.245  35.110  38.745  1.00  0.00    -0.744 OA
ENDBRANCH  65  66
ENDBRANCH  44  58
BRANCH  45  70
ATOM     70  C   UNL A   1      43.266  24.813  28.162  1.00  0.00     0.058 A 
ATOM     71  C   UNL A   1      43.921  25.074  26.948  1.00  0.00     0.135 A 
ATOM     72  C   UNL A   1      42.875  23.490  28.420  1.00  0.00     0.135 A 
ATOM     73  F   UNL A   1      44.312  26.324  26.655  1.00  0.00    -0.206 F 
ATOM     74  C   UNL A   1      44.158  24.070  26.015  1.00  0.00     0.059 A 
ATOM     75  C   UNL A   1      43.123  22.464  27.514  1.00  0.00     0.059 A 
ATOM     76  F   UNL A   1      42.265  23.183  29.576  1.00  0.00    -0.206 F 
ATOM     77  C   UNL A   1      43.754  22.767  26.307  1.00  0.00     0.060 A 
BRANCH  77  78
ATOM     78  S   UNL A   1      44.101  21.463  25.106  1.00  0.00     0.124 S 
ATOM     79  O   UNL A   1      43.032  20.513  25.386  1.00  0.00    -0.237 OA
ATOM     80  O   UNL A   1      44.005  22.179  23.838  1.00  0.00    -0.237 OA
ATOM     81  O   UNL A   1      45.446  21.025  25.469  1.00  0.00    -0.744 OA
ENDBRANCH  77  78
ENDBRANCH  45  70
BRANCH  57  82
ATOM     82  C   UNL A   1      46.504  26.946  33.956  1.00  0.00     0.058 A 
ATOM     83  C   UNL A   1      46.369  25.978  34.964  1.00  0.00     0.135 A 
ATOM     84  C   UNL A   1      47.797  27.390  33.638  1.00  0.00     0.135 A 
ATOM     85  F   UNL A   1      45.153  25.523  35.305  1.00  0.00    -0.206 F 
ATOM     86  C   UNL A   1      47.474  25.496  35.656  1.00  0.00     0.059 A 
ATOM     87  C   UNL A   1      48.919  26.900  34.299  1.00  0.00     0.059 A 
ATOM     88  F   UNL A   1      47.982  28.304  32.672  1.00  0.00    -0.206 F 
ATOM     89  C   UNL A   1      48.745  25.967  35.320  1.00  0.00     0.060 A 
BRANCH  89  90
ATOM     90  S   UNL A   1      50.173  25.330  36.220  1.00  0.00     0.124 S 
ATOM     91  O   UNL A   1      49.883  23.900  36.256  1.00  0.00    -0.237 OA
ATOM     92  O   UNL A   1      51.288  25.730  35.365  1.00  0.00    -0.237 OA
ATOM     93  O   UNL A   1      50.099  26.020  37.505  1.00  0.00    -0.744 OA
ENDBRANCH  89  90
ENDBRANCH  57  82
ENDBRANCH  31  32
ENDBRANCH  23  26
ENDBRANCH  21  22
ENDBRANCH  20  21
ENDBRANCH  19  20
ENDBRANCH  18  19
ENDBRANCH   3  18
TORSDOF 21
ENDMDL
