MODEL 1
REMARK VINA RESULT:     -12.3      0.000      0.000
REMARK SMILES CC1(C)CCC[C@H]1NC(=O)N[C@@H]1COC[C@@]1(C)C(=O)NCCCCNC(=O)c1ccc(-c2c3nc(c(-c4c(F)cc(S(=O)(=O)[O-])cc4F)c4ccc([nH]4)c(-c4c(F)cc(S(=O)(=O)[O-])cc4F)c4nc(c(-c5c(F)cc(S(=O)(=O)[O-])cc5F)c5ccc2[nH]5)C=C4)C=C3)cc1
REMARK SMILES IDX 23 1 22 2 21 3 20 4 18 5 19 6 16 8 12 9 13 10 14 11 15 12
REMARK SMILES IDX 17 13 11 14 8 15 9 16 10 18 7 20 1 21 2 22 3 23 4 24 5 25
REMARK SMILES IDX 6 26 24 27 25 28 26 29 27 31 28 32 29 33 93 34 30 35 92 36
REMARK SMILES IDX 31 37 32 38 33 39 86 40 34 41 91 42 85 43 87 44 35 45 90 46
REMARK SMILES IDX 84 47 83 48 36 50 70 51 49 52 69 53 50 54 53 55 68 56 88 57
REMARK SMILES IDX 51 58 52 59 67 61 89 62 54 63 37 64 38 65 47 66 39 67 40 68
REMARK SMILES IDX 46 69 48 70 41 71 42 72 43 73 44 74 45 75 71 76 72 77 81 78
REMARK SMILES IDX 73 79 74 80 80 81 82 82 75 83 76 84 77 85 78 86 79 87 55 88
REMARK SMILES IDX 56 89 65 90 57 91 58 92 64 93 66 94 59 95 60 96 61 97 62 98
REMARK SMILES IDX 63 99
REMARK H PARENT 20 7 8 17 11 19 25 30 87 49 53 60
REMARK Flexibility Score: inf
ROOT
ATOM      1  C   UNL A   1      37.625  23.169  25.940  1.00  0.00     0.023 C 
ENDROOT
BRANCH   1   2
ATOM      2  C   UNL A   1      36.946  23.500  24.617  1.00  0.00     0.023 C 
BRANCH   2   3
ATOM      3  C   UNL A   1      35.764  22.624  24.189  1.00  0.00     0.116 C 
BRANCH   3   4
ATOM      4  N   UNL A   1      35.090  21.874  25.236  1.00  0.00    -0.355 N 
ATOM      5  C   UNL A   1      33.810  21.948  25.715  1.00  0.00     0.230 C 
ATOM      6  O   UNL A   1      33.410  20.982  26.371  1.00  0.00    -0.274 OA
ATOM      7  H   UNL A   1      35.652  21.197  25.678  1.00  0.00     0.163 HD
BRANCH   5   8
ATOM      8  C   UNL A   1      32.943  23.203  25.541  1.00  0.00     0.092 C 
ATOM      9  C   UNL A   1      32.324  23.414  24.147  1.00  0.00     0.127 C 
ATOM     10  C   UNL A   1      30.858  23.779  24.369  1.00  0.00     0.186 C 
ATOM     11  O   UNL A   1      30.670  23.903  25.779  1.00  0.00    -0.378 OA
ATOM     12  C   UNL A   1      31.661  23.062  26.393  1.00  0.00     0.179 C 
ATOM     13  C   UNL A   1      33.725  24.360  26.116  1.00  0.00     0.026 C 
BRANCH   9  14
ATOM     14  N   UNL A   1      32.984  24.249  23.130  1.00  0.00    -0.332 N 
ATOM     15  N   UNL A   1      32.817  26.615  23.408  1.00  0.00    -0.335 N 
ATOM     16  C   UNL A   1      33.226  25.511  22.795  1.00  0.00     0.315 C 
ATOM     17  H   UNL A   1      33.317  27.402  23.094  1.00  0.00     0.165 HD
ATOM     18  O   UNL A   1      33.944  25.669  21.801  1.00  0.00    -0.249 OA
ATOM     19  H   UNL A   1      33.394  23.660  22.457  1.00  0.00     0.165 HD
BRANCH  15  20
ATOM     20  C   UNL A   1      31.829  26.986  24.421  1.00  0.00     0.089 C 
ATOM     21  C   UNL A   1      33.898  27.953  25.779  1.00  0.00     0.013 C 
ATOM     22  C   UNL A   1      32.384  27.988  25.504  1.00  0.00    -0.015 C 
ATOM     23  C   UNL A   1      31.638  27.821  26.853  1.00  0.00     0.013 C 
ATOM     24  C   UNL A   1      32.025  29.357  24.903  1.00  0.00     0.008 C 
ATOM     25  C   UNL A   1      30.637  29.152  24.330  1.00  0.00     0.003 C 
ATOM     26  C   UNL A   1      30.677  27.753  23.724  1.00  0.00     0.025 C 
ENDBRANCH  15  20
ENDBRANCH   9  14
ENDBRANCH   5   8
ENDBRANCH   3   4
ENDBRANCH   2   3
ENDBRANCH   1   2
BRANCH   1  27
ATOM     27  C   UNL A   1      38.519  24.257  26.495  1.00  0.00     0.116 C 
BRANCH  27  28
ATOM     28  N   UNL A   1      39.920  24.127  26.128  1.00  0.00    -0.352 N 
ATOM     29  C   UNL A   1      40.980  24.885  26.582  1.00  0.00     0.251 C 
ATOM     30  H   UNL A   1      40.137  23.416  25.482  1.00  0.00     0.163 HD
ATOM     31  O   UNL A   1      42.100  24.728  26.128  1.00  0.00    -0.269 OA
BRANCH  29  32
ATOM     32  C   UNL A   1      40.709  25.936  27.589  1.00  0.00     0.039 A 
ATOM     33  C   UNL A   1      39.752  25.694  28.575  1.00  0.00     0.014 A 
ATOM     34  C   UNL A   1      41.456  27.116  27.602  1.00  0.00     0.014 A 
ATOM     35  C   UNL A   1      39.594  26.614  29.613  1.00  0.00     0.010 A 
ATOM     36  C   UNL A   1      41.378  27.970  28.692  1.00  0.00     0.010 A 
ATOM     37  C   UNL A   1      40.431  27.740  29.700  1.00  0.00    -0.014 A 
BRANCH  37  38
ATOM     38  C   UNL A   1      40.303  28.712  30.813  1.00  0.00     0.031 A 
ATOM     39  C   UNL A   1      41.181  28.571  32.027  1.00  0.00     0.074 A 
ATOM     40  C   UNL A   1      39.369  29.681  30.751  1.00  0.00     0.049 A 
ATOM     41  N   UNL A   1      41.205  29.295  33.117  1.00  0.00    -0.248 NA
ATOM     42  C   UNL A   1      42.132  27.446  32.039  1.00  0.00     0.031 C 
ATOM     43  C   UNL A   1      38.413  29.869  29.656  1.00  0.00     0.029 A 
ATOM     44  N   UNL A   1      39.068  30.690  31.629  1.00  0.00    -0.354 N 
ATOM     45  C   UNL A   1      42.157  28.706  33.940  1.00  0.00     0.074 A 
ATOM     46  C   UNL A   1      42.635  27.523  33.260  1.00  0.00     0.031 C 
ATOM     47  C   UNL A   1      37.660  30.951  29.911  1.00  0.00     0.029 A 
ATOM     48  C   UNL A   1      38.057  31.516  31.196  1.00  0.00     0.049 A 
ATOM     49  H   UNL A   1      39.532  30.813  32.487  1.00  0.00     0.167 HD
ATOM     50  C   UNL A   1      42.621  29.131  35.138  1.00  0.00     0.037 A 
ATOM     51  C   UNL A   1      37.518  32.609  31.771  1.00  0.00     0.037 A 
ATOM     52  C   UNL A   1      42.170  30.333  35.785  1.00  0.00     0.049 A 
ATOM     53  C   UNL A   1      38.070  33.081  33.090  1.00  0.00     0.074 A 
ATOM     54  C   UNL A   1      42.620  30.896  36.966  1.00  0.00     0.029 A 
ATOM     55  N   UNL A   1      41.165  31.160  35.303  1.00  0.00    -0.354 N 
ATOM     56  N   UNL A   1      39.027  32.555  33.818  1.00  0.00    -0.248 NA
ATOM     57  C   UNL A   1      37.479  34.299  33.659  1.00  0.00     0.031 C 
ATOM     58  C   UNL A   1      41.860  32.044  37.217  1.00  0.00     0.029 A 
ATOM     59  C   UNL A   1      40.967  32.219  36.171  1.00  0.00     0.049 A 
ATOM     60  H   UNL A   1      40.666  31.013  34.468  1.00  0.00     0.167 HD
ATOM     61  C   UNL A   1      39.167  33.390  34.921  1.00  0.00     0.074 A 
ATOM     62  C   UNL A   1      38.209  34.464  34.753  1.00  0.00     0.031 C 
ATOM     63  C   UNL A   1      40.008  33.279  35.979  1.00  0.00     0.037 A 
BRANCH  50  64
ATOM     64  C   UNL A   1      43.682  28.301  35.809  1.00  0.00     0.058 A 
ATOM     65  C   UNL A   1      45.048  28.504  35.549  1.00  0.00     0.135 A 
ATOM     66  C   UNL A   1      43.334  27.304  36.731  1.00  0.00     0.135 A 
ATOM     67  F   UNL A   1      45.438  29.431  34.660  1.00  0.00    -0.206 F 
ATOM     68  C   UNL A   1      46.027  27.725  36.157  1.00  0.00     0.059 A 
ATOM     69  C   UNL A   1      44.298  26.533  37.374  1.00  0.00     0.059 A 
ATOM     70  F   UNL A   1      42.043  27.065  37.014  1.00  0.00    -0.206 F 
ATOM     71  C   UNL A   1      45.642  26.741  37.068  1.00  0.00     0.060 A 
BRANCH  71  72
ATOM     72  S   UNL A   1      46.927  25.743  37.850  1.00  0.00     0.124 S 
ATOM     73  O   UNL A   1      48.110  26.570  37.634  1.00  0.00    -0.237 OA
ATOM     74  O   UNL A   1      46.458  25.655  39.229  1.00  0.00    -0.237 OA
ATOM     75  O   UNL A   1      46.891  24.492  37.097  1.00  0.00    -0.744 OA
ENDBRANCH  71  72
ENDBRANCH  50  64
BRANCH  51  76
ATOM     76  C   UNL A   1      36.428  33.352  31.085  1.00  0.00     0.058 A 
ATOM     77  C   UNL A   1      36.683  34.106  29.930  1.00  0.00     0.135 A 
ATOM     78  C   UNL A   1      35.108  33.315  31.561  1.00  0.00     0.135 A 
ATOM     79  F   UNL A   1      37.930  34.175  29.437  1.00  0.00    -0.206 F 
ATOM     80  C   UNL A   1      35.676  34.812  29.280  1.00  0.00     0.059 A 
ATOM     81  C   UNL A   1      34.078  33.993  30.915  1.00  0.00     0.059 A 
ATOM     82  F   UNL A   1      34.806  32.594  32.652  1.00  0.00    -0.206 F 
ATOM     83  C   UNL A   1      34.374  34.748  29.781  1.00  0.00     0.060 A 
BRANCH  83  84
ATOM     84  S   UNL A   1      33.065  35.632  28.905  1.00  0.00     0.124 S 
ATOM     85  O   UNL A   1      32.453  34.559  28.130  1.00  0.00    -0.237 OA
ATOM     86  O   UNL A   1      32.264  36.162  30.004  1.00  0.00    -0.237 OA
ATOM     87  O   UNL A   1      33.796  36.633  28.133  1.00  0.00    -0.744 OA
ENDBRANCH  83  84
ENDBRANCH  51  76
BRANCH  63  88
ATOM     88  C   UNL A   1      39.944  34.357  37.025  1.00  0.00     0.058 A 
ATOM     89  C   UNL A   1      40.718  35.523  36.927  1.00  0.00     0.135 A 
ATOM     90  C   UNL A   1      39.062  34.240  38.111  1.00  0.00     0.135 A 
ATOM     91  F   UNL A   1      41.579  35.679  35.909  1.00  0.00    -0.206 F 
ATOM     92  C   UNL A   1      40.642  36.525  37.888  1.00  0.00     0.059 A 
ATOM     93  C   UNL A   1      38.949  35.243  39.068  1.00  0.00     0.059 A 
ATOM     94  F   UNL A   1      38.290  33.150  38.243  1.00  0.00    -0.206 F 
ATOM     95  C   UNL A   1      39.754  36.376  38.955  1.00  0.00     0.060 A 
BRANCH  95  96
ATOM     96  S   UNL A   1      39.648  37.696  40.181  1.00  0.00     0.124 S 
ATOM     97  O   UNL A   1      39.222  36.961  41.367  1.00  0.00    -0.237 OA
ATOM     98  O   UNL A   1      41.013  38.210  40.208  1.00  0.00    -0.237 OA
ATOM     99  O   UNL A   1      38.654  38.604  39.615  1.00  0.00    -0.744 OA
ENDBRANCH  95  96
ENDBRANCH  63  88
ENDBRANCH  37  38
ENDBRANCH  29  32
ENDBRANCH  27  28
ENDBRANCH   1  27
TORSDOF 16
ENDMDL
MODEL 2
REMARK VINA RESULT:     -12.0      6.649     12.096
REMARK SMILES CC1(C)CCC[C@H]1NC(=O)N[C@@H]1COC[C@@]1(C)C(=O)NCCCCNC(=O)c1ccc(-c2c3nc(c(-c4c(F)cc(S(=O)(=O)[O-])cc4F)c4ccc([nH]4)c(-c4c(F)cc(S(=O)(=O)[O-])cc4F)c4nc(c(-c5c(F)cc(S(=O)(=O)[O-])cc5F)c5ccc2[nH]5)C=C4)C=C3)cc1
REMARK SMILES IDX 23 1 22 2 21 3 20 4 18 5 19 6 16 8 12 9 13 10 14 11 15 12
REMARK SMILES IDX 17 13 11 14 8 15 9 16 10 18 7 20 1 21 2 22 3 23 4 24 5 25
REMARK SMILES IDX 6 26 24 27 25 28 26 29 27 31 28 32 29 33 93 34 30 35 92 36
REMARK SMILES IDX 31 37 32 38 33 39 86 40 34 41 91 42 85 43 87 44 35 45 90 46
REMARK SMILES IDX 84 47 83 48 36 50 70 51 49 52 69 53 50 54 53 55 68 56 88 57
REMARK SMILES IDX 51 58 52 59 67 61 89 62 54 63 37 64 38 65 47 66 39 67 40 68
REMARK SMILES IDX 46 69 48 70 41 71 42 72 43 73 44 74 45 75 71 76 72 77 81 78
REMARK SMILES IDX 73 79 74 80 80 81 82 82 75 83 76 84 77 85 78 86 79 87 55 88
REMARK SMILES IDX 56 89 65 90 57 91 58 92 64 93 66 94 59 95 60 96 61 97 62 98
REMARK SMILES IDX 63 99
REMARK H PARENT 20 7 8 17 11 19 25 30 87 49 53 60
REMARK Flexibility Score: inf
ROOT
ATOM      1  C   UNL A   1      34.052  29.650  26.823  1.00  0.00     0.023 C 
ENDROOT
BRANCH   1   2
ATOM      2  C   UNL A   1      32.701  29.103  27.266  1.00  0.00     0.023 C 
BRANCH   2   3
ATOM      3  C   UNL A   1      31.900  28.286  26.247  1.00  0.00     0.116 C 
BRANCH   3   4
ATOM      4  N   UNL A   1      31.935  28.742  24.867  1.00  0.00    -0.355 N 
ATOM      5  C   UNL A   1      31.981  28.046  23.690  1.00  0.00     0.230 C 
ATOM      6  O   UNL A   1      31.672  28.666  22.669  1.00  0.00    -0.274 OA
ATOM      7  H   UNL A   1      31.924  29.721  24.761  1.00  0.00     0.163 HD
BRANCH   5   8
ATOM      8  C   UNL A   1      32.489  26.598  23.616  1.00  0.00     0.092 C 
ATOM      9  C   UNL A   1      31.481  25.503  24.011  1.00  0.00     0.127 C 
ATOM     10  C   UNL A   1      31.567  24.420  22.939  1.00  0.00     0.186 C 
ATOM     11  O   UNL A   1      32.632  24.788  22.061  1.00  0.00    -0.378 OA
ATOM     12  C   UNL A   1      32.741  26.219  22.139  1.00  0.00     0.179 C 
ATOM     13  C   UNL A   1      33.829  26.567  24.311  1.00  0.00     0.026 C 
BRANCH   9  14
ATOM     14  N   UNL A   1      31.429  24.964  25.380  1.00  0.00    -0.332 N 
ATOM     15  N   UNL A   1      33.052  23.306  25.945  1.00  0.00    -0.335 N 
ATOM     16  C   UNL A   1      32.028  24.112  26.203  1.00  0.00     0.315 C 
ATOM     17  H   UNL A   1      33.444  22.953  26.776  1.00  0.00     0.165 HD
ATOM     18  O   UNL A   1      31.589  24.089  27.358  1.00  0.00    -0.249 OA
ATOM     19  H   UNL A   1      30.679  25.388  25.857  1.00  0.00     0.165 HD
BRANCH  15  20
ATOM     20  C   UNL A   1      33.758  22.798  24.769  1.00  0.00     0.089 C 
ATOM     21  C   UNL A   1      35.914  23.922  25.842  1.00  0.00     0.013 C 
ATOM     22  C   UNL A   1      35.328  22.849  24.908  1.00  0.00    -0.015 C 
ATOM     23  C   UNL A   1      36.006  22.986  23.520  1.00  0.00     0.013 C 
ATOM     24  C   UNL A   1      35.655  21.463  25.487  1.00  0.00     0.008 C 
ATOM     25  C   UNL A   1      34.735  20.525  24.730  1.00  0.00     0.003 C 
ATOM     26  C   UNL A   1      33.423  21.294  24.608  1.00  0.00     0.025 C 
ENDBRANCH  15  20
ENDBRANCH   9  14
ENDBRANCH   5   8
ENDBRANCH   3   4
ENDBRANCH   2   3
ENDBRANCH   1   2
BRANCH   1  27
ATOM     27  C   UNL A   1      35.208  29.341  27.751  1.00  0.00     0.116 C 
BRANCH  27  28
ATOM     28  N   UNL A   1      35.243  30.153  28.956  1.00  0.00    -0.352 N 
ATOM     29  C   UNL A   1      36.333  30.408  29.764  1.00  0.00     0.251 C 
ATOM     30  H   UNL A   1      34.393  30.571  29.226  1.00  0.00     0.163 HD
ATOM     31  O   UNL A   1      36.209  31.040  30.798  1.00  0.00    -0.269 OA
BRANCH  29  32
ATOM     32  C   UNL A   1      37.643  29.839  29.374  1.00  0.00     0.039 A 
ATOM     33  C   UNL A   1      38.016  29.867  28.030  1.00  0.00     0.014 A 
ATOM     34  C   UNL A   1      38.525  29.358  30.344  1.00  0.00     0.014 A 
ATOM     35  C   UNL A   1      39.305  29.469  27.671  1.00  0.00     0.010 A 
ATOM     36  C   UNL A   1      39.838  29.073  30.001  1.00  0.00     0.010 A 
ATOM     37  C   UNL A   1      40.237  29.105  28.658  1.00  0.00    -0.014 A 
BRANCH  37  38
ATOM     38  C   UNL A   1      41.623  28.713  28.301  1.00  0.00     0.031 A 
ATOM     39  C   UNL A   1      42.708  29.755  28.279  1.00  0.00     0.074 A 
ATOM     40  C   UNL A   1      41.888  27.439  27.951  1.00  0.00     0.049 A 
ATOM     41  N   UNL A   1      43.972  29.625  27.967  1.00  0.00    -0.248 NA
ATOM     42  C   UNL A   1      42.318  31.136  28.615  1.00  0.00     0.031 C 
ATOM     43  C   UNL A   1      40.901  26.359  27.865  1.00  0.00     0.029 A 
ATOM     44  N   UNL A   1      43.069  26.836  27.601  1.00  0.00    -0.354 N 
ATOM     45  C   UNL A   1      44.516  30.900  28.056  1.00  0.00     0.074 A 
ATOM     46  C   UNL A   1      43.435  31.804  28.376  1.00  0.00     0.031 C 
ATOM     47  C   UNL A   1      41.525  25.219  27.525  1.00  0.00     0.029 A 
ATOM     48  C   UNL A   1      42.946  25.491  27.340  1.00  0.00     0.049 A 
ATOM     49  H   UNL A   1      43.924  27.319  27.542  1.00  0.00     0.167 HD
ATOM     50  C   UNL A   1      45.807  31.282  27.920  1.00  0.00     0.037 A 
ATOM     51  C   UNL A   1      43.879  24.581  26.997  1.00  0.00     0.037 A 
ATOM     52  C   UNL A   1      46.883  30.368  27.644  1.00  0.00     0.049 A 
ATOM     53  C   UNL A   1      45.313  25.022  26.880  1.00  0.00     0.074 A 
ATOM     54  C   UNL A   1      48.238  30.634  27.555  1.00  0.00     0.029 A 
ATOM     55  N   UNL A   1      46.724  29.009  27.414  1.00  0.00    -0.354 N 
ATOM     56  N   UNL A   1      45.823  26.221  27.045  1.00  0.00    -0.248 NA
ATOM     57  C   UNL A   1      46.300  23.988  26.543  1.00  0.00     0.031 C 
ATOM     58  C   UNL A   1      48.894  29.441  27.233  1.00  0.00     0.029 A 
ATOM     59  C   UNL A   1      47.954  28.424  27.166  1.00  0.00     0.049 A 
ATOM     60  H   UNL A   1      45.864  28.531  27.426  1.00  0.00     0.167 HD
ATOM     61  C   UNL A   1      47.193  26.080  26.854  1.00  0.00     0.074 A 
ATOM     62  C   UNL A   1      47.432  24.677  26.579  1.00  0.00     0.031 C 
ATOM     63  C   UNL A   1      48.166  27.024  26.898  1.00  0.00     0.037 A 
BRANCH  50  64
ATOM     64  C   UNL A   1      46.124  32.742  28.091  1.00  0.00     0.058 A 
ATOM     65  C   UNL A   1      46.579  33.259  29.316  1.00  0.00     0.135 A 
ATOM     66  C   UNL A   1      45.987  33.635  27.017  1.00  0.00     0.135 A 
ATOM     67  F   UNL A   1      46.710  32.454  30.382  1.00  0.00    -0.206 F 
ATOM     68  C   UNL A   1      46.856  34.612  29.478  1.00  0.00     0.059 A 
ATOM     69  C   UNL A   1      46.286  34.988  27.147  1.00  0.00     0.059 A 
ATOM     70  F   UNL A   1      45.552  33.197  25.825  1.00  0.00    -0.206 F 
ATOM     71  C   UNL A   1      46.705  35.470  28.387  1.00  0.00     0.060 A 
BRANCH  71  72
ATOM     72  S   UNL A   1      47.072  37.223  28.614  1.00  0.00     0.124 S 
ATOM     73  O   UNL A   1      45.817  37.712  29.176  1.00  0.00    -0.237 OA
ATOM     74  O   UNL A   1      48.205  37.188  29.533  1.00  0.00    -0.237 OA
ATOM     75  O   UNL A   1      47.376  37.684  27.264  1.00  0.00    -0.744 OA
ENDBRANCH  71  72
ENDBRANCH  50  64
BRANCH  51  76
ATOM     76  C   UNL A   1      43.493  23.161  26.781  1.00  0.00     0.058 A 
ATOM     77  C   UNL A   1      43.485  22.602  25.495  1.00  0.00     0.135 A 
ATOM     78  C   UNL A   1      43.136  22.331  27.856  1.00  0.00     0.135 A 
ATOM     79  F   UNL A   1      43.816  23.355  24.435  1.00  0.00    -0.206 F 
ATOM     80  C   UNL A   1      43.120  21.277  25.277  1.00  0.00     0.059 A 
ATOM     81  C   UNL A   1      42.790  20.997  27.666  1.00  0.00     0.059 A 
ATOM     82  F   UNL A   1      43.145  22.811  29.109  1.00  0.00    -0.206 F 
ATOM     83  C   UNL A   1      42.775  20.481  26.370  1.00  0.00     0.060 A 
BRANCH  83  84
ATOM     84  S   UNL A   1      42.346  18.751  26.081  1.00  0.00     0.124 S 
ATOM     85  O   UNL A   1      43.273  18.392  25.015  1.00  0.00    -0.237 OA
ATOM     86  O   UNL A   1      42.606  18.148  27.384  1.00  0.00    -0.237 OA
ATOM     87  O   UNL A   1      40.937  18.814  25.700  1.00  0.00    -0.744 OA
ENDBRANCH  83  84
ENDBRANCH  51  76
BRANCH  63  88
ATOM     88  C   UNL A   1      49.579  26.566  26.663  1.00  0.00     0.058 A 
ATOM     89  C   UNL A   1      50.163  26.608  25.389  1.00  0.00     0.135 A 
ATOM     90  C   UNL A   1      50.369  26.126  27.737  1.00  0.00     0.135 A 
ATOM     91  F   UNL A   1      49.446  27.017  24.330  1.00  0.00    -0.206 F 
ATOM     92  C   UNL A   1      51.476  26.200  25.181  1.00  0.00     0.059 A 
ATOM     93  C   UNL A   1      51.694  25.741  27.556  1.00  0.00     0.059 A 
ATOM     94  F   UNL A   1      49.861  26.080  28.979  1.00  0.00    -0.206 F 
ATOM     95  C   UNL A   1      52.233  25.768  26.271  1.00  0.00     0.060 A 
BRANCH  95  96
ATOM     96  S   UNL A   1      53.943  25.265  25.990  1.00  0.00     0.124 S 
ATOM     97  O   UNL A   1      54.406  26.298  25.070  1.00  0.00    -0.237 OA
ATOM     98  O   UNL A   1      54.509  25.313  27.334  1.00  0.00    -0.237 OA
ATOM     99  O   UNL A   1      53.814  23.927  25.419  1.00  0.00    -0.744 OA
ENDBRANCH  95  96
ENDBRANCH  63  88
ENDBRANCH  37  38
ENDBRANCH  29  32
ENDBRANCH  27  28
ENDBRANCH   1  27
TORSDOF 16
ENDMDL
MODEL 3
REMARK VINA RESULT:     -11.9      1.224      2.434
REMARK SMILES CC1(C)CCC[C@H]1NC(=O)N[C@@H]1COC[C@@]1(C)C(=O)NCCCCNC(=O)c1ccc(-c2c3nc(c(-c4c(F)cc(S(=O)(=O)[O-])cc4F)c4ccc([nH]4)c(-c4c(F)cc(S(=O)(=O)[O-])cc4F)c4nc(c(-c5c(F)cc(S(=O)(=O)[O-])cc5F)c5ccc2[nH]5)C=C4)C=C3)cc1
REMARK SMILES IDX 23 1 22 2 21 3 20 4 18 5 19 6 16 8 12 9 13 10 14 11 15 12
REMARK SMILES IDX 17 13 11 14 8 15 9 16 10 18 7 20 1 21 2 22 3 23 4 24 5 25
REMARK SMILES IDX 6 26 24 27 25 28 26 29 27 31 28 32 29 33 93 34 30 35 92 36
REMARK SMILES IDX 31 37 32 38 33 39 86 40 34 41 91 42 85 43 87 44 35 45 90 46
REMARK SMILES IDX 84 47 83 48 36 50 70 51 49 52 69 53 50 54 53 55 68 56 88 57
REMARK SMILES IDX 51 58 52 59 67 61 89 62 54 63 37 64 38 65 47 66 39 67 40 68
REMARK SMILES IDX 46 69 48 70 41 71 42 72 43 73 44 74 45 75 71 76 72 77 81 78
REMARK SMILES IDX 73 79 74 80 80 81 82 82 75 83 76 84 77 85 78 86 79 87 55 88
REMARK SMILES IDX 56 89 65 90 57 91 58 92 64 93 66 94 59 95 60 96 61 97 62 98
REMARK SMILES IDX 63 99
REMARK H PARENT 20 7 8 17 11 19 25 30 87 49 53 60
REMARK Flexibility Score: inf
ROOT
ATOM      1  C   UNL A   1      40.976  22.129  27.693  1.00  0.00     0.023 C 
ENDROOT
BRANCH   1   2
ATOM      2  C   UNL A   1      40.519  21.291  26.506  1.00  0.00     0.023 C 
BRANCH   2   3
ATOM      3  C   UNL A   1      39.109  21.545  25.962  1.00  0.00     0.116 C 
BRANCH   3   4
ATOM      4  N   UNL A   1      38.548  22.867  26.186  1.00  0.00    -0.355 N 
ATOM      5  C   UNL A   1      37.298  23.367  25.938  1.00  0.00     0.230 C 
ATOM      6  O   UNL A   1      36.996  24.411  26.523  1.00  0.00    -0.274 OA
ATOM      7  H   UNL A   1      39.174  23.513  26.584  1.00  0.00     0.163 HD
BRANCH   5   8
ATOM      8  C   UNL A   1      36.351  22.731  24.911  1.00  0.00     0.092 C 
ATOM      9  C   UNL A   1      34.978  23.408  24.740  1.00  0.00     0.127 C 
ATOM     10  C   UNL A   1      34.736  23.537  23.238  1.00  0.00     0.186 C 
ATOM     11  O   UNL A   1      35.816  22.870  22.584  1.00  0.00    -0.378 OA
ATOM     12  C   UNL A   1      36.931  22.924  23.491  1.00  0.00     0.179 C 
ATOM     13  C   UNL A   1      36.343  21.245  25.181  1.00  0.00     0.026 C 
BRANCH   9  14
ATOM     14  N   UNL A   1      33.795  22.946  25.482  1.00  0.00    -0.332 N 
ATOM     15  N   UNL A   1      31.944  24.451  25.603  1.00  0.00    -0.335 N 
ATOM     16  C   UNL A   1      32.567  23.302  25.842  1.00  0.00     0.315 C 
ATOM     17  H   UNL A   1      30.978  24.374  25.774  1.00  0.00     0.165 HD
ATOM     18  O   UNL A   1      31.921  22.445  26.455  1.00  0.00    -0.249 OA
ATOM     19  H   UNL A   1      33.979  22.048  25.841  1.00  0.00     0.165 HD
BRANCH  15  20
ATOM     20  C   UNL A   1      32.296  25.798  25.153  1.00  0.00     0.089 C 
ATOM     21  C   UNL A   1      29.674  26.216  25.046  1.00  0.00     0.013 C 
ATOM     22  C   UNL A   1      31.086  26.809  25.191  1.00  0.00    -0.015 C 
ATOM     23  C   UNL A   1      31.259  27.925  24.129  1.00  0.00     0.013 C 
ATOM     24  C   UNL A   1      31.217  27.430  26.591  1.00  0.00     0.008 C 
ATOM     25  C   UNL A   1      32.709  27.629  26.765  1.00  0.00     0.003 C 
ATOM     26  C   UNL A   1      33.336  26.387  26.140  1.00  0.00     0.025 C 
ENDBRANCH  15  20
ENDBRANCH   9  14
ENDBRANCH   5   8
ENDBRANCH   3   4
ENDBRANCH   2   3
ENDBRANCH   1   2
BRANCH   1  27
ATOM     27  C   UNL A   1      42.134  23.064  27.414  1.00  0.00     0.116 C 
BRANCH  27  28
ATOM     28  N   UNL A   1      41.994  23.844  26.195  1.00  0.00    -0.352 N 
ATOM     29  C   UNL A   1      41.716  25.192  26.089  1.00  0.00     0.251 C 
ATOM     30  H   UNL A   1      42.113  23.356  25.349  1.00  0.00     0.163 HD
ATOM     31  O   UNL A   1      41.541  25.709  25.000  1.00  0.00    -0.269 OA
BRANCH  29  32
ATOM     32  C   UNL A   1      41.574  25.978  27.336  1.00  0.00     0.039 A 
ATOM     33  C   UNL A   1      42.566  26.902  27.667  1.00  0.00     0.014 A 
ATOM     34  C   UNL A   1      40.427  25.858  28.124  1.00  0.00     0.014 A 
ATOM     35  C   UNL A   1      42.373  27.750  28.758  1.00  0.00     0.010 A 
ATOM     36  C   UNL A   1      40.186  26.777  29.134  1.00  0.00     0.010 A 
ATOM     37  C   UNL A   1      41.165  27.720  29.476  1.00  0.00    -0.014 A 
BRANCH  37  38
ATOM     38  C   UNL A   1      40.924  28.637  30.617  1.00  0.00     0.031 A 
ATOM     39  C   UNL A   1      41.757  28.508  31.864  1.00  0.00     0.074 A 
ATOM     40  C   UNL A   1      39.929  29.544  30.549  1.00  0.00     0.049 A 
ATOM     41  N   UNL A   1      41.686  29.188  32.979  1.00  0.00    -0.248 NA
ATOM     42  C   UNL A   1      42.781  27.448  31.877  1.00  0.00     0.031 C 
ATOM     43  C   UNL A   1      39.010  29.711  29.419  1.00  0.00     0.029 A 
ATOM     44  N   UNL A   1      39.524  30.496  31.448  1.00  0.00    -0.354 N 
ATOM     45  C   UNL A   1      42.640  28.631  33.822  1.00  0.00     0.074 A 
ATOM     46  C   UNL A   1      43.225  27.511  33.122  1.00  0.00     0.031 C 
ATOM     47  C   UNL A   1      38.175  30.730  29.679  1.00  0.00     0.029 A 
ATOM     48  C   UNL A   1      38.478  31.269  31.000  1.00  0.00     0.049 A 
ATOM     49  H   UNL A   1      39.942  30.616  32.331  1.00  0.00     0.167 HD
ATOM     50  C   UNL A   1      43.023  29.039  35.054  1.00  0.00     0.037 A 
ATOM     51  C   UNL A   1      37.843  32.301  31.590  1.00  0.00     0.037 A 
ATOM     52  C   UNL A   1      42.464  30.182  35.724  1.00  0.00     0.049 A 
ATOM     53  C   UNL A   1      38.305  32.756  32.948  1.00  0.00     0.074 A 
ATOM     54  C   UNL A   1      42.824  30.728  36.943  1.00  0.00     0.029 A 
ATOM     55  N   UNL A   1      41.426  30.959  35.228  1.00  0.00    -0.354 N 
ATOM     56  N   UNL A   1      39.263  32.266  33.700  1.00  0.00    -0.248 NA
ATOM     57  C   UNL A   1      37.608  33.909  33.534  1.00  0.00     0.031 C 
ATOM     58  C   UNL A   1      41.977  31.811  37.201  1.00  0.00     0.029 A 
ATOM     59  C   UNL A   1      41.121  31.968  36.124  1.00  0.00     0.049 A 
ATOM     60  H   UNL A   1      40.975  30.813  34.366  1.00  0.00     0.167 HD
ATOM     61  C   UNL A   1      39.299  33.065  34.837  1.00  0.00     0.074 A 
ATOM     62  C   UNL A   1      38.279  34.080  34.665  1.00  0.00     0.031 C 
ATOM     63  C   UNL A   1      40.101  32.969  35.927  1.00  0.00     0.037 A 
BRANCH  50  64
ATOM     64  C   UNL A   1      44.108  28.256  35.742  1.00  0.00     0.058 A 
ATOM     65  C   UNL A   1      45.468  28.533  35.520  1.00  0.00     0.135 A 
ATOM     66  C   UNL A   1      43.789  27.229  36.642  1.00  0.00     0.135 A 
ATOM     67  F   UNL A   1      45.831  29.492  34.654  1.00  0.00    -0.206 F 
ATOM     68  C   UNL A   1      46.471  27.797  36.143  1.00  0.00     0.059 A 
ATOM     69  C   UNL A   1      44.776  26.500  37.300  1.00  0.00     0.059 A 
ATOM     70  F   UNL A   1      42.506  26.919  36.888  1.00  0.00    -0.206 F 
ATOM     71  C   UNL A   1      46.115  26.781  37.031  1.00  0.00     0.060 A 
BRANCH  71  72
ATOM     72  S   UNL A   1      47.429  25.840  37.833  1.00  0.00     0.124 S 
ATOM     73  O   UNL A   1      47.224  26.189  39.235  1.00  0.00    -0.237 OA
ATOM     74  O   UNL A   1      47.098  24.467  37.467  1.00  0.00    -0.237 OA
ATOM     75  O   UNL A   1      48.646  26.371  37.226  1.00  0.00    -0.744 OA
ENDBRANCH  71  72
ENDBRANCH  50  64
BRANCH  51  76
ATOM     76  C   UNL A   1      36.735  32.997  30.883  1.00  0.00     0.058 A 
ATOM     77  C   UNL A   1      35.395  32.736  31.208  1.00  0.00     0.135 A 
ATOM     78  C   UNL A   1      36.990  33.944  29.879  1.00  0.00     0.135 A 
ATOM     79  F   UNL A   1      35.099  31.837  32.158  1.00  0.00    -0.206 F 
ATOM     80  C   UNL A   1      34.347  33.374  30.551  1.00  0.00     0.059 A 
ATOM     81  C   UNL A   1      35.960  34.613  29.226  1.00  0.00     0.059 A 
ATOM     82  F   UNL A   1      38.254  34.245  29.544  1.00  0.00    -0.206 F 
ATOM     83  C   UNL A   1      34.640  34.313  29.561  1.00  0.00     0.060 A 
BRANCH  83  84
ATOM     84  S   UNL A   1      33.274  35.168  28.746  1.00  0.00     0.124 S 
ATOM     85  O   UNL A   1      32.523  35.677  29.887  1.00  0.00    -0.237 OA
ATOM     86  O   UNL A   1      33.972  36.168  27.944  1.00  0.00    -0.237 OA
ATOM     87  O   UNL A   1      32.623  34.107  27.982  1.00  0.00    -0.744 OA
ENDBRANCH  83  84
ENDBRANCH  51  76
BRANCH  63  88
ATOM     88  C   UNL A   1      39.919  33.998  37.007  1.00  0.00     0.058 A 
ATOM     89  C   UNL A   1      40.525  35.261  36.928  1.00  0.00     0.135 A 
ATOM     90  C   UNL A   1      39.091  33.732  38.110  1.00  0.00     0.135 A 
ATOM     91  F   UNL A   1      41.329  35.561  35.896  1.00  0.00    -0.206 F 
ATOM     92  C   UNL A   1      40.339  36.217  37.922  1.00  0.00     0.059 A 
ATOM     93  C   UNL A   1      38.869  34.684  39.100  1.00  0.00     0.059 A 
ATOM     94  F   UNL A   1      38.478  32.544  38.225  1.00  0.00    -0.206 F 
ATOM     95  C   UNL A   1      39.509  35.918  39.003  1.00  0.00     0.060 A 
BRANCH  95  96
ATOM     96  S   UNL A   1      39.258  37.176  40.272  1.00  0.00     0.124 S 
ATOM     97  O   UNL A   1      40.630  37.457  40.683  1.00  0.00    -0.237 OA
ATOM     98  O   UNL A   1      38.588  38.239  39.531  1.00  0.00    -0.237 OA
ATOM     99  O   UNL A   1      38.431  36.496  41.265  1.00  0.00    -0.744 OA
ENDBRANCH  95  96
ENDBRANCH  63  88
ENDBRANCH  37  38
ENDBRANCH  29  32
ENDBRANCH  27  28
ENDBRANCH   1  27
TORSDOF 16
ENDMDL
