MODEL 1
REMARK VINA RESULT:     -11.0      0.000      0.000
REMARK SMILES Cn1cccc1C(=O)N[C@](C)(C(=O)NCCCCNC(=O)c1ccc(-c2c3nc(c(-c4c(F)cc(S(=O)(=O)[O-])cc4F)c4ccc([nH]4)c(-c4c(F)cc(S(=O)(=O)[O-])cc4F)c4nc(c(-c5c(F)cc(S(=O)(=O)[O-])cc5F)c5ccc2[nH]5)C=C4)C=C3)cc1)C(F)(F)F
REMARK SMILES IDX 17 1 16 2 15 3 14 4 12 5 13 6 10 8 11 9 9 10 7 11 8 12 6 14
REMARK SMILES IDX 1 15 2 16 3 17 4 18 5 19 88 20 89 21 90 22 91 23 18 24 19 25
REMARK SMILES IDX 20 26 21 28 22 29 23 30 87 31 24 32 86 33 25 34 26 35 27 36
REMARK SMILES IDX 80 37 28 38 85 39 79 40 81 41 29 42 84 43 78 44 77 45 30 47
REMARK SMILES IDX 64 48 43 49 63 50 44 51 47 52 62 53 82 54 45 55 46 56 61 58
REMARK SMILES IDX 83 59 48 60 31 61 32 62 41 63 33 64 34 65 40 66 42 67 35 68
REMARK SMILES IDX 36 69 37 70 38 71 39 72 65 73 66 74 75 75 67 76 68 77 74 78
REMARK SMILES IDX 76 79 69 80 70 81 71 82 72 83 73 84 49 85 50 86 59 87 51 88
REMARK SMILES IDX 52 89 58 90 60 91 53 92 54 93 55 94 56 95 57 96
REMARK H PARENT 14 7 9 13 19 27 81 46 47 57
REMARK Flexibility Score: inf
ROOT
ATOM      1  C   UNL A   1      34.054  28.548  25.729  1.00  0.00     0.023 C 
ENDROOT
BRANCH   1   2
ATOM      2  C   UNL A   1      32.959  28.899  24.729  1.00  0.00     0.023 C 
BRANCH   2   3
ATOM      3  C   UNL A   1      32.372  27.711  23.959  1.00  0.00     0.116 C 
BRANCH   3   4
ATOM      4  N   UNL A   1      31.212  27.190  24.665  1.00  0.00    -0.354 N 
ATOM      5  C   UNL A   1      30.751  25.929  24.891  1.00  0.00     0.254 C 
ATOM      6  O   UNL A   1      29.554  25.866  25.199  1.00  0.00    -0.272 OA
ATOM      7  H   UNL A   1      30.645  27.892  25.061  1.00  0.00     0.163 HD
BRANCH   5   8
ATOM      8  C   UNL A   1      31.620  24.644  24.918  1.00  0.00     0.212 C 
ATOM      9  C   UNL A   1      30.805  23.378  25.262  1.00  0.00     0.056 C 
BRANCH   8  10
ATOM     10  N   UNL A   1      32.543  24.334  23.793  1.00  0.00    -0.329 N 
ATOM     11  C   UNL A   1      33.597  23.563  23.435  1.00  0.00     0.268 C 
ATOM     12  O   UNL A   1      34.070  23.965  22.361  1.00  0.00    -0.268 OA
ATOM     13  H   UNL A   1      32.295  24.899  23.025  1.00  0.00     0.165 HD
BRANCH  11  14
ATOM     14  C   UNL A   1      34.145  22.361  24.053  1.00  0.00     0.106 A 
ATOM     15  C   UNL A   1      32.524  20.363  23.928  1.00  0.00     0.150 C 
ATOM     16  N   UNL A   1      33.746  21.050  24.264  1.00  0.00    -0.347 N 
ATOM     17  C   UNL A   1      34.756  20.337  24.885  1.00  0.00     0.086 A 
ATOM     18  C   UNL A   1      35.820  21.165  25.102  1.00  0.00     0.020 A 
ATOM     19  C   UNL A   1      35.437  22.419  24.606  1.00  0.00     0.033 A 
ENDBRANCH  11  14
ENDBRANCH   8  10
BRANCH   8  20
ATOM     20  C   UNL A   1      32.485  24.934  26.190  1.00  0.00     0.420 C 
ATOM     21  F   UNL A   1      33.700  25.457  25.925  1.00  0.00    -0.168 F 
ATOM     22  F   UNL A   1      31.842  25.840  26.981  1.00  0.00    -0.168 F 
ATOM     23  F   UNL A   1      32.653  23.833  26.957  1.00  0.00    -0.168 F 
ENDBRANCH   8  20
ENDBRANCH   5   8
ENDBRANCH   3   4
ENDBRANCH   2   3
ENDBRANCH   1   2
BRANCH   1  24
ATOM     24  C   UNL A   1      33.617  28.660  27.181  1.00  0.00     0.116 C 
BRANCH  24  25
ATOM     25  N   UNL A   1      33.639  30.024  27.699  1.00  0.00    -0.352 N 
ATOM     26  C   UNL A   1      34.682  30.714  28.276  1.00  0.00     0.251 C 
ATOM     27  H   UNL A   1      32.791  30.520  27.624  1.00  0.00     0.163 HD
ATOM     28  O   UNL A   1      34.508  31.842  28.727  1.00  0.00    -0.269 OA
BRANCH  26  29
ATOM     29  C   UNL A   1      35.999  30.054  28.403  1.00  0.00     0.039 A 
ATOM     30  C   UNL A   1      36.903  30.131  27.340  1.00  0.00     0.014 A 
ATOM     31  C   UNL A   1      36.372  29.444  29.601  1.00  0.00     0.014 A 
ATOM     32  C   UNL A   1      38.216  29.692  27.521  1.00  0.00     0.010 A 
ATOM     33  C   UNL A   1      37.702  29.108  29.813  1.00  0.00     0.010 A 
ATOM     34  C   UNL A   1      38.642  29.233  28.778  1.00  0.00    -0.014 A 
BRANCH  34  35
ATOM     35  C   UNL A   1      40.061  28.882  29.047  1.00  0.00     0.031 A 
ATOM     36  C   UNL A   1      40.992  29.917  29.618  1.00  0.00     0.074 A 
ATOM     37  C   UNL A   1      40.536  27.673  28.681  1.00  0.00     0.049 A 
ATOM     38  N   UNL A   1      42.286  29.860  29.792  1.00  0.00    -0.248 NA
ATOM     39  C   UNL A   1      40.393  31.206  30.000  1.00  0.00     0.031 C 
ATOM     40  C   UNL A   1      39.754  26.607  28.048  1.00  0.00     0.029 A 
ATOM     41  N   UNL A   1      41.798  27.143  28.774  1.00  0.00    -0.354 N 
ATOM     42  C   UNL A   1      42.660  31.113  30.262  1.00  0.00     0.074 A 
ATOM     43  C   UNL A   1      41.464  31.927  30.295  1.00  0.00     0.031 C 
ATOM     44  C   UNL A   1      40.547  25.543  27.838  1.00  0.00     0.029 A 
ATOM     45  C   UNL A   1      41.899  25.861  28.285  1.00  0.00     0.049 A 
ATOM     46  H   UNL A   1      42.562  27.634  29.155  1.00  0.00     0.167 HD
ATOM     47  C   UNL A   1      43.881  31.542  30.658  1.00  0.00     0.037 A 
ATOM     48  C   UNL A   1      42.961  25.035  28.204  1.00  0.00     0.037 A 
ATOM     49  C   UNL A   1      45.053  30.709  30.687  1.00  0.00     0.049 A 
ATOM     50  C   UNL A   1      44.295  25.508  28.714  1.00  0.00     0.074 A 
ATOM     51  C   UNL A   1      46.320  31.018  31.148  1.00  0.00     0.029 A 
ATOM     52  N   UNL A   1      45.096  29.393  30.248  1.00  0.00    -0.354 N 
ATOM     53  N   UNL A   1      44.617  26.679  29.211  1.00  0.00    -0.248 NA
ATOM     54  C   UNL A   1      45.406  24.549  28.661  1.00  0.00     0.031 C 
ATOM     55  C   UNL A   1      47.136  29.896  30.968  1.00  0.00     0.029 A 
ATOM     56  C   UNL A   1      46.369  28.878  30.424  1.00  0.00     0.049 A 
ATOM     57  H   UNL A   1      44.335  28.899  29.867  1.00  0.00     0.167 HD
ATOM     58  C   UNL A   1      45.962  26.590  29.551  1.00  0.00     0.074 A 
ATOM     59  C   UNL A   1      46.391  25.248  29.212  1.00  0.00     0.031 C 
ATOM     60  C   UNL A   1      46.770  27.534  30.092  1.00  0.00     0.037 A 
BRANCH  47  61
ATOM     61  C   UNL A   1      44.000  32.970  31.111  1.00  0.00     0.058 A 
ATOM     62  C   UNL A   1      43.773  33.340  32.447  1.00  0.00     0.135 A 
ATOM     63  C   UNL A   1      44.346  33.982  30.202  1.00  0.00     0.135 A 
ATOM     64  F   UNL A   1      43.422  32.414  33.353  1.00  0.00    -0.206 F 
ATOM     65  C   UNL A   1      43.843  34.666  32.856  1.00  0.00     0.059 A 
ATOM     66  C   UNL A   1      44.451  35.313  30.595  1.00  0.00     0.059 A 
ATOM     67  F   UNL A   1      44.574  33.685  28.912  1.00  0.00    -0.206 F 
ATOM     68  C   UNL A   1      44.177  35.648  31.922  1.00  0.00     0.060 A 
BRANCH  68  69
ATOM     69  S   UNL A   1      44.251  37.367  32.464  1.00  0.00     0.124 S 
ATOM     70  O   UNL A   1      43.871  38.071  31.243  1.00  0.00    -0.237 OA
ATOM     71  O   UNL A   1      43.270  37.400  33.544  1.00  0.00    -0.237 OA
ATOM     72  O   UNL A   1      45.640  37.532  32.878  1.00  0.00    -0.744 OA
ENDBRANCH  68  69
ENDBRANCH  47  61
BRANCH  48  73
ATOM     73  C   UNL A   1      42.796  23.664  27.657  1.00  0.00     0.058 A 
ATOM     74  C   UNL A   1      42.522  22.581  28.507  1.00  0.00     0.135 A 
ATOM     75  C   UNL A   1      42.882  23.408  26.280  1.00  0.00     0.135 A 
ATOM     76  F   UNL A   1      42.436  22.776  29.832  1.00  0.00    -0.206 F 
ATOM     77  C   UNL A   1      42.354  21.292  28.015  1.00  0.00     0.059 A 
ATOM     78  C   UNL A   1      42.697  22.129  25.761  1.00  0.00     0.059 A 
ATOM     79  F   UNL A   1      43.124  24.413  25.423  1.00  0.00    -0.206 F 
ATOM     80  C   UNL A   1      42.441  21.076  26.639  1.00  0.00     0.060 A 
BRANCH  80  81
ATOM     81  S   UNL A   1      42.160  19.408  26.003  1.00  0.00     0.124 S 
ATOM     82  O   UNL A   1      42.984  19.411  24.801  1.00  0.00    -0.237 OA
ATOM     83  O   UNL A   1      42.637  18.574  27.102  1.00  0.00    -0.237 OA
ATOM     84  O   UNL A   1      40.717  19.374  25.782  1.00  0.00    -0.744 OA
ENDBRANCH  80  81
ENDBRANCH  48  73
BRANCH  60  85
ATOM     85  C   UNL A   1      48.190  27.142  30.384  1.00  0.00     0.058 A 
ATOM     86  C   UNL A   1      49.214  27.349  29.447  1.00  0.00     0.135 A 
ATOM     87  C   UNL A   1      48.537  26.611  31.635  1.00  0.00     0.135 A 
ATOM     88  F   UNL A   1      48.931  27.848  28.234  1.00  0.00    -0.206 F 
ATOM     89  C   UNL A   1      50.536  27.027  29.738  1.00  0.00     0.059 A 
ATOM     90  C   UNL A   1      49.855  26.302  31.955  1.00  0.00     0.059 A 
ATOM     91  F   UNL A   1      47.593  26.404  32.567  1.00  0.00    -0.206 F 
ATOM     92  C   UNL A   1      50.847  26.505  30.996  1.00  0.00     0.060 A 
BRANCH  92  93
ATOM     93  S   UNL A   1      52.571  26.131  31.378  1.00  0.00     0.124 S 
ATOM     94  O   UNL A   1      53.186  26.207  30.058  1.00  0.00    -0.237 OA
ATOM     95  O   UNL A   1      52.926  27.199  32.307  1.00  0.00    -0.237 OA
ATOM     96  O   UNL A   1      52.504  24.795  31.965  1.00  0.00    -0.744 OA
ENDBRANCH  92  93
ENDBRANCH  60  85
ENDBRANCH  34  35
ENDBRANCH  26  29
ENDBRANCH  24  25
ENDBRANCH   1  24
TORSDOF 17
ENDMDL
MODEL 2
REMARK VINA RESULT:     -11.0      1.282      2.344
REMARK SMILES Cn1cccc1C(=O)N[C@](C)(C(=O)NCCCCNC(=O)c1ccc(-c2c3nc(c(-c4c(F)cc(S(=O)(=O)[O-])cc4F)c4ccc([nH]4)c(-c4c(F)cc(S(=O)(=O)[O-])cc4F)c4nc(c(-c5c(F)cc(S(=O)(=O)[O-])cc5F)c5ccc2[nH]5)C=C4)C=C3)cc1)C(F)(F)F
REMARK SMILES IDX 17 1 16 2 15 3 14 4 12 5 13 6 10 8 11 9 9 10 7 11 8 12 6 14
REMARK SMILES IDX 1 15 2 16 3 17 4 18 5 19 88 20 89 21 90 22 91 23 18 24 19 25
REMARK SMILES IDX 20 26 21 28 22 29 23 30 87 31 24 32 86 33 25 34 26 35 27 36
REMARK SMILES IDX 80 37 28 38 85 39 79 40 81 41 29 42 84 43 78 44 77 45 30 47
REMARK SMILES IDX 64 48 43 49 63 50 44 51 47 52 62 53 82 54 45 55 46 56 61 58
REMARK SMILES IDX 83 59 48 60 31 61 32 62 41 63 33 64 34 65 40 66 42 67 35 68
REMARK SMILES IDX 36 69 37 70 38 71 39 72 65 73 66 74 75 75 67 76 68 77 74 78
REMARK SMILES IDX 76 79 69 80 70 81 71 82 72 83 73 84 49 85 50 86 59 87 51 88
REMARK SMILES IDX 52 89 58 90 60 91 53 92 54 93 55 94 56 95 57 96
REMARK H PARENT 14 7 9 13 19 27 81 46 47 57
REMARK Flexibility Score: inf
ROOT
ATOM      1  C   UNL A   1      32.195  28.323  26.698  1.00  0.00     0.023 C 
ENDROOT
BRANCH   1   2
ATOM      2  C   UNL A   1      32.088  26.836  26.383  1.00  0.00     0.023 C 
BRANCH   2   3
ATOM      3  C   UNL A   1      33.382  26.177  25.893  1.00  0.00     0.116 C 
BRANCH   3   4
ATOM      4  N   UNL A   1      33.312  24.738  26.097  1.00  0.00    -0.354 N 
ATOM      5  C   UNL A   1      33.311  23.679  25.242  1.00  0.00     0.254 C 
ATOM      6  O   UNL A   1      32.867  22.629  25.725  1.00  0.00    -0.272 OA
ATOM      7  H   UNL A   1      33.256  24.479  27.045  1.00  0.00     0.163 HD
BRANCH   5   8
ATOM      8  C   UNL A   1      33.925  23.670  23.818  1.00  0.00     0.212 C 
ATOM      9  C   UNL A   1      33.371  22.530  22.934  1.00  0.00     0.056 C 
BRANCH   8  10
ATOM     10  N   UNL A   1      33.984  24.920  23.014  1.00  0.00    -0.329 N 
ATOM     11  C   UNL A   1      33.222  25.913  22.494  1.00  0.00     0.268 C 
ATOM     12  O   UNL A   1      33.890  26.579  21.688  1.00  0.00    -0.268 OA
ATOM     13  H   UNL A   1      34.923  25.089  22.772  1.00  0.00     0.165 HD
BRANCH  11  14
ATOM     14  C   UNL A   1      31.857  26.321  22.803  1.00  0.00     0.106 A 
ATOM     15  C   UNL A   1      30.349  24.328  23.423  1.00  0.00     0.150 C 
ATOM     16  N   UNL A   1      30.673  25.712  23.190  1.00  0.00    -0.347 N 
ATOM     17  C   UNL A   1      29.689  26.665  23.390  1.00  0.00     0.086 A 
ATOM     18  C   UNL A   1      30.204  27.902  23.128  1.00  0.00     0.020 A 
ATOM     19  C   UNL A   1      31.536  27.690  22.747  1.00  0.00     0.033 A 
ENDBRANCH  11  14
ENDBRANCH   8  10
BRANCH   8  20
ATOM     20  C   UNL A   1      35.392  23.245  24.163  1.00  0.00     0.420 C 
ATOM     21  F   UNL A   1      35.506  21.988  24.638  1.00  0.00    -0.168 F 
ATOM     22  F   UNL A   1      36.158  23.300  23.036  1.00  0.00    -0.168 F 
ATOM     23  F   UNL A   1      35.976  24.089  25.044  1.00  0.00    -0.168 F 
ENDBRANCH   8  20
ENDBRANCH   5   8
ENDBRANCH   3   4
ENDBRANCH   2   3
ENDBRANCH   1   2
BRANCH   1  24
ATOM     24  C   UNL A   1      33.542  28.734  27.271  1.00  0.00     0.116 C 
BRANCH  24  25
ATOM     25  N   UNL A   1      33.569  30.096  27.792  1.00  0.00    -0.352 N 
ATOM     26  C   UNL A   1      34.614  30.779  28.374  1.00  0.00     0.251 C 
ATOM     27  H   UNL A   1      32.724  30.597  27.717  1.00  0.00     0.163 HD
ATOM     28  O   UNL A   1      34.445  31.907  28.827  1.00  0.00    -0.269 OA
BRANCH  26  29
ATOM     29  C   UNL A   1      35.928  30.112  28.503  1.00  0.00     0.039 A 
ATOM     30  C   UNL A   1      36.804  30.122  27.414  1.00  0.00     0.014 A 
ATOM     31  C   UNL A   1      36.326  29.564  29.722  1.00  0.00     0.014 A 
ATOM     32  C   UNL A   1      38.117  29.679  27.585  1.00  0.00     0.010 A 
ATOM     33  C   UNL A   1      37.658  29.225  29.918  1.00  0.00     0.010 A 
ATOM     34  C   UNL A   1      38.571  29.283  28.854  1.00  0.00    -0.014 A 
BRANCH  34  35
ATOM     35  C   UNL A   1      39.993  28.931  29.105  1.00  0.00     0.031 A 
ATOM     36  C   UNL A   1      40.931  29.965  29.668  1.00  0.00     0.074 A 
ATOM     37  C   UNL A   1      40.463  27.723  28.730  1.00  0.00     0.049 A 
ATOM     38  N   UNL A   1      42.227  29.907  29.826  1.00  0.00    -0.248 NA
ATOM     39  C   UNL A   1      40.336  31.253  30.060  1.00  0.00     0.031 C 
ATOM     40  C   UNL A   1      39.674  26.659  28.104  1.00  0.00     0.029 A 
ATOM     41  N   UNL A   1      41.727  27.192  28.807  1.00  0.00    -0.354 N 
ATOM     42  C   UNL A   1      42.606  31.159  30.295  1.00  0.00     0.074 A 
ATOM     43  C   UNL A   1      41.411  31.973  30.344  1.00  0.00     0.031 C 
ATOM     44  C   UNL A   1      40.464  25.596  27.881  1.00  0.00     0.029 A 
ATOM     45  C   UNL A   1      41.822  25.912  28.314  1.00  0.00     0.049 A 
ATOM     46  H   UNL A   1      42.495  27.682  29.181  1.00  0.00     0.167 HD
ATOM     47  C   UNL A   1      43.833  31.586  30.678  1.00  0.00     0.037 A 
ATOM     48  C   UNL A   1      42.883  25.086  28.218  1.00  0.00     0.037 A 
ATOM     49  C   UNL A   1      45.005  30.753  30.690  1.00  0.00     0.049 A 
ATOM     50  C   UNL A   1      44.222  25.558  28.714  1.00  0.00     0.074 A 
ATOM     51  C   UNL A   1      46.277  31.061  31.138  1.00  0.00     0.029 A 
ATOM     52  N   UNL A   1      45.042  29.439  30.248  1.00  0.00    -0.354 N 
ATOM     53  N   UNL A   1      44.550  26.727  29.210  1.00  0.00    -0.248 NA
ATOM     54  C   UNL A   1      45.333  24.598  28.645  1.00  0.00     0.031 C 
ATOM     55  C   UNL A   1      47.091  29.939  30.945  1.00  0.00     0.029 A 
ATOM     56  C   UNL A   1      46.317  28.923  30.408  1.00  0.00     0.049 A 
ATOM     57  H   UNL A   1      44.277  28.946  29.874  1.00  0.00     0.167 HD
ATOM     58  C   UNL A   1      45.899  26.637  29.533  1.00  0.00     0.074 A 
ATOM     59  C   UNL A   1      46.324  25.296  29.186  1.00  0.00     0.031 C 
ATOM     60  C   UNL A   1      46.713  27.580  30.067  1.00  0.00     0.037 A 
BRANCH  47  61
ATOM     61  C   UNL A   1      43.957  33.013  31.133  1.00  0.00     0.058 A 
ATOM     62  C   UNL A   1      43.914  33.358  32.494  1.00  0.00     0.135 A 
ATOM     63  C   UNL A   1      44.123  34.050  30.200  1.00  0.00     0.135 A 
ATOM     64  F   UNL A   1      43.739  32.408  33.426  1.00  0.00    -0.206 F 
ATOM     65  C   UNL A   1      43.988  34.682  32.911  1.00  0.00     0.059 A 
ATOM     66  C   UNL A   1      44.229  35.379  30.597  1.00  0.00     0.059 A 
ATOM     67  F   UNL A   1      44.172  33.777  28.886  1.00  0.00    -0.206 F 
ATOM     68  C   UNL A   1      44.140  35.687  31.956  1.00  0.00     0.060 A 
BRANCH  68  69
ATOM     69  S   UNL A   1      44.221  37.402  32.510  1.00  0.00     0.124 S 
ATOM     70  O   UNL A   1      45.579  37.471  33.041  1.00  0.00    -0.237 OA
ATOM     71  O   UNL A   1      43.986  38.144  31.275  1.00  0.00    -0.237 OA
ATOM     72  O   UNL A   1      43.153  37.488  33.502  1.00  0.00    -0.744 OA
ENDBRANCH  68  69
ENDBRANCH  47  61
BRANCH  48  73
ATOM     73  C   UNL A   1      42.710  23.716  27.669  1.00  0.00     0.058 A 
ATOM     74  C   UNL A   1      42.517  22.621  28.524  1.00  0.00     0.135 A 
ATOM     75  C   UNL A   1      42.710  23.475  26.287  1.00  0.00     0.135 A 
ATOM     76  F   UNL A   1      42.516  22.802  29.854  1.00  0.00    -0.206 F 
ATOM     77  C   UNL A   1      42.344  21.332  28.032  1.00  0.00     0.059 A 
ATOM     78  C   UNL A   1      42.518  22.196  25.769  1.00  0.00     0.059 A 
ATOM     79  F   UNL A   1      42.873  24.492  25.426  1.00  0.00    -0.206 F 
ATOM     80  C   UNL A   1      42.343  21.130  26.652  1.00  0.00     0.060 A 
BRANCH  80  81
ATOM     81  S   UNL A   1      42.056  19.462  26.018  1.00  0.00     0.124 S 
ATOM     82  O   UNL A   1      42.481  18.644  27.148  1.00  0.00    -0.237 OA
ATOM     83  O   UNL A   1      40.623  19.479  25.745  1.00  0.00    -0.237 OA
ATOM     84  O   UNL A   1      42.910  19.403  24.836  1.00  0.00    -0.744 OA
ENDBRANCH  80  81
ENDBRANCH  48  73
BRANCH  60  85
ATOM     85  C   UNL A   1      48.137  27.187  30.341  1.00  0.00     0.058 A 
ATOM     86  C   UNL A   1      49.158  27.437  29.411  1.00  0.00     0.135 A 
ATOM     87  C   UNL A   1      48.490  26.610  31.570  1.00  0.00     0.135 A 
ATOM     88  F   UNL A   1      48.869  27.981  28.219  1.00  0.00    -0.206 F 
ATOM     89  C   UNL A   1      50.482  27.113  29.687  1.00  0.00     0.059 A 
ATOM     90  C   UNL A   1      49.811  26.298  31.876  1.00  0.00     0.059 A 
ATOM     91  F   UNL A   1      47.549  26.361  32.495  1.00  0.00    -0.206 F 
ATOM     92  C   UNL A   1      50.799  26.545  30.923  1.00  0.00     0.060 A 
BRANCH  92  93
ATOM     93  S   UNL A   1      52.527  26.168  31.287  1.00  0.00     0.124 S 
ATOM     94  O   UNL A   1      53.118  26.189  29.954  1.00  0.00    -0.237 OA
ATOM     95  O   UNL A   1      52.909  27.267  32.169  1.00  0.00    -0.237 OA
ATOM     96  O   UNL A   1      52.459  24.857  31.925  1.00  0.00    -0.744 OA
ENDBRANCH  92  93
ENDBRANCH  60  85
ENDBRANCH  34  35
ENDBRANCH  26  29
ENDBRANCH  24  25
ENDBRANCH   1  24
TORSDOF 17
ENDMDL
MODEL 3
REMARK VINA RESULT:     -10.9      1.178      1.891
REMARK SMILES Cn1cccc1C(=O)N[C@](C)(C(=O)NCCCCNC(=O)c1ccc(-c2c3nc(c(-c4c(F)cc(S(=O)(=O)[O-])cc4F)c4ccc([nH]4)c(-c4c(F)cc(S(=O)(=O)[O-])cc4F)c4nc(c(-c5c(F)cc(S(=O)(=O)[O-])cc5F)c5ccc2[nH]5)C=C4)C=C3)cc1)C(F)(F)F
REMARK SMILES IDX 17 1 16 2 15 3 14 4 12 5 13 6 10 8 11 9 9 10 7 11 8 12 6 14
REMARK SMILES IDX 1 15 2 16 3 17 4 18 5 19 88 20 89 21 90 22 91 23 18 24 19 25
REMARK SMILES IDX 20 26 21 28 22 29 23 30 87 31 24 32 86 33 25 34 26 35 27 36
REMARK SMILES IDX 80 37 28 38 85 39 79 40 81 41 29 42 84 43 78 44 77 45 30 47
REMARK SMILES IDX 64 48 43 49 63 50 44 51 47 52 62 53 82 54 45 55 46 56 61 58
REMARK SMILES IDX 83 59 48 60 31 61 32 62 41 63 33 64 34 65 40 66 42 67 35 68
REMARK SMILES IDX 36 69 37 70 38 71 39 72 65 73 66 74 75 75 67 76 68 77 74 78
REMARK SMILES IDX 76 79 69 80 70 81 71 82 72 83 73 84 49 85 50 86 59 87 51 88
REMARK SMILES IDX 52 89 58 90 60 91 53 92 54 93 55 94 56 95 57 96
REMARK H PARENT 14 7 9 13 19 27 81 46 47 57
REMARK Flexibility Score: inf
ROOT
ATOM      1  C   UNL A   1      33.761  28.427  25.801  1.00  0.00     0.023 C 
ENDROOT
BRANCH   1   2
ATOM      2  C   UNL A   1      33.008  27.288  25.124  1.00  0.00     0.023 C 
BRANCH   2   3
ATOM      3  C   UNL A   1      33.786  25.973  25.001  1.00  0.00     0.116 C 
BRANCH   3   4
ATOM      4  N   UNL A   1      33.515  25.357  23.711  1.00  0.00    -0.354 N 
ATOM      5  C   UNL A   1      33.286  24.072  23.327  1.00  0.00     0.254 C 
ATOM      6  O   UNL A   1      33.464  23.856  22.120  1.00  0.00    -0.272 OA
ATOM      7  H   UNL A   1      33.490  26.001  22.966  1.00  0.00     0.163 HD
BRANCH   5   8
ATOM      8  C   UNL A   1      32.716  22.948  24.231  1.00  0.00     0.212 C 
ATOM      9  C   UNL A   1      32.709  21.567  23.538  1.00  0.00     0.056 C 
BRANCH   8  10
ATOM     10  N   UNL A   1      33.201  22.786  25.628  1.00  0.00    -0.329 N 
ATOM     11  C   UNL A   1      34.300  22.508  26.370  1.00  0.00     0.268 C 
ATOM     12  O   UNL A   1      33.972  22.294  27.547  1.00  0.00    -0.268 OA
ATOM     13  H   UNL A   1      32.444  22.937  26.239  1.00  0.00     0.165 HD
BRANCH  11  14
ATOM     14  C   UNL A   1      35.713  22.518  26.011  1.00  0.00     0.106 A 
ATOM     15  C   UNL A   1      36.496  20.270  25.026  1.00  0.00     0.150 C 
ATOM     16  N   UNL A   1      36.632  21.638  25.459  1.00  0.00    -0.347 N 
ATOM     17  C   UNL A   1      37.858  22.261  25.307  1.00  0.00     0.086 A 
ATOM     18  C   UNL A   1      37.768  23.544  25.764  1.00  0.00     0.020 A 
ATOM     19  C   UNL A   1      36.450  23.699  26.216  1.00  0.00     0.033 A 
ENDBRANCH  11  14
ENDBRANCH   8  10
BRANCH   8  20
ATOM     20  C   UNL A   1      31.214  23.387  24.287  1.00  0.00     0.420 C 
ATOM     21  F   UNL A   1      30.604  23.422  23.084  1.00  0.00    -0.168 F 
ATOM     22  F   UNL A   1      30.510  22.502  25.049  1.00  0.00    -0.168 F 
ATOM     23  F   UNL A   1      31.054  24.591  24.881  1.00  0.00    -0.168 F 
ENDBRANCH   8  20
ENDBRANCH   5   8
ENDBRANCH   3   4
ENDBRANCH   2   3
ENDBRANCH   1   2
BRANCH   1  24
ATOM     24  C   UNL A   1      33.376  28.637  27.257  1.00  0.00     0.116 C 
BRANCH  24  25
ATOM     25  N   UNL A   1      33.410  30.033  27.679  1.00  0.00    -0.352 N 
ATOM     26  C   UNL A   1      34.460  30.754  28.202  1.00  0.00     0.251 C 
ATOM     27  H   UNL A   1      32.564  30.529  27.575  1.00  0.00     0.163 HD
ATOM     28  O   UNL A   1      34.297  31.912  28.574  1.00  0.00    -0.269 OA
BRANCH  26  29
ATOM     29  C   UNL A   1      35.774  30.096  28.366  1.00  0.00     0.039 A 
ATOM     30  C   UNL A   1      36.674  30.097  27.297  1.00  0.00     0.014 A 
ATOM     31  C   UNL A   1      36.148  29.563  29.600  1.00  0.00     0.014 A 
ATOM     32  C   UNL A   1      37.985  29.663  27.502  1.00  0.00     0.010 A 
ATOM     33  C   UNL A   1      37.477  29.234  29.829  1.00  0.00     0.010 A 
ATOM     34  C   UNL A   1      38.414  29.284  28.785  1.00  0.00    -0.014 A 
BRANCH  34  35
ATOM     35  C   UNL A   1      39.831  28.943  29.071  1.00  0.00     0.031 A 
ATOM     36  C   UNL A   1      40.747  29.982  29.659  1.00  0.00     0.074 A 
ATOM     37  C   UNL A   1      40.320  27.739  28.705  1.00  0.00     0.049 A 
ATOM     38  N   UNL A   1      42.039  29.934  29.850  1.00  0.00    -0.248 NA
ATOM     39  C   UNL A   1      40.133  31.265  30.039  1.00  0.00     0.031 C 
ATOM     40  C   UNL A   1      39.555  26.670  28.056  1.00  0.00     0.029 A 
ATOM     41  N   UNL A   1      41.585  27.218  28.813  1.00  0.00    -0.354 N 
ATOM     42  C   UNL A   1      42.397  31.188  30.331  1.00  0.00     0.074 A 
ATOM     43  C   UNL A   1      41.194  31.992  30.351  1.00  0.00     0.031 C 
ATOM     44  C   UNL A   1      40.359  25.614  27.852  1.00  0.00     0.029 A 
ATOM     45  C   UNL A   1      41.702  25.939  28.319  1.00  0.00     0.049 A 
ATOM     46  H   UNL A   1      42.340  27.713  29.206  1.00  0.00     0.167 HD
ATOM     47  C   UNL A   1      43.609  31.624  30.745  1.00  0.00     0.037 A 
ATOM     48  C   UNL A   1      42.772  25.122  28.249  1.00  0.00     0.037 A 
ATOM     49  C   UNL A   1      44.787  30.799  30.785  1.00  0.00     0.049 A 
ATOM     50  C   UNL A   1      44.095  25.603  28.779  1.00  0.00     0.074 A 
ATOM     51  C   UNL A   1      46.045  31.116  31.265  1.00  0.00     0.029 A 
ATOM     52  N   UNL A   1      44.846  29.486  30.341  1.00  0.00    -0.354 N 
ATOM     53  N   UNL A   1      44.401  26.773  29.285  1.00  0.00    -0.248 NA
ATOM     54  C   UNL A   1      45.214  24.652  28.736  1.00  0.00     0.031 C 
ATOM     55  C   UNL A   1      46.873  30.001  31.090  1.00  0.00     0.029 A 
ATOM     56  C   UNL A   1      46.120  28.980  30.532  1.00  0.00     0.049 A 
ATOM     57  H   UNL A   1      44.094  28.988  29.947  1.00  0.00     0.167 HD
ATOM     58  C   UNL A   1      45.742  26.693  29.642  1.00  0.00     0.074 A 
ATOM     59  C   UNL A   1      46.186  25.355  29.303  1.00  0.00     0.031 C 
ATOM     60  C   UNL A   1      46.536  27.641  30.198  1.00  0.00     0.037 A 
BRANCH  47  61
ATOM     61  C   UNL A   1      43.711  33.050  31.206  1.00  0.00     0.058 A 
ATOM     62  C   UNL A   1      43.937  34.101  30.301  1.00  0.00     0.135 A 
ATOM     63  C   UNL A   1      43.581  33.374  32.566  1.00  0.00     0.135 A 
ATOM     64  F   UNL A   1      44.086  33.845  28.992  1.00  0.00    -0.206 F 
ATOM     65  C   UNL A   1      44.071  35.416  30.734  1.00  0.00     0.059 A 
ATOM     66  C   UNL A   1      43.683  34.686  33.017  1.00  0.00     0.059 A 
ATOM     67  F   UNL A   1      43.364  32.408  33.473  1.00  0.00    -0.206 F 
ATOM     68  C   UNL A   1      43.949  35.699  32.094  1.00  0.00     0.060 A 
BRANCH  68  69
ATOM     69  S   UNL A   1      44.140  37.407  32.643  1.00  0.00     0.124 S 
ATOM     70  O   UNL A   1      43.855  38.139  31.412  1.00  0.00    -0.237 OA
ATOM     71  O   UNL A   1      43.130  37.516  33.691  1.00  0.00    -0.237 OA
ATOM     72  O   UNL A   1      45.524  37.462  33.101  1.00  0.00    -0.744 OA
ENDBRANCH  68  69
ENDBRANCH  47  61
BRANCH  48  73
ATOM     73  C   UNL A   1      42.624  23.752  27.692  1.00  0.00     0.058 A 
ATOM     74  C   UNL A   1      42.459  22.648  28.543  1.00  0.00     0.135 A 
ATOM     75  C   UNL A   1      42.619  23.519  26.309  1.00  0.00     0.135 A 
ATOM     76  F   UNL A   1      42.463  22.821  29.873  1.00  0.00    -0.206 F 
ATOM     77  C   UNL A   1      42.309  21.359  28.044  1.00  0.00     0.059 A 
ATOM     78  C   UNL A   1      42.449  22.240  25.785  1.00  0.00     0.059 A 
ATOM     79  F   UNL A   1      42.755  24.544  25.453  1.00  0.00    -0.206 F 
ATOM     80  C   UNL A   1      42.303  21.165  26.662  1.00  0.00     0.060 A 
BRANCH  80  81
ATOM     81  S   UNL A   1      42.046  19.495  26.020  1.00  0.00     0.124 S 
ATOM     82  O   UNL A   1      42.979  19.465  24.900  1.00  0.00    -0.237 OA
ATOM     83  O   UNL A   1      42.401  18.666  27.169  1.00  0.00    -0.237 OA
ATOM     84  O   UNL A   1      40.630  19.488  25.667  1.00  0.00    -0.744 OA
ENDBRANCH  80  81
ENDBRANCH  48  73
BRANCH  60  85
ATOM     85  C   UNL A   1      47.954  27.258  30.507  1.00  0.00     0.058 A 
ATOM     86  C   UNL A   1      48.966  27.350  29.539  1.00  0.00     0.135 A 
ATOM     87  C   UNL A   1      48.315  26.853  31.801  1.00  0.00     0.135 A 
ATOM     88  F   UNL A   1      48.670  27.727  28.285  1.00  0.00    -0.206 F 
ATOM     89  C   UNL A   1      50.287  27.039  29.840  1.00  0.00     0.059 A 
ATOM     90  C   UNL A   1      49.634  26.557  32.131  1.00  0.00     0.059 A 
ATOM     91  F   UNL A   1      47.384  26.758  32.764  1.00  0.00    -0.206 F 
ATOM     92  C   UNL A   1      50.612  26.645  31.141  1.00  0.00     0.060 A 
BRANCH  92  93
ATOM     93  S   UNL A   1      52.337  26.283  31.533  1.00  0.00     0.124 S 
ATOM     94  O   UNL A   1      52.271  24.864  31.862  1.00  0.00    -0.237 OA
ATOM     95  O   UNL A   1      53.018  26.615  30.286  1.00  0.00    -0.237 OA
ATOM     96  O   UNL A   1      52.623  27.176  32.652  1.00  0.00    -0.744 OA
ENDBRANCH  92  93
ENDBRANCH  60  85
ENDBRANCH  34  35
ENDBRANCH  26  29
ENDBRANCH  24  25
ENDBRANCH   1  24
TORSDOF 17
ENDMDL
