MODEL 1
REMARK VINA RESULT:     -11.9      0.000      0.000
REMARK SMILES CC(C)CN(C)c1cc2c(cc1Cl)C=C(C(=O)NCCCCNC(=O)c1ccc(-c3c4nc(c(-c5c(F)cc(S(=O)(=O)[O-])cc5F)c5ccc([nH]5)c(-c5c(F)cc(S(=O)(=O)[O-])cc5F)c5nc(c(-c6c(F)cc(S(=O)(=O)[O-])cc6F)c6ccc3[nH]6)C=C5)C=C4)cc1)[C@@H](C(F)(F)F)O2
REMARK SMILES IDX 20 1 19 2 18 3 16 4 17 5 15 7 7 8 8 9 12 10 9 11 11 12 13 13
REMARK SMILES IDX 10 14 97 15 14 16 92 17 5 18 6 19 4 20 2 21 1 22 3 23 93 24
REMARK SMILES IDX 94 25 95 26 96 27 21 28 22 29 23 30 24 31 25 33 26 34 27 35
REMARK SMILES IDX 91 36 28 37 90 38 29 39 30 40 31 41 84 42 32 43 89 44 83 45
REMARK SMILES IDX 85 46 33 47 88 48 82 49 81 50 34 52 68 53 47 54 67 55 48 56
REMARK SMILES IDX 51 57 66 58 86 59 49 60 50 61 65 63 87 64 52 65 35 66 36 67
REMARK SMILES IDX 45 68 37 69 38 70 44 71 46 72 39 73 40 74 41 75 42 76 43 77
REMARK SMILES IDX 69 78 70 79 79 80 71 81 72 82 78 83 80 84 73 85 74 86 75 87
REMARK SMILES IDX 76 88 77 89 53 90 54 91 63 92 55 93 56 94 62 95 64 96 57 97
REMARK SMILES IDX 58 98 59 99 60 100 61 101
REMARK H PARENT 18 6 23 32 85 51 51 62
REMARK Flexibility Score: inf
ROOT
ATOM      1  C   UNL A   1      32.927  29.384  24.836  1.00  0.00     0.023 C 
ENDROOT
BRANCH   1   2
ATOM      2  C   UNL A   1      31.516  29.329  25.413  1.00  0.00     0.116 C 
BRANCH   2   3
ATOM      3  N   UNL A   1      30.539  28.934  24.415  1.00  0.00    -0.352 N 
ATOM      4  C   UNL A   1      30.255  27.817  23.708  1.00  0.00     0.251 C 
ATOM      5  O   UNL A   1      29.275  27.893  22.961  1.00  0.00    -0.270 OA
ATOM      6  H   UNL A   1      29.923  29.671  24.195  1.00  0.00     0.163 HD
BRANCH   4   7
ATOM      7  C   UNL A   1      31.038  26.551  23.758  1.00  0.00     0.067 C 
ATOM      8  C   UNL A   1      33.007  22.142  25.234  1.00  0.00     0.059 A 
ATOM      9  C   UNL A   1      32.469  22.631  24.034  1.00  0.00     0.074 A 
ATOM     10  C   UNL A   1      33.099  23.035  26.325  1.00  0.00     0.065 A 
ATOM     11  C   UNL A   1      31.990  23.935  23.952  1.00  0.00     0.130 A 
ATOM     12  C   UNL A   1      32.540  24.318  26.261  1.00  0.00     0.034 A 
ATOM     13  Cl  UNL A   1      33.895  22.596  27.798  1.00  0.00    -0.082 Cl
ATOM     14  C   UNL A   1      31.959  24.760  25.076  1.00  0.00     0.019 A 
ATOM     15  O   UNL A   1      31.527  24.357  22.733  1.00  0.00    -0.475 OA
ATOM     16  C   UNL A   1      31.268  26.042  24.984  1.00  0.00     0.025 C 
ATOM     17  C   UNL A   1      31.556  25.806  22.560  1.00  0.00     0.314 C 
BRANCH   8  18
ATOM     18  N   UNL A   1      33.380  20.790  25.340  1.00  0.00    -0.373 N 
ATOM     19  C   UNL A   1      34.764  20.503  24.970  1.00  0.00     0.143 C 
BRANCH  18  20
ATOM     20  C   UNL A   1      32.363  19.813  24.898  1.00  0.00     0.119 C 
BRANCH  20  21
ATOM     21  C   UNL A   1      32.986  18.497  24.384  1.00  0.00     0.002 C 
ATOM     22  C   UNL A   1      32.666  17.306  25.290  1.00  0.00     0.009 C 
ATOM     23  C   UNL A   1      32.493  18.180  22.969  1.00  0.00     0.009 C 
ENDBRANCH  20  21
ENDBRANCH  18  20
ENDBRANCH   8  18
BRANCH  17  24
ATOM     24  C   UNL A   1      32.970  26.283  22.153  1.00  0.00     0.429 C 
ATOM     25  F   UNL A   1      33.317  25.770  20.947  1.00  0.00    -0.167 F 
ATOM     26  F   UNL A   1      33.042  27.631  22.036  1.00  0.00    -0.167 F 
ATOM     27  F   UNL A   1      33.928  25.921  23.036  1.00  0.00    -0.167 F 
ENDBRANCH  17  24
ENDBRANCH   4   7
ENDBRANCH   2   3
ENDBRANCH   1   2
BRANCH   1  28
ATOM     28  C   UNL A   1      33.939  28.510  25.576  1.00  0.00     0.023 C 
BRANCH  28  29
ATOM     29  C   UNL A   1      33.869  28.578  27.099  1.00  0.00     0.116 C 
BRANCH  29  30
ATOM     30  N   UNL A   1      33.810  29.932  27.635  1.00  0.00    -0.352 N 
ATOM     31  C   UNL A   1      34.809  30.643  28.263  1.00  0.00     0.251 C 
ATOM     32  H   UNL A   1      32.947  30.397  27.537  1.00  0.00     0.163 HD
ATOM     33  O   UNL A   1      34.581  31.753  28.734  1.00  0.00    -0.269 OA
BRANCH  31  34
ATOM     34  C   UNL A   1      36.142  30.023  28.403  1.00  0.00     0.039 A 
ATOM     35  C   UNL A   1      36.514  29.435  29.613  1.00  0.00     0.014 A 
ATOM     36  C   UNL A   1      37.053  30.110  27.348  1.00  0.00     0.014 A 
ATOM     37  C   UNL A   1      37.846  29.114  29.830  1.00  0.00     0.010 A 
ATOM     38  C   UNL A   1      38.373  29.694  27.540  1.00  0.00     0.010 A 
ATOM     39  C   UNL A   1      38.795  29.247  28.802  1.00  0.00    -0.014 A 
BRANCH  39  40
ATOM     40  C   UNL A   1      40.215  28.920  29.095  1.00  0.00     0.031 A 
ATOM     41  C   UNL A   1      40.803  27.591  28.704  1.00  0.00     0.074 A 
ATOM     42  C   UNL A   1      41.002  29.877  29.624  1.00  0.00     0.049 A 
ATOM     43  N   UNL A   1      42.048  27.193  28.771  1.00  0.00    -0.248 NA
ATOM     44  C   UNL A   1      39.880  26.575  28.174  1.00  0.00     0.031 C 
ATOM     45  C   UNL A   1      40.540  31.204  30.039  1.00  0.00     0.029 A 
ATOM     46  N   UNL A   1      42.353  29.908  29.855  1.00  0.00    -0.354 N 
ATOM     47  C   UNL A   1      42.056  25.882  28.306  1.00  0.00     0.074 A 
ATOM     48  C   UNL A   1      40.687  25.538  27.994  1.00  0.00     0.031 C 
ATOM     49  C   UNL A   1      41.599  31.949  30.381  1.00  0.00     0.029 A 
ATOM     50  C   UNL A   1      42.807  31.136  30.275  1.00  0.00     0.049 A 
ATOM     51  H   UNL A   1      42.940  29.127  29.732  1.00  0.00     0.167 HD
ATOM     52  C   UNL A   1      43.112  25.048  28.139  1.00  0.00     0.037 A 
ATOM     53  C   UNL A   1      44.055  31.569  30.535  1.00  0.00     0.037 A 
ATOM     54  C   UNL A   1      44.475  25.404  28.437  1.00  0.00     0.049 A 
ATOM     55  C   UNL A   1      45.206  30.621  30.370  1.00  0.00     0.074 A 
ATOM     56  C   UNL A   1      45.616  24.632  28.295  1.00  0.00     0.029 A 
ATOM     57  N   UNL A   1      44.884  26.633  28.936  1.00  0.00    -0.354 N 
ATOM     58  N   UNL A   1      45.195  29.387  29.926  1.00  0.00    -0.248 NA
ATOM     59  C   UNL A   1      46.534  31.113  30.756  1.00  0.00     0.031 C 
ATOM     60  C   UNL A   1      46.709  25.382  28.744  1.00  0.00     0.029 A 
ATOM     61  C   UNL A   1      46.255  26.635  29.126  1.00  0.00     0.049 A 
ATOM     62  H   UNL A   1      44.285  27.391  29.127  1.00  0.00     0.167 HD
ATOM     63  C   UNL A   1      46.513  28.955  29.974  1.00  0.00     0.074 A 
ATOM     64  C   UNL A   1      47.298  30.063  30.479  1.00  0.00     0.031 C 
ATOM     65  C   UNL A   1      47.022  27.747  29.632  1.00  0.00     0.037 A 
BRANCH  52  66
ATOM     66  C   UNL A   1      42.830  23.664  27.622  1.00  0.00     0.058 A 
ATOM     67  C   UNL A   1      42.491  22.610  28.486  1.00  0.00     0.135 A 
ATOM     68  C   UNL A   1      42.882  23.390  26.246  1.00  0.00     0.135 A 
ATOM     69  F   UNL A   1      42.440  22.813  29.812  1.00  0.00    -0.206 F 
ATOM     70  C   UNL A   1      42.252  21.326  28.008  1.00  0.00     0.059 A 
ATOM     71  C   UNL A   1      42.623  22.117  25.743  1.00  0.00     0.059 A 
ATOM     72  F   UNL A   1      43.196  24.361  25.374  1.00  0.00    -0.206 F 
ATOM     73  C   UNL A   1      42.328  21.087  26.634  1.00  0.00     0.060 A 
BRANCH  73  74
ATOM     74  S   UNL A   1      42.047  19.408  26.034  1.00  0.00     0.124 S 
ATOM     75  O   UNL A   1      40.607  19.424  25.794  1.00  0.00    -0.237 OA
ATOM     76  O   UNL A   1      42.887  19.356  24.842  1.00  0.00    -0.237 OA
ATOM     77  O   UNL A   1      42.488  18.571  27.146  1.00  0.00    -0.744 OA
ENDBRANCH  73  74
ENDBRANCH  52  66
BRANCH  53  78
ATOM     78  C   UNL A   1      44.258  32.984  30.937  1.00  0.00     0.058 A 
ATOM     79  C   UNL A   1      44.378  33.992  29.972  1.00  0.00     0.135 A 
ATOM     80  C   UNL A   1      44.229  33.366  32.288  1.00  0.00     0.135 A 
ATOM     81  F   UNL A   1      44.415  33.675  28.669  1.00  0.00    -0.206 F 
ATOM     82  C   UNL A   1      44.441  35.336  30.329  1.00  0.00     0.059 A 
ATOM     83  C   UNL A   1      44.267  34.703  32.668  1.00  0.00     0.059 A 
ATOM     84  F   UNL A   1      44.098  32.437  33.247  1.00  0.00    -0.206 F 
ATOM     85  C   UNL A   1      44.368  35.681  31.680  1.00  0.00     0.060 A 
BRANCH  85  86
ATOM     86  S   UNL A   1      44.332  37.432  32.124  1.00  0.00     0.124 S 
ATOM     87  O   UNL A   1      43.403  37.431  33.248  1.00  0.00    -0.237 OA
ATOM     88  O   UNL A   1      45.730  37.692  32.452  1.00  0.00    -0.237 OA
ATOM     89  O   UNL A   1      43.851  38.077  30.907  1.00  0.00    -0.744 OA
ENDBRANCH  85  86
ENDBRANCH  53  78
BRANCH  65  90
ATOM     90  C   UNL A   1      48.502  27.543  29.787  1.00  0.00     0.058 A 
ATOM     91  C   UNL A   1      49.392  27.873  28.755  1.00  0.00     0.135 A 
ATOM     92  C   UNL A   1      49.040  27.130  31.015  1.00  0.00     0.135 A 
ATOM     93  F   UNL A   1      48.925  28.263  27.558  1.00  0.00    -0.206 F 
ATOM     94  C   UNL A   1      50.769  27.811  28.940  1.00  0.00     0.059 A 
ATOM     95  C   UNL A   1      50.413  27.078  31.228  1.00  0.00     0.059 A 
ATOM     96  F   UNL A   1      48.226  26.809  32.034  1.00  0.00    -0.206 F 
ATOM     97  C   UNL A   1      51.270  27.424  30.185  1.00  0.00     0.060 A 
BRANCH  97  98
ATOM     98  S   UNL A   1      53.059  27.440  30.436  1.00  0.00     0.124 S 
ATOM     99  O   UNL A   1      53.359  28.864  30.336  1.00  0.00    -0.237 OA
ATOM    100  O   UNL A   1      53.190  26.854  31.767  1.00  0.00    -0.237 OA
ATOM    101  O   UNL A   1      53.562  26.613  29.342  1.00  0.00    -0.744 OA
ENDBRANCH  97  98
ENDBRANCH  65  90
ENDBRANCH  39  40
ENDBRANCH  31  34
ENDBRANCH  29  30
ENDBRANCH  28  29
ENDBRANCH   1  28
TORSDOF 18
ENDMDL
MODEL 2
REMARK VINA RESULT:     -11.5      2.551      8.444
REMARK SMILES CC(C)CN(C)c1cc2c(cc1Cl)C=C(C(=O)NCCCCNC(=O)c1ccc(-c3c4nc(c(-c5c(F)cc(S(=O)(=O)[O-])cc5F)c5ccc([nH]5)c(-c5c(F)cc(S(=O)(=O)[O-])cc5F)c5nc(c(-c6c(F)cc(S(=O)(=O)[O-])cc6F)c6ccc3[nH]6)C=C5)C=C4)cc1)[C@@H](C(F)(F)F)O2
REMARK SMILES IDX 20 1 19 2 18 3 16 4 17 5 15 7 7 8 8 9 12 10 9 11 11 12 13 13
REMARK SMILES IDX 10 14 97 15 14 16 92 17 5 18 6 19 4 20 2 21 1 22 3 23 93 24
REMARK SMILES IDX 94 25 95 26 96 27 21 28 22 29 23 30 24 31 25 33 26 34 27 35
REMARK SMILES IDX 91 36 28 37 90 38 29 39 30 40 31 41 84 42 32 43 89 44 83 45
REMARK SMILES IDX 85 46 33 47 88 48 82 49 81 50 34 52 68 53 47 54 67 55 48 56
REMARK SMILES IDX 51 57 66 58 86 59 49 60 50 61 65 63 87 64 52 65 35 66 36 67
REMARK SMILES IDX 45 68 37 69 38 70 44 71 46 72 39 73 40 74 41 75 42 76 43 77
REMARK SMILES IDX 69 78 70 79 79 80 71 81 72 82 78 83 80 84 73 85 74 86 75 87
REMARK SMILES IDX 76 88 77 89 53 90 54 91 63 92 55 93 56 94 62 95 64 96 57 97
REMARK SMILES IDX 58 98 59 99 60 100 61 101
REMARK H PARENT 18 6 23 32 85 51 51 62
REMARK Flexibility Score: inf
ROOT
ATOM      1  C   UNL A   1      34.186  29.609  26.103  1.00  0.00     0.023 C 
ENDROOT
BRANCH   1   2
ATOM      2  C   UNL A   1      32.689  29.761  25.848  1.00  0.00     0.116 C 
BRANCH   2   3
ATOM      3  N   UNL A   1      31.897  29.156  26.904  1.00  0.00    -0.352 N 
ATOM      4  C   UNL A   1      31.407  27.926  27.181  1.00  0.00     0.251 C 
ATOM      5  O   UNL A   1      30.793  27.825  28.247  1.00  0.00    -0.270 OA
ATOM      6  H   UNL A   1      31.653  29.811  27.598  1.00  0.00     0.163 HD
BRANCH   4   7
ATOM      7  C   UNL A   1      31.542  26.733  26.300  1.00  0.00     0.067 C 
ATOM      8  C   UNL A   1      33.090  22.381  24.262  1.00  0.00     0.059 A 
ATOM      9  C   UNL A   1      31.839  22.942  24.560  1.00  0.00     0.074 A 
ATOM     10  C   UNL A   1      34.239  23.163  24.518  1.00  0.00     0.065 A 
ATOM     11  C   UNL A   1      31.748  24.202  25.144  1.00  0.00     0.130 A 
ATOM     12  C   UNL A   1      34.146  24.394  25.180  1.00  0.00     0.034 A 
ATOM     13  Cl  UNL A   1      35.819  22.646  24.037  1.00  0.00    -0.082 Cl
ATOM     14  C   UNL A   1      32.895  24.903  25.519  1.00  0.00     0.019 A 
ATOM     15  O   UNL A   1      30.492  24.704  25.358  1.00  0.00    -0.475 OA
ATOM     16  C   UNL A   1      32.743  26.124  26.303  1.00  0.00     0.025 C 
ATOM     17  C   UNL A   1      30.446  26.161  25.446  1.00  0.00     0.314 C 
BRANCH   8  18
ATOM     18  N   UNL A   1      33.174  21.062  23.781  1.00  0.00    -0.373 N 
ATOM     19  C   UNL A   1      32.130  20.686  22.831  1.00  0.00     0.143 C 
BRANCH  18  20
ATOM     20  C   UNL A   1      33.555  20.043  24.782  1.00  0.00     0.119 C 
BRANCH  20  21
ATOM     21  C   UNL A   1      33.611  18.619  24.189  1.00  0.00     0.002 C 
ATOM     22  C   UNL A   1      34.938  17.914  24.487  1.00  0.00     0.009 C 
ATOM     23  C   UNL A   1      32.469  17.758  24.736  1.00  0.00     0.009 C 
ENDBRANCH  20  21
ENDBRANCH  18  20
ENDBRANCH   8  18
BRANCH  17  24
ATOM     24  C   UNL A   1      30.426  26.796  24.035  1.00  0.00     0.429 C 
ATOM     25  F   UNL A   1      29.629  27.893  24.019  1.00  0.00    -0.167 F 
ATOM     26  F   UNL A   1      31.655  27.204  23.638  1.00  0.00    -0.167 F 
ATOM     27  F   UNL A   1      29.971  25.955  23.080  1.00  0.00    -0.167 F 
ENDBRANCH  17  24
ENDBRANCH   4   7
ENDBRANCH   2   3
ENDBRANCH   1   2
BRANCH   1  28
ATOM     28  C   UNL A   1      34.683  30.333  27.354  1.00  0.00     0.023 C 
BRANCH  28  29
ATOM     29  C   UNL A   1      35.737  29.583  28.165  1.00  0.00     0.116 C 
BRANCH  29  30
ATOM     30  N   UNL A   1      35.584  29.712  29.609  1.00  0.00    -0.352 N 
ATOM     31  C   UNL A   1      36.571  29.744  30.569  1.00  0.00     0.251 C 
ATOM     32  H   UNL A   1      34.659  29.786  29.940  1.00  0.00     0.163 HD
ATOM     33  O   UNL A   1      36.279  29.778  31.761  1.00  0.00    -0.269 OA
BRANCH  31  34
ATOM     34  C   UNL A   1      37.983  29.684  30.140  1.00  0.00     0.039 A 
ATOM     35  C   UNL A   1      38.351  30.162  28.881  1.00  0.00     0.014 A 
ATOM     36  C   UNL A   1      38.925  29.067  30.966  1.00  0.00     0.014 A 
ATOM     37  C   UNL A   1      39.604  29.850  28.376  1.00  0.00     0.010 A 
ATOM     38  C   UNL A   1      40.218  28.840  30.488  1.00  0.00     0.010 A 
ATOM     39  C   UNL A   1      40.551  29.177  29.167  1.00  0.00    -0.014 A 
BRANCH  39  40
ATOM     40  C   UNL A   1      41.869  28.838  28.568  1.00  0.00     0.031 A 
ATOM     41  C   UNL A   1      43.017  29.810  28.613  1.00  0.00     0.074 A 
ATOM     42  C   UNL A   1      42.052  27.598  28.075  1.00  0.00     0.049 A 
ATOM     43  N   UNL A   1      44.262  29.626  28.253  1.00  0.00    -0.248 NA
ATOM     44  C   UNL A   1      42.736  31.162  29.122  1.00  0.00     0.031 C 
ATOM     45  C   UNL A   1      41.011  26.572  27.984  1.00  0.00     0.029 A 
ATOM     46  N   UNL A   1      43.179  26.970  27.610  1.00  0.00    -0.354 N 
ATOM     47  C   UNL A   1      44.908  30.837  28.479  1.00  0.00     0.074 A 
ATOM     48  C   UNL A   1      43.910  31.760  28.973  1.00  0.00     0.031 C 
ATOM     49  C   UNL A   1      41.565  25.419  27.586  1.00  0.00     0.029 A 
ATOM     50  C   UNL A   1      42.986  25.638  27.330  1.00  0.00     0.049 A 
ATOM     51  H   UNL A   1      44.042  27.428  27.489  1.00  0.00     0.167 HD
ATOM     52  C   UNL A   1      46.216  31.145  28.306  1.00  0.00     0.037 A 
ATOM     53  C   UNL A   1      43.853  24.691  26.924  1.00  0.00     0.037 A 
ATOM     54  C   UNL A   1      47.207  30.215  27.829  1.00  0.00     0.049 A 
ATOM     55  C   UNL A   1      45.291  25.060  26.712  1.00  0.00     0.074 A 
ATOM     56  C   UNL A   1      48.560  30.429  27.627  1.00  0.00     0.029 A 
ATOM     57  N   UNL A   1      46.954  28.896  27.480  1.00  0.00    -0.354 N 
ATOM     58  N   UNL A   1      45.884  26.209  26.933  1.00  0.00    -0.248 NA
ATOM     59  C   UNL A   1      46.175  24.016  26.179  1.00  0.00     0.031 C 
ATOM     60  C   UNL A   1      49.117  29.249  27.120  1.00  0.00     0.029 A 
ATOM     61  C   UNL A   1      48.121  28.288  27.046  1.00  0.00     0.049 A 
ATOM     62  H   UNL A   1      46.074  28.456  27.534  1.00  0.00     0.167 HD
ATOM     63  C   UNL A   1      47.212  26.026  26.572  1.00  0.00     0.074 A 
ATOM     64  C   UNL A   1      47.339  24.652  26.129  1.00  0.00     0.031 C 
ATOM     65  C   UNL A   1      48.230  26.920  26.605  1.00  0.00     0.037 A 
BRANCH  52  66
ATOM     66  C   UNL A   1      46.648  32.551  28.622  1.00  0.00     0.058 A 
ATOM     67  C   UNL A   1      47.091  32.914  29.904  1.00  0.00     0.135 A 
ATOM     68  C   UNL A   1      46.633  33.544  27.629  1.00  0.00     0.135 A 
ATOM     69  F   UNL A   1      47.112  32.008  30.894  1.00  0.00    -0.206 F 
ATOM     70  C   UNL A   1      47.468  34.220  30.200  1.00  0.00     0.059 A 
ATOM     71  C   UNL A   1      47.029  34.852  27.897  1.00  0.00     0.059 A 
ATOM     72  F   UNL A   1      46.223  33.251  26.386  1.00  0.00    -0.206 F 
ATOM     73  C   UNL A   1      47.427  35.185  29.191  1.00  0.00     0.060 A 
BRANCH  73  74
ATOM     74  S   UNL A   1      47.888  36.881  29.600  1.00  0.00     0.124 S 
ATOM     75  O   UNL A   1      47.785  36.864  31.057  1.00  0.00    -0.237 OA
ATOM     76  O   UNL A   1      49.241  36.977  29.063  1.00  0.00    -0.237 OA
ATOM     77  O   UNL A   1      46.883  37.683  28.910  1.00  0.00    -0.744 OA
ENDBRANCH  73  74
ENDBRANCH  52  66
BRANCH  53  78
ATOM     78  C   UNL A   1      43.366  23.300  26.738  1.00  0.00     0.058 A 
ATOM     79  C   UNL A   1      43.236  22.754  25.454  1.00  0.00     0.135 A 
ATOM     80  C   UNL A   1      43.124  22.462  27.837  1.00  0.00     0.135 A 
ATOM     81  F   UNL A   1      43.452  23.518  24.373  1.00  0.00    -0.206 F 
ATOM     82  C   UNL A   1      42.904  21.416  25.264  1.00  0.00     0.059 A 
ATOM     83  C   UNL A   1      42.813  21.116  27.673  1.00  0.00     0.059 A 
ATOM     84  F   UNL A   1      43.254  22.936  29.086  1.00  0.00    -0.206 F 
ATOM     85  C   UNL A   1      42.710  20.602  26.382  1.00  0.00     0.060 A 
BRANCH  85  86
ATOM     86  S   UNL A   1      42.396  18.842  26.125  1.00  0.00     0.124 S 
ATOM     87  O   UNL A   1      40.990  18.847  25.740  1.00  0.00    -0.237 OA
ATOM     88  O   UNL A   1      43.347  18.514  25.067  1.00  0.00    -0.237 OA
ATOM     89  O   UNL A   1      42.693  18.254  27.427  1.00  0.00    -0.744 OA
ENDBRANCH  85  86
ENDBRANCH  53  78
BRANCH  65  90
ATOM     90  C   UNL A   1      49.583  26.454  26.150  1.00  0.00     0.058 A 
ATOM     91  C   UNL A   1      50.070  26.772  24.875  1.00  0.00     0.135 A 
ATOM     92  C   UNL A   1      50.443  25.789  27.038  1.00  0.00     0.135 A 
ATOM     93  F   UNL A   1      49.282  27.399  23.987  1.00  0.00    -0.206 F 
ATOM     94  C   UNL A   1      51.371  26.458  24.497  1.00  0.00     0.059 A 
ATOM     95  C   UNL A   1      51.754  25.481  26.688  1.00  0.00     0.059 A 
ATOM     96  F   UNL A   1      50.023  25.468  28.272  1.00  0.00    -0.206 F 
ATOM     97  C   UNL A   1      52.210  25.823  25.417  1.00  0.00     0.060 A 
BRANCH  97  98
ATOM     98  S   UNL A   1      53.924  25.506  24.943  1.00  0.00     0.124 S 
ATOM     99  O   UNL A   1      54.654  26.272  25.947  1.00  0.00    -0.237 OA
ATOM    100  O   UNL A   1      54.015  24.054  25.061  1.00  0.00    -0.237 OA
ATOM    101  O   UNL A   1      54.000  26.024  23.579  1.00  0.00    -0.744 OA
ENDBRANCH  97  98
ENDBRANCH  65  90
ENDBRANCH  39  40
ENDBRANCH  31  34
ENDBRANCH  29  30
ENDBRANCH  28  29
ENDBRANCH   1  28
TORSDOF 18
ENDMDL
MODEL 3
REMARK VINA RESULT:     -11.5      5.125     10.141
REMARK SMILES CC(C)CN(C)c1cc2c(cc1Cl)C=C(C(=O)NCCCCNC(=O)c1ccc(-c3c4nc(c(-c5c(F)cc(S(=O)(=O)[O-])cc5F)c5ccc([nH]5)c(-c5c(F)cc(S(=O)(=O)[O-])cc5F)c5nc(c(-c6c(F)cc(S(=O)(=O)[O-])cc6F)c6ccc3[nH]6)C=C5)C=C4)cc1)[C@@H](C(F)(F)F)O2
REMARK SMILES IDX 20 1 19 2 18 3 16 4 17 5 15 7 7 8 8 9 12 10 9 11 11 12 13 13
REMARK SMILES IDX 10 14 97 15 14 16 92 17 5 18 6 19 4 20 2 21 1 22 3 23 93 24
REMARK SMILES IDX 94 25 95 26 96 27 21 28 22 29 23 30 24 31 25 33 26 34 27 35
REMARK SMILES IDX 91 36 28 37 90 38 29 39 30 40 31 41 84 42 32 43 89 44 83 45
REMARK SMILES IDX 85 46 33 47 88 48 82 49 81 50 34 52 68 53 47 54 67 55 48 56
REMARK SMILES IDX 51 57 66 58 86 59 49 60 50 61 65 63 87 64 52 65 35 66 36 67
REMARK SMILES IDX 45 68 37 69 38 70 44 71 46 72 39 73 40 74 41 75 42 76 43 77
REMARK SMILES IDX 69 78 70 79 79 80 71 81 72 82 78 83 80 84 73 85 74 86 75 87
REMARK SMILES IDX 76 88 77 89 53 90 54 91 63 92 55 93 56 94 62 95 64 96 57 97
REMARK SMILES IDX 58 98 59 99 60 100 61 101
REMARK H PARENT 18 6 23 32 85 51 51 62
REMARK Flexibility Score: inf
ROOT
ATOM      1  C   UNL A   1      38.507  21.824  25.769  1.00  0.00     0.023 C 
ENDROOT
BRANCH   1   2
ATOM      2  C   UNL A   1      37.441  21.902  24.679  1.00  0.00     0.116 C 
BRANCH   2   3
ATOM      3  N   UNL A   1      36.300  21.056  24.978  1.00  0.00    -0.352 N 
ATOM      4  C   UNL A   1      34.954  21.191  24.986  1.00  0.00     0.251 C 
ATOM      5  O   UNL A   1      34.318  20.173  25.274  1.00  0.00    -0.270 OA
ATOM      6  H   UNL A   1      36.578  20.150  25.246  1.00  0.00     0.163 HD
BRANCH   4   7
ATOM      7  C   UNL A   1      34.219  22.453  24.696  1.00  0.00     0.067 C 
ATOM      8  C   UNL A   1      32.317  27.120  25.012  1.00  0.00     0.059 A 
ATOM      9  C   UNL A   1      32.923  26.367  23.995  1.00  0.00     0.074 A 
ATOM     10  C   UNL A   1      32.111  26.491  26.261  1.00  0.00     0.065 A 
ATOM     11  C   UNL A   1      33.357  25.067  24.238  1.00  0.00     0.130 A 
ATOM     12  C   UNL A   1      32.623  25.214  26.523  1.00  0.00     0.034 A 
ATOM     13  Cl  UNL A   1      31.225  27.260  27.534  1.00  0.00    -0.082 Cl
ATOM     14  C   UNL A   1      33.273  24.509  25.514  1.00  0.00     0.019 A 
ATOM     15  O   UNL A   1      33.892  24.378  23.182  1.00  0.00    -0.475 OA
ATOM     16  C   UNL A   1      33.919  23.224  25.759  1.00  0.00     0.025 C 
ATOM     17  C   UNL A   1      33.821  22.927  23.327  1.00  0.00     0.314 C 
BRANCH   8  18
ATOM     18  N   UNL A   1      31.990  28.469  24.791  1.00  0.00    -0.373 N 
ATOM     19  C   UNL A   1      30.959  28.694  23.780  1.00  0.00     0.143 C 
BRANCH  18  20
ATOM     20  C   UNL A   1      33.131  29.409  24.791  1.00  0.00     0.119 C 
BRANCH  20  21
ATOM     21  C   UNL A   1      33.279  30.166  26.129  1.00  0.00     0.002 C 
ATOM     22  C   UNL A   1      31.928  30.447  26.793  1.00  0.00     0.009 C 
ATOM     23  C   UNL A   1      34.147  29.371  27.109  1.00  0.00     0.009 C 
ENDBRANCH  20  21
ENDBRANCH  18  20
ENDBRANCH   8  18
BRANCH  17  24
ATOM     24  C   UNL A   1      32.423  22.402  22.921  1.00  0.00     0.429 C 
ATOM     25  F   UNL A   1      31.808  21.819  23.980  1.00  0.00    -0.167 F 
ATOM     26  F   UNL A   1      31.605  23.395  22.497  1.00  0.00    -0.167 F 
ATOM     27  F   UNL A   1      32.466  21.487  21.927  1.00  0.00    -0.167 F 
ENDBRANCH  17  24
ENDBRANCH   4   7
ENDBRANCH   2   3
ENDBRANCH   1   2
BRANCH   1  28
ATOM     28  C   UNL A   1      38.672  23.112  26.575  1.00  0.00     0.023 C 
BRANCH  28  29
ATOM     29  C   UNL A   1      40.111  23.483  26.923  1.00  0.00     0.116 C 
BRANCH  29  30
ATOM     30  N   UNL A   1      40.768  24.326  25.932  1.00  0.00    -0.352 N 
ATOM     31  C   UNL A   1      41.260  25.602  26.093  1.00  0.00     0.251 C 
ATOM     32  H   UNL A   1      40.872  23.935  25.034  1.00  0.00     0.163 HD
ATOM     33  O   UNL A   1      41.719  26.218  25.135  1.00  0.00    -0.269 OA
BRANCH  31  34
ATOM     34  C   UNL A   1      41.178  26.233  27.426  1.00  0.00     0.039 A 
ATOM     35  C   UNL A   1      40.048  26.040  28.221  1.00  0.00     0.014 A 
ATOM     36  C   UNL A   1      42.199  27.092  27.842  1.00  0.00     0.014 A 
ATOM     37  C   UNL A   1      39.852  26.849  29.331  1.00  0.00     0.010 A 
ATOM     38  C   UNL A   1      42.039  27.835  29.014  1.00  0.00     0.010 A 
ATOM     39  C   UNL A   1      40.838  27.763  29.738  1.00  0.00    -0.014 A 
BRANCH  39  40
ATOM     40  C   UNL A   1      40.566  28.630  30.914  1.00  0.00     0.031 A 
ATOM     41  C   UNL A   1      41.476  28.621  32.113  1.00  0.00     0.074 A 
ATOM     42  C   UNL A   1      39.545  29.506  30.847  1.00  0.00     0.049 A 
ATOM     43  N   UNL A   1      41.456  29.401  33.164  1.00  0.00    -0.248 NA
ATOM     44  C   UNL A   1      42.543  27.608  32.142  1.00  0.00     0.031 C 
ATOM     45  C   UNL A   1      38.601  29.606  29.732  1.00  0.00     0.029 A 
ATOM     46  N   UNL A   1      39.162  30.511  31.698  1.00  0.00    -0.354 N 
ATOM     47  C   UNL A   1      42.493  28.967  33.982  1.00  0.00     0.074 A 
ATOM     48  C   UNL A   1      43.101  27.832  33.324  1.00  0.00     0.031 C 
ATOM     49  C   UNL A   1      37.810  30.670  29.921  1.00  0.00     0.029 A 
ATOM     50  C   UNL A   1      38.146  31.291  31.199  1.00  0.00     0.049 A 
ATOM     51  H   UNL A   1      39.574  30.658  32.580  1.00  0.00     0.167 HD
ATOM     52  C   UNL A   1      42.910  29.479  35.166  1.00  0.00     0.037 A 
ATOM     53  C   UNL A   1      37.555  32.391  31.703  1.00  0.00     0.037 A 
ATOM     54  C   UNL A   1      42.310  30.620  35.807  1.00  0.00     0.049 A 
ATOM     55  C   UNL A   1      38.014  32.925  33.028  1.00  0.00     0.074 A 
ATOM     56  C   UNL A   1      42.664  31.220  37.004  1.00  0.00     0.029 A 
ATOM     57  N   UNL A   1      41.230  31.335  35.307  1.00  0.00    -0.354 N 
ATOM     58  N   UNL A   1      38.998  32.503  33.785  1.00  0.00    -0.248 NA
ATOM     59  C   UNL A   1      37.275  34.069  33.577  1.00  0.00     0.031 C 
ATOM     60  C   UNL A   1      41.775  32.274  37.244  1.00  0.00     0.029 A 
ATOM     61  C   UNL A   1      40.894  32.357  36.178  1.00  0.00     0.049 A 
ATOM     62  H   UNL A   1      40.772  31.143  34.456  1.00  0.00     0.167 HD
ATOM     63  C   UNL A   1      39.002  33.333  34.899  1.00  0.00     0.074 A 
ATOM     64  C   UNL A   1      37.929  34.289  34.711  1.00  0.00     0.031 C 
ATOM     65  C   UNL A   1      39.820  33.299  35.978  1.00  0.00     0.037 A 
BRANCH  52  66
ATOM     66  C   UNL A   1      44.065  28.799  35.850  1.00  0.00     0.058 A 
ATOM     67  C   UNL A   1      45.393  29.190  35.617  1.00  0.00     0.135 A 
ATOM     68  C   UNL A   1      43.841  27.754  36.762  1.00  0.00     0.135 A 
ATOM     69  F   UNL A   1      45.665  30.173  34.745  1.00  0.00    -0.206 F 
ATOM     70  C   UNL A   1      46.459  28.544  36.234  1.00  0.00     0.059 A 
ATOM     71  C   UNL A   1      44.892  27.110  37.409  1.00  0.00     0.059 A 
ATOM     72  F   UNL A   1      42.591  27.343  37.025  1.00  0.00    -0.206 F 
ATOM     73  C   UNL A   1      46.200  27.499  37.123  1.00  0.00     0.060 A 
BRANCH  73  74
ATOM     74  S   UNL A   1      47.597  26.652  37.889  1.00  0.00     0.124 S 
ATOM     75  O   UNL A   1      46.958  25.439  38.394  1.00  0.00    -0.237 OA
ATOM     76  O   UNL A   1      48.506  26.465  36.763  1.00  0.00    -0.237 OA
ATOM     77  O   UNL A   1      48.049  27.593  38.909  1.00  0.00    -0.744 OA
ENDBRANCH  73  74
ENDBRANCH  52  66
BRANCH  53  78
ATOM     78  C   UNL A   1      36.495  33.066  30.912  1.00  0.00     0.058 A 
ATOM     79  C   UNL A   1      35.141  32.873  31.219  1.00  0.00     0.135 A 
ATOM     80  C   UNL A   1      36.816  33.993  29.907  1.00  0.00     0.135 A 
ATOM     81  F   UNL A   1      34.786  31.994  32.168  1.00  0.00    -0.206 F 
ATOM     82  C   UNL A   1      34.141  33.593  30.573  1.00  0.00     0.059 A 
ATOM     83  C   UNL A   1      35.835  34.740  29.264  1.00  0.00     0.059 A 
ATOM     84  F   UNL A   1      38.099  34.223  29.591  1.00  0.00    -0.206 F 
ATOM     85  C   UNL A   1      34.500  34.536  29.608  1.00  0.00     0.060 A 
BRANCH  85  86
ATOM     86  S   UNL A   1      33.202  35.547  28.862  1.00  0.00     0.124 S 
ATOM     87  O   UNL A   1      32.441  34.548  28.121  1.00  0.00    -0.237 OA
ATOM     88  O   UNL A   1      32.542  36.110  30.037  1.00  0.00    -0.237 OA
ATOM     89  O   UNL A   1      33.946  36.504  28.052  1.00  0.00    -0.744 OA
ENDBRANCH  85  86
ENDBRANCH  53  78
BRANCH  65  90
ATOM     90  C   UNL A   1      39.600  34.324  37.053  1.00  0.00     0.058 A 
ATOM     91  C   UNL A   1      38.837  34.030  38.192  1.00  0.00     0.135 A 
ATOM     92  C   UNL A   1      40.255  35.564  37.000  1.00  0.00     0.135 A 
ATOM     93  F   UNL A   1      38.184  32.861  38.284  1.00  0.00    -0.206 F 
ATOM     94  C   UNL A   1      38.740  34.927  39.250  1.00  0.00     0.059 A 
ATOM     95  C   UNL A   1      40.187  36.469  38.054  1.00  0.00     0.059 A 
ATOM     96  F   UNL A   1      41.001  35.888  35.932  1.00  0.00    -0.206 F 
ATOM     97  C   UNL A   1      39.430  36.140  39.177  1.00  0.00     0.060 A 
BRANCH  97  98
ATOM     98  S   UNL A   1      39.368  37.252  40.598  1.00  0.00     0.124 S 
ATOM     99  O   UNL A   1      38.414  38.258  40.145  1.00  0.00    -0.237 OA
ATOM    100  O   UNL A   1      38.902  36.369  41.664  1.00  0.00    -0.237 OA
ATOM    101  O   UNL A   1      40.749  37.710  40.730  1.00  0.00    -0.744 OA
ENDBRANCH  97  98
ENDBRANCH  65  90
ENDBRANCH  39  40
ENDBRANCH  31  34
ENDBRANCH  29  30
ENDBRANCH  28  29
ENDBRANCH   1  28
TORSDOF 18
ENDMDL
