MODEL 1
REMARK VINA RESULT:      -9.9      0.000      0.000
REMARK SMILES NS(=O)(=O)c1ccc(-n2nc(C(=O)NCCCCCCCCCCC(=O)NCCCCNC(=O)c3ccc(-c4c5nc(c(-c6c(F)cc(S(=O)(=O)[O-])cc6F)c6ccc([nH]6)c(-c6c(F)cc(S(=O)(=O)[O-])cc6F)c6nc(c(-c7c(F)cc(S(=O)(=O)[O-])cc7F)c7ccc4[nH]7)C=C6)C=C5)cc3)cc2-c2ccccc2)cc1
REMARK SMILES IDX 22 1 21 2 20 3 19 4 18 5 17 6 16 7 15 8 14 9 12 10 13 11
REMARK SMILES IDX 11 13 9 14 10 15 102 16 101 17 8 18 5 19 6 20 110 21 7 22
REMARK SMILES IDX 109 23 2 24 3 25 4 26 1 27 103 30 104 31 108 32 105 33
REMARK SMILES IDX 107 34 106 35 23 36 24 37 25 38 26 39 27 40 28 42 29 43
REMARK SMILES IDX 30 44 31 45 32 46 33 47 34 49 35 50 36 51 100 52 37 53 99 54
REMARK SMILES IDX 38 55 39 56 40 57 93 58 41 59 98 60 92 61 94 62 42 63 97 64
REMARK SMILES IDX 91 65 90 66 43 68 77 69 56 70 76 71 57 72 60 73 75 74 95 75
REMARK SMILES IDX 58 76 59 77 74 79 96 80 61 81 44 82 45 83 54 84 46 85 47 86
REMARK SMILES IDX 53 87 55 88 48 89 49 90 50 91 51 92 52 93 78 94 79 95 88 96
REMARK SMILES IDX 80 97 81 98 87 99 89 100 82 101 83 102 84 103 85 104 86 105
REMARK SMILES IDX 62 106 63 107 72 108 64 109 65 110 71 111 73 112 66 113
REMARK SMILES IDX 67 114 68 115 69 116 70 117
REMARK H PARENT 14 12 1 28 1 29 27 41 32 48 94 67 60 78
REMARK Flexibility Score: inf
ROOT
ATOM      1  C   UNL A   1      38.336  23.558  26.587  1.00  0.00     0.001 C 
ENDROOT
BRANCH   1   2
ATOM      2  C   UNL A   1      36.985  23.787  25.901  1.00  0.00     0.000 C 
BRANCH   2   3
ATOM      3  C   UNL A   1      36.946  23.195  24.499  1.00  0.00     0.000 C 
BRANCH   3   4
ATOM      4  C   UNL A   1      36.950  21.664  24.497  1.00  0.00     0.000 C 
BRANCH   4   5
ATOM      5  C   UNL A   1      35.939  21.043  25.469  1.00  0.00     0.000 C 
BRANCH   5   6
ATOM      6  C   UNL A   1      34.620  20.621  24.807  1.00  0.00     0.002 C 
BRANCH   6   7
ATOM      7  C   UNL A   1      33.395  21.364  25.352  1.00  0.00     0.021 C 
BRANCH   7   8
ATOM      8  C   UNL A   1      32.293  21.484  24.302  1.00  0.00     0.116 C 
BRANCH   8   9
ATOM      9  N   UNL A   1      32.852  21.921  23.050  1.00  0.00    -0.351 N 
ATOM     10  C   UNL A   1      32.978  23.165  22.487  1.00  0.00     0.271 C 
ATOM     11  O   UNL A   1      33.477  23.199  21.360  1.00  0.00    -0.267 OA
ATOM     12  H   UNL A   1      33.212  21.191  22.494  1.00  0.00     0.163 HD
BRANCH  10  13
ATOM     13  C   UNL A   1      32.612  24.390  23.229  1.00  0.00     0.151 A 
ATOM     14  N   UNL A   1      31.713  26.325  23.461  1.00  0.00    -0.232 N 
ATOM     15  N   UNL A   1      31.657  25.196  22.731  1.00  0.00    -0.162 NA
ATOM     16  C   UNL A   1      32.603  26.229  24.514  1.00  0.00     0.075 A 
ATOM     17  C   UNL A   1      33.082  24.937  24.449  1.00  0.00     0.065 A 
BRANCH  14  18
ATOM     18  C   UNL A   1      30.896  27.418  23.103  1.00  0.00     0.065 A 
ATOM     19  C   UNL A   1      29.275  29.597  22.571  1.00  0.00     0.082 A 
ATOM     20  C   UNL A   1      30.646  29.678  22.306  1.00  0.00     0.024 A 
ATOM     21  C   UNL A   1      28.704  28.421  23.068  1.00  0.00     0.024 A 
ATOM     22  C   UNL A   1      31.464  28.588  22.590  1.00  0.00     0.030 A 
ATOM     23  C   UNL A   1      29.513  27.313  23.302  1.00  0.00     0.030 A 
BRANCH  19  24
ATOM     24  S   UNL A   1      28.233  31.004  22.346  1.00  0.00     0.238 S 
ATOM     25  O   UNL A   1      29.080  32.173  22.163  1.00  0.00    -0.207 OA
ATOM     26  O   UNL A   1      27.168  30.953  23.299  1.00  0.00    -0.207 OA
BRANCH  24  27
ATOM     27  N   UNL A   1      27.525  30.756  20.840  1.00  0.00    -0.225 NA
ATOM     28  H   UNL A   1      28.236  30.453  20.176  1.00  0.00     0.137 HD
ATOM     29  H   UNL A   1      27.104  31.627  20.515  1.00  0.00     0.137 HD
ENDBRANCH  24  27
ENDBRANCH  19  24
ENDBRANCH  14  18
BRANCH  16  30
ATOM     30  C   UNL A   1      32.853  27.233  25.540  1.00  0.00     0.000 A 
ATOM     31  C   UNL A   1      33.970  28.071  25.462  1.00  0.00     0.010 A 
ATOM     32  C   UNL A   1      31.955  27.381  26.605  1.00  0.00     0.010 A 
ATOM     33  C   UNL A   1      34.194  29.035  26.446  1.00  0.00     0.001 A 
ATOM     34  C   UNL A   1      32.184  28.343  27.591  1.00  0.00     0.001 A 
ATOM     35  C   UNL A   1      33.304  29.169  27.510  1.00  0.00     0.000 A 
ENDBRANCH  16  30
ENDBRANCH  10  13
ENDBRANCH   8   9
ENDBRANCH   7   8
ENDBRANCH   6   7
ENDBRANCH   5   6
ENDBRANCH   4   5
ENDBRANCH   3   4
ENDBRANCH   2   3
ENDBRANCH   1   2
BRANCH   1  36
ATOM     36  C   UNL A   1      39.415  24.552  26.184  1.00  0.00     0.010 C 
BRANCH  36  37
ATOM     37  C   UNL A   1      39.673  25.676  27.184  1.00  0.00     0.100 C 
BRANCH  37  38
ATOM     38  C   UNL A   1      40.864  26.548  26.837  1.00  0.00     0.219 C 
ATOM     39  O   UNL A   1      41.956  26.033  26.585  1.00  0.00    -0.275 OA
ATOM     40  N   UNL A   1      40.776  27.907  26.792  1.00  0.00    -0.356 N 
ATOM     41  H   UNL A   1      41.588  28.354  26.459  1.00  0.00     0.163 HD
BRANCH  40  42
ATOM     42  C   UNL A   1      39.700  28.818  27.150  1.00  0.00     0.116 C 
BRANCH  42  43
ATOM     43  C   UNL A   1      39.246  28.624  28.610  1.00  0.00     0.023 C 
BRANCH  43  44
ATOM     44  C   UNL A   1      38.026  29.425  29.082  1.00  0.00     0.023 C 
BRANCH  44  45
ATOM     45  C   UNL A   1      38.325  30.817  29.615  1.00  0.00     0.116 C 
BRANCH  45  46
ATOM     46  N   UNL A   1      37.501  31.211  30.769  1.00  0.00    -0.352 N 
ATOM     47  C   UNL A   1      37.490  30.629  32.032  1.00  0.00     0.251 C 
ATOM     48  H   UNL A   1      36.889  31.971  30.631  1.00  0.00     0.163 HD
ATOM     49  O   UNL A   1      36.530  30.737  32.785  1.00  0.00    -0.269 OA
BRANCH  47  50
ATOM     50  C   UNL A   1      38.703  29.907  32.444  1.00  0.00     0.039 A 
ATOM     51  C   UNL A   1      38.837  28.516  32.386  1.00  0.00     0.014 A 
ATOM     52  C   UNL A   1      39.781  30.726  32.745  1.00  0.00     0.014 A 
ATOM     53  C   UNL A   1      40.112  27.966  32.542  1.00  0.00     0.010 A 
ATOM     54  C   UNL A   1      41.034  30.205  32.627  1.00  0.00     0.010 A 
ATOM     55  C   UNL A   1      41.213  28.827  32.640  1.00  0.00    -0.014 A 
BRANCH  55  56
ATOM     56  C   UNL A   1      42.595  28.364  32.690  1.00  0.00     0.031 A 
ATOM     57  C   UNL A   1      43.075  27.916  34.028  1.00  0.00     0.074 A 
ATOM     58  C   UNL A   1      43.265  28.079  31.549  1.00  0.00     0.049 A 
ATOM     59  N   UNL A   1      43.997  28.442  34.765  1.00  0.00    -0.248 NA
ATOM     60  C   UNL A   1      42.347  26.820  34.692  1.00  0.00     0.031 C 
ATOM     61  C   UNL A   1      42.784  28.151  30.157  1.00  0.00     0.029 A 
ATOM     62  N   UNL A   1      44.497  27.532  31.393  1.00  0.00    -0.354 N 
ATOM     63  C   UNL A   1      44.131  27.603  35.871  1.00  0.00     0.074 A 
ATOM     64  C   UNL A   1      42.960  26.767  35.877  1.00  0.00     0.031 C 
ATOM     65  C   UNL A   1      43.598  27.438  29.350  1.00  0.00     0.029 A 
ATOM     66  C   UNL A   1      44.760  27.045  30.117  1.00  0.00     0.049 A 
ATOM     67  H   UNL A   1      45.153  27.484  32.126  1.00  0.00     0.167 HD
ATOM     68  C   UNL A   1      45.314  27.494  36.543  1.00  0.00     0.037 A 
ATOM     69  C   UNL A   1      45.861  26.361  29.719  1.00  0.00     0.037 A 
ATOM     70  C   UNL A   1      46.205  28.573  36.188  1.00  0.00     0.049 A 
ATOM     71  C   UNL A   1      46.917  26.645  30.724  1.00  0.00     0.074 A 
ATOM     72  C   UNL A   1      46.147  29.950  36.280  1.00  0.00     0.029 A 
ATOM     73  N   UNL A   1      47.198  28.305  35.276  1.00  0.00    -0.354 N 
ATOM     74  N   UNL A   1      47.419  27.835  30.930  1.00  0.00    -0.248 NA
ATOM     75  C   UNL A   1      47.057  25.712  31.831  1.00  0.00     0.031 C 
ATOM     76  C   UNL A   1      46.742  30.425  35.073  1.00  0.00     0.029 A 
ATOM     77  C   UNL A   1      47.197  29.319  34.351  1.00  0.00     0.049 A 
ATOM     78  H   UNL A   1      47.801  27.526  35.285  1.00  0.00     0.167 HD
ATOM     79  C   UNL A   1      47.562  27.934  32.308  1.00  0.00     0.074 A 
ATOM     80  C   UNL A   1      47.400  26.565  32.800  1.00  0.00     0.031 C 
ATOM     81  C   UNL A   1      47.512  29.142  32.947  1.00  0.00     0.037 A 
BRANCH  68  82
ATOM     82  C   UNL A   1      45.815  26.236  37.227  1.00  0.00     0.058 A 
ATOM     83  C   UNL A   1      45.831  25.022  36.507  1.00  0.00     0.135 A 
ATOM     84  C   UNL A   1      46.013  26.110  38.620  1.00  0.00     0.135 A 
ATOM     85  F   UNL A   1      45.663  25.013  35.175  1.00  0.00    -0.206 F 
ATOM     86  C   UNL A   1      45.939  23.777  37.133  1.00  0.00     0.059 A 
ATOM     87  C   UNL A   1      46.178  24.885  39.257  1.00  0.00     0.059 A 
ATOM     88  F   UNL A   1      45.960  27.155  39.453  1.00  0.00    -0.206 F 
ATOM     89  C   UNL A   1      46.089  23.722  38.514  1.00  0.00     0.060 A 
BRANCH  89  90
ATOM     90  S   UNL A   1      46.092  22.122  39.343  1.00  0.00     0.124 S 
ATOM     91  O   UNL A   1      45.908  21.214  38.217  1.00  0.00    -0.237 OA
ATOM     92  O   UNL A   1      47.408  22.109  39.972  1.00  0.00    -0.237 OA
ATOM     93  O   UNL A   1      44.964  22.221  40.265  1.00  0.00    -0.744 OA
ENDBRANCH  89  90
ENDBRANCH  68  82
BRANCH  69  94
ATOM     94  C   UNL A   1      45.922  25.234  28.751  1.00  0.00     0.058 A 
ATOM     95  C   UNL A   1      45.150  24.073  28.926  1.00  0.00     0.135 A 
ATOM     96  C   UNL A   1      46.539  25.384  27.490  1.00  0.00     0.135 A 
ATOM     97  F   UNL A   1      44.511  23.862  30.087  1.00  0.00    -0.206 F 
ATOM     98  C   UNL A   1      44.968  23.136  27.902  1.00  0.00     0.059 A 
ATOM     99  C   UNL A   1      46.376  24.462  26.457  1.00  0.00     0.059 A 
ATOM    100  F   UNL A   1      47.252  26.483  27.199  1.00  0.00    -0.206 F 
ATOM    101  C   UNL A   1      45.570  23.349  26.662  1.00  0.00     0.060 A 
BRANCH 101 102
ATOM    102  S   UNL A   1      45.212  22.224  25.292  1.00  0.00     0.124 S 
ATOM    103  O   UNL A   1      44.892  23.153  24.214  1.00  0.00    -0.237 OA
ATOM    104  O   UNL A   1      46.470  21.496  25.154  1.00  0.00    -0.237 OA
ATOM    105  O   UNL A   1      44.088  21.433  25.787  1.00  0.00    -0.744 OA
ENDBRANCH 101 102
ENDBRANCH  69  94
BRANCH  81 106
ATOM    106  C   UNL A   1      47.558  30.402  32.111  1.00  0.00     0.058 A 
ATOM    107  C   UNL A   1      48.732  30.950  31.563  1.00  0.00     0.135 A 
ATOM    108  C   UNL A   1      46.344  30.964  31.690  1.00  0.00     0.135 A 
ATOM    109  F   UNL A   1      49.931  30.420  31.831  1.00  0.00    -0.206 F 
ATOM    110  C   UNL A   1      48.704  32.016  30.660  1.00  0.00     0.059 A 
ATOM    111  C   UNL A   1      46.289  32.008  30.769  1.00  0.00     0.059 A 
ATOM    112  F   UNL A   1      45.182  30.450  32.125  1.00  0.00    -0.206 F 
ATOM    113  C   UNL A   1      47.474  32.535  30.262  1.00  0.00     0.060 A 
BRANCH 113 114
ATOM    114  S   UNL A   1      47.433  33.844  29.018  1.00  0.00     0.124 S 
ATOM    115  O   UNL A   1      48.603  33.530  28.203  1.00  0.00    -0.237 OA
ATOM    116  O   UNL A   1      46.139  33.633  28.376  1.00  0.00    -0.237 OA
ATOM    117  O   UNL A   1      47.534  35.069  29.808  1.00  0.00    -0.744 OA
ENDBRANCH 113 114
ENDBRANCH  81 106
ENDBRANCH  55  56
ENDBRANCH  47  50
ENDBRANCH  45  46
ENDBRANCH  44  45
ENDBRANCH  43  44
ENDBRANCH  42  43
ENDBRANCH  40  42
ENDBRANCH  37  38
ENDBRANCH  36  37
ENDBRANCH   1  36
TORSDOF 29
ENDMDL
MODEL 2
REMARK VINA RESULT:      -9.8      4.518      6.649
REMARK SMILES NS(=O)(=O)c1ccc(-n2nc(C(=O)NCCCCCCCCCCC(=O)NCCCCNC(=O)c3ccc(-c4c5nc(c(-c6c(F)cc(S(=O)(=O)[O-])cc6F)c6ccc([nH]6)c(-c6c(F)cc(S(=O)(=O)[O-])cc6F)c6nc(c(-c7c(F)cc(S(=O)(=O)[O-])cc7F)c7ccc4[nH]7)C=C6)C=C5)cc3)cc2-c2ccccc2)cc1
REMARK SMILES IDX 22 1 21 2 20 3 19 4 18 5 17 6 16 7 15 8 14 9 12 10 13 11
REMARK SMILES IDX 11 13 9 14 10 15 102 16 101 17 8 18 5 19 6 20 110 21 7 22
REMARK SMILES IDX 109 23 2 24 3 25 4 26 1 27 103 30 104 31 108 32 105 33
REMARK SMILES IDX 107 34 106 35 23 36 24 37 25 38 26 39 27 40 28 42 29 43
REMARK SMILES IDX 30 44 31 45 32 46 33 47 34 49 35 50 36 51 100 52 37 53 99 54
REMARK SMILES IDX 38 55 39 56 40 57 93 58 41 59 98 60 92 61 94 62 42 63 97 64
REMARK SMILES IDX 91 65 90 66 43 68 77 69 56 70 76 71 57 72 60 73 75 74 95 75
REMARK SMILES IDX 58 76 59 77 74 79 96 80 61 81 44 82 45 83 54 84 46 85 47 86
REMARK SMILES IDX 53 87 55 88 48 89 49 90 50 91 51 92 52 93 78 94 79 95 88 96
REMARK SMILES IDX 80 97 81 98 87 99 89 100 82 101 83 102 84 103 85 104 86 105
REMARK SMILES IDX 62 106 63 107 72 108 64 109 65 110 71 111 73 112 66 113
REMARK SMILES IDX 67 114 68 115 69 116 70 117
REMARK H PARENT 14 12 1 28 1 29 27 41 32 48 94 67 60 78
REMARK Flexibility Score: inf
ROOT
ATOM      1  C   UNL A   1      39.146  24.239  26.635  1.00  0.00     0.001 C 
ENDROOT
BRANCH   1   2
ATOM      2  C   UNL A   1      37.695  23.748  26.681  1.00  0.00     0.000 C 
BRANCH   2   3
ATOM      3  C   UNL A   1      37.040  23.766  25.306  1.00  0.00     0.000 C 
BRANCH   3   4
ATOM      4  C   UNL A   1      37.006  22.387  24.642  1.00  0.00     0.000 C 
BRANCH   4   5
ATOM      5  C   UNL A   1      36.173  21.353  25.410  1.00  0.00     0.000 C 
BRANCH   5   6
ATOM      6  C   UNL A   1      34.918  20.887  24.661  1.00  0.00     0.002 C 
BRANCH   6   7
ATOM      7  C   UNL A   1      33.609  21.309  25.336  1.00  0.00     0.021 C 
BRANCH   7   8
ATOM      8  C   UNL A   1      32.445  21.335  24.348  1.00  0.00     0.116 C 
BRANCH   8   9
ATOM      9  N   UNL A   1      32.899  21.805  23.066  1.00  0.00    -0.351 N 
ATOM     10  C   UNL A   1      32.943  23.059  22.513  1.00  0.00     0.271 C 
ATOM     11  O   UNL A   1      33.359  23.124  21.355  1.00  0.00    -0.267 OA
ATOM     12  H   UNL A   1      33.243  21.094  22.476  1.00  0.00     0.163 HD
BRANCH  10  13
ATOM     13  C   UNL A   1      32.590  24.262  23.296  1.00  0.00     0.151 A 
ATOM     14  N   UNL A   1      31.676  26.179  23.606  1.00  0.00    -0.232 N 
ATOM     15  N   UNL A   1      31.606  25.066  22.854  1.00  0.00    -0.162 NA
ATOM     16  C   UNL A   1      32.606  26.071  24.622  1.00  0.00     0.075 A 
ATOM     17  C   UNL A   1      33.099  24.788  24.510  1.00  0.00     0.065 A 
BRANCH  14  18
ATOM     18  C   UNL A   1      30.831  27.268  23.305  1.00  0.00     0.065 A 
ATOM     19  C   UNL A   1      29.209  29.378  22.546  1.00  0.00     0.082 A 
ATOM     20  C   UNL A   1      28.627  28.197  23.018  1.00  0.00     0.024 A 
ATOM     21  C   UNL A   1      30.599  29.523  22.484  1.00  0.00     0.024 A 
ATOM     22  C   UNL A   1      29.442  27.130  23.383  1.00  0.00     0.030 A 
ATOM     23  C   UNL A   1      31.416  28.475  22.899  1.00  0.00     0.030 A 
BRANCH  19  24
ATOM     24  S   UNL A   1      28.202  30.699  21.951  1.00  0.00     0.238 S 
ATOM     25  O   UNL A   1      27.251  31.052  22.995  1.00  0.00    -0.207 OA
ATOM     26  O   UNL A   1      27.814  30.422  20.603  1.00  0.00    -0.207 OA
BRANCH  24  27
ATOM     27  N   UNL A   1      29.250  32.014  21.875  1.00  0.00    -0.225 NA
ATOM     28  H   UNL A   1      29.251  32.501  22.770  1.00  0.00     0.137 HD
ATOM     29  H   UNL A   1      28.942  32.652  21.141  1.00  0.00     0.137 HD
ENDBRANCH  24  27
ENDBRANCH  19  24
ENDBRANCH  14  18
BRANCH  16  30
ATOM     30  C   UNL A   1      32.882  27.056  25.661  1.00  0.00     0.000 A 
ATOM     31  C   UNL A   1      34.105  27.735  25.695  1.00  0.00     0.010 A 
ATOM     32  C   UNL A   1      31.908  27.346  26.624  1.00  0.00     0.010 A 
ATOM     33  C   UNL A   1      34.354  28.682  26.689  1.00  0.00     0.001 A 
ATOM     34  C   UNL A   1      32.161  28.290  27.621  1.00  0.00     0.001 A 
ATOM     35  C   UNL A   1      33.385  28.956  27.653  1.00  0.00     0.000 A 
ENDBRANCH  16  30
ENDBRANCH  10  13
ENDBRANCH   8   9
ENDBRANCH   7   8
ENDBRANCH   6   7
ENDBRANCH   5   6
ENDBRANCH   4   5
ENDBRANCH   3   4
ENDBRANCH   2   3
ENDBRANCH   1   2
BRANCH   1  36
ATOM     36  C   UNL A   1      39.533  25.147  27.793  1.00  0.00     0.010 C 
BRANCH  36  37
ATOM     37  C   UNL A   1      39.696  26.623  27.437  1.00  0.00     0.100 C 
BRANCH  37  38
ATOM     38  C   UNL A   1      40.350  27.449  28.528  1.00  0.00     0.219 C 
ATOM     39  O   UNL A   1      41.296  26.988  29.173  1.00  0.00    -0.275 OA
ATOM     40  N   UNL A   1      39.926  28.707  28.834  1.00  0.00    -0.356 N 
ATOM     41  H   UNL A   1      40.492  29.177  29.489  1.00  0.00     0.163 HD
BRANCH  40  42
ATOM     42  C   UNL A   1      38.786  29.482  28.368  1.00  0.00     0.116 C 
BRANCH  42  43
ATOM     43  C   UNL A   1      37.488  29.089  29.099  1.00  0.00     0.023 C 
BRANCH  43  44
ATOM     44  C   UNL A   1      36.405  30.165  29.241  1.00  0.00     0.023 C 
BRANCH  44  45
ATOM     45  C   UNL A   1      36.522  31.340  28.282  1.00  0.00     0.116 C 
BRANCH  45  46
ATOM     46  N   UNL A   1      35.393  32.283  28.344  1.00  0.00    -0.352 N 
ATOM     47  C   UNL A   1      34.809  32.822  29.485  1.00  0.00     0.251 C 
ATOM     48  H   UNL A   1      35.009  32.564  27.481  1.00  0.00     0.163 HD
ATOM     49  O   UNL A   1      33.666  33.259  29.481  1.00  0.00    -0.269 OA
BRANCH  47  50
ATOM     50  C   UNL A   1      35.642  32.882  30.695  1.00  0.00     0.039 A 
ATOM     51  C   UNL A   1      35.469  32.043  31.801  1.00  0.00     0.014 A 
ATOM     52  C   UNL A   1      36.733  33.733  30.598  1.00  0.00     0.014 A 
ATOM     53  C   UNL A   1      36.476  32.005  32.769  1.00  0.00     0.010 A 
ATOM     54  C   UNL A   1      37.810  33.490  31.395  1.00  0.00     0.010 A 
ATOM     55  C   UNL A   1      37.660  32.720  32.542  1.00  0.00    -0.014 A 
BRANCH  55  56
ATOM     56  C   UNL A   1      38.817  32.661  33.427  1.00  0.00     0.031 A 
ATOM     57  C   UNL A   1      38.646  33.312  34.755  1.00  0.00     0.074 A 
ATOM     58  C   UNL A   1      39.839  31.811  33.164  1.00  0.00     0.049 A 
ATOM     59  N   UNL A   1      39.261  34.347  35.225  1.00  0.00    -0.248 NA
ATOM     60  C   UNL A   1      37.556  32.833  35.625  1.00  0.00     0.031 C 
ATOM     61  C   UNL A   1      39.975  30.851  32.054  1.00  0.00     0.029 A 
ATOM     62  N   UNL A   1      40.931  31.528  33.917  1.00  0.00    -0.354 N 
ATOM     63  C   UNL A   1      38.812  34.500  36.537  1.00  0.00     0.074 A 
ATOM     64  C   UNL A   1      37.626  33.693  36.644  1.00  0.00     0.031 C 
ATOM     65  C   UNL A   1      40.926  29.939  32.346  1.00  0.00     0.029 A 
ATOM     66  C   UNL A   1      41.609  30.371  33.546  1.00  0.00     0.049 A 
ATOM     67  H   UNL A   1      41.222  32.096  34.666  1.00  0.00     0.167 HD
ATOM     68  C   UNL A   1      39.594  35.077  37.494  1.00  0.00     0.037 A 
ATOM     69  C   UNL A   1      42.660  29.803  34.187  1.00  0.00     0.037 A 
ATOM     70  C   UNL A   1      40.704  35.778  36.896  1.00  0.00     0.049 A 
ATOM     71  C   UNL A   1      43.252  30.864  35.042  1.00  0.00     0.074 A 
ATOM     72  C   UNL A   1      40.822  36.827  36.004  1.00  0.00     0.029 A 
ATOM     73  N   UNL A   1      41.927  35.151  36.893  1.00  0.00    -0.354 N 
ATOM     74  N   UNL A   1      43.802  31.952  34.567  1.00  0.00    -0.248 NA
ATOM     75  C   UNL A   1      42.793  30.951  36.419  1.00  0.00     0.031 C 
ATOM     76  C   UNL A   1      41.916  36.471  35.160  1.00  0.00     0.029 A 
ATOM     77  C   UNL A   1      42.451  35.268  35.630  1.00  0.00     0.049 A 
ATOM     78  H   UNL A   1      42.351  34.699  37.658  1.00  0.00     0.167 HD
ATOM     79  C   UNL A   1      43.393  32.967  35.422  1.00  0.00     0.074 A 
ATOM     80  C   UNL A   1      42.842  32.275  36.587  1.00  0.00     0.031 C 
ATOM     81  C   UNL A   1      43.273  34.259  34.989  1.00  0.00     0.037 A 
BRANCH  68  82
ATOM     82  C   UNL A   1      39.581  34.709  38.967  1.00  0.00     0.058 A 
ATOM     83  C   UNL A   1      39.296  35.709  39.922  1.00  0.00     0.135 A 
ATOM     84  C   UNL A   1      40.103  33.507  39.494  1.00  0.00     0.135 A 
ATOM     85  F   UNL A   1      38.788  36.893  39.544  1.00  0.00    -0.206 F 
ATOM     86  C   UNL A   1      39.596  35.561  41.279  1.00  0.00     0.059 A 
ATOM     87  C   UNL A   1      40.357  33.317  40.849  1.00  0.00     0.059 A 
ATOM     88  F   UNL A   1      40.487  32.487  38.719  1.00  0.00    -0.206 F 
ATOM     89  C   UNL A   1      40.149  34.366  41.726  1.00  0.00     0.060 A 
BRANCH  89  90
ATOM     90  S   UNL A   1      40.663  34.215  43.446  1.00  0.00     0.124 S 
ATOM     91  O   UNL A   1      39.829  33.108  43.901  1.00  0.00    -0.237 OA
ATOM     92  O   UNL A   1      42.088  33.933  43.312  1.00  0.00    -0.237 OA
ATOM     93  O   UNL A   1      40.338  35.523  44.008  1.00  0.00    -0.744 OA
ENDBRANCH  89  90
ENDBRANCH  68  82
BRANCH  69  94
ATOM     94  C   UNL A   1      42.934  28.352  34.362  1.00  0.00     0.058 A 
ATOM     95  C   UNL A   1      44.021  27.729  33.728  1.00  0.00     0.135 A 
ATOM     96  C   UNL A   1      42.290  27.602  35.370  1.00  0.00     0.135 A 
ATOM     97  F   UNL A   1      44.704  28.379  32.774  1.00  0.00    -0.206 F 
ATOM     98  C   UNL A   1      44.470  26.454  34.095  1.00  0.00     0.059 A 
ATOM     99  C   UNL A   1      42.715  26.329  35.750  1.00  0.00     0.059 A 
ATOM    100  F   UNL A   1      41.276  28.125  36.077  1.00  0.00    -0.206 F 
ATOM    101  C   UNL A   1      43.821  25.768  35.123  1.00  0.00     0.060 A 
BRANCH 101 102
ATOM    102  S   UNL A   1      44.491  24.192  35.705  1.00  0.00     0.124 S 
ATOM    103  O   UNL A   1      44.753  24.477  37.111  1.00  0.00    -0.237 OA
ATOM    104  O   UNL A   1      43.391  23.272  35.435  1.00  0.00    -0.237 OA
ATOM    105  O   UNL A   1      45.678  24.001  34.876  1.00  0.00    -0.744 OA
ENDBRANCH 101 102
ENDBRANCH  69  94
BRANCH  81 106
ATOM    106  C   UNL A   1      43.840  34.623  33.636  1.00  0.00     0.058 A 
ATOM    107  C   UNL A   1      43.093  34.655  32.444  1.00  0.00     0.135 A 
ATOM    108  C   UNL A   1      45.140  35.143  33.579  1.00  0.00     0.135 A 
ATOM    109  F   UNL A   1      41.812  34.269  32.421  1.00  0.00    -0.206 F 
ATOM    110  C   UNL A   1      43.618  35.159  31.250  1.00  0.00     0.059 A 
ATOM    111  C   UNL A   1      45.677  35.677  32.408  1.00  0.00     0.059 A 
ATOM    112  F   UNL A   1      45.888  35.200  34.693  1.00  0.00    -0.206 F 
ATOM    113  C   UNL A   1      44.911  35.676  31.244  1.00  0.00     0.060 A 
BRANCH 113 114
ATOM    114  S   UNL A   1      45.553  36.420  29.728  1.00  0.00     0.124 S 
ATOM    115  O   UNL A   1      46.912  36.786  30.117  1.00  0.00    -0.237 OA
ATOM    116  O   UNL A   1      45.443  35.328  28.766  1.00  0.00    -0.237 OA
ATOM    117  O   UNL A   1      44.649  37.543  29.491  1.00  0.00    -0.744 OA
ENDBRANCH 113 114
ENDBRANCH  81 106
ENDBRANCH  55  56
ENDBRANCH  47  50
ENDBRANCH  45  46
ENDBRANCH  44  45
ENDBRANCH  43  44
ENDBRANCH  42  43
ENDBRANCH  40  42
ENDBRANCH  37  38
ENDBRANCH  36  37
ENDBRANCH   1  36
TORSDOF 29
ENDMDL
MODEL 3
REMARK VINA RESULT:      -9.1      3.414      7.896
REMARK SMILES NS(=O)(=O)c1ccc(-n2nc(C(=O)NCCCCCCCCCCC(=O)NCCCCNC(=O)c3ccc(-c4c5nc(c(-c6c(F)cc(S(=O)(=O)[O-])cc6F)c6ccc([nH]6)c(-c6c(F)cc(S(=O)(=O)[O-])cc6F)c6nc(c(-c7c(F)cc(S(=O)(=O)[O-])cc7F)c7ccc4[nH]7)C=C6)C=C5)cc3)cc2-c2ccccc2)cc1
REMARK SMILES IDX 22 1 21 2 20 3 19 4 18 5 17 6 16 7 15 8 14 9 12 10 13 11
REMARK SMILES IDX 11 13 9 14 10 15 102 16 101 17 8 18 5 19 6 20 110 21 7 22
REMARK SMILES IDX 109 23 2 24 3 25 4 26 1 27 103 30 104 31 108 32 105 33
REMARK SMILES IDX 107 34 106 35 23 36 24 37 25 38 26 39 27 40 28 42 29 43
REMARK SMILES IDX 30 44 31 45 32 46 33 47 34 49 35 50 36 51 100 52 37 53 99 54
REMARK SMILES IDX 38 55 39 56 40 57 93 58 41 59 98 60 92 61 94 62 42 63 97 64
REMARK SMILES IDX 91 65 90 66 43 68 77 69 56 70 76 71 57 72 60 73 75 74 95 75
REMARK SMILES IDX 58 76 59 77 74 79 96 80 61 81 44 82 45 83 54 84 46 85 47 86
REMARK SMILES IDX 53 87 55 88 48 89 49 90 50 91 51 92 52 93 78 94 79 95 88 96
REMARK SMILES IDX 80 97 81 98 87 99 89 100 82 101 83 102 84 103 85 104 86 105
REMARK SMILES IDX 62 106 63 107 72 108 64 109 65 110 71 111 73 112 66 113
REMARK SMILES IDX 67 114 68 115 69 116 70 117
REMARK H PARENT 14 12 1 28 1 29 27 41 32 48 94 67 60 78
REMARK Flexibility Score: inf
ROOT
ATOM      1  C   UNL A   1      41.670  19.537  26.384  1.00  0.00     0.001 C 
ENDROOT
BRANCH   1   2
ATOM      2  C   UNL A   1      40.524  20.441  26.850  1.00  0.00     0.000 C 
BRANCH   2   3
ATOM      3  C   UNL A   1      40.590  21.823  26.215  1.00  0.00     0.000 C 
BRANCH   3   4
ATOM      4  C   UNL A   1      39.880  22.897  27.043  1.00  0.00     0.000 C 
BRANCH   4   5
ATOM      5  C   UNL A   1      38.583  23.410  26.406  1.00  0.00     0.000 C 
BRANCH   5   6
ATOM      6  C   UNL A   1      37.803  22.337  25.634  1.00  0.00     0.002 C 
BRANCH   6   7
ATOM      7  C   UNL A   1      37.072  22.878  24.401  1.00  0.00     0.021 C 
BRANCH   7   8
ATOM      8  C   UNL A   1      35.556  22.849  24.584  1.00  0.00     0.116 C 
BRANCH   8   9
ATOM      9  N   UNL A   1      34.907  22.790  23.302  1.00  0.00    -0.351 N 
ATOM     10  C   UNL A   1      33.889  23.528  22.754  1.00  0.00     0.271 C 
ATOM     11  O   UNL A   1      33.527  23.194  21.624  1.00  0.00    -0.267 OA
ATOM     12  H   UNL A   1      35.259  22.088  22.705  1.00  0.00     0.163 HD
BRANCH  10  13
ATOM     13  C   UNL A   1      33.326  24.703  23.451  1.00  0.00     0.151 A 
ATOM     14  N   UNL A   1      32.166  26.503  23.597  1.00  0.00    -0.232 N 
ATOM     15  N   UNL A   1      32.299  25.367  22.890  1.00  0.00    -0.162 NA
ATOM     16  C   UNL A   1      33.005  26.542  24.695  1.00  0.00     0.075 A 
ATOM     17  C   UNL A   1      33.655  25.325  24.681  1.00  0.00     0.065 A 
BRANCH  14  18
ATOM     18  C   UNL A   1      31.230  27.472  23.177  1.00  0.00     0.065 A 
ATOM     19  C   UNL A   1      29.372  29.415  22.520  1.00  0.00     0.082 A 
ATOM     20  C   UNL A   1      30.724  29.631  22.237  1.00  0.00     0.024 A 
ATOM     21  C   UNL A   1      28.938  28.216  23.097  1.00  0.00     0.024 A 
ATOM     22  C   UNL A   1      31.661  28.662  22.584  1.00  0.00     0.030 A 
ATOM     23  C   UNL A   1      29.868  27.224  23.395  1.00  0.00     0.030 A 
BRANCH  19  24
ATOM     24  S   UNL A   1      28.177  30.677  22.214  1.00  0.00     0.238 S 
ATOM     25  O   UNL A   1      28.872  31.955  22.146  1.00  0.00    -0.207 OA
ATOM     26  O   UNL A   1      27.036  30.452  23.046  1.00  0.00    -0.207 OA
BRANCH  24  27
ATOM     27  N   UNL A   1      27.669  30.390  20.635  1.00  0.00    -0.225 NA
ATOM     28  H   UNL A   1      27.782  31.239  20.082  1.00  0.00     0.137 HD
ATOM     29  H   UNL A   1      26.686  30.114  20.639  1.00  0.00     0.137 HD
ENDBRANCH  24  27
ENDBRANCH  19  24
ENDBRANCH  14  18
BRANCH  16  30
ATOM     30  C   UNL A   1      33.065  27.586  25.711  1.00  0.00     0.000 A 
ATOM     31  C   UNL A   1      34.296  28.040  26.196  1.00  0.00     0.010 A 
ATOM     32  C   UNL A   1      31.882  28.159  26.193  1.00  0.00     0.010 A 
ATOM     33  C   UNL A   1      34.342  29.046  27.162  1.00  0.00     0.001 A 
ATOM     34  C   UNL A   1      31.929  29.162  27.163  1.00  0.00     0.001 A 
ATOM     35  C   UNL A   1      33.159  29.603  27.648  1.00  0.00     0.000 A 
ENDBRANCH  16  30
ENDBRANCH  10  13
ENDBRANCH   8   9
ENDBRANCH   7   8
ENDBRANCH   6   7
ENDBRANCH   5   6
ENDBRANCH   4   5
ENDBRANCH   3   4
ENDBRANCH   2   3
ENDBRANCH   1   2
BRANCH   1  36
ATOM     36  C   UNL A   1      42.925  20.289  25.965  1.00  0.00     0.010 C 
BRANCH  36  37
ATOM     37  C   UNL A   1      44.000  19.438  25.292  1.00  0.00     0.100 C 
BRANCH  37  38
ATOM     38  C   UNL A   1      44.623  20.088  24.071  1.00  0.00     0.219 C 
ATOM     39  O   UNL A   1      44.429  19.612  22.949  1.00  0.00    -0.275 OA
ATOM     40  N   UNL A   1      45.408  21.197  24.164  1.00  0.00    -0.356 N 
ATOM     41  H   UNL A   1      45.671  21.581  23.296  1.00  0.00     0.163 HD
BRANCH  40  42
ATOM     42  C   UNL A   1      45.930  21.918  25.315  1.00  0.00     0.116 C 
BRANCH  42  43
ATOM     43  C   UNL A   1      44.858  22.815  25.964  1.00  0.00     0.023 C 
BRANCH  43  44
ATOM     44  C   UNL A   1      44.238  23.915  25.093  1.00  0.00     0.023 C 
BRANCH  44  45
ATOM     45  C   UNL A   1      44.335  25.325  25.655  1.00  0.00     0.116 C 
BRANCH  45  46
ATOM     46  N   UNL A   1      45.428  26.128  25.083  1.00  0.00    -0.352 N 
ATOM     47  C   UNL A   1      45.508  27.515  25.019  1.00  0.00     0.251 C 
ATOM     48  H   UNL A   1      46.186  25.628  24.703  1.00  0.00     0.163 HD
ATOM     49  O   UNL A   1      46.219  28.084  24.201  1.00  0.00    -0.269 OA
BRANCH  47  50
ATOM     50  C   UNL A   1      44.728  28.274  26.008  1.00  0.00     0.039 A 
ATOM     51  C   UNL A   1      43.376  28.037  26.281  1.00  0.00     0.014 A 
ATOM     52  C   UNL A   1      45.478  29.146  26.782  1.00  0.00     0.014 A 
ATOM     53  C   UNL A   1      42.815  28.625  27.417  1.00  0.00     0.010 A 
ATOM     54  C   UNL A   1      45.001  29.488  28.011  1.00  0.00     0.010 A 
ATOM     55  C   UNL A   1      43.649  29.334  28.293  1.00  0.00    -0.014 A 
BRANCH  55  56
ATOM     56  C   UNL A   1      43.194  29.890  29.562  1.00  0.00     0.031 A 
ATOM     57  C   UNL A   1      43.119  28.927  30.696  1.00  0.00     0.074 A 
ATOM     58  C   UNL A   1      43.151  31.231  29.747  1.00  0.00     0.049 A 
ATOM     59  N   UNL A   1      42.071  28.526  31.338  1.00  0.00    -0.248 NA
ATOM     60  C   UNL A   1      44.351  28.217  31.084  1.00  0.00     0.031 C 
ATOM     61  C   UNL A   1      43.532  32.302  28.809  1.00  0.00     0.029 A 
ATOM     62  N   UNL A   1      42.874  31.930  30.876  1.00  0.00    -0.354 N 
ATOM     63  C   UNL A   1      42.539  27.703  32.363  1.00  0.00     0.074 A 
ATOM     64  C   UNL A   1      43.899  27.382  32.021  1.00  0.00     0.031 C 
ATOM     65  C   UNL A   1      43.708  33.460  29.479  1.00  0.00     0.029 A 
ATOM     66  C   UNL A   1      43.248  33.270  30.837  1.00  0.00     0.049 A 
ATOM     67  H   UNL A   1      42.443  31.522  31.662  1.00  0.00     0.167 HD
ATOM     68  C   UNL A   1      41.850  27.562  33.532  1.00  0.00     0.037 A 
ATOM     69  C   UNL A   1      43.185  34.162  31.856  1.00  0.00     0.037 A 
ATOM     70  C   UNL A   1      40.501  28.055  33.395  1.00  0.00     0.049 A 
ATOM     71  C   UNL A   1      42.222  33.606  32.841  1.00  0.00     0.074 A 
ATOM     72  C   UNL A   1      39.426  27.732  32.589  1.00  0.00     0.029 A 
ATOM     73  N   UNL A   1      40.227  29.308  33.891  1.00  0.00    -0.354 N 
ATOM     74  N   UNL A   1      40.952  33.422  32.586  1.00  0.00    -0.248 NA
ATOM     75  C   UNL A   1      42.761  32.799  33.924  1.00  0.00     0.031 C 
ATOM     76  C   UNL A   1      38.828  28.982  32.253  1.00  0.00     0.029 A 
ATOM     77  C   UNL A   1      39.521  29.989  32.931  1.00  0.00     0.049 A 
ATOM     78  H   UNL A   1      40.490  29.653  34.775  1.00  0.00     0.167 HD
ATOM     79  C   UNL A   1      40.636  32.207  33.180  1.00  0.00     0.074 A 
ATOM     80  C   UNL A   1      41.769  31.913  34.057  1.00  0.00     0.031 C 
ATOM     81  C   UNL A   1      39.631  31.416  32.696  1.00  0.00     0.037 A 
BRANCH  68  82
ATOM     82  C   UNL A   1      42.481  27.329  34.892  1.00  0.00     0.058 A 
ATOM     83  C   UNL A   1      43.448  28.243  35.367  1.00  0.00     0.135 A 
ATOM     84  C   UNL A   1      42.389  26.121  35.619  1.00  0.00     0.135 A 
ATOM     85  F   UNL A   1      43.623  29.430  34.764  1.00  0.00    -0.206 F 
ATOM     86  C   UNL A   1      44.319  27.939  36.416  1.00  0.00     0.059 A 
ATOM     87  C   UNL A   1      43.209  25.821  36.703  1.00  0.00     0.059 A 
ATOM     88  F   UNL A   1      41.572  25.125  35.261  1.00  0.00    -0.206 F 
ATOM     89  C   UNL A   1      44.203  26.713  37.063  1.00  0.00     0.060 A 
BRANCH  89  90
ATOM     90  S   UNL A   1      45.405  26.258  38.324  1.00  0.00     0.124 S 
ATOM     91  O   UNL A   1      46.182  27.487  38.439  1.00  0.00    -0.237 OA
ATOM     92  O   UNL A   1      44.547  25.932  39.458  1.00  0.00    -0.237 OA
ATOM     93  O   UNL A   1      46.104  25.123  37.727  1.00  0.00    -0.744 OA
ENDBRANCH  89  90
ENDBRANCH  68  82
BRANCH  69  94
ATOM     94  C   UNL A   1      44.155  35.244  32.169  1.00  0.00     0.058 A 
ATOM     95  C   UNL A   1      43.775  36.383  32.897  1.00  0.00     0.135 A 
ATOM     96  C   UNL A   1      45.543  35.057  31.990  1.00  0.00     0.135 A 
ATOM     97  F   UNL A   1      42.477  36.626  33.132  1.00  0.00    -0.206 F 
ATOM     98  C   UNL A   1      44.713  37.265  33.449  1.00  0.00     0.059 A 
ATOM     99  C   UNL A   1      46.496  35.923  32.526  1.00  0.00     0.059 A 
ATOM    100  F   UNL A   1      46.017  33.971  31.359  1.00  0.00    -0.206 F 
ATOM    101  C   UNL A   1      46.074  37.015  33.274  1.00  0.00     0.060 A 
BRANCH 101 102
ATOM    102  S   UNL A   1      47.287  38.062  34.114  1.00  0.00     0.124 S 
ATOM    103  O   UNL A   1      47.676  37.224  35.244  1.00  0.00    -0.237 OA
ATOM    104  O   UNL A   1      48.300  38.250  33.081  1.00  0.00    -0.237 OA
ATOM    105  O   UNL A   1      46.523  39.258  34.459  1.00  0.00    -0.744 OA
ENDBRANCH 101 102
ENDBRANCH  69  94
BRANCH  81 106
ATOM    106  C   UNL A   1      38.691  31.995  31.662  1.00  0.00     0.058 A 
ATOM    107  C   UNL A   1      38.828  31.813  30.273  1.00  0.00     0.135 A 
ATOM    108  C   UNL A   1      37.503  32.591  32.106  1.00  0.00     0.135 A 
ATOM    109  F   UNL A   1      39.884  31.169  29.763  1.00  0.00    -0.206 F 
ATOM    110  C   UNL A   1      37.845  32.224  29.370  1.00  0.00     0.059 A 
ATOM    111  C   UNL A   1      36.495  32.983  31.226  1.00  0.00     0.059 A 
ATOM    112  F   UNL A   1      37.278  32.739  33.422  1.00  0.00    -0.206 F 
ATOM    113  C   UNL A   1      36.675  32.802  29.857  1.00  0.00     0.060 A 
BRANCH 113 114
ATOM    114  S   UNL A   1      35.360  33.238  28.697  1.00  0.00     0.124 S 
ATOM    115  O   UNL A   1      35.818  32.609  27.463  1.00  0.00    -0.237 OA
ATOM    116  O   UNL A   1      34.180  32.639  29.314  1.00  0.00    -0.237 OA
ATOM    117  O   UNL A   1      35.378  34.700  28.697  1.00  0.00    -0.744 OA
ENDBRANCH 113 114
ENDBRANCH  81 106
ENDBRANCH  55  56
ENDBRANCH  47  50
ENDBRANCH  45  46
ENDBRANCH  44  45
ENDBRANCH  43  44
ENDBRANCH  42  43
ENDBRANCH  40  42
ENDBRANCH  37  38
ENDBRANCH  36  37
ENDBRANCH   1  36
TORSDOF 29
ENDMDL
