MODEL 1
REMARK VINA RESULT:     -12.5      0.000      0.000
REMARK SMILES O=C(NCCCCNC(=O)c1nnn(-c2cccc(OC(F)(F)F)c2)c1-c1ccncc1)c1ccc(-c2c3nc(c(-c4c(F)cc(S(=O)(=O)[O-])cc4F)c4ccc([nH]4)c(-c4c(F)cc(S(=O)(=O)[O-])cc4F)c4nc(c(-c5c(F)cc(S(=O)(=O)[O-])cc5F)c5ccc2[nH]5)C=C4)C=C3)cc1
REMARK SMILES IDX 5 1 4 2 3 3 1 4 2 5 33 7 34 8 98 9 35 10 97 11 36 12 37 13
REMARK SMILES IDX 38 14 91 15 39 16 96 17 90 18 92 19 40 20 95 21 89 22 88 23
REMARK SMILES IDX 41 25 75 26 54 27 74 28 55 29 58 30 73 31 93 32 56 33 57 34
REMARK SMILES IDX 72 36 94 37 59 38 42 39 43 40 52 41 44 42 45 43 51 44 53 45
REMARK SMILES IDX 46 46 47 47 48 48 49 49 50 50 76 51 77 52 86 53 78 54 79 55
REMARK SMILES IDX 85 56 87 57 80 58 81 59 82 60 83 61 84 62 60 63 61 64 70 65
REMARK SMILES IDX 62 66 63 67 69 68 71 69 64 70 65 71 66 72 67 73 68 74 6 75
REMARK SMILES IDX 7 76 8 77 9 78 10 80 11 81 12 82 26 83 13 84 14 85 27 86
REMARK SMILES IDX 28 87 32 88 29 89 31 90 30 91 15 92 16 93 25 94 17 95 19 96
REMARK SMILES IDX 18 97 20 98 21 99 22 100 23 101 24 102
REMARK H PARENT 3 6 92 24 58 35 8 79
REMARK Flexibility Score: inf
ROOT
ATOM      1  C   UNL A   1      31.752  29.040  25.942  1.00  0.00     0.023 C 
ENDROOT
BRANCH   1   2
ATOM      2  C   UNL A   1      33.129  29.620  26.290  1.00  0.00     0.116 C 
BRANCH   2   3
ATOM      3  N   UNL A   1      33.127  30.760  27.185  1.00  0.00    -0.352 N 
ATOM      4  O   UNL A   1      33.735  32.484  28.426  1.00  0.00    -0.269 OA
ATOM      5  C   UNL A   1      34.090  31.427  27.897  1.00  0.00     0.251 C 
ATOM      6  H   UNL A   1      32.228  31.143  27.311  1.00  0.00     0.163 HD
BRANCH   5   7
ATOM      7  C   UNL A   1      35.486  30.949  28.114  1.00  0.00     0.039 A 
ATOM      8  C   UNL A   1      35.909  29.625  28.017  1.00  0.00     0.014 A 
ATOM      9  C   UNL A   1      36.435  31.922  28.484  1.00  0.00     0.014 A 
ATOM     10  C   UNL A   1      37.198  29.257  28.392  1.00  0.00     0.010 A 
ATOM     11  C   UNL A   1      37.742  31.566  28.816  1.00  0.00     0.010 A 
ATOM     12  C   UNL A   1      38.112  30.223  28.812  1.00  0.00    -0.014 A 
BRANCH  12  13
ATOM     13  C   UNL A   1      39.466  29.772  29.139  1.00  0.00     0.031 A 
ATOM     14  C   UNL A   1      39.796  29.673  30.594  1.00  0.00     0.074 A 
ATOM     15  C   UNL A   1      40.343  29.321  28.221  1.00  0.00     0.049 A 
ATOM     16  N   UNL A   1      40.773  30.215  31.249  1.00  0.00    -0.248 NA
ATOM     17  C   UNL A   1      38.870  28.900  31.437  1.00  0.00     0.031 C 
ATOM     18  C   UNL A   1      40.091  29.044  26.805  1.00  0.00     0.029 A 
ATOM     19  N   UNL A   1      41.628  28.895  28.400  1.00  0.00    -0.354 N 
ATOM     20  C   UNL A   1      40.703  29.701  32.545  1.00  0.00     0.074 A 
ATOM     21  C   UNL A   1      39.450  28.996  32.632  1.00  0.00     0.031 C 
ATOM     22  C   UNL A   1      41.102  28.294  26.316  1.00  0.00     0.029 A 
ATOM     23  C   UNL A   1      42.122  28.148  27.342  1.00  0.00     0.049 A 
ATOM     24  H   UNL A   1      42.156  29.101  29.205  1.00  0.00     0.167 HD
ATOM     25  C   UNL A   1      41.758  29.728  33.408  1.00  0.00     0.037 A 
ATOM     26  C   UNL A   1      43.243  27.386  27.336  1.00  0.00     0.037 A 
ATOM     27  C   UNL A   1      42.732  30.719  33.036  1.00  0.00     0.049 A 
ATOM     28  C   UNL A   1      44.123  27.850  28.437  1.00  0.00     0.074 A 
ATOM     29  C   UNL A   1      42.717  32.089  32.861  1.00  0.00     0.029 A 
ATOM     30  N   UNL A   1      43.928  30.297  32.511  1.00  0.00    -0.354 N 
ATOM     31  N   UNL A   1      44.730  29.004  28.467  1.00  0.00    -0.248 NA
ATOM     32  C   UNL A   1      44.064  27.148  29.710  1.00  0.00     0.031 C 
ATOM     33  C   UNL A   1      43.667  32.347  31.829  1.00  0.00     0.029 A 
ATOM     34  C   UNL A   1      44.209  31.119  31.450  1.00  0.00     0.049 A 
ATOM     35  H   UNL A   1      44.479  29.547  32.835  1.00  0.00     0.167 HD
ATOM     36  C   UNL A   1      44.770  29.352  29.808  1.00  0.00     0.074 A 
ATOM     37  C   UNL A   1      44.462  28.123  30.528  1.00  0.00     0.031 C 
ATOM     38  C   UNL A   1      44.779  30.660  30.203  1.00  0.00     0.037 A 
BRANCH  25  39
ATOM     39  C   UNL A   1      42.068  28.633  34.410  1.00  0.00     0.058 A 
ATOM     40  C   UNL A   1      42.118  28.942  35.787  1.00  0.00     0.135 A 
ATOM     41  C   UNL A   1      42.611  27.379  34.051  1.00  0.00     0.135 A 
ATOM     42  F   UNL A   1      41.623  30.103  36.247  1.00  0.00    -0.206 F 
ATOM     43  C   UNL A   1      42.755  28.119  36.717  1.00  0.00     0.059 A 
ATOM     44  C   UNL A   1      43.203  26.519  34.971  1.00  0.00     0.059 A 
ATOM     45  F   UNL A   1      42.689  26.972  32.779  1.00  0.00    -0.206 F 
ATOM     46  C   UNL A   1      43.322  26.923  36.290  1.00  0.00     0.060 A 
BRANCH  46  47
ATOM     47  S   UNL A   1      44.300  25.942  37.444  1.00  0.00     0.124 S 
ATOM     48  O   UNL A   1      45.650  26.395  37.128  1.00  0.00    -0.237 OA
ATOM     49  O   UNL A   1      43.768  26.365  38.735  1.00  0.00    -0.237 OA
ATOM     50  O   UNL A   1      43.986  24.569  37.063  1.00  0.00    -0.744 OA
ENDBRANCH  46  47
ENDBRANCH  25  39
BRANCH  26  51
ATOM     51  C   UNL A   1      43.451  26.095  26.633  1.00  0.00     0.058 A 
ATOM     52  C   UNL A   1      44.271  26.005  25.496  1.00  0.00     0.135 A 
ATOM     53  C   UNL A   1      43.058  24.872  27.216  1.00  0.00     0.135 A 
ATOM     54  F   UNL A   1      44.720  27.118  24.898  1.00  0.00    -0.206 F 
ATOM     55  C   UNL A   1      44.699  24.775  24.984  1.00  0.00     0.059 A 
ATOM     56  C   UNL A   1      43.456  23.637  26.713  1.00  0.00     0.059 A 
ATOM     57  F   UNL A   1      42.344  24.842  28.351  1.00  0.00    -0.206 F 
ATOM     58  C   UNL A   1      44.297  23.596  25.610  1.00  0.00     0.060 A 
BRANCH  58  59
ATOM     59  S   UNL A   1      44.971  22.015  25.051  1.00  0.00     0.124 S 
ATOM     60  O   UNL A   1      44.146  21.061  25.785  1.00  0.00    -0.237 OA
ATOM     61  O   UNL A   1      44.746  22.076  23.610  1.00  0.00    -0.237 OA
ATOM     62  O   UNL A   1      46.370  22.077  25.464  1.00  0.00    -0.744 OA
ENDBRANCH  58  59
ENDBRANCH  26  51
BRANCH  38  63
ATOM     63  C   UNL A   1      45.112  31.715  29.183  1.00  0.00     0.058 A 
ATOM     64  C   UNL A   1      46.415  32.178  28.932  1.00  0.00     0.135 A 
ATOM     65  C   UNL A   1      44.096  32.154  28.320  1.00  0.00     0.135 A 
ATOM     66  F   UNL A   1      47.458  31.720  29.640  1.00  0.00    -0.206 F 
ATOM     67  C   UNL A   1      46.688  33.071  27.896  1.00  0.00     0.059 A 
ATOM     68  C   UNL A   1      44.351  33.022  27.260  1.00  0.00     0.059 A 
ATOM     69  F   UNL A   1      42.841  31.696  28.467  1.00  0.00    -0.206 F 
ATOM     70  C   UNL A   1      45.650  33.486  27.061  1.00  0.00     0.060 A 
BRANCH  70  71
ATOM     71  S   UNL A   1      46.030  34.556  25.657  1.00  0.00     0.124 S 
ATOM     72  O   UNL A   1      45.094  34.079  24.645  1.00  0.00    -0.237 OA
ATOM     73  O   UNL A   1      45.763  35.890  26.190  1.00  0.00    -0.237 OA
ATOM     74  O   UNL A   1      47.439  34.276  25.388  1.00  0.00    -0.744 OA
ENDBRANCH  70  71
ENDBRANCH  38  63
ENDBRANCH  12  13
ENDBRANCH   5   7
ENDBRANCH   2   3
ENDBRANCH   1   2
BRANCH   1  75
ATOM     75  C   UNL A   1      31.720  27.575  25.508  1.00  0.00     0.023 C 
BRANCH  75  76
ATOM     76  C   UNL A   1      31.629  26.568  26.640  1.00  0.00     0.116 C 
BRANCH  76  77
ATOM     77  N   UNL A   1      30.560  25.600  26.487  1.00  0.00    -0.351 N 
ATOM     78  C   UNL A   1      30.652  24.226  26.515  1.00  0.00     0.274 C 
ATOM     79  H   UNL A   1      29.659  25.972  26.347  1.00  0.00     0.163 HD
ATOM     80  O   UNL A   1      29.629  23.557  26.370  1.00  0.00    -0.267 OA
BRANCH  78  81
ATOM     81  C   UNL A   1      31.952  23.606  26.724  1.00  0.00     0.178 A 
ATOM     82  N   UNL A   1      32.280  22.993  27.908  1.00  0.00    -0.124 NA
ATOM     83  C   UNL A   1      33.005  23.468  25.829  1.00  0.00     0.108 A 
ATOM     84  N   UNL A   1      33.461  22.408  27.761  1.00  0.00    -0.061 NA
ATOM     85  N   UNL A   1      33.961  22.779  26.565  1.00  0.00    -0.212 N 
BRANCH  83  86
ATOM     86  C   UNL A   1      33.094  23.756  24.396  1.00  0.00     0.006 A 
ATOM     87  C   UNL A   1      32.813  22.779  23.445  1.00  0.00     0.030 A 
ATOM     88  C   UNL A   1      33.536  25.015  23.965  1.00  0.00     0.030 A 
ATOM     89  C   UNL A   1      32.985  23.103  22.109  1.00  0.00     0.111 A 
ATOM     90  C   UNL A   1      33.685  25.239  22.609  1.00  0.00     0.111 A 
ATOM     91  N   UNL A   1      33.420  24.306  21.673  1.00  0.00    -0.265 NA
ENDBRANCH  83  86
BRANCH  85  92
ATOM     92  C   UNL A   1      35.270  22.427  26.163  1.00  0.00     0.071 A 
ATOM     93  C   UNL A   1      35.525  21.139  25.690  1.00  0.00     0.029 A 
ATOM     94  C   UNL A   1      36.276  23.407  26.159  1.00  0.00     0.075 A 
ATOM     95  C   UNL A   1      36.767  20.866  25.120  1.00  0.00     0.006 A 
ATOM     96  C   UNL A   1      37.525  23.126  25.617  1.00  0.00     0.131 A 
ATOM     97  C   UNL A   1      37.754  21.858  25.075  1.00  0.00     0.047 A 
BRANCH  96  98
ATOM     98  O   UNL A   1      38.578  23.992  25.536  1.00  0.00    -0.406 OA
BRANCH  98  99
ATOM     99  C   UNL A   1      39.297  24.266  26.729  1.00  0.00     0.573 C 
ATOM    100  F   UNL A   1      40.032  25.392  26.613  1.00  0.00    -0.132 F 
ATOM    101  F   UNL A   1      38.461  24.386  27.784  1.00  0.00    -0.132 F 
ATOM    102  F   UNL A   1      40.139  23.239  26.979  1.00  0.00    -0.132 F 
ENDBRANCH  98  99
ENDBRANCH  96  98
ENDBRANCH  85  92
ENDBRANCH  78  81
ENDBRANCH  76  77
ENDBRANCH  75  76
ENDBRANCH   1  75
TORSDOF 18
ENDMDL
MODEL 2
REMARK VINA RESULT:     -12.4      3.658      9.545
REMARK SMILES O=C(NCCCCNC(=O)c1nnn(-c2cccc(OC(F)(F)F)c2)c1-c1ccncc1)c1ccc(-c2c3nc(c(-c4c(F)cc(S(=O)(=O)[O-])cc4F)c4ccc([nH]4)c(-c4c(F)cc(S(=O)(=O)[O-])cc4F)c4nc(c(-c5c(F)cc(S(=O)(=O)[O-])cc5F)c5ccc2[nH]5)C=C4)C=C3)cc1
REMARK SMILES IDX 5 1 4 2 3 3 1 4 2 5 33 7 34 8 98 9 35 10 97 11 36 12 37 13
REMARK SMILES IDX 38 14 91 15 39 16 96 17 90 18 92 19 40 20 95 21 89 22 88 23
REMARK SMILES IDX 41 25 75 26 54 27 74 28 55 29 58 30 73 31 93 32 56 33 57 34
REMARK SMILES IDX 72 36 94 37 59 38 42 39 43 40 52 41 44 42 45 43 51 44 53 45
REMARK SMILES IDX 46 46 47 47 48 48 49 49 50 50 76 51 77 52 86 53 78 54 79 55
REMARK SMILES IDX 85 56 87 57 80 58 81 59 82 60 83 61 84 62 60 63 61 64 70 65
REMARK SMILES IDX 62 66 63 67 69 68 71 69 64 70 65 71 66 72 67 73 68 74 6 75
REMARK SMILES IDX 7 76 8 77 9 78 10 80 11 81 12 82 26 83 13 84 14 85 27 86
REMARK SMILES IDX 28 87 32 88 29 89 31 90 30 91 15 92 16 93 25 94 17 95 19 96
REMARK SMILES IDX 18 97 20 98 21 99 22 100 23 101 24 102
REMARK H PARENT 3 6 92 24 58 35 8 79
REMARK Flexibility Score: inf
ROOT
ATOM      1  C   UNL A   1      36.394  22.388  23.982  1.00  0.00     0.023 C 
ENDROOT
BRANCH   1   2
ATOM      2  C   UNL A   1      37.191  22.687  25.258  1.00  0.00     0.116 C 
BRANCH   2   3
ATOM      3  N   UNL A   1      38.381  21.886  25.462  1.00  0.00    -0.352 N 
ATOM      4  O   UNL A   1      40.266  21.051  26.258  1.00  0.00    -0.269 OA
ATOM      5  C   UNL A   1      39.536  22.044  26.184  1.00  0.00     0.251 C 
ATOM      6  H   UNL A   1      38.355  21.033  24.971  1.00  0.00     0.163 HD
BRANCH   5   7
ATOM      7  C   UNL A   1      39.985  23.314  26.823  1.00  0.00     0.039 A 
ATOM      8  C   UNL A   1      41.088  23.448  27.665  1.00  0.00     0.014 A 
ATOM      9  C   UNL A   1      39.198  24.456  26.577  1.00  0.00     0.014 A 
ATOM     10  C   UNL A   1      41.333  24.641  28.338  1.00  0.00     0.010 A 
ATOM     11  C   UNL A   1      39.466  25.668  27.212  1.00  0.00     0.010 A 
ATOM     12  C   UNL A   1      40.511  25.749  28.129  1.00  0.00    -0.014 A 
BRANCH  12  13
ATOM     13  C   UNL A   1      40.860  26.987  28.828  1.00  0.00     0.031 A 
ATOM     14  C   UNL A   1      42.007  27.764  28.266  1.00  0.00     0.074 A 
ATOM     15  C   UNL A   1      40.126  27.508  29.831  1.00  0.00     0.049 A 
ATOM     16  N   UNL A   1      43.086  28.171  28.856  1.00  0.00    -0.248 NA
ATOM     17  C   UNL A   1      41.957  28.081  26.830  1.00  0.00     0.031 C 
ATOM     18  C   UNL A   1      38.811  27.065  30.298  1.00  0.00     0.029 A 
ATOM     19  N   UNL A   1      40.357  28.635  30.566  1.00  0.00    -0.354 N 
ATOM     20  C   UNL A   1      43.762  28.961  27.924  1.00  0.00     0.074 A 
ATOM     21  C   UNL A   1      43.085  28.771  26.666  1.00  0.00     0.031 C 
ATOM     22  C   UNL A   1      38.267  28.034  31.067  1.00  0.00     0.029 A 
ATOM     23  C   UNL A   1      39.240  29.099  31.245  1.00  0.00     0.049 A 
ATOM     24  H   UNL A   1      41.235  29.077  30.612  1.00  0.00     0.167 HD
ATOM     25  C   UNL A   1      44.722  29.862  28.278  1.00  0.00     0.037 A 
ATOM     26  C   UNL A   1      39.090  30.310  31.834  1.00  0.00     0.037 A 
ATOM     27  C   UNL A   1      45.273  29.580  29.576  1.00  0.00     0.049 A 
ATOM     28  C   UNL A   1      40.440  30.874  32.083  1.00  0.00     0.074 A 
ATOM     29  C   UNL A   1      45.933  28.509  30.147  1.00  0.00     0.029 A 
ATOM     30  N   UNL A   1      44.942  30.404  30.622  1.00  0.00    -0.354 N 
ATOM     31  N   UNL A   1      41.298  30.398  32.942  1.00  0.00    -0.248 NA
ATOM     32  C   UNL A   1      40.992  31.799  31.104  1.00  0.00     0.031 C 
ATOM     33  C   UNL A   1      45.545  28.515  31.519  1.00  0.00     0.029 A 
ATOM     34  C   UNL A   1      44.682  29.596  31.698  1.00  0.00     0.049 A 
ATOM     35  H   UNL A   1      44.900  31.389  30.602  1.00  0.00     0.167 HD
ATOM     36  C   UNL A   1      42.541  30.638  32.378  1.00  0.00     0.074 A 
ATOM     37  C   UNL A   1      42.294  31.608  31.318  1.00  0.00     0.031 C 
ATOM     38  C   UNL A   1      43.609  29.828  32.640  1.00  0.00     0.037 A 
BRANCH  25  39
ATOM     39  C   UNL A   1      44.935  31.195  27.587  1.00  0.00     0.058 A 
ATOM     40  C   UNL A   1      46.143  31.438  26.897  1.00  0.00     0.135 A 
ATOM     41  C   UNL A   1      44.139  32.336  27.832  1.00  0.00     0.135 A 
ATOM     42  F   UNL A   1      46.976  30.427  26.600  1.00  0.00    -0.206 F 
ATOM     43  C   UNL A   1      46.576  32.724  26.575  1.00  0.00     0.059 A 
ATOM     44  C   UNL A   1      44.527  33.623  27.471  1.00  0.00     0.059 A 
ATOM     45  F   UNL A   1      42.996  32.275  28.527  1.00  0.00    -0.206 F 
ATOM     46  C   UNL A   1      45.772  33.813  26.895  1.00  0.00     0.060 A 
BRANCH  46  47
ATOM     47  S   UNL A   1      46.400  35.485  26.648  1.00  0.00     0.124 S 
ATOM     48  O   UNL A   1      47.193  35.672  27.857  1.00  0.00    -0.237 OA
ATOM     49  O   UNL A   1      47.150  35.349  25.404  1.00  0.00    -0.237 OA
ATOM     50  O   UNL A   1      45.184  36.287  26.555  1.00  0.00    -0.744 OA
ENDBRANCH  46  47
ENDBRANCH  25  39
BRANCH  26  51
ATOM     51  C   UNL A   1      37.853  31.128  31.910  1.00  0.00     0.058 A 
ATOM     52  C   UNL A   1      37.262  31.449  33.143  1.00  0.00     0.135 A 
ATOM     53  C   UNL A   1      37.370  31.831  30.786  1.00  0.00     0.135 A 
ATOM     54  F   UNL A   1      37.684  30.853  34.269  1.00  0.00    -0.206 F 
ATOM     55  C   UNL A   1      36.271  32.429  33.261  1.00  0.00     0.059 A 
ATOM     56  C   UNL A   1      36.372  32.797  30.876  1.00  0.00     0.059 A 
ATOM     57  F   UNL A   1      37.919  31.664  29.574  1.00  0.00    -0.206 F 
ATOM     58  C   UNL A   1      35.843  33.109  32.121  1.00  0.00     0.060 A 
BRANCH  58  59
ATOM     59  S   UNL A   1      34.679  34.482  32.285  1.00  0.00     0.124 S 
ATOM     60  O   UNL A   1      33.575  33.855  33.004  1.00  0.00    -0.237 OA
ATOM     61  O   UNL A   1      35.459  35.459  33.038  1.00  0.00    -0.237 OA
ATOM     62  O   UNL A   1      34.393  34.850  30.901  1.00  0.00    -0.744 OA
ENDBRANCH  58  59
ENDBRANCH  26  51
BRANCH  38  63
ATOM     63  C   UNL A   1      43.529  28.895  33.818  1.00  0.00     0.058 A 
ATOM     64  C   UNL A   1      43.939  29.238  35.117  1.00  0.00     0.135 A 
ATOM     65  C   UNL A   1      42.868  27.668  33.655  1.00  0.00     0.135 A 
ATOM     66  F   UNL A   1      44.477  30.438  35.376  1.00  0.00    -0.206 F 
ATOM     67  C   UNL A   1      43.737  28.381  36.199  1.00  0.00     0.059 A 
ATOM     68  C   UNL A   1      42.628  26.810  34.727  1.00  0.00     0.059 A 
ATOM     69  F   UNL A   1      42.393  27.313  32.449  1.00  0.00    -0.206 F 
ATOM     70  C   UNL A   1      43.077  27.169  35.996  1.00  0.00     0.060 A 
BRANCH  70  71
ATOM     71  S   UNL A   1      42.723  26.115  37.419  1.00  0.00     0.124 S 
ATOM     72  O   UNL A   1      43.093  24.795  36.922  1.00  0.00    -0.237 OA
ATOM     73  O   UNL A   1      43.592  26.671  38.453  1.00  0.00    -0.237 OA
ATOM     74  O   UNL A   1      41.294  26.320  37.646  1.00  0.00    -0.744 OA
ENDBRANCH  70  71
ENDBRANCH  38  63
ENDBRANCH  12  13
ENDBRANCH   5   7
ENDBRANCH   2   3
ENDBRANCH   1   2
BRANCH   1  75
ATOM     75  C   UNL A   1      34.871  22.431  24.104  1.00  0.00     0.023 C 
BRANCH  75  76
ATOM     76  C   UNL A   1      34.312  23.670  24.777  1.00  0.00     0.116 C 
BRANCH  76  77
ATOM     77  N   UNL A   1      33.487  23.393  25.938  1.00  0.00    -0.351 N 
ATOM     78  C   UNL A   1      32.212  23.846  26.198  1.00  0.00     0.274 C 
ATOM     79  H   UNL A   1      33.888  22.809  26.622  1.00  0.00     0.163 HD
ATOM     80  O   UNL A   1      31.659  23.503  27.242  1.00  0.00    -0.267 OA
BRANCH  78  81
ATOM     81  C   UNL A   1      31.554  24.709  25.228  1.00  0.00     0.178 A 
ATOM     82  N   UNL A   1      30.655  24.218  24.314  1.00  0.00    -0.124 NA
ATOM     83  C   UNL A   1      31.648  26.088  25.084  1.00  0.00     0.108 A 
ATOM     84  N   UNL A   1      30.123  25.242  23.661  1.00  0.00    -0.061 NA
ATOM     85  N   UNL A   1      30.789  26.357  24.025  1.00  0.00    -0.212 N 
BRANCH  83  86
ATOM     86  C   UNL A   1      32.296  27.101  25.919  1.00  0.00     0.006 A 
ATOM     87  C   UNL A   1      31.579  27.811  26.878  1.00  0.00     0.030 A 
ATOM     88  C   UNL A   1      33.647  27.416  25.709  1.00  0.00     0.030 A 
ATOM     89  C   UNL A   1      32.242  28.803  27.584  1.00  0.00     0.111 A 
ATOM     90  C   UNL A   1      34.217  28.429  26.458  1.00  0.00     0.111 A 
ATOM     91  N   UNL A   1      33.538  29.130  27.389  1.00  0.00    -0.265 NA
ENDBRANCH  83  86
BRANCH  85  92
ATOM     92  C   UNL A   1      30.547  27.604  23.407  1.00  0.00     0.071 A 
ATOM     93  C   UNL A   1      31.534  28.182  22.606  1.00  0.00     0.029 A 
ATOM     94  C   UNL A   1      29.282  28.201  23.532  1.00  0.00     0.075 A 
ATOM     95  C   UNL A   1      31.213  29.310  21.853  1.00  0.00     0.006 A 
ATOM     96  C   UNL A   1      28.972  29.343  22.802  1.00  0.00     0.131 A 
ATOM     97  C   UNL A   1      29.937  29.877  21.944  1.00  0.00     0.047 A 
BRANCH  96  98
ATOM     98  O   UNL A   1      27.778  30.007  22.821  1.00  0.00    -0.406 OA
BRANCH  98  99
ATOM     99  C   UNL A   1      27.763  31.320  23.361  1.00  0.00     0.573 C 
ATOM    100  F   UNL A   1      27.743  32.253  22.387  1.00  0.00    -0.132 F 
ATOM    101  F   UNL A   1      26.696  31.498  24.172  1.00  0.00    -0.132 F 
ATOM    102  F   UNL A   1      28.882  31.502  24.097  1.00  0.00    -0.132 F 
ENDBRANCH  98  99
ENDBRANCH  96  98
ENDBRANCH  85  92
ENDBRANCH  78  81
ENDBRANCH  76  77
ENDBRANCH  75  76
ENDBRANCH   1  75
TORSDOF 18
ENDMDL
MODEL 3
REMARK VINA RESULT:     -12.2      2.153      3.232
REMARK SMILES O=C(NCCCCNC(=O)c1nnn(-c2cccc(OC(F)(F)F)c2)c1-c1ccncc1)c1ccc(-c2c3nc(c(-c4c(F)cc(S(=O)(=O)[O-])cc4F)c4ccc([nH]4)c(-c4c(F)cc(S(=O)(=O)[O-])cc4F)c4nc(c(-c5c(F)cc(S(=O)(=O)[O-])cc5F)c5ccc2[nH]5)C=C4)C=C3)cc1
REMARK SMILES IDX 5 1 4 2 3 3 1 4 2 5 33 7 34 8 98 9 35 10 97 11 36 12 37 13
REMARK SMILES IDX 38 14 91 15 39 16 96 17 90 18 92 19 40 20 95 21 89 22 88 23
REMARK SMILES IDX 41 25 75 26 54 27 74 28 55 29 58 30 73 31 93 32 56 33 57 34
REMARK SMILES IDX 72 36 94 37 59 38 42 39 43 40 52 41 44 42 45 43 51 44 53 45
REMARK SMILES IDX 46 46 47 47 48 48 49 49 50 50 76 51 77 52 86 53 78 54 79 55
REMARK SMILES IDX 85 56 87 57 80 58 81 59 82 60 83 61 84 62 60 63 61 64 70 65
REMARK SMILES IDX 62 66 63 67 69 68 71 69 64 70 65 71 66 72 67 73 68 74 6 75
REMARK SMILES IDX 7 76 8 77 9 78 10 80 11 81 12 82 26 83 13 84 14 85 27 86
REMARK SMILES IDX 28 87 32 88 29 89 31 90 30 91 15 92 16 93 25 94 17 95 19 96
REMARK SMILES IDX 18 97 20 98 21 99 22 100 23 101 24 102
REMARK H PARENT 3 6 92 24 58 35 8 79
REMARK Flexibility Score: inf
ROOT
ATOM      1  C   UNL A   1      33.124  29.372  25.064  1.00  0.00     0.023 C 
ENDROOT
BRANCH   1   2
ATOM      2  C   UNL A   1      33.333  29.406  26.583  1.00  0.00     0.116 C 
BRANCH   2   3
ATOM      3  N   UNL A   1      33.303  30.718  27.197  1.00  0.00    -0.352 N 
ATOM      4  O   UNL A   1      33.874  32.669  28.061  1.00  0.00    -0.269 OA
ATOM      5  C   UNL A   1      34.233  31.515  27.812  1.00  0.00     0.251 C 
ATOM      6  H   UNL A   1      32.410  31.132  27.165  1.00  0.00     0.163 HD
BRANCH   5   7
ATOM      7  C   UNL A   1      35.595  31.079  28.236  1.00  0.00     0.039 A 
ATOM      8  C   UNL A   1      36.585  31.913  28.751  1.00  0.00     0.014 A 
ATOM      9  C   UNL A   1      35.903  29.716  28.060  1.00  0.00     0.014 A 
ATOM     10  C   UNL A   1      37.876  31.441  28.970  1.00  0.00     0.010 A 
ATOM     11  C   UNL A   1      37.182  29.226  28.323  1.00  0.00     0.010 A 
ATOM     12  C   UNL A   1      38.183  30.101  28.737  1.00  0.00    -0.014 A 
BRANCH  12  13
ATOM     13  C   UNL A   1      39.547  29.661  29.041  1.00  0.00     0.031 A 
ATOM     14  C   UNL A   1      39.890  29.523  30.489  1.00  0.00     0.074 A 
ATOM     15  C   UNL A   1      40.423  29.251  28.102  1.00  0.00     0.049 A 
ATOM     16  N   UNL A   1      40.864  30.059  31.153  1.00  0.00    -0.248 NA
ATOM     17  C   UNL A   1      38.983  28.710  31.315  1.00  0.00     0.031 C 
ATOM     18  C   UNL A   1      40.164  29.014  26.681  1.00  0.00     0.029 A 
ATOM     19  N   UNL A   1      41.716  28.840  28.259  1.00  0.00    -0.354 N 
ATOM     20  C   UNL A   1      40.812  29.505  32.434  1.00  0.00     0.074 A 
ATOM     21  C   UNL A   1      39.570  28.778  32.509  1.00  0.00     0.031 C 
ATOM     22  C   UNL A   1      41.183  28.295  26.161  1.00  0.00     0.029 A 
ATOM     23  C   UNL A   1      42.212  28.133  27.174  1.00  0.00     0.049 A 
ATOM     24  H   UNL A   1      42.247  29.030  29.066  1.00  0.00     0.167 HD
ATOM     25  C   UNL A   1      41.873  29.522  33.289  1.00  0.00     0.037 A 
ATOM     26  C   UNL A   1      43.345  27.390  27.137  1.00  0.00     0.037 A 
ATOM     27  C   UNL A   1      42.830  30.538  32.941  1.00  0.00     0.049 A 
ATOM     28  C   UNL A   1      44.227  27.833  28.244  1.00  0.00     0.074 A 
ATOM     29  C   UNL A   1      42.792  31.913  32.807  1.00  0.00     0.029 A 
ATOM     30  N   UNL A   1      44.027  30.151  32.394  1.00  0.00    -0.354 N 
ATOM     31  N   UNL A   1      44.816  28.995  28.306  1.00  0.00    -0.248 NA
ATOM     32  C   UNL A   1      44.188  27.091  29.496  1.00  0.00     0.031 C 
ATOM     33  C   UNL A   1      43.730  32.217  31.777  1.00  0.00     0.029 A 
ATOM     34  C   UNL A   1      44.287  31.009  31.356  1.00  0.00     0.049 A 
ATOM     35  H   UNL A   1      44.592  29.400  32.690  1.00  0.00     0.167 HD
ATOM     36  C   UNL A   1      44.862  29.302  29.656  1.00  0.00     0.074 A 
ATOM     37  C   UNL A   1      44.578  28.047  30.340  1.00  0.00     0.031 C 
ATOM     38  C   UNL A   1      44.854  30.597  30.091  1.00  0.00     0.037 A 
BRANCH  25  39
ATOM     39  C   UNL A   1      42.208  28.402  34.255  1.00  0.00     0.058 A 
ATOM     40  C   UNL A   1      42.227  28.660  35.643  1.00  0.00     0.135 A 
ATOM     41  C   UNL A   1      42.801  27.182  33.858  1.00  0.00     0.135 A 
ATOM     42  F   UNL A   1      41.683  29.784  36.138  1.00  0.00    -0.206 F 
ATOM     43  C   UNL A   1      42.879  27.826  36.551  1.00  0.00     0.059 A 
ATOM     44  C   UNL A   1      43.410  26.309  34.755  1.00  0.00     0.059 A 
ATOM     45  F   UNL A   1      42.912  26.826  32.573  1.00  0.00    -0.206 F 
ATOM     46  C   UNL A   1      43.495  26.667  36.090  1.00  0.00     0.060 A 
BRANCH  46  47
ATOM     47  S   UNL A   1      44.491  25.679  37.222  1.00  0.00     0.124 S 
ATOM     48  O   UNL A   1      44.221  24.331  36.736  1.00  0.00    -0.237 OA
ATOM     49  O   UNL A   1      45.835  26.191  36.975  1.00  0.00    -0.237 OA
ATOM     50  O   UNL A   1      43.932  26.006  38.530  1.00  0.00    -0.744 OA
ENDBRANCH  46  47
ENDBRANCH  25  39
BRANCH  26  51
ATOM     51  C   UNL A   1      43.567  26.124  26.393  1.00  0.00     0.058 A 
ATOM     52  C   UNL A   1      44.623  25.989  25.476  1.00  0.00     0.135 A 
ATOM     53  C   UNL A   1      42.905  24.933  26.759  1.00  0.00     0.135 A 
ATOM     54  F   UNL A   1      45.329  27.065  25.098  1.00  0.00    -0.206 F 
ATOM     55  C   UNL A   1      45.018  24.745  24.974  1.00  0.00     0.059 A 
ATOM     56  C   UNL A   1      43.268  23.687  26.259  1.00  0.00     0.059 A 
ATOM     57  F   UNL A   1      41.938  24.934  27.689  1.00  0.00    -0.206 F 
ATOM     58  C   UNL A   1      44.342  23.596  25.384  1.00  0.00     0.060 A 
BRANCH  58  59
ATOM     59  S   UNL A   1      44.943  21.973  24.863  1.00  0.00     0.124 S 
ATOM     60  O   UNL A   1      46.365  22.065  25.178  1.00  0.00    -0.237 OA
ATOM     61  O   UNL A   1      44.161  21.071  25.702  1.00  0.00    -0.237 OA
ATOM     62  O   UNL A   1      44.620  21.933  23.439  1.00  0.00    -0.744 OA
ENDBRANCH  58  59
ENDBRANCH  26  51
BRANCH  38  63
ATOM     63  C   UNL A   1      45.163  31.688  29.101  1.00  0.00     0.058 A 
ATOM     64  C   UNL A   1      46.445  32.228  28.907  1.00  0.00     0.135 A 
ATOM     65  C   UNL A   1      44.155  32.085  28.209  1.00  0.00     0.135 A 
ATOM     66  F   UNL A   1      47.487  31.817  29.645  1.00  0.00    -0.206 F 
ATOM     67  C   UNL A   1      46.705  33.155  27.896  1.00  0.00     0.059 A 
ATOM     68  C   UNL A   1      44.399  32.985  27.173  1.00  0.00     0.059 A 
ATOM     69  F   UNL A   1      42.925  31.554  28.302  1.00  0.00    -0.206 F 
ATOM     70  C   UNL A   1      45.675  33.525  27.030  1.00  0.00     0.060 A 
BRANCH  70  71
ATOM     71  S   UNL A   1      46.044  34.641  25.659  1.00  0.00     0.124 S 
ATOM     72  O   UNL A   1      45.837  35.951  26.264  1.00  0.00    -0.237 OA
ATOM     73  O   UNL A   1      47.427  34.302  25.334  1.00  0.00    -0.237 OA
ATOM     74  O   UNL A   1      45.066  34.261  24.640  1.00  0.00    -0.744 OA
ENDBRANCH  70  71
ENDBRANCH  38  63
ENDBRANCH  12  13
ENDBRANCH   5   7
ENDBRANCH   2   3
ENDBRANCH   1   2
BRANCH   1  75
ATOM     75  C   UNL A   1      33.959  28.358  24.283  1.00  0.00     0.023 C 
BRANCH  75  76
ATOM     76  C   UNL A   1      33.753  28.373  22.779  1.00  0.00     0.116 C 
BRANCH  76  77
ATOM     77  N   UNL A   1      32.372  28.206  22.369  1.00  0.00    -0.351 N 
ATOM     78  C   UNL A   1      31.718  27.035  22.055  1.00  0.00     0.274 C 
ATOM     79  H   UNL A   1      31.838  29.031  22.307  1.00  0.00     0.163 HD
ATOM     80  O   UNL A   1      30.533  27.084  21.727  1.00  0.00    -0.267 OA
BRANCH  78  81
ATOM     81  C   UNL A   1      32.444  25.775  22.129  1.00  0.00     0.178 A 
ATOM     82  N   UNL A   1      33.243  25.337  21.102  1.00  0.00    -0.124 NA
ATOM     83  C   UNL A   1      32.517  24.874  23.184  1.00  0.00     0.108 A 
ATOM     84  N   UNL A   1      33.874  24.243  21.503  1.00  0.00    -0.061 NA
ATOM     85  N   UNL A   1      33.366  23.886  22.700  1.00  0.00    -0.212 N 
BRANCH  83  86
ATOM     86  C   UNL A   1      32.030  24.962  24.562  1.00  0.00     0.006 A 
ATOM     87  C   UNL A   1      32.837  25.459  25.581  1.00  0.00     0.030 A 
ATOM     88  C   UNL A   1      30.753  24.478  24.881  1.00  0.00     0.030 A 
ATOM     89  C   UNL A   1      32.333  25.449  26.873  1.00  0.00     0.111 A 
ATOM     90  C   UNL A   1      30.344  24.502  26.201  1.00  0.00     0.111 A 
ATOM     91  N   UNL A   1      31.112  24.976  27.203  1.00  0.00    -0.265 NA
ENDBRANCH  83  86
BRANCH  85  92
ATOM     92  C   UNL A   1      33.739  22.681  23.338  1.00  0.00     0.071 A 
ATOM     93  C   UNL A   1      35.019  22.553  23.881  1.00  0.00     0.029 A 
ATOM     94  C   UNL A   1      32.784  21.663  23.498  1.00  0.00     0.075 A 
ATOM     95  C   UNL A   1      35.305  21.441  24.670  1.00  0.00     0.006 A 
ATOM     96  C   UNL A   1      33.081  20.540  24.263  1.00  0.00     0.131 A 
ATOM     97  C   UNL A   1      34.338  20.449  24.867  1.00  0.00     0.047 A 
BRANCH  96  98
ATOM     98  O   UNL A   1      32.239  19.492  24.509  1.00  0.00    -0.406 OA
BRANCH  98  99
ATOM     99  C   UNL A   1      32.468  18.283  23.801  1.00  0.00     0.573 C 
ATOM    100  F   UNL A   1      31.793  18.261  22.633  1.00  0.00    -0.132 F 
ATOM    101  F   UNL A   1      33.786  18.104  23.559  1.00  0.00    -0.132 F 
ATOM    102  F   UNL A   1      32.039  17.247  24.556  1.00  0.00    -0.132 F 
ENDBRANCH  98  99
ENDBRANCH  96  98
ENDBRANCH  85  92
ENDBRANCH  78  81
ENDBRANCH  76  77
ENDBRANCH  75  76
ENDBRANCH   1  75
TORSDOF 18
ENDMDL
