MODEL 1
REMARK VINA RESULT:     -12.6      0.000      0.000
REMARK SMILES C[C@H]1[C@H](C(=O)NCCCCNC(=O)c2ccc(-c3c4nc(c(-c5c(F)cc(S(=O)(=O)[O-])cc5F)c5ccc([nH]5)c(-c5c(F)cc(S(=O)(=O)[O-])cc5F)c5nc(c(-c6c(F)cc(S(=O)(=O)[O-])cc6F)c6ccc3[nH]6)C=C5)C=C4)cc2)CCN1C(=O)Nc1ccc(F)c(Cl)c1
REMARK SMILES IDX 9 1 8 2 7 3 6 4 4 5 5 6 3 8 1 9 2 10 82 11 80 12 81 13 83 14
REMARK SMILES IDX 84 15 85 16 86 18 87 19 93 20 88 21 91 22 89 23 92 24 90 25
REMARK SMILES IDX 10 26 11 27 12 28 13 30 14 31 15 32 79 33 16 34 78 35 17 36
REMARK SMILES IDX 18 37 19 38 72 39 20 40 77 41 71 42 73 43 21 44 76 45 70 46
REMARK SMILES IDX 69 47 22 49 56 50 35 51 55 52 36 53 39 54 54 55 74 56 37 57
REMARK SMILES IDX 38 58 53 60 75 61 40 62 23 63 24 64 33 65 25 66 26 67 32 68
REMARK SMILES IDX 34 69 27 70 28 71 29 72 30 73 31 74 57 75 58 76 67 77 59 78
REMARK SMILES IDX 60 79 66 80 68 81 61 82 62 83 63 84 64 85 65 86 41 87 42 88
REMARK SMILES IDX 51 89 43 90 44 91 50 92 52 93 45 94 46 95 47 96 48 97 49 98
REMARK H PARENT 6 7 85 17 11 29 73 48 39 59
REMARK Flexibility Score: inf
ROOT
ATOM      1  C   UNL A   1      37.404  23.772  25.977  1.00  0.00     0.023 C 
ENDROOT
BRANCH   1   2
ATOM      2  C   UNL A   1      37.426  22.285  25.680  1.00  0.00     0.023 C 
BRANCH   2   3
ATOM      3  C   UNL A   1      37.074  21.875  24.254  1.00  0.00     0.116 C 
BRANCH   3   4
ATOM      4  N   UNL A   1      36.297  22.882  23.555  1.00  0.00    -0.356 N 
ATOM      5  C   UNL A   1      34.969  23.176  23.582  1.00  0.00     0.225 C 
ATOM      6  O   UNL A   1      34.594  24.153  22.926  1.00  0.00    -0.275 OA
ATOM      7  H   UNL A   1      36.825  23.456  22.955  1.00  0.00     0.163 HD
BRANCH   5   8
ATOM      8  C   UNL A   1      33.934  22.343  24.336  1.00  0.00     0.102 C 
ATOM      9  C   UNL A   1      33.949  21.893  26.830  1.00  0.00     0.032 C 
ATOM     10  C   UNL A   1      33.648  22.914  25.735  1.00  0.00     0.096 C 
ATOM     11  N   UNL A   1      32.234  23.303  25.725  1.00  0.00    -0.321 N 
ATOM     12  C   UNL A   1      32.592  22.192  23.632  1.00  0.00     0.037 C 
ATOM     13  C   UNL A   1      31.544  22.593  24.655  1.00  0.00     0.122 C 
BRANCH  11  14
ATOM     14  C   UNL A   1      31.464  23.986  26.629  1.00  0.00     0.322 C 
ATOM     15  O   UNL A   1      30.697  23.377  27.385  1.00  0.00    -0.248 OA
ATOM     16  N   UNL A   1      31.584  25.317  26.864  1.00  0.00    -0.308 N 
ATOM     17  H   UNL A   1      31.311  25.562  27.777  1.00  0.00     0.171 HD
BRANCH  16  18
ATOM     18  C   UNL A   1      32.005  26.424  26.120  1.00  0.00     0.044 A 
ATOM     19  C   UNL A   1      33.375  26.645  25.968  1.00  0.00     0.029 A 
ATOM     20  C   UNL A   1      31.118  27.336  25.567  1.00  0.00     0.049 A 
ATOM     21  C   UNL A   1      33.833  27.675  25.139  1.00  0.00     0.043 A 
ATOM     22  C   UNL A   1      31.560  28.348  24.714  1.00  0.00     0.078 A 
ATOM     23  C   UNL A   1      32.921  28.500  24.489  1.00  0.00     0.141 A 
ATOM     24  Cl  UNL A   1      30.420  29.357  23.913  1.00  0.00    -0.081 Cl
ATOM     25  F   UNL A   1      33.378  29.435  23.645  1.00  0.00    -0.205 F 
ENDBRANCH  16  18
ENDBRANCH  11  14
ENDBRANCH   5   8
ENDBRANCH   3   4
ENDBRANCH   2   3
ENDBRANCH   1   2
BRANCH   1  26
ATOM     26  C   UNL A   1      38.557  24.253  26.835  1.00  0.00     0.116 C 
BRANCH  26  27
ATOM     27  N   UNL A   1      39.818  24.320  26.105  1.00  0.00    -0.352 N 
ATOM     28  C   UNL A   1      40.912  25.130  26.315  1.00  0.00     0.251 C 
ATOM     29  H   UNL A   1      39.899  23.692  25.350  1.00  0.00     0.163 HD
ATOM     30  O   UNL A   1      41.823  25.155  25.500  1.00  0.00    -0.269 OA
BRANCH  28  31
ATOM     31  C   UNL A   1      40.952  25.991  27.516  1.00  0.00     0.039 A 
ATOM     32  C   UNL A   1      41.892  27.021  27.590  1.00  0.00     0.014 A 
ATOM     33  C   UNL A   1      40.020  25.813  28.540  1.00  0.00     0.014 A 
ATOM     34  C   UNL A   1      41.832  27.928  28.651  1.00  0.00     0.010 A 
ATOM     35  C   UNL A   1      39.881  26.787  29.517  1.00  0.00     0.010 A 
ATOM     36  C   UNL A   1      40.794  27.848  29.595  1.00  0.00    -0.014 A 
BRANCH  36  37
ATOM     37  C   UNL A   1      40.649  28.840  30.690  1.00  0.00     0.031 A 
ATOM     38  C   UNL A   1      41.519  28.726  31.915  1.00  0.00     0.074 A 
ATOM     39  C   UNL A   1      39.687  29.781  30.623  1.00  0.00     0.049 A 
ATOM     40  N   UNL A   1      41.480  29.418  33.023  1.00  0.00    -0.248 NA
ATOM     41  C   UNL A   1      42.540  27.664  31.910  1.00  0.00     0.031 C 
ATOM     42  C   UNL A   1      38.737  29.950  29.521  1.00  0.00     0.029 A 
ATOM     43  N   UNL A   1      39.341  30.771  31.509  1.00  0.00    -0.354 N 
ATOM     44  C   UNL A   1      42.446  28.856  33.852  1.00  0.00     0.074 A 
ATOM     45  C   UNL A   1      43.007  27.727  33.148  1.00  0.00     0.031 C 
ATOM     46  C   UNL A   1      37.939  30.998  29.781  1.00  0.00     0.029 A 
ATOM     47  C   UNL A   1      38.291  31.552  31.085  1.00  0.00     0.049 A 
ATOM     48  H   UNL A   1      39.801  30.909  32.369  1.00  0.00     0.167 HD
ATOM     49  C   UNL A   1      42.856  29.266  35.076  1.00  0.00     0.037 A 
ATOM     50  C   UNL A   1      37.681  32.595  31.682  1.00  0.00     0.037 A 
ATOM     51  C   UNL A   1      42.328  30.424  35.747  1.00  0.00     0.049 A 
ATOM     52  C   UNL A   1      38.173  33.052  33.028  1.00  0.00     0.074 A 
ATOM     53  C   UNL A   1      42.722  30.972  36.954  1.00  0.00     0.029 A 
ATOM     54  N   UNL A   1      41.295  31.215  35.265  1.00  0.00    -0.354 N 
ATOM     55  N   UNL A   1      39.134  32.552  33.767  1.00  0.00    -0.248 NA
ATOM     56  C   UNL A   1      37.502  34.218  33.620  1.00  0.00     0.031 C 
ATOM     57  C   UNL A   1      41.902  32.073  37.220  1.00  0.00     0.029 A 
ATOM     58  C   UNL A   1      41.029  32.238  36.157  1.00  0.00     0.049 A 
ATOM     59  H   UNL A   1      40.823  31.070  34.414  1.00  0.00     0.167 HD
ATOM     60  C   UNL A   1      39.203  33.357  34.899  1.00  0.00     0.074 A 
ATOM     61  C   UNL A   1      38.193  34.385  34.739  1.00  0.00     0.031 C 
ATOM     62  C   UNL A   1      40.025  33.257  35.973  1.00  0.00     0.037 A 
BRANCH  49  63
ATOM     63  C   UNL A   1      43.936  28.469  35.752  1.00  0.00     0.058 A 
ATOM     64  C   UNL A   1      43.636  27.418  36.632  1.00  0.00     0.135 A 
ATOM     65  C   UNL A   1      45.290  28.746  35.503  1.00  0.00     0.135 A 
ATOM     66  F   UNL A   1      42.359  27.121  36.922  1.00  0.00    -0.206 F 
ATOM     67  C   UNL A   1      44.637  26.691  37.268  1.00  0.00     0.059 A 
ATOM     68  C   UNL A   1      46.309  28.011  36.104  1.00  0.00     0.059 A 
ATOM     69  F   UNL A   1      45.636  29.742  34.672  1.00  0.00    -0.206 F 
ATOM     70  C   UNL A   1      45.972  26.996  36.998  1.00  0.00     0.060 A 
BRANCH  70  71
ATOM     71  S   UNL A   1      47.258  26.040  37.827  1.00  0.00     0.124 S 
ATOM     72  O   UNL A   1      48.398  26.258  36.942  1.00  0.00    -0.237 OA
ATOM     73  O   UNL A   1      47.338  26.687  39.133  1.00  0.00    -0.237 OA
ATOM     74  O   UNL A   1      46.721  24.682  37.836  1.00  0.00    -0.744 OA
ENDBRANCH  70  71
ENDBRANCH  49  63
BRANCH  50  75
ATOM     75  C   UNL A   1      36.564  33.297  30.995  1.00  0.00     0.058 A 
ATOM     76  C   UNL A   1      36.805  34.120  29.885  1.00  0.00     0.135 A 
ATOM     77  C   UNL A   1      35.234  33.150  31.421  1.00  0.00     0.135 A 
ATOM     78  F   UNL A   1      38.060  34.297  29.444  1.00  0.00    -0.206 F 
ATOM     79  C   UNL A   1      35.774  34.788  29.233  1.00  0.00     0.059 A 
ATOM     80  C   UNL A   1      34.182  33.787  30.769  1.00  0.00     0.059 A 
ATOM     81  F   UNL A   1      34.946  32.358  32.466  1.00  0.00    -0.206 F 
ATOM     82  C   UNL A   1      34.464  34.613  29.682  1.00  0.00     0.060 A 
BRANCH  82  83
ATOM     83  S   UNL A   1      33.128  35.447  28.797  1.00  0.00     0.124 S 
ATOM     84  O   UNL A   1      32.536  34.342  28.051  1.00  0.00    -0.237 OA
ATOM     85  O   UNL A   1      32.324  35.983  29.890  1.00  0.00    -0.237 OA
ATOM     86  O   UNL A   1      33.829  36.446  27.996  1.00  0.00    -0.744 OA
ENDBRANCH  82  83
ENDBRANCH  50  75
BRANCH  62  87
ATOM     87  C   UNL A   1      39.892  34.302  37.044  1.00  0.00     0.058 A 
ATOM     88  C   UNL A   1      40.583  35.522  36.972  1.00  0.00     0.135 A 
ATOM     89  C   UNL A   1      39.016  34.103  38.124  1.00  0.00     0.135 A 
ATOM     90  F   UNL A   1      41.435  35.758  35.963  1.00  0.00    -0.206 F 
ATOM     91  C   UNL A   1      40.426  36.501  37.948  1.00  0.00     0.059 A 
ATOM     92  C   UNL A   1      38.824  35.080  39.095  1.00  0.00     0.059 A 
ATOM     93  F   UNL A   1      38.323  32.958  38.231  1.00  0.00    -0.206 F 
ATOM     94  C   UNL A   1      39.542  36.271  39.005  1.00  0.00     0.060 A 
BRANCH  94  95
ATOM     95  S   UNL A   1      39.321  37.564  40.244  1.00  0.00     0.124 S 
ATOM     96  O   UNL A   1      38.255  38.362  39.648  1.00  0.00    -0.237 OA
ATOM     97  O   UNL A   1      38.955  36.801  41.432  1.00  0.00    -0.237 OA
ATOM     98  O   UNL A   1      40.631  38.208  40.298  1.00  0.00    -0.744 OA
ENDBRANCH  94  95
ENDBRANCH  62  87
ENDBRANCH  36  37
ENDBRANCH  28  31
ENDBRANCH  26  27
ENDBRANCH   1  26
TORSDOF 16
ENDMDL
MODEL 2
REMARK VINA RESULT:     -12.5      5.360     11.899
REMARK SMILES C[C@H]1[C@H](C(=O)NCCCCNC(=O)c2ccc(-c3c4nc(c(-c5c(F)cc(S(=O)(=O)[O-])cc5F)c5ccc([nH]5)c(-c5c(F)cc(S(=O)(=O)[O-])cc5F)c5nc(c(-c6c(F)cc(S(=O)(=O)[O-])cc6F)c6ccc3[nH]6)C=C5)C=C4)cc2)CCN1C(=O)Nc1ccc(F)c(Cl)c1
REMARK SMILES IDX 9 1 8 2 7 3 6 4 4 5 5 6 3 8 1 9 2 10 82 11 80 12 81 13 83 14
REMARK SMILES IDX 84 15 85 16 86 18 87 19 93 20 88 21 91 22 89 23 92 24 90 25
REMARK SMILES IDX 10 26 11 27 12 28 13 30 14 31 15 32 79 33 16 34 78 35 17 36
REMARK SMILES IDX 18 37 19 38 72 39 20 40 77 41 71 42 73 43 21 44 76 45 70 46
REMARK SMILES IDX 69 47 22 49 56 50 35 51 55 52 36 53 39 54 54 55 74 56 37 57
REMARK SMILES IDX 38 58 53 60 75 61 40 62 23 63 24 64 33 65 25 66 26 67 32 68
REMARK SMILES IDX 34 69 27 70 28 71 29 72 30 73 31 74 57 75 58 76 67 77 59 78
REMARK SMILES IDX 60 79 66 80 68 81 61 82 62 83 63 84 64 85 65 86 41 87 42 88
REMARK SMILES IDX 51 89 43 90 44 91 50 92 52 93 45 94 46 95 47 96 48 97 49 98
REMARK H PARENT 6 7 85 17 11 29 73 48 39 59
REMARK Flexibility Score: inf
ROOT
ATOM      1  C   UNL A   1      34.772  34.426  27.684  1.00  0.00     0.023 C 
ENDROOT
BRANCH   1   2
ATOM      2  C   UNL A   1      34.422  35.528  28.666  1.00  0.00     0.023 C 
BRANCH   2   3
ATOM      3  C   UNL A   1      33.470  35.150  29.795  1.00  0.00     0.116 C 
BRANCH   3   4
ATOM      4  N   UNL A   1      33.814  35.782  31.055  1.00  0.00    -0.356 N 
ATOM      5  C   UNL A   1      34.772  35.496  31.977  1.00  0.00     0.225 C 
ATOM      6  O   UNL A   1      34.881  36.266  32.937  1.00  0.00    -0.275 OA
ATOM      7  H   UNL A   1      33.253  36.559  31.284  1.00  0.00     0.163 HD
BRANCH   5   8
ATOM      8  C   UNL A   1      35.674  34.265  31.904  1.00  0.00     0.102 C 
ATOM      9  C   UNL A   1      38.163  34.239  32.385  1.00  0.00     0.032 C 
ATOM     10  C   UNL A   1      36.761  34.285  32.991  1.00  0.00     0.096 C 
ATOM     11  N   UNL A   1      36.496  33.121  33.842  1.00  0.00    -0.321 N 
ATOM     12  C   UNL A   1      34.951  32.929  32.020  1.00  0.00     0.037 C 
ATOM     13  C   UNL A   1      35.680  32.161  33.109  1.00  0.00     0.122 C 
BRANCH  11  14
ATOM     14  C   UNL A   1      37.040  32.709  35.030  1.00  0.00     0.322 C 
ATOM     15  O   UNL A   1      36.761  33.296  36.083  1.00  0.00    -0.248 OA
ATOM     16  N   UNL A   1      37.778  31.579  35.167  1.00  0.00    -0.308 N 
ATOM     17  H   UNL A   1      37.722  31.203  36.075  1.00  0.00     0.171 HD
BRANCH  16  18
ATOM     18  C   UNL A   1      38.598  30.818  34.326  1.00  0.00     0.044 A 
ATOM     19  C   UNL A   1      39.920  31.225  34.138  1.00  0.00     0.029 A 
ATOM     20  C   UNL A   1      38.138  29.707  33.637  1.00  0.00     0.049 A 
ATOM     21  C   UNL A   1      40.801  30.431  33.396  1.00  0.00     0.043 A 
ATOM     22  C   UNL A   1      39.013  28.889  32.920  1.00  0.00     0.078 A 
ATOM     23  C   UNL A   1      40.350  29.248  32.819  1.00  0.00     0.141 A 
ATOM     24  Cl  UNL A   1      38.442  27.426  32.216  1.00  0.00    -0.081 Cl
ATOM     25  F   UNL A   1      41.225  28.466  32.172  1.00  0.00    -0.205 F 
ENDBRANCH  16  18
ENDBRANCH  11  14
ENDBRANCH   5   8
ENDBRANCH   3   4
ENDBRANCH   2   3
ENDBRANCH   1   2
BRANCH   1  26
ATOM     26  C   UNL A   1      35.195  33.124  28.333  1.00  0.00     0.116 C 
BRANCH  26  27
ATOM     27  N   UNL A   1      34.197  32.069  28.192  1.00  0.00    -0.352 N 
ATOM     28  C   UNL A   1      34.368  30.707  28.083  1.00  0.00     0.251 C 
ATOM     29  H   UNL A   1      33.261  32.378  28.172  1.00  0.00     0.163 HD
ATOM     30  O   UNL A   1      33.417  29.988  27.812  1.00  0.00    -0.269 OA
BRANCH  28  31
ATOM     31  C   UNL A   1      35.719  30.134  28.262  1.00  0.00     0.039 A 
ATOM     32  C   UNL A   1      36.590  30.077  27.172  1.00  0.00     0.014 A 
ATOM     33  C   UNL A   1      36.140  29.706  29.522  1.00  0.00     0.014 A 
ATOM     34  C   UNL A   1      37.914  29.678  27.373  1.00  0.00     0.010 A 
ATOM     35  C   UNL A   1      37.482  29.438  29.741  1.00  0.00     0.010 A 
ATOM     36  C   UNL A   1      38.383  29.405  28.668  1.00  0.00    -0.014 A 
BRANCH  36  37
ATOM     37  C   UNL A   1      39.802  29.056  28.933  1.00  0.00     0.031 A 
ATOM     38  C   UNL A   1      40.734  30.105  29.483  1.00  0.00     0.074 A 
ATOM     39  C   UNL A   1      40.270  27.837  28.600  1.00  0.00     0.049 A 
ATOM     40  N   UNL A   1      42.024  30.041  29.683  1.00  0.00    -0.248 NA
ATOM     41  C   UNL A   1      40.144  31.414  29.811  1.00  0.00     0.031 C 
ATOM     42  C   UNL A   1      39.482  26.759  27.995  1.00  0.00     0.029 A 
ATOM     43  N   UNL A   1      41.527  27.299  28.714  1.00  0.00    -0.354 N 
ATOM     44  C   UNL A   1      42.399  31.303  30.130  1.00  0.00     0.074 A 
ATOM     45  C   UNL A   1      41.216  32.132  30.107  1.00  0.00     0.031 C 
ATOM     46  C   UNL A   1      40.265  25.683  27.823  1.00  0.00     0.029 A 
ATOM     47  C   UNL A   1      41.619  26.003  28.264  1.00  0.00     0.049 A 
ATOM     48  H   UNL A   1      42.294  27.796  29.083  1.00  0.00     0.167 HD
ATOM     49  C   UNL A   1      43.613  31.726  30.555  1.00  0.00     0.037 A 
ATOM     50  C   UNL A   1      42.676  25.168  28.211  1.00  0.00     0.037 A 
ATOM     51  C   UNL A   1      44.774  30.880  30.624  1.00  0.00     0.049 A 
ATOM     52  C   UNL A   1      44.008  25.650  28.718  1.00  0.00     0.074 A 
ATOM     53  C   UNL A   1      46.033  31.184  31.108  1.00  0.00     0.029 A 
ATOM     54  N   UNL A   1      44.815  29.559  30.199  1.00  0.00    -0.354 N 
ATOM     55  N   UNL A   1      44.329  26.826  29.202  1.00  0.00    -0.248 NA
ATOM     56  C   UNL A   1      45.121  24.691  28.678  1.00  0.00     0.031 C 
ATOM     57  C   UNL A   1      46.846  30.059  30.943  1.00  0.00     0.029 A 
ATOM     58  C   UNL A   1      46.082  29.039  30.398  1.00  0.00     0.049 A 
ATOM     59  H   UNL A   1      44.055  29.066  29.815  1.00  0.00     0.167 HD
ATOM     60  C   UNL A   1      45.673  26.741  29.549  1.00  0.00     0.074 A 
ATOM     61  C   UNL A   1      46.100  25.393  29.230  1.00  0.00     0.031 C 
ATOM     62  C   UNL A   1      46.482  27.690  30.082  1.00  0.00     0.037 A 
BRANCH  49  63
ATOM     63  C   UNL A   1      43.737  33.158  30.996  1.00  0.00     0.058 A 
ATOM     64  C   UNL A   1      43.597  33.530  32.343  1.00  0.00     0.135 A 
ATOM     65  C   UNL A   1      44.017  34.171  30.065  1.00  0.00     0.135 A 
ATOM     66  F   UNL A   1      43.310  32.606  33.274  1.00  0.00    -0.206 F 
ATOM     67  C   UNL A   1      43.697  34.857  32.747  1.00  0.00     0.059 A 
ATOM     68  C   UNL A   1      44.152  35.503  30.451  1.00  0.00     0.059 A 
ATOM     69  F   UNL A   1      44.157  33.874  28.763  1.00  0.00    -0.206 F 
ATOM     70  C   UNL A   1      43.974  35.837  31.793  1.00  0.00     0.060 A 
BRANCH  70  71
ATOM     71  S   UNL A   1      44.106  37.553  32.335  1.00  0.00     0.124 S 
ATOM     72  O   UNL A   1      43.089  37.606  33.380  1.00  0.00    -0.237 OA
ATOM     73  O   UNL A   1      45.489  37.632  32.793  1.00  0.00    -0.237 OA
ATOM     74  O   UNL A   1      43.804  38.315  31.126  1.00  0.00    -0.744 OA
ENDBRANCH  70  71
ENDBRANCH  49  63
BRANCH  50  75
ATOM     75  C   UNL A   1      42.508  23.785  27.692  1.00  0.00     0.058 A 
ATOM     76  C   UNL A   1      42.480  23.533  26.312  1.00  0.00     0.135 A 
ATOM     77  C   UNL A   1      42.386  22.687  28.558  1.00  0.00     0.135 A 
ATOM     78  F   UNL A   1      42.587  24.550  25.444  1.00  0.00    -0.206 F 
ATOM     79  C   UNL A   1      42.319  22.246  25.808  1.00  0.00     0.059 A 
ATOM     80  C   UNL A   1      42.250  21.387  28.078  1.00  0.00     0.059 A 
ATOM     81  F   UNL A   1      42.425  22.871  29.887  1.00  0.00    -0.206 F 
ATOM     82  C   UNL A   1      42.207  21.179  26.700  1.00  0.00     0.060 A 
BRANCH  82  83
ATOM     83  S   UNL A   1      42.047  19.507  26.033  1.00  0.00     0.124 S 
ATOM     84  O   UNL A   1      42.924  19.571  24.869  1.00  0.00    -0.237 OA
ATOM     85  O   UNL A   1      42.519  18.688  27.144  1.00  0.00    -0.237 OA
ATOM     86  O   UNL A   1      40.620  19.397  25.744  1.00  0.00    -0.744 OA
ENDBRANCH  82  83
ENDBRANCH  50  75
BRANCH  62  87
ATOM     87  C   UNL A   1      47.900  27.298  30.387  1.00  0.00     0.058 A 
ATOM     88  C   UNL A   1      48.945  27.554  29.486  1.00  0.00     0.135 A 
ATOM     89  C   UNL A   1      48.223  26.712  31.622  1.00  0.00     0.135 A 
ATOM     90  F   UNL A   1      48.687  28.107  28.290  1.00  0.00    -0.206 F 
ATOM     91  C   UNL A   1      50.261  27.222  29.791  1.00  0.00     0.059 A 
ATOM     92  C   UNL A   1      49.536  26.398  31.957  1.00  0.00     0.059 A 
ATOM     93  F   UNL A   1      47.261  26.458  32.523  1.00  0.00    -0.206 F 
ATOM     94  C   UNL A   1      50.546  26.646  31.031  1.00  0.00     0.060 A 
BRANCH  94  95
ATOM     95  S   UNL A   1      52.263  26.255  31.427  1.00  0.00     0.124 S 
ATOM     96  O   UNL A   1      52.862  26.186  30.099  1.00  0.00    -0.237 OA
ATOM     97  O   UNL A   1      52.664  27.394  32.245  1.00  0.00    -0.237 OA
ATOM     98  O   UNL A   1      52.164  24.983  32.139  1.00  0.00    -0.744 OA
ENDBRANCH  94  95
ENDBRANCH  62  87
ENDBRANCH  36  37
ENDBRANCH  28  31
ENDBRANCH  26  27
ENDBRANCH   1  26
TORSDOF 16
ENDMDL
MODEL 3
REMARK VINA RESULT:     -12.4      3.213      9.232
REMARK SMILES C[C@H]1[C@H](C(=O)NCCCCNC(=O)c2ccc(-c3c4nc(c(-c5c(F)cc(S(=O)(=O)[O-])cc5F)c5ccc([nH]5)c(-c5c(F)cc(S(=O)(=O)[O-])cc5F)c5nc(c(-c6c(F)cc(S(=O)(=O)[O-])cc6F)c6ccc3[nH]6)C=C5)C=C4)cc2)CCN1C(=O)Nc1ccc(F)c(Cl)c1
REMARK SMILES IDX 9 1 8 2 7 3 6 4 4 5 5 6 3 8 1 9 2 10 82 11 80 12 81 13 83 14
REMARK SMILES IDX 84 15 85 16 86 18 87 19 93 20 88 21 91 22 89 23 92 24 90 25
REMARK SMILES IDX 10 26 11 27 12 28 13 30 14 31 15 32 79 33 16 34 78 35 17 36
REMARK SMILES IDX 18 37 19 38 72 39 20 40 77 41 71 42 73 43 21 44 76 45 70 46
REMARK SMILES IDX 69 47 22 49 56 50 35 51 55 52 36 53 39 54 54 55 74 56 37 57
REMARK SMILES IDX 38 58 53 60 75 61 40 62 23 63 24 64 33 65 25 66 26 67 32 68
REMARK SMILES IDX 34 69 27 70 28 71 29 72 30 73 31 74 57 75 58 76 67 77 59 78
REMARK SMILES IDX 60 79 66 80 68 81 61 82 62 83 63 84 64 85 65 86 41 87 42 88
REMARK SMILES IDX 51 89 43 90 44 91 50 92 52 93 45 94 46 95 47 96 48 97 49 98
REMARK H PARENT 6 7 85 17 11 29 73 48 39 59
REMARK Flexibility Score: inf
ROOT
ATOM      1  C   UNL A   1      32.897  28.013  27.266  1.00  0.00     0.023 C 
ENDROOT
BRANCH   1   2
ATOM      2  C   UNL A   1      31.428  27.834  26.933  1.00  0.00     0.023 C 
BRANCH   2   3
ATOM      3  C   UNL A   1      31.090  26.735  25.932  1.00  0.00     0.116 C 
BRANCH   3   4
ATOM      4  N   UNL A   1      30.717  25.487  26.571  1.00  0.00    -0.356 N 
ATOM      5  C   UNL A   1      31.269  24.244  26.515  1.00  0.00     0.225 C 
ATOM      6  O   UNL A   1      30.772  23.373  27.237  1.00  0.00    -0.275 OA
ATOM      7  H   UNL A   1      29.923  25.550  27.150  1.00  0.00     0.163 HD
BRANCH   5   8
ATOM      8  C   UNL A   1      32.424  23.874  25.588  1.00  0.00     0.102 C 
ATOM      9  C   UNL A   1      32.237  22.417  23.522  1.00  0.00     0.032 C 
ATOM     10  C   UNL A   1      31.978  23.799  24.118  1.00  0.00     0.096 C 
ATOM     11  N   UNL A   1      32.731  24.845  23.419  1.00  0.00    -0.321 N 
ATOM     12  C   UNL A   1      33.622  24.813  25.643  1.00  0.00     0.037 C 
ATOM     13  C   UNL A   1      33.906  25.201  24.203  1.00  0.00     0.122 C 
BRANCH  11  14
ATOM     14  C   UNL A   1      32.651  25.336  22.142  1.00  0.00     0.322 C 
ATOM     15  O   UNL A   1      33.275  24.794  21.222  1.00  0.00    -0.248 OA
ATOM     16  N   UNL A   1      31.797  26.323  21.770  1.00  0.00    -0.308 N 
ATOM     17  H   UNL A   1      31.547  26.263  20.819  1.00  0.00     0.171 HD
BRANCH  16  18
ATOM     18  C   UNL A   1      31.186  27.405  22.413  1.00  0.00     0.044 A 
ATOM     19  C   UNL A   1      31.996  28.406  22.951  1.00  0.00     0.029 A 
ATOM     20  C   UNL A   1      29.812  27.499  22.578  1.00  0.00     0.049 A 
ATOM     21  C   UNL A   1      31.420  29.557  23.501  1.00  0.00     0.043 A 
ATOM     22  C   UNL A   1      29.224  28.653  23.096  1.00  0.00     0.078 A 
ATOM     23  C   UNL A   1      30.036  29.689  23.539  1.00  0.00     0.141 A 
ATOM     24  Cl  UNL A   1      27.511  28.805  23.133  1.00  0.00    -0.081 Cl
ATOM     25  F   UNL A   1      29.505  30.827  24.006  1.00  0.00    -0.205 F 
ENDBRANCH  16  18
ENDBRANCH  11  14
ENDBRANCH   5   8
ENDBRANCH   3   4
ENDBRANCH   2   3
ENDBRANCH   1   2
BRANCH   1  26
ATOM     26  C   UNL A   1      33.668  28.838  26.257  1.00  0.00     0.116 C 
BRANCH  26  27
ATOM     27  N   UNL A   1      33.634  30.267  26.548  1.00  0.00    -0.352 N 
ATOM     28  C   UNL A   1      34.463  31.020  27.349  1.00  0.00     0.251 C 
ATOM     29  H   UNL A   1      32.911  30.768  26.104  1.00  0.00     0.163 HD
ATOM     30  O   UNL A   1      34.185  32.184  27.600  1.00  0.00    -0.269 OA
BRANCH  28  31
ATOM     31  C   UNL A   1      35.671  30.393  27.929  1.00  0.00     0.039 A 
ATOM     32  C   UNL A   1      36.900  30.549  27.287  1.00  0.00     0.014 A 
ATOM     33  C   UNL A   1      35.590  29.701  29.138  1.00  0.00     0.014 A 
ATOM     34  C   UNL A   1      38.062  30.089  27.911  1.00  0.00     0.010 A 
ATOM     35  C   UNL A   1      36.754  29.364  29.813  1.00  0.00     0.010 A 
ATOM     36  C   UNL A   1      38.003  29.539  29.203  1.00  0.00    -0.014 A 
BRANCH  36  37
ATOM     37  C   UNL A   1      39.225  29.113  29.932  1.00  0.00     0.031 A 
ATOM     38  C   UNL A   1      39.619  29.826  31.200  1.00  0.00     0.074 A 
ATOM     39  C   UNL A   1      40.018  28.155  29.414  1.00  0.00     0.049 A 
ATOM     40  N   UNL A   1      40.696  29.684  31.926  1.00  0.00    -0.248 NA
ATOM     41  C   UNL A   1      38.700  30.866  31.692  1.00  0.00     0.031 C 
ATOM     42  C   UNL A   1      39.781  27.440  28.158  1.00  0.00     0.029 A 
ATOM     43  N   UNL A   1      41.196  27.621  29.876  1.00  0.00    -0.354 N 
ATOM     44  C   UNL A   1      40.596  30.633  32.938  1.00  0.00     0.074 A 
ATOM     45  C   UNL A   1      39.390  31.389  32.694  1.00  0.00     0.031 C 
ATOM     46  C   UNL A   1      40.761  26.542  27.967  1.00  0.00     0.029 A 
ATOM     47  C   UNL A   1      41.719  26.644  29.063  1.00  0.00     0.049 A 
ATOM     48  H   UNL A   1      41.627  27.913  30.713  1.00  0.00     0.167 HD
ATOM     49  C   UNL A   1      41.416  30.834  33.996  1.00  0.00     0.037 A 
ATOM     50  C   UNL A   1      42.845  25.914  29.187  1.00  0.00     0.037 A 
ATOM     51  C   UNL A   1      42.587  30.041  34.260  1.00  0.00     0.049 A 
ATOM     52  C   UNL A   1      43.725  26.134  30.386  1.00  0.00     0.074 A 
ATOM     53  C   UNL A   1      43.446  30.110  35.342  1.00  0.00     0.029 A 
ATOM     54  N   UNL A   1      43.059  29.031  33.435  1.00  0.00    -0.354 N 
ATOM     55  N   UNL A   1      43.579  26.989  31.371  1.00  0.00    -0.248 NA
ATOM     56  C   UNL A   1      44.921  25.286  30.498  1.00  0.00     0.031 C 
ATOM     57  C   UNL A   1      44.460  29.166  35.152  1.00  0.00     0.029 A 
ATOM     58  C   UNL A   1      44.206  28.478  33.976  1.00  0.00     0.049 A 
ATOM     59  H   UNL A   1      42.640  28.749  32.591  1.00  0.00     0.167 HD
ATOM     60  C   UNL A   1      44.647  26.765  32.232  1.00  0.00     0.074 A 
ATOM     61  C   UNL A   1      45.425  25.685  31.658  1.00  0.00     0.031 C 
ATOM     62  C   UNL A   1      44.959  27.395  33.392  1.00  0.00     0.037 A 
BRANCH  49  63
ATOM     63  C   UNL A   1      41.061  31.938  34.952  1.00  0.00     0.058 A 
ATOM     64  C   UNL A   1      40.156  31.739  36.007  1.00  0.00     0.135 A 
ATOM     65  C   UNL A   1      41.647  33.209  34.827  1.00  0.00     0.135 A 
ATOM     66  F   UNL A   1      39.551  30.550  36.164  1.00  0.00    -0.206 F 
ATOM     67  C   UNL A   1      39.817  32.766  36.881  1.00  0.00     0.059 A 
ATOM     68  C   UNL A   1      41.346  34.243  35.709  1.00  0.00     0.059 A 
ATOM     69  F   UNL A   1      42.517  33.457  33.835  1.00  0.00    -0.206 F 
ATOM     70  C   UNL A   1      40.417  34.016  36.724  1.00  0.00     0.060 A 
BRANCH  70  71
ATOM     71  S   UNL A   1      39.971  35.336  37.870  1.00  0.00     0.124 S 
ATOM     72  O   UNL A   1      39.709  36.440  36.953  1.00  0.00    -0.237 OA
ATOM     73  O   UNL A   1      38.802  34.782  38.546  1.00  0.00    -0.237 OA
ATOM     74  O   UNL A   1      41.162  35.480  38.702  1.00  0.00    -0.744 OA
ENDBRANCH  70  71
ENDBRANCH  49  63
BRANCH  50  75
ATOM     75  C   UNL A   1      43.183  24.887  28.166  1.00  0.00     0.058 A 
ATOM     76  C   UNL A   1      42.863  23.537  28.370  1.00  0.00     0.135 A 
ATOM     77  C   UNL A   1      43.818  25.232  26.962  1.00  0.00     0.135 A 
ATOM     78  F   UNL A   1      42.261  23.156  29.507  1.00  0.00    -0.206 F 
ATOM     79  C   UNL A   1      43.175  22.561  27.428  1.00  0.00     0.059 A 
ATOM     80  C   UNL A   1      44.117  24.278  25.993  1.00  0.00     0.059 A 
ATOM     81  F   UNL A   1      44.129  26.513  26.708  1.00  0.00    -0.206 F 
ATOM     82  C   UNL A   1      43.801  22.943  26.241  1.00  0.00     0.060 A 
BRANCH  82  83
ATOM     83  S   UNL A   1      44.158  21.675  25.004  1.00  0.00     0.124 S 
ATOM     84  O   UNL A   1      43.931  22.404  23.762  1.00  0.00    -0.237 OA
ATOM     85  O   UNL A   1      45.546  21.339  25.302  1.00  0.00    -0.237 OA
ATOM     86  O   UNL A   1      43.188  20.627  25.309  1.00  0.00    -0.744 OA
ENDBRANCH  82  83
ENDBRANCH  50  75
BRANCH  62  87
ATOM     87  C   UNL A   1      46.171  26.912  34.136  1.00  0.00     0.058 A 
ATOM     88  C   UNL A   1      46.095  25.867  35.070  1.00  0.00     0.135 A 
ATOM     89  C   UNL A   1      47.435  27.463  33.866  1.00  0.00     0.135 A 
ATOM     90  F   UNL A   1      44.910  25.311  35.367  1.00  0.00    -0.206 F 
ATOM     91  C   UNL A   1      47.228  25.399  35.727  1.00  0.00     0.059 A 
ATOM     92  C   UNL A   1      48.584  26.991  34.491  1.00  0.00     0.059 A 
ATOM     93  F   UNL A   1      47.563  28.456  32.972  1.00  0.00    -0.206 F 
ATOM     94  C   UNL A   1      48.469  25.967  35.429  1.00  0.00     0.060 A 
BRANCH  94  95
ATOM     95  S   UNL A   1      49.935  25.325  36.263  1.00  0.00     0.124 S 
ATOM     96  O   UNL A   1      49.361  24.280  37.103  1.00  0.00    -0.237 OA
ATOM     97  O   UNL A   1      50.753  24.863  35.146  1.00  0.00    -0.237 OA
ATOM     98  O   UNL A   1      50.456  26.488  36.975  1.00  0.00    -0.744 OA
ENDBRANCH  94  95
ENDBRANCH  62  87
ENDBRANCH  36  37
ENDBRANCH  28  31
ENDBRANCH  26  27
ENDBRANCH   1  26
TORSDOF 16
ENDMDL
