MODEL 1
REMARK VINA RESULT:     -11.8      0.000      0.000
REMARK SMILES O=C(CCN1C(=O)/C(=C/c2cc(Br)cc(Br)c2O)SC1=S)NCCCCNC(=O)c1ccc(-c2c3nc(c(-c4c(F)cc(S(=O)(=O)[O-])cc4F)c4ccc([nH]4)c(-c4c(F)cc(S(=O)(=O)[O-])cc4F)c4nc(c(-c5c(F)cc(S(=O)(=O)[O-])cc5F)c5ccc2[nH]5)C=C4)C=C3)cc1
REMARK SMILES IDX 24 1 23 2 22 3 1 4 2 5 3 7 4 8 5 9 6 10 20 11 7 12 8 13
REMARK SMILES IDX 19 14 21 15 9 16 10 17 11 18 17 19 12 20 15 21 13 22 14 23
REMARK SMILES IDX 16 24 18 25 25 27 26 28 27 29 28 30 29 32 30 33 31 34 95 35
REMARK SMILES IDX 32 36 94 37 33 38 34 39 35 40 88 41 36 42 93 43 87 44 89 45
REMARK SMILES IDX 37 46 92 47 86 48 85 49 38 51 72 52 51 53 71 54 52 55 55 56
REMARK SMILES IDX 70 57 90 58 53 59 54 60 69 62 91 63 56 64 39 65 40 66 49 67
REMARK SMILES IDX 41 68 42 69 48 70 50 71 43 72 44 73 45 74 46 75 47 76 73 77
REMARK SMILES IDX 74 78 83 79 75 80 76 81 82 82 84 83 77 84 78 85 79 86 80 87
REMARK SMILES IDX 81 88 57 89 58 90 67 91 59 92 60 93 66 94 68 95 61 96 62 97
REMARK SMILES IDX 63 98 64 99 65 100
REMARK H PARENT 22 6 18 26 27 31 89 50 55 61
REMARK Flexibility Score: inf
ROOT
ATOM      1  C   UNL A   1      33.043  29.238  27.171  1.00  0.00     0.023 C 
ENDROOT
BRANCH   1   2
ATOM      2  C   UNL A   1      32.609  30.036  25.943  1.00  0.00     0.116 C 
BRANCH   2   3
ATOM      3  N   UNL A   1      32.641  29.248  24.723  1.00  0.00    -0.356 N 
ATOM      4  O   UNL A   1      30.393  29.431  24.256  1.00  0.00    -0.275 OA
ATOM      5  C   UNL A   1      31.515  29.043  23.952  1.00  0.00     0.221 C 
ATOM      6  H   UNL A   1      33.493  28.848  24.436  1.00  0.00     0.163 HD
BRANCH   5   7
ATOM      7  C   UNL A   1      31.780  28.321  22.650  1.00  0.00     0.122 C 
BRANCH   7   8
ATOM      8  C   UNL A   1      33.126  27.590  22.685  1.00  0.00     0.137 C 
BRANCH   8   9
ATOM      9  N   UNL A   1      32.973  26.136  22.814  1.00  0.00    -0.292 N 
ATOM     10  C   UNL A   1      33.068  25.582  24.077  1.00  0.00     0.266 C 
ATOM     11  C   UNL A   1      32.780  25.255  21.768  1.00  0.00     0.148 C 
ATOM     12  O   UNL A   1      33.220  26.204  25.122  1.00  0.00    -0.268 OA
ATOM     13  C   UNL A   1      33.087  24.103  23.990  1.00  0.00     0.081 C 
ATOM     14  S   UNL A   1      32.928  23.602  22.359  1.00  0.00    -0.054 SA
ATOM     15  S   UNL A   1      32.477  25.597  20.166  1.00  0.00    -0.052 S 
ATOM     16  C   UNL A   1      33.361  23.365  25.071  1.00  0.00     0.033 C 
BRANCH  16  17
ATOM     17  C   UNL A   1      33.815  21.975  25.025  1.00  0.00     0.020 A 
ATOM     18  C   UNL A   1      35.196  21.810  24.868  1.00  0.00     0.027 A 
ATOM     19  C   UNL A   1      32.998  20.849  25.173  1.00  0.00     0.137 A 
ATOM     20  C   UNL A   1      35.764  20.546  24.901  1.00  0.00     0.019 A 
ATOM     21  C   UNL A   1      33.572  19.573  25.165  1.00  0.00     0.061 A 
ATOM     22  Br  UNL A   1      37.641  20.441  24.757  1.00  0.00    -0.051 Br
ATOM     23  C   UNL A   1      34.959  19.424  25.060  1.00  0.00     0.035 A 
ATOM     24  Br  UNL A   1      32.516  18.006  25.328  1.00  0.00    -0.047 Br
BRANCH  19  25
ATOM     25  O   UNL A   1      31.647  20.975  25.344  1.00  0.00    -0.506 OA
ATOM     26  H   UNL A   1      31.308  21.340  26.137  1.00  0.00     0.293 HD
ENDBRANCH  19  25
ENDBRANCH  16  17
ENDBRANCH   8   9
ENDBRANCH   7   8
ENDBRANCH   5   7
ENDBRANCH   2   3
ENDBRANCH   1   2
BRANCH   1  27
ATOM     27  C   UNL A   1      34.549  28.964  27.286  1.00  0.00     0.023 C 
BRANCH  27  28
ATOM     28  C   UNL A   1      35.420  30.163  27.665  1.00  0.00     0.116 C 
BRANCH  28  29
ATOM     29  N   UNL A   1      35.342  30.492  29.078  1.00  0.00    -0.352 N 
ATOM     30  C   UNL A   1      36.301  30.467  30.065  1.00  0.00     0.251 C 
ATOM     31  H   UNL A   1      34.452  30.782  29.382  1.00  0.00     0.163 HD
ATOM     32  O   UNL A   1      35.952  30.644  31.231  1.00  0.00    -0.269 OA
BRANCH  30  33
ATOM     33  C   UNL A   1      37.734  30.212  29.764  1.00  0.00     0.039 A 
ATOM     34  C   UNL A   1      38.652  30.196  30.820  1.00  0.00     0.014 A 
ATOM     35  C   UNL A   1      38.199  30.044  28.462  1.00  0.00     0.014 A 
ATOM     36  C   UNL A   1      40.012  29.935  30.583  1.00  0.00     0.010 A 
ATOM     37  C   UNL A   1      39.539  29.712  28.237  1.00  0.00     0.010 A 
ATOM     38  C   UNL A   1      40.470  29.633  29.292  1.00  0.00    -0.014 A 
BRANCH  38  39
ATOM     39  C   UNL A   1      41.876  29.183  29.011  1.00  0.00     0.031 A 
ATOM     40  C   UNL A   1      42.973  30.197  28.773  1.00  0.00     0.074 A 
ATOM     41  C   UNL A   1      42.144  27.879  28.770  1.00  0.00     0.049 A 
ATOM     42  N   UNL A   1      44.189  30.010  28.322  1.00  0.00    -0.248 NA
ATOM     43  C   UNL A   1      42.653  31.604  29.059  1.00  0.00     0.031 C 
ATOM     44  C   UNL A   1      41.201  26.769  28.903  1.00  0.00     0.029 A 
ATOM     45  N   UNL A   1      43.270  27.276  28.246  1.00  0.00    -0.354 N 
ATOM     46  C   UNL A   1      44.777  31.269  28.276  1.00  0.00     0.074 A 
ATOM     47  C   UNL A   1      43.753  32.221  28.652  1.00  0.00     0.031 C 
ATOM     48  C   UNL A   1      41.735  25.656  28.377  1.00  0.00     0.029 A 
ATOM     49  C   UNL A   1      43.080  25.955  27.901  1.00  0.00     0.049 A 
ATOM     50  H   UNL A   1      44.127  27.745  28.131  1.00  0.00     0.167 HD
ATOM     51  C   UNL A   1      46.062  31.605  28.002  1.00  0.00     0.037 A 
ATOM     52  C   UNL A   1      43.879  25.073  27.268  1.00  0.00     0.037 A 
ATOM     53  C   UNL A   1      47.092  30.661  27.650  1.00  0.00     0.049 A 
ATOM     54  C   UNL A   1      45.288  25.463  26.920  1.00  0.00     0.074 A 
ATOM     55  C   UNL A   1      48.450  30.888  27.492  1.00  0.00     0.029 A 
ATOM     56  N   UNL A   1      46.880  29.319  27.380  1.00  0.00    -0.354 N 
ATOM     57  N   UNL A   1      45.870  26.630  27.040  1.00  0.00    -0.248 NA
ATOM     58  C   UNL A   1      46.166  24.401  26.407  1.00  0.00     0.031 C 
ATOM     59  C   UNL A   1      49.049  29.695  27.074  1.00  0.00     0.029 A 
ATOM     60  C   UNL A   1      48.076  28.711  27.031  1.00  0.00     0.049 A 
ATOM     61  H   UNL A   1      46.008  28.864  27.428  1.00  0.00     0.167 HD
ATOM     62  C   UNL A   1      47.201  26.426  26.688  1.00  0.00     0.074 A 
ATOM     63  C   UNL A   1      47.331  25.030  26.332  1.00  0.00     0.031 C 
ATOM     64  C   UNL A   1      48.222  27.317  26.692  1.00  0.00     0.037 A 
BRANCH  51  65
ATOM     65  C   UNL A   1      46.448  33.058  28.125  1.00  0.00     0.058 A 
ATOM     66  C   UNL A   1      46.947  33.581  29.331  1.00  0.00     0.135 A 
ATOM     67  C   UNL A   1      46.378  33.922  27.020  1.00  0.00     0.135 A 
ATOM     68  F   UNL A   1      47.039  32.802  30.420  1.00  0.00    -0.206 F 
ATOM     69  C   UNL A   1      47.319  34.915  29.449  1.00  0.00     0.059 A 
ATOM     70  C   UNL A   1      46.778  35.253  27.107  1.00  0.00     0.059 A 
ATOM     71  F   UNL A   1      45.923  33.476  25.839  1.00  0.00    -0.206 F 
ATOM     72  C   UNL A   1      47.231  35.745  28.331  1.00  0.00     0.060 A 
BRANCH  72  73
ATOM     73  S   UNL A   1      47.726  37.472  28.505  1.00  0.00     0.124 S 
ATOM     74  O   UNL A   1      49.139  37.407  28.146  1.00  0.00    -0.237 OA
ATOM     75  O   UNL A   1      46.858  38.142  27.541  1.00  0.00    -0.237 OA
ATOM     76  O   UNL A   1      47.447  37.768  29.906  1.00  0.00    -0.744 OA
ENDBRANCH  72  73
ENDBRANCH  51  65
BRANCH  52  77
ATOM     77  C   UNL A   1      43.399  23.689  27.001  1.00  0.00     0.058 A 
ATOM     78  C   UNL A   1      43.313  22.754  28.042  1.00  0.00     0.135 A 
ATOM     79  C   UNL A   1      43.025  23.272  25.713  1.00  0.00     0.135 A 
ATOM     80  F   UNL A   1      43.666  23.106  29.287  1.00  0.00    -0.206 F 
ATOM     81  C   UNL A   1      42.900  21.446  27.816  1.00  0.00     0.059 A 
ATOM     82  C   UNL A   1      42.589  21.972  25.466  1.00  0.00     0.059 A 
ATOM     83  F   UNL A   1      43.072  24.134  24.685  1.00  0.00    -0.206 F 
ATOM     84  C   UNL A   1      42.539  21.064  26.524  1.00  0.00     0.060 A 
BRANCH  84  85
ATOM     85  S   UNL A   1      41.971  19.369  26.259  1.00  0.00     0.124 S 
ATOM     86  O   UNL A   1      42.645  19.024  25.013  1.00  0.00    -0.237 OA
ATOM     87  O   UNL A   1      42.462  18.696  27.458  1.00  0.00    -0.237 OA
ATOM     88  O   UNL A   1      40.521  19.509  26.175  1.00  0.00    -0.744 OA
ENDBRANCH  84  85
ENDBRANCH  52  77
BRANCH  64  89
ATOM     89  C   UNL A   1      49.601  26.807  26.368  1.00  0.00     0.058 A 
ATOM     90  C   UNL A   1      50.398  26.150  27.317  1.00  0.00     0.135 A 
ATOM     91  C   UNL A   1      50.113  26.939  25.065  1.00  0.00     0.135 A 
ATOM     92  F   UNL A   1      49.966  26.008  28.581  1.00  0.00    -0.206 F 
ATOM     93  C   UNL A   1      51.660  25.659  26.993  1.00  0.00     0.059 A 
ATOM     94  C   UNL A   1      51.357  26.426  24.710  1.00  0.00     0.059 A 
ATOM     95  F   UNL A   1      49.393  27.554  24.114  1.00  0.00    -0.206 F 
ATOM     96  C   UNL A   1      52.128  25.796  25.685  1.00  0.00     0.060 A 
BRANCH  96  97
ATOM     97  S   UNL A   1      53.747  25.113  25.269  1.00  0.00     0.124 S 
ATOM     98  O   UNL A   1      54.587  25.686  26.315  1.00  0.00    -0.237 OA
ATOM     99  O   UNL A   1      53.512  23.676  25.362  1.00  0.00    -0.237 OA
ATOM    100  O   UNL A   1      53.993  25.616  23.921  1.00  0.00    -0.744 OA
ENDBRANCH  96  97
ENDBRANCH  64  89
ENDBRANCH  38  39
ENDBRANCH  30  33
ENDBRANCH  28  29
ENDBRANCH  27  28
ENDBRANCH   1  27
TORSDOF 18
ENDMDL
MODEL 2
REMARK VINA RESULT:     -11.8      6.361      8.528
REMARK SMILES O=C(CCN1C(=O)/C(=C/c2cc(Br)cc(Br)c2O)SC1=S)NCCCCNC(=O)c1ccc(-c2c3nc(c(-c4c(F)cc(S(=O)(=O)[O-])cc4F)c4ccc([nH]4)c(-c4c(F)cc(S(=O)(=O)[O-])cc4F)c4nc(c(-c5c(F)cc(S(=O)(=O)[O-])cc5F)c5ccc2[nH]5)C=C4)C=C3)cc1
REMARK SMILES IDX 24 1 23 2 22 3 1 4 2 5 3 7 4 8 5 9 6 10 20 11 7 12 8 13
REMARK SMILES IDX 19 14 21 15 9 16 10 17 11 18 17 19 12 20 15 21 13 22 14 23
REMARK SMILES IDX 16 24 18 25 25 27 26 28 27 29 28 30 29 32 30 33 31 34 95 35
REMARK SMILES IDX 32 36 94 37 33 38 34 39 35 40 88 41 36 42 93 43 87 44 89 45
REMARK SMILES IDX 37 46 92 47 86 48 85 49 38 51 72 52 51 53 71 54 52 55 55 56
REMARK SMILES IDX 70 57 90 58 53 59 54 60 69 62 91 63 56 64 39 65 40 66 49 67
REMARK SMILES IDX 41 68 42 69 48 70 50 71 43 72 44 73 45 74 46 75 47 76 73 77
REMARK SMILES IDX 74 78 83 79 75 80 76 81 82 82 84 83 77 84 78 85 79 86 80 87
REMARK SMILES IDX 81 88 57 89 58 90 67 91 59 92 60 93 66 94 68 95 61 96 62 97
REMARK SMILES IDX 63 98 64 99 65 100
REMARK H PARENT 22 6 18 26 27 31 89 50 55 61
REMARK Flexibility Score: inf
ROOT
ATOM      1  C   UNL A   1      31.336  31.436  26.302  1.00  0.00     0.023 C 
ENDROOT
BRANCH   1   2
ATOM      2  C   UNL A   1      32.494  30.515  26.683  1.00  0.00     0.116 C 
BRANCH   2   3
ATOM      3  N   UNL A   1      32.054  29.179  27.042  1.00  0.00    -0.356 N 
ATOM      4  O   UNL A   1      31.898  28.386  24.886  1.00  0.00    -0.275 OA
ATOM      5  C   UNL A   1      31.827  28.202  26.095  1.00  0.00     0.221 C 
ATOM      6  H   UNL A   1      31.914  28.962  27.992  1.00  0.00     0.163 HD
BRANCH   5   7
ATOM      7  C   UNL A   1      31.514  26.840  26.674  1.00  0.00     0.122 C 
BRANCH   7   8
ATOM      8  C   UNL A   1      30.471  26.104  25.825  1.00  0.00     0.137 C 
BRANCH   8   9
ATOM      9  N   UNL A   1      31.004  24.876  25.223  1.00  0.00    -0.292 N 
ATOM     10  C   UNL A   1      31.217  23.787  26.049  1.00  0.00     0.266 C 
ATOM     11  C   UNL A   1      31.354  24.720  23.896  1.00  0.00     0.148 C 
ATOM     12  O   UNL A   1      30.953  23.732  27.244  1.00  0.00    -0.268 OA
ATOM     13  C   UNL A   1      31.935  22.719  25.315  1.00  0.00     0.081 C 
ATOM     14  S   UNL A   1      32.198  23.188  23.688  1.00  0.00    -0.054 SA
ATOM     15  S   UNL A   1      31.092  25.764  22.625  1.00  0.00    -0.052 S 
ATOM     16  C   UNL A   1      32.411  21.653  25.968  1.00  0.00     0.033 C 
BRANCH  16  17
ATOM     17  C   UNL A   1      33.465  20.776  25.455  1.00  0.00     0.020 A 
ATOM     18  C   UNL A   1      34.747  21.338  25.447  1.00  0.00     0.027 A 
ATOM     19  C   UNL A   1      33.289  19.453  25.037  1.00  0.00     0.137 A 
ATOM     20  C   UNL A   1      35.846  20.581  25.071  1.00  0.00     0.019 A 
ATOM     21  C   UNL A   1      34.396  18.706  24.620  1.00  0.00     0.061 A 
ATOM     22  Br  UNL A   1      37.536  21.411  25.170  1.00  0.00    -0.051 Br
ATOM     23  C   UNL A   1      35.679  19.262  24.667  1.00  0.00     0.035 A 
ATOM     24  Br  UNL A   1      34.219  16.918  24.013  1.00  0.00    -0.047 Br
BRANCH  19  25
ATOM     25  O   UNL A   1      32.052  18.868  25.047  1.00  0.00    -0.506 OA
ATOM     26  H   UNL A   1      31.323  19.321  25.423  1.00  0.00     0.293 HD
ENDBRANCH  19  25
ENDBRANCH  16  17
ENDBRANCH   8   9
ENDBRANCH   7   8
ENDBRANCH   5   7
ENDBRANCH   2   3
ENDBRANCH   1   2
BRANCH   1  27
ATOM     27  C   UNL A   1      31.591  32.937  26.495  1.00  0.00     0.023 C 
BRANCH  27  28
ATOM     28  C   UNL A   1      32.644  33.306  27.541  1.00  0.00     0.116 C 
BRANCH  28  29
ATOM     29  N   UNL A   1      32.541  34.686  27.984  1.00  0.00    -0.352 N 
ATOM     30  C   UNL A   1      33.154  35.350  29.022  1.00  0.00     0.251 C 
ATOM     31  H   UNL A   1      31.926  35.240  27.451  1.00  0.00     0.163 HD
ATOM     32  O   UNL A   1      32.784  36.490  29.292  1.00  0.00    -0.269 OA
BRANCH  30  33
ATOM     33  C   UNL A   1      34.230  34.721  29.832  1.00  0.00     0.039 A 
ATOM     34  C   UNL A   1      33.940  34.314  31.139  1.00  0.00     0.014 A 
ATOM     35  C   UNL A   1      35.530  34.577  29.352  1.00  0.00     0.014 A 
ATOM     36  C   UNL A   1      34.922  33.694  31.931  1.00  0.00     0.010 A 
ATOM     37  C   UNL A   1      36.483  33.894  30.114  1.00  0.00     0.010 A 
ATOM     38  C   UNL A   1      36.196  33.423  31.411  1.00  0.00    -0.014 A 
BRANCH  38  39
ATOM     39  C   UNL A   1      37.222  32.616  32.154  1.00  0.00     0.031 A 
ATOM     40  C   UNL A   1      37.874  33.165  33.403  1.00  0.00     0.074 A 
ATOM     41  C   UNL A   1      37.725  31.481  31.615  1.00  0.00     0.049 A 
ATOM     42  N   UNL A   1      38.913  32.714  34.062  1.00  0.00    -0.248 NA
ATOM     43  C   UNL A   1      37.295  34.393  33.972  1.00  0.00     0.031 C 
ATOM     44  C   UNL A   1      37.254  30.828  30.393  1.00  0.00     0.029 A 
ATOM     45  N   UNL A   1      38.829  30.731  31.969  1.00  0.00    -0.354 N 
ATOM     46  C   UNL A   1      39.107  33.595  35.120  1.00  0.00     0.074 A 
ATOM     47  C   UNL A   1      38.139  34.659  34.958  1.00  0.00     0.031 C 
ATOM     48  C   UNL A   1      38.113  29.860  30.038  1.00  0.00     0.029 A 
ATOM     49  C   UNL A   1      39.181  29.788  31.026  1.00  0.00     0.049 A 
ATOM     50  H   UNL A   1      39.317  30.858  32.813  1.00  0.00     0.167 HD
ATOM     51  C   UNL A   1      39.969  33.506  36.163  1.00  0.00     0.037 A 
ATOM     52  C   UNL A   1      40.241  28.957  30.946  1.00  0.00     0.037 A 
ATOM     53  C   UNL A   1      40.920  32.438  36.343  1.00  0.00     0.049 A 
ATOM     54  C   UNL A   1      41.223  28.895  32.081  1.00  0.00     0.074 A 
ATOM     55  C   UNL A   1      41.735  32.186  37.434  1.00  0.00     0.029 A 
ATOM     56  N   UNL A   1      41.199  31.458  35.405  1.00  0.00    -0.354 N 
ATOM     57  N   UNL A   1      41.285  29.640  33.156  1.00  0.00    -0.248 NA
ATOM     58  C   UNL A   1      42.244  27.839  32.021  1.00  0.00     0.031 C 
ATOM     59  C   UNL A   1      42.547  31.087  37.133  1.00  0.00     0.029 A 
ATOM     60  C   UNL A   1      42.193  30.616  35.880  1.00  0.00     0.049 A 
ATOM     61  H   UNL A   1      40.758  31.372  34.529  1.00  0.00     0.167 HD
ATOM     62  C   UNL A   1      42.302  29.097  33.935  1.00  0.00     0.074 A 
ATOM     63  C   UNL A   1      42.840  27.974  33.198  1.00  0.00     0.031 C 
ATOM     64  C   UNL A   1      42.725  29.484  35.162  1.00  0.00     0.037 A 
BRANCH  51  65
ATOM     65  C   UNL A   1      39.891  34.568  37.231  1.00  0.00     0.058 A 
ATOM     66  C   UNL A   1      39.034  34.430  38.337  1.00  0.00     0.135 A 
ATOM     67  C   UNL A   1      40.717  35.704  37.185  1.00  0.00     0.135 A 
ATOM     68  F   UNL A   1      38.223  33.365  38.436  1.00  0.00    -0.206 F 
ATOM     69  C   UNL A   1      38.967  35.397  39.333  1.00  0.00     0.059 A 
ATOM     70  C   UNL A   1      40.690  36.668  38.189  1.00  0.00     0.059 A 
ATOM     71  F   UNL A   1      41.565  35.883  36.160  1.00  0.00    -0.206 F 
ATOM     72  C   UNL A   1      39.799  36.514  39.251  1.00  0.00     0.060 A 
BRANCH  72  73
ATOM     73  S   UNL A   1      39.699  37.754  40.558  1.00  0.00     0.124 S 
ATOM     74  O   UNL A   1      38.900  38.792  39.914  1.00  0.00    -0.237 OA
ATOM     75  O   UNL A   1      39.037  37.021  41.632  1.00  0.00    -0.237 OA
ATOM     76  O   UNL A   1      41.095  38.102  40.807  1.00  0.00    -0.744 OA
ENDBRANCH  72  73
ENDBRANCH  51  65
BRANCH  52  77
ATOM     77  C   UNL A   1      40.383  28.040  29.782  1.00  0.00     0.058 A 
ATOM     78  C   UNL A   1      39.594  26.884  29.689  1.00  0.00     0.135 A 
ATOM     79  C   UNL A   1      41.303  28.290  28.752  1.00  0.00     0.135 A 
ATOM     80  F   UNL A   1      38.706  26.602  30.653  1.00  0.00    -0.206 F 
ATOM     81  C   UNL A   1      39.728  25.992  28.631  1.00  0.00     0.059 A 
ATOM     82  C   UNL A   1      41.442  27.421  27.672  1.00  0.00     0.059 A 
ATOM     83  F   UNL A   1      42.068  29.392  28.785  1.00  0.00    -0.206 F 
ATOM     84  C   UNL A   1      40.655  26.270  27.626  1.00  0.00     0.060 A 
BRANCH  84  85
ATOM     85  S   UNL A   1      40.789  25.115  26.242  1.00  0.00     0.124 S 
ATOM     86  O   UNL A   1      39.413  24.650  26.112  1.00  0.00    -0.237 OA
ATOM     87  O   UNL A   1      41.274  25.982  25.173  1.00  0.00    -0.237 OA
ATOM     88  O   UNL A   1      41.747  24.124  26.723  1.00  0.00    -0.744 OA
ENDBRANCH  84  85
ENDBRANCH  52  77
BRANCH  64  89
ATOM     89  C   UNL A   1      43.781  28.650  35.838  1.00  0.00     0.058 A 
ATOM     90  C   UNL A   1      45.148  28.949  35.738  1.00  0.00     0.135 A 
ATOM     91  C   UNL A   1      43.409  27.557  36.641  1.00  0.00     0.135 A 
ATOM     92  F   UNL A   1      45.563  29.973  34.974  1.00  0.00    -0.206 F 
ATOM     93  C   UNL A   1      46.110  28.185  36.393  1.00  0.00     0.059 A 
ATOM     94  C   UNL A   1      44.351  26.800  37.332  1.00  0.00     0.059 A 
ATOM     95  F   UNL A   1      42.115  27.227  36.777  1.00  0.00    -0.206 F 
ATOM     96  C   UNL A   1      45.701  27.116  37.193  1.00  0.00     0.060 A 
BRANCH  96  97
ATOM     97  S   UNL A   1      46.956  26.163  38.073  1.00  0.00     0.124 S 
ATOM     98  O   UNL A   1      46.486  26.255  39.451  1.00  0.00    -0.237 OA
ATOM     99  O   UNL A   1      46.842  24.848  37.451  1.00  0.00    -0.237 OA
ATOM    100  O   UNL A   1      48.195  26.880  37.784  1.00  0.00    -0.744 OA
ENDBRANCH  96  97
ENDBRANCH  64  89
ENDBRANCH  38  39
ENDBRANCH  30  33
ENDBRANCH  28  29
ENDBRANCH  27  28
ENDBRANCH   1  27
TORSDOF 18
ENDMDL
MODEL 3
REMARK VINA RESULT:     -11.4      5.878     12.767
REMARK SMILES O=C(CCN1C(=O)/C(=C/c2cc(Br)cc(Br)c2O)SC1=S)NCCCCNC(=O)c1ccc(-c2c3nc(c(-c4c(F)cc(S(=O)(=O)[O-])cc4F)c4ccc([nH]4)c(-c4c(F)cc(S(=O)(=O)[O-])cc4F)c4nc(c(-c5c(F)cc(S(=O)(=O)[O-])cc5F)c5ccc2[nH]5)C=C4)C=C3)cc1
REMARK SMILES IDX 24 1 23 2 22 3 1 4 2 5 3 7 4 8 5 9 6 10 20 11 7 12 8 13
REMARK SMILES IDX 19 14 21 15 9 16 10 17 11 18 17 19 12 20 15 21 13 22 14 23
REMARK SMILES IDX 16 24 18 25 25 27 26 28 27 29 28 30 29 32 30 33 31 34 95 35
REMARK SMILES IDX 32 36 94 37 33 38 34 39 35 40 88 41 36 42 93 43 87 44 89 45
REMARK SMILES IDX 37 46 92 47 86 48 85 49 38 51 72 52 51 53 71 54 52 55 55 56
REMARK SMILES IDX 70 57 90 58 53 59 54 60 69 62 91 63 56 64 39 65 40 66 49 67
REMARK SMILES IDX 41 68 42 69 48 70 50 71 43 72 44 73 45 74 46 75 47 76 73 77
REMARK SMILES IDX 74 78 83 79 75 80 76 81 82 82 84 83 77 84 78 85 79 86 80 87
REMARK SMILES IDX 81 88 57 89 58 90 67 91 59 92 60 93 66 94 68 95 61 96 62 97
REMARK SMILES IDX 63 98 64 99 65 100
REMARK H PARENT 22 6 18 26 27 31 89 50 55 61
REMARK Flexibility Score: inf
ROOT
ATOM      1  C   UNL A   1      43.747  23.811  25.995  1.00  0.00     0.023 C 
ENDROOT
BRANCH   1   2
ATOM      2  C   UNL A   1      44.901  24.253  25.097  1.00  0.00     0.116 C 
BRANCH   2   3
ATOM      3  N   UNL A   1      45.919  24.997  25.816  1.00  0.00    -0.356 N 
ATOM      4  O   UNL A   1      47.244  25.433  23.984  1.00  0.00    -0.275 OA
ATOM      5  C   UNL A   1      47.002  25.565  25.179  1.00  0.00     0.221 C 
ATOM      6  H   UNL A   1      45.833  25.102  26.792  1.00  0.00     0.163 HD
BRANCH   5   7
ATOM      7  C   UNL A   1      47.871  26.419  26.075  1.00  0.00     0.122 C 
BRANCH   7   8
ATOM      8  C   UNL A   1      47.391  26.362  27.529  1.00  0.00     0.137 C 
BRANCH   8   9
ATOM      9  N   UNL A   1      46.950  27.671  28.025  1.00  0.00    -0.292 N 
ATOM     10  C   UNL A   1      45.603  27.974  27.949  1.00  0.00     0.266 C 
ATOM     11  C   UNL A   1      47.775  28.657  28.530  1.00  0.00     0.148 C 
ATOM     12  O   UNL A   1      44.721  27.223  27.548  1.00  0.00    -0.268 OA
ATOM     13  C   UNL A   1      45.374  29.394  28.306  1.00  0.00     0.081 C 
ATOM     14  S   UNL A   1      46.853  30.143  28.740  1.00  0.00    -0.054 SA
ATOM     15  S   UNL A   1      49.399  28.566  28.891  1.00  0.00    -0.052 S 
ATOM     16  C   UNL A   1      44.173  29.953  28.120  1.00  0.00     0.033 C 
BRANCH  16  17
ATOM     17  C   UNL A   1      43.942  31.395  28.032  1.00  0.00     0.020 A 
ATOM     18  C   UNL A   1      44.310  31.978  26.814  1.00  0.00     0.027 A 
ATOM     19  C   UNL A   1      43.353  32.185  29.025  1.00  0.00     0.137 A 
ATOM     20  C   UNL A   1      44.059  33.319  26.569  1.00  0.00     0.019 A 
ATOM     21  C   UNL A   1      43.138  33.547  28.788  1.00  0.00     0.061 A 
ATOM     22  Br  UNL A   1      44.525  33.986  24.868  1.00  0.00    -0.051 Br
ATOM     23  C   UNL A   1      43.464  34.106  27.547  1.00  0.00     0.035 A 
ATOM     24  Br  UNL A   1      42.375  34.679  30.105  1.00  0.00    -0.047 Br
BRANCH  19  25
ATOM     25  O   UNL A   1      42.966  31.644  30.221  1.00  0.00    -0.506 OA
ATOM     26  H   UNL A   1      43.606  31.461  30.880  1.00  0.00     0.293 HD
ENDBRANCH  19  25
ENDBRANCH  16  17
ENDBRANCH   8   9
ENDBRANCH   7   8
ENDBRANCH   5   7
ENDBRANCH   2   3
ENDBRANCH   1   2
BRANCH   1  27
ATOM     27  C   UNL A   1      42.815  22.746  25.401  1.00  0.00     0.023 C 
BRANCH  27  28
ATOM     28  C   UNL A   1      41.774  22.162  26.358  1.00  0.00     0.116 C 
BRANCH  28  29
ATOM     29  N   UNL A   1      40.416  22.282  25.855  1.00  0.00    -0.352 N 
ATOM     30  C   UNL A   1      39.452  23.238  26.076  1.00  0.00     0.251 C 
ATOM     31  H   UNL A   1      40.137  21.553  25.255  1.00  0.00     0.163 HD
ATOM     32  O   UNL A   1      38.314  23.038  25.655  1.00  0.00    -0.269 OA
BRANCH  30  33
ATOM     33  C   UNL A   1      39.742  24.491  26.822  1.00  0.00     0.039 A 
ATOM     34  C   UNL A   1      39.159  24.677  28.081  1.00  0.00     0.014 A 
ATOM     35  C   UNL A   1      40.529  25.507  26.285  1.00  0.00     0.014 A 
ATOM     36  C   UNL A   1      39.426  25.835  28.830  1.00  0.00     0.010 A 
ATOM     37  C   UNL A   1      40.852  26.624  27.063  1.00  0.00     0.010 A 
ATOM     38  C   UNL A   1      40.322  26.804  28.357  1.00  0.00    -0.014 A 
BRANCH  38  39
ATOM     39  C   UNL A   1      40.770  27.973  29.188  1.00  0.00     0.031 A 
ATOM     40  C   UNL A   1      41.935  27.833  30.144  1.00  0.00     0.074 A 
ATOM     41  C   UNL A   1      40.025  29.101  29.246  1.00  0.00     0.049 A 
ATOM     42  N   UNL A   1      42.339  28.653  31.082  1.00  0.00    -0.248 NA
ATOM     43  C   UNL A   1      42.733  26.601  30.046  1.00  0.00     0.031 C 
ATOM     44  C   UNL A   1      38.844  29.393  28.434  1.00  0.00     0.029 A 
ATOM     45  N   UNL A   1      40.087  30.173  30.112  1.00  0.00    -0.354 N 
ATOM     46  C   UNL A   1      43.436  28.042  31.678  1.00  0.00     0.074 A 
ATOM     47  C   UNL A   1      43.573  26.740  31.061  1.00  0.00     0.031 C 
ATOM     48  C   UNL A   1      38.233  30.491  28.904  1.00  0.00     0.029 A 
ATOM     49  C   UNL A   1      38.996  31.014  30.029  1.00  0.00     0.049 A 
ATOM     50  H   UNL A   1      40.837  30.324  30.730  1.00  0.00     0.167 HD
ATOM     51  C   UNL A   1      44.289  28.533  32.612  1.00  0.00     0.037 A 
ATOM     52  C   UNL A   1      38.633  32.081  30.769  1.00  0.00     0.037 A 
ATOM     53  C   UNL A   1      44.172  29.836  33.214  1.00  0.00     0.049 A 
ATOM     54  C   UNL A   1      39.556  32.595  31.837  1.00  0.00     0.074 A 
ATOM     55  C   UNL A   1      45.062  30.476  34.062  1.00  0.00     0.029 A 
ATOM     56  N   UNL A   1      43.095  30.692  33.052  1.00  0.00    -0.354 N 
ATOM     57  N   UNL A   1      40.679  32.078  32.270  1.00  0.00    -0.248 NA
ATOM     58  C   UNL A   1      39.193  33.869  32.476  1.00  0.00     0.031 C 
ATOM     59  C   UNL A   1      44.497  31.694  34.456  1.00  0.00     0.029 A 
ATOM     60  C   UNL A   1      43.284  31.842  33.804  1.00  0.00     0.049 A 
ATOM     61  H   UNL A   1      42.309  30.511  32.486  1.00  0.00     0.167 HD
ATOM     62  C   UNL A   1      41.194  32.999  33.177  1.00  0.00     0.074 A 
ATOM     63  C   UNL A   1      40.250  34.094  33.245  1.00  0.00     0.031 C 
ATOM     64  C   UNL A   1      42.360  32.946  33.865  1.00  0.00     0.037 A 
BRANCH  51  65
ATOM     65  C   UNL A   1      45.465  27.675  33.007  1.00  0.00     0.058 A 
ATOM     66  C   UNL A   1      45.324  26.624  33.929  1.00  0.00     0.135 A 
ATOM     67  C   UNL A   1      46.727  27.863  32.420  1.00  0.00     0.135 A 
ATOM     68  F   UNL A   1      44.141  26.396  34.521  1.00  0.00    -0.206 F 
ATOM     69  C   UNL A   1      46.400  25.819  34.288  1.00  0.00     0.059 A 
ATOM     70  C   UNL A   1      47.810  27.046  32.739  1.00  0.00     0.059 A 
ATOM     71  F   UNL A   1      46.919  28.842  31.523  1.00  0.00    -0.206 F 
ATOM     72  C   UNL A   1      47.640  26.038  33.688  1.00  0.00     0.060 A 
BRANCH  72  73
ATOM     73  S   UNL A   1      49.020  24.978  34.164  1.00  0.00     0.124 S 
ATOM     74  O   UNL A   1      49.565  25.704  35.306  1.00  0.00    -0.237 OA
ATOM     75  O   UNL A   1      48.352  23.718  34.475  1.00  0.00    -0.237 OA
ATOM     76  O   UNL A   1      49.864  24.959  32.973  1.00  0.00    -0.744 OA
ENDBRANCH  72  73
ENDBRANCH  51  65
BRANCH  52  77
ATOM     77  C   UNL A   1      37.367  32.804  30.464  1.00  0.00     0.058 A 
ATOM     78  C   UNL A   1      36.215  32.572  31.230  1.00  0.00     0.135 A 
ATOM     79  C   UNL A   1      37.278  33.726  29.409  1.00  0.00     0.135 A 
ATOM     80  F   UNL A   1      36.252  31.695  32.243  1.00  0.00    -0.206 F 
ATOM     81  C   UNL A   1      35.011  33.206  30.947  1.00  0.00     0.059 A 
ATOM     82  C   UNL A   1      36.088  34.389  29.119  1.00  0.00     0.059 A 
ATOM     83  F   UNL A   1      38.357  33.997  28.658  1.00  0.00    -0.206 F 
ATOM     84  C   UNL A   1      34.957  34.115  29.889  1.00  0.00     0.060 A 
BRANCH  84  85
ATOM     85  S   UNL A   1      33.391  34.955  29.561  1.00  0.00     0.124 S 
ATOM     86  O   UNL A   1      33.846  36.198  28.951  1.00  0.00    -0.237 OA
ATOM     87  O   UNL A   1      32.724  34.011  28.669  1.00  0.00    -0.237 OA
ATOM     88  O   UNL A   1      32.794  35.083  30.887  1.00  0.00    -0.744 OA
ENDBRANCH  84  85
ENDBRANCH  52  77
BRANCH  64  89
ATOM     89  C   UNL A   1      42.734  34.137  34.707  1.00  0.00     0.058 A 
ATOM     90  C   UNL A   1      42.326  34.267  36.043  1.00  0.00     0.135 A 
ATOM     91  C   UNL A   1      43.560  35.144  34.176  1.00  0.00     0.135 A 
ATOM     92  F   UNL A   1      41.526  33.344  36.599  1.00  0.00    -0.206 F 
ATOM     93  C   UNL A   1      42.706  35.361  36.817  1.00  0.00     0.059 A 
ATOM     94  C   UNL A   1      43.980  36.228  34.940  1.00  0.00     0.059 A 
ATOM     95  F   UNL A   1      43.985  35.069  32.905  1.00  0.00    -0.206 F 
ATOM     96  C   UNL A   1      43.538  36.334  36.258  1.00  0.00     0.060 A 
BRANCH  96  97
ATOM     97  S   UNL A   1      44.060  37.721  37.287  1.00  0.00     0.124 S 
ATOM     98  O   UNL A   1      42.946  37.830  38.224  1.00  0.00    -0.237 OA
ATOM     99  O   UNL A   1      45.316  37.237  37.851  1.00  0.00    -0.237 OA
ATOM    100  O   UNL A   1      44.190  38.822  36.337  1.00  0.00    -0.744 OA
ENDBRANCH  96  97
ENDBRANCH  64  89
ENDBRANCH  38  39
ENDBRANCH  30  33
ENDBRANCH  28  29
ENDBRANCH  27  28
ENDBRANCH   1  27
TORSDOF 18
ENDMDL
