MODEL 1
REMARK VINA RESULT:     -10.8      0.000      0.000
REMARK SMILES CCCc1c(C(=O)NCCCCNC(=O)c2ccc(-c3c4nc(c(-c5c(F)cc(S(=O)(=O)[O-])cc5F)c5ccc([nH]5)c(-c5c(F)cc(S(=O)(=O)[O-])cc5F)c5nc(c(-c6c(F)cc(S(=O)(=O)[O-])cc6F)c6ccc3[nH]6)C=C5)C=C4)cc2)nnn1[C@@H](C)[C@H](C)O
REMARK SMILES IDX 10 1 9 2 8 3 6 4 7 5 5 7 4 8 84 9 82 10 83 11 3 12 2 13 1 14
REMARK SMILES IDX 85 15 86 16 87 17 88 18 89 19 11 21 12 22 13 23 14 24 15 26
REMARK SMILES IDX 16 27 17 28 81 29 18 30 80 31 19 32 20 33 21 34 74 35 22 36
REMARK SMILES IDX 79 37 73 38 75 39 23 40 78 41 72 42 71 43 24 45 58 46 37 47
REMARK SMILES IDX 57 48 38 49 41 50 56 51 76 52 39 53 40 54 55 56 77 57 42 58
REMARK SMILES IDX 25 59 26 60 35 61 27 62 28 63 34 64 36 65 29 66 30 67 31 68
REMARK SMILES IDX 32 69 33 70 59 71 60 72 69 73 61 74 62 75 68 76 70 77 63 78
REMARK SMILES IDX 64 79 65 80 66 81 67 82 43 83 44 84 53 85 45 86 46 87 52 88
REMARK SMILES IDX 54 89 47 90 48 91 49 92 50 93 51 94
REMARK H PARENT 8 6 89 20 13 25 75 44 41 55
REMARK Flexibility Score: inf
ROOT
ATOM      1  C   UNL A   1      39.008  22.671  26.663  1.00  0.00     0.023 C 
ENDROOT
BRANCH   1   2
ATOM      2  C   UNL A   1      37.608  23.013  26.126  1.00  0.00     0.116 C 
BRANCH   2   3
ATOM      3  N   UNL A   1      37.541  23.029  24.680  1.00  0.00    -0.351 N 
ATOM      4  C   UNL A   1      36.535  23.150  23.748  1.00  0.00     0.273 C 
ATOM      5  O   UNL A   1      36.949  23.307  22.594  1.00  0.00    -0.267 OA
ATOM      6  H   UNL A   1      38.427  22.930  24.263  1.00  0.00     0.163 HD
BRANCH   4   7
ATOM      7  C   UNL A   1      35.083  23.095  24.003  1.00  0.00     0.173 A 
ATOM      8  C   UNL A   1      34.065  24.028  24.228  1.00  0.00     0.072 A 
ATOM      9  N   UNL A   1      32.944  23.253  24.464  1.00  0.00    -0.243 N 
ATOM     10  N   UNL A   1      34.543  21.841  24.252  1.00  0.00    -0.125 NA
ATOM     11  N   UNL A   1      33.271  21.961  24.567  1.00  0.00    -0.066 NA
BRANCH   8  12
ATOM     12  C   UNL A   1      34.027  25.505  24.317  1.00  0.00     0.058 C 
BRANCH  12  13
ATOM     13  C   UNL A   1      33.959  26.055  25.749  1.00  0.00     0.003 C 
ATOM     14  C   UNL A   1      33.732  27.554  25.920  1.00  0.00     0.004 C 
ENDBRANCH  12  13
ENDBRANCH   8  12
BRANCH   9  15
ATOM     15  C   UNL A   1      31.545  23.638  24.607  1.00  0.00     0.135 C 
ATOM     16  C   UNL A   1      30.741  23.338  23.329  1.00  0.00     0.036 C 
BRANCH  15  17
ATOM     17  C   UNL A   1      30.811  23.047  25.849  1.00  0.00     0.135 C 
ATOM     18  C   UNL A   1      31.400  23.491  27.190  1.00  0.00     0.040 C 
BRANCH  17  19
ATOM     19  O   UNL A   1      30.668  21.629  25.862  1.00  0.00    -0.391 OA
ATOM     20  H   UNL A   1      30.782  21.284  24.963  1.00  0.00     0.211 HD
ENDBRANCH  17  19
ENDBRANCH  15  17
ENDBRANCH   9  15
ENDBRANCH   4   7
ENDBRANCH   2   3
ENDBRANCH   1   2
BRANCH   1  21
ATOM     21  C   UNL A   1      39.761  21.477  26.066  1.00  0.00     0.023 C 
BRANCH  21  22
ATOM     22  C   UNL A   1      41.158  21.249  26.628  1.00  0.00     0.116 C 
BRANCH  22  23
ATOM     23  N   UNL A   1      42.231  21.742  25.742  1.00  0.00    -0.352 N 
ATOM     24  C   UNL A   1      42.677  23.047  25.528  1.00  0.00     0.251 C 
ATOM     25  H   UNL A   1      42.699  21.049  25.224  1.00  0.00     0.163 HD
ATOM     26  O   UNL A   1      43.322  23.349  24.547  1.00  0.00    -0.269 OA
BRANCH  24  27
ATOM     27  C   UNL A   1      42.371  24.037  26.575  1.00  0.00     0.039 A 
ATOM     28  C   UNL A   1      42.940  24.035  27.852  1.00  0.00     0.014 A 
ATOM     29  C   UNL A   1      41.583  25.088  26.141  1.00  0.00     0.014 A 
ATOM     30  C   UNL A   1      42.764  25.166  28.648  1.00  0.00     0.010 A 
ATOM     31  C   UNL A   1      41.740  26.284  26.757  1.00  0.00     0.010 A 
ATOM     32  C   UNL A   1      42.173  26.296  28.068  1.00  0.00    -0.014 A 
BRANCH  32  33
ATOM     33  C   UNL A   1      42.011  27.575  28.727  1.00  0.00     0.031 A 
ATOM     34  C   UNL A   1      43.057  28.567  28.405  1.00  0.00     0.074 A 
ATOM     35  C   UNL A   1      40.843  27.909  29.320  1.00  0.00     0.049 A 
ATOM     36  N   UNL A   1      44.071  28.881  29.136  1.00  0.00    -0.248 NA
ATOM     37  C   UNL A   1      43.116  29.118  27.042  1.00  0.00     0.031 C 
ATOM     38  C   UNL A   1      39.582  27.155  29.401  1.00  0.00     0.029 A 
ATOM     39  N   UNL A   1      40.517  29.082  29.913  1.00  0.00    -0.354 N 
ATOM     40  C   UNL A   1      44.745  29.874  28.438  1.00  0.00     0.074 A 
ATOM     41  C   UNL A   1      44.278  29.778  27.080  1.00  0.00     0.031 C 
ATOM     42  C   UNL A   1      38.586  27.970  29.813  1.00  0.00     0.029 A 
ATOM     43  C   UNL A   1      39.163  29.244  30.188  1.00  0.00     0.049 A 
ATOM     44  H   UNL A   1      41.189  29.768  30.132  1.00  0.00     0.167 HD
ATOM     45  C   UNL A   1      45.427  30.853  29.098  1.00  0.00     0.037 A 
ATOM     46  C   UNL A   1      38.586  30.374  30.669  1.00  0.00     0.037 A 
ATOM     47  C   UNL A   1      45.494  30.551  30.512  1.00  0.00     0.049 A 
ATOM     48  C   UNL A   1      39.685  31.147  31.327  1.00  0.00     0.074 A 
ATOM     49  C   UNL A   1      46.012  29.503  31.249  1.00  0.00     0.029 A 
ATOM     50  N   UNL A   1      44.577  31.171  31.335  1.00  0.00    -0.354 N 
ATOM     51  N   UNL A   1      40.330  30.715  32.384  1.00  0.00    -0.248 NA
ATOM     52  C   UNL A   1      40.416  32.112  30.516  1.00  0.00     0.031 C 
ATOM     53  C   UNL A   1      45.037  29.247  32.260  1.00  0.00     0.029 A 
ATOM     54  C   UNL A   1      44.031  30.210  32.153  1.00  0.00     0.049 A 
ATOM     55  H   UNL A   1      44.353  32.129  31.336  1.00  0.00     0.167 HD
ATOM     56  C   UNL A   1      41.667  31.014  32.145  1.00  0.00     0.074 A 
ATOM     57  C   UNL A   1      41.646  31.938  31.009  1.00  0.00     0.031 C 
ATOM     58  C   UNL A   1      42.676  30.255  32.674  1.00  0.00     0.037 A 
BRANCH  45  59
ATOM     59  C   UNL A   1      45.725  32.237  28.571  1.00  0.00     0.058 A 
ATOM     60  C   UNL A   1      47.070  32.664  28.510  1.00  0.00     0.135 A 
ATOM     61  C   UNL A   1      44.762  33.245  28.354  1.00  0.00     0.135 A 
ATOM     62  F   UNL A   1      48.075  31.790  28.683  1.00  0.00    -0.206 F 
ATOM     63  C   UNL A   1      47.425  34.001  28.339  1.00  0.00     0.059 A 
ATOM     64  C   UNL A   1      45.095  34.576  28.127  1.00  0.00     0.059 A 
ATOM     65  F   UNL A   1      43.447  33.017  28.445  1.00  0.00    -0.206 F 
ATOM     66  C   UNL A   1      46.427  34.953  28.166  1.00  0.00     0.060 A 
BRANCH  66  67
ATOM     67  S   UNL A   1      46.877  36.691  28.056  1.00  0.00     0.124 S 
ATOM     68  O   UNL A   1      47.960  36.648  27.080  1.00  0.00    -0.237 OA
ATOM     69  O   UNL A   1      45.630  37.298  27.601  1.00  0.00    -0.237 OA
ATOM     70  O   UNL A   1      47.269  37.025  29.422  1.00  0.00    -0.744 OA
ENDBRANCH  66  67
ENDBRANCH  45  59
BRANCH  46  71
ATOM     71  C   UNL A   1      37.296  30.977  30.226  1.00  0.00     0.058 A 
ATOM     72  C   UNL A   1      36.403  31.542  31.154  1.00  0.00     0.135 A 
ATOM     73  C   UNL A   1      37.035  31.264  28.868  1.00  0.00     0.135 A 
ATOM     74  F   UNL A   1      36.570  31.327  32.467  1.00  0.00    -0.206 F 
ATOM     75  C   UNL A   1      35.365  32.401  30.766  1.00  0.00     0.059 A 
ATOM     76  C   UNL A   1      36.003  32.106  28.458  1.00  0.00     0.059 A 
ATOM     77  F   UNL A   1      37.836  30.809  27.894  1.00  0.00    -0.206 F 
ATOM     78  C   UNL A   1      35.192  32.701  29.415  1.00  0.00     0.060 A 
BRANCH  78  79
ATOM     79  S   UNL A   1      34.010  33.981  28.926  1.00  0.00     0.124 S 
ATOM     80  O   UNL A   1      33.169  33.266  27.972  1.00  0.00    -0.237 OA
ATOM     81  O   UNL A   1      33.383  34.322  30.199  1.00  0.00    -0.237 OA
ATOM     82  O   UNL A   1      34.858  35.023  28.355  1.00  0.00    -0.744 OA
ENDBRANCH  78  79
ENDBRANCH  46  71
BRANCH  58  83
ATOM     83  C   UNL A   1      42.332  29.222  33.726  1.00  0.00     0.058 A 
ATOM     84  C   UNL A   1      42.097  27.859  33.463  1.00  0.00     0.135 A 
ATOM     85  C   UNL A   1      42.423  29.592  35.076  1.00  0.00     0.135 A 
ATOM     86  F   UNL A   1      42.101  27.389  32.211  1.00  0.00    -0.206 F 
ATOM     87  C   UNL A   1      41.924  26.920  34.483  1.00  0.00     0.059 A 
ATOM     88  C   UNL A   1      42.284  28.668  36.112  1.00  0.00     0.059 A 
ATOM     89  F   UNL A   1      42.712  30.861  35.405  1.00  0.00    -0.206 F 
ATOM     90  C   UNL A   1      42.020  27.335  35.808  1.00  0.00     0.060 A 
BRANCH  90  91
ATOM     91  S   UNL A   1      41.861  26.112  37.127  1.00  0.00     0.124 S 
ATOM     92  O   UNL A   1      40.473  26.288  37.542  1.00  0.00    -0.237 OA
ATOM     93  O   UNL A   1      42.161  24.859  36.437  1.00  0.00    -0.237 OA
ATOM     94  O   UNL A   1      42.862  26.531  38.104  1.00  0.00    -0.744 OA
ENDBRANCH  90  91
ENDBRANCH  58  83
ENDBRANCH  32  33
ENDBRANCH  24  27
ENDBRANCH  22  23
ENDBRANCH  21  22
ENDBRANCH   1  21
TORSDOF 19
ENDMDL
MODEL 2
REMARK VINA RESULT:     -10.6      2.207      3.457
REMARK SMILES CCCc1c(C(=O)NCCCCNC(=O)c2ccc(-c3c4nc(c(-c5c(F)cc(S(=O)(=O)[O-])cc5F)c5ccc([nH]5)c(-c5c(F)cc(S(=O)(=O)[O-])cc5F)c5nc(c(-c6c(F)cc(S(=O)(=O)[O-])cc6F)c6ccc3[nH]6)C=C5)C=C4)cc2)nnn1[C@@H](C)[C@H](C)O
REMARK SMILES IDX 10 1 9 2 8 3 6 4 7 5 5 7 4 8 84 9 82 10 83 11 3 12 2 13 1 14
REMARK SMILES IDX 85 15 86 16 87 17 88 18 89 19 11 21 12 22 13 23 14 24 15 26
REMARK SMILES IDX 16 27 17 28 81 29 18 30 80 31 19 32 20 33 21 34 74 35 22 36
REMARK SMILES IDX 79 37 73 38 75 39 23 40 78 41 72 42 71 43 24 45 58 46 37 47
REMARK SMILES IDX 57 48 38 49 41 50 56 51 76 52 39 53 40 54 55 56 77 57 42 58
REMARK SMILES IDX 25 59 26 60 35 61 27 62 28 63 34 64 36 65 29 66 30 67 31 68
REMARK SMILES IDX 32 69 33 70 59 71 60 72 69 73 61 74 62 75 68 76 70 77 63 78
REMARK SMILES IDX 64 79 65 80 66 81 67 82 43 83 44 84 53 85 45 86 46 87 52 88
REMARK SMILES IDX 54 89 47 90 48 91 49 92 50 93 51 94
REMARK H PARENT 8 6 89 20 13 25 75 44 41 55
REMARK Flexibility Score: inf
ROOT
ATOM      1  C   UNL A   1      35.225  22.998  26.493  1.00  0.00     0.023 C 
ENDROOT
BRANCH   1   2
ATOM      2  C   UNL A   1      33.995  23.718  25.917  1.00  0.00     0.116 C 
BRANCH   2   3
ATOM      3  N   UNL A   1      32.798  23.523  26.707  1.00  0.00    -0.351 N 
ATOM      4  C   UNL A   1      31.521  24.037  26.692  1.00  0.00     0.273 C 
ATOM      5  O   UNL A   1      30.742  23.441  27.446  1.00  0.00    -0.267 OA
ATOM      6  H   UNL A   1      32.929  22.865  27.428  1.00  0.00     0.163 HD
BRANCH   4   7
ATOM      7  C   UNL A   1      31.040  25.187  25.904  1.00  0.00     0.173 A 
ATOM      8  C   UNL A   1      30.739  25.430  24.559  1.00  0.00     0.072 A 
ATOM      9  N   UNL A   1      30.405  26.771  24.525  1.00  0.00    -0.243 N 
ATOM     10  N   UNL A   1      31.001  26.412  26.553  1.00  0.00    -0.125 NA
ATOM     11  N   UNL A   1      30.660  27.356  25.701  1.00  0.00    -0.066 NA
BRANCH   8  12
ATOM     12  C   UNL A   1      30.791  24.606  23.331  1.00  0.00     0.058 C 
BRANCH  12  13
ATOM     13  C   UNL A   1      32.164  24.575  22.643  1.00  0.00     0.003 C 
ATOM     14  C   UNL A   1      32.542  25.764  21.766  1.00  0.00     0.004 C 
ENDBRANCH  12  13
ENDBRANCH   8  12
BRANCH   9  15
ATOM     15  C   UNL A   1      29.850  27.578  23.445  1.00  0.00     0.135 C 
ATOM     16  C   UNL A   1      28.311  27.594  23.484  1.00  0.00     0.036 C 
BRANCH  15  17
ATOM     17  C   UNL A   1      30.397  29.034  23.347  1.00  0.00     0.135 C 
ATOM     18  C   UNL A   1      30.225  29.673  21.967  1.00  0.00     0.040 C 
BRANCH  17  19
ATOM     19  O   UNL A   1      31.749  29.213  23.765  1.00  0.00    -0.391 OA
ATOM     20  H   UNL A   1      31.767  29.723  24.590  1.00  0.00     0.211 HD
ENDBRANCH  17  19
ENDBRANCH  15  17
ENDBRANCH   9  15
ENDBRANCH   4   7
ENDBRANCH   2   3
ENDBRANCH   1   2
BRANCH   1  21
ATOM     21  C   UNL A   1      36.283  22.448  25.530  1.00  0.00     0.023 C 
BRANCH  21  22
ATOM     22  C   UNL A   1      37.673  23.051  25.685  1.00  0.00     0.116 C 
BRANCH  22  23
ATOM     23  N   UNL A   1      38.561  22.251  26.551  1.00  0.00    -0.352 N 
ATOM     24  C   UNL A   1      39.744  22.619  27.193  1.00  0.00     0.251 C 
ATOM     25  H   UNL A   1      38.278  21.319  26.696  1.00  0.00     0.163 HD
ATOM     26  O   UNL A   1      40.538  21.793  27.591  1.00  0.00    -0.269 OA
BRANCH  24  27
ATOM     27  C   UNL A   1      39.965  24.059  27.412  1.00  0.00     0.039 A 
ATOM     28  C   UNL A   1      38.941  25.005  27.521  1.00  0.00     0.014 A 
ATOM     29  C   UNL A   1      41.282  24.392  27.667  1.00  0.00     0.014 A 
ATOM     30  C   UNL A   1      39.275  26.278  27.983  1.00  0.00     0.010 A 
ATOM     31  C   UNL A   1      41.515  25.475  28.446  1.00  0.00     0.010 A 
ATOM     32  C   UNL A   1      40.574  26.487  28.462  1.00  0.00    -0.014 A 
BRANCH  32  33
ATOM     33  C   UNL A   1      41.046  27.716  29.065  1.00  0.00     0.031 A 
ATOM     34  C   UNL A   1      42.141  28.379  28.327  1.00  0.00     0.074 A 
ATOM     35  C   UNL A   1      40.330  28.339  30.028  1.00  0.00     0.049 A 
ATOM     36  N   UNL A   1      43.397  28.340  28.616  1.00  0.00    -0.248 NA
ATOM     37  C   UNL A   1      41.853  28.970  27.011  1.00  0.00     0.031 C 
ATOM     38  C   UNL A   1      39.026  27.980  30.608  1.00  0.00     0.029 A 
ATOM     39  N   UNL A   1      40.602  29.517  30.635  1.00  0.00    -0.354 N 
ATOM     40  C   UNL A   1      44.025  29.135  27.666  1.00  0.00     0.074 A 
ATOM     41  C   UNL A   1      43.085  29.260  26.583  1.00  0.00     0.031 C 
ATOM     42  C   UNL A   1      38.535  29.023  31.314  1.00  0.00     0.029 A 
ATOM     43  C   UNL A   1      39.555  30.049  31.381  1.00  0.00     0.049 A 
ATOM     44  H   UNL A   1      41.476  29.964  30.554  1.00  0.00     0.167 HD
ATOM     45  C   UNL A   1      45.156  29.832  27.974  1.00  0.00     0.037 A 
ATOM     46  C   UNL A   1      39.552  31.267  31.979  1.00  0.00     0.037 A 
ATOM     47  C   UNL A   1      45.646  29.438  29.279  1.00  0.00     0.049 A 
ATOM     48  C   UNL A   1      40.990  31.646  32.144  1.00  0.00     0.074 A 
ATOM     49  C   UNL A   1      46.069  28.243  29.828  1.00  0.00     0.029 A 
ATOM     50  N   UNL A   1      45.320  30.247  30.347  1.00  0.00    -0.354 N 
ATOM     51  N   UNL A   1      41.821  30.983  32.910  1.00  0.00    -0.248 NA
ATOM     52  C   UNL A   1      41.618  32.404  31.069  1.00  0.00     0.031 C 
ATOM     53  C   UNL A   1      45.504  28.221  31.139  1.00  0.00     0.029 A 
ATOM     54  C   UNL A   1      44.858  29.439  31.358  1.00  0.00     0.049 A 
ATOM     55  H   UNL A   1      45.402  31.227  30.379  1.00  0.00     0.167 HD
ATOM     56  C   UNL A   1      43.002  30.894  32.179  1.00  0.00     0.074 A 
ATOM     57  C   UNL A   1      42.836  31.851  31.083  1.00  0.00     0.031 C 
ATOM     58  C   UNL A   1      43.866  29.844  32.339  1.00  0.00     0.037 A 
BRANCH  45  59
ATOM     59  C   UNL A   1      45.629  31.098  27.301  1.00  0.00     0.058 A 
ATOM     60  C   UNL A   1      46.964  31.166  26.847  1.00  0.00     0.135 A 
ATOM     61  C   UNL A   1      44.927  32.323  27.296  1.00  0.00     0.135 A 
ATOM     62  F   UNL A   1      47.726  30.061  26.791  1.00  0.00    -0.206 F 
ATOM     63  C   UNL A   1      47.579  32.369  26.502  1.00  0.00     0.059 A 
ATOM     64  C   UNL A   1      45.504  33.526  26.903  1.00  0.00     0.059 A 
ATOM     65  F   UNL A   1      43.677  32.438  27.758  1.00  0.00    -0.206 F 
ATOM     66  C   UNL A   1      46.843  33.547  26.552  1.00  0.00     0.060 A 
BRANCH  66  67
ATOM     67  S   UNL A   1      47.663  35.113  26.215  1.00  0.00     0.124 S 
ATOM     68  O   UNL A   1      48.477  35.277  27.414  1.00  0.00    -0.237 OA
ATOM     69  O   UNL A   1      48.388  34.815  24.985  1.00  0.00    -0.237 OA
ATOM     70  O   UNL A   1      46.552  36.050  26.071  1.00  0.00    -0.744 OA
ENDBRANCH  66  67
ENDBRANCH  45  59
BRANCH  46  71
ATOM     71  C   UNL A   1      38.426  32.244  32.011  1.00  0.00     0.058 A 
ATOM     72  C   UNL A   1      37.936  32.826  30.828  1.00  0.00     0.135 A 
ATOM     73  C   UNL A   1      37.623  32.418  33.160  1.00  0.00     0.135 A 
ATOM     74  F   UNL A   1      38.629  32.713  29.685  1.00  0.00    -0.206 F 
ATOM     75  C   UNL A   1      36.692  33.470  30.770  1.00  0.00     0.059 A 
ATOM     76  C   UNL A   1      36.388  33.064  33.129  1.00  0.00     0.059 A 
ATOM     77  F   UNL A   1      37.968  31.880  34.339  1.00  0.00    -0.206 F 
ATOM     78  C   UNL A   1      35.911  33.557  31.922  1.00  0.00     0.060 A 
BRANCH  78  79
ATOM     79  S   UNL A   1      34.215  34.178  31.809  1.00  0.00     0.124 S 
ATOM     80  O   UNL A   1      34.395  35.599  32.083  1.00  0.00    -0.237 OA
ATOM     81  O   UNL A   1      33.853  33.834  30.438  1.00  0.00    -0.237 OA
ATOM     82  O   UNL A   1      33.510  33.424  32.841  1.00  0.00    -0.744 OA
ENDBRANCH  78  79
ENDBRANCH  46  71
BRANCH  58  83
ATOM     83  C   UNL A   1      43.647  28.895  33.498  1.00  0.00     0.058 A 
ATOM     84  C   UNL A   1      44.057  29.141  34.822  1.00  0.00     0.135 A 
ATOM     85  C   UNL A   1      42.827  27.776  33.295  1.00  0.00     0.135 A 
ATOM     86  F   UNL A   1      44.750  30.241  35.135  1.00  0.00    -0.206 F 
ATOM     87  C   UNL A   1      43.706  28.300  35.881  1.00  0.00     0.059 A 
ATOM     88  C   UNL A   1      42.438  26.938  34.340  1.00  0.00     0.059 A 
ATOM     89  F   UNL A   1      42.340  27.515  32.071  1.00  0.00    -0.206 F 
ATOM     90  C   UNL A   1      42.893  27.198  35.630  1.00  0.00     0.060 A 
BRANCH  90  91
ATOM     91  S   UNL A   1      42.385  26.147  37.008  1.00  0.00     0.124 S 
ATOM     92  O   UNL A   1      43.187  26.675  38.107  1.00  0.00    -0.237 OA
ATOM     93  O   UNL A   1      40.950  26.403  37.092  1.00  0.00    -0.237 OA
ATOM     94  O   UNL A   1      42.745  24.803  36.563  1.00  0.00    -0.744 OA
ENDBRANCH  90  91
ENDBRANCH  58  83
ENDBRANCH  32  33
ENDBRANCH  24  27
ENDBRANCH  22  23
ENDBRANCH  21  22
ENDBRANCH   1  21
TORSDOF 19
ENDMDL
MODEL 3
REMARK VINA RESULT:     -10.5      2.819      9.149
REMARK SMILES CCCc1c(C(=O)NCCCCNC(=O)c2ccc(-c3c4nc(c(-c5c(F)cc(S(=O)(=O)[O-])cc5F)c5ccc([nH]5)c(-c5c(F)cc(S(=O)(=O)[O-])cc5F)c5nc(c(-c6c(F)cc(S(=O)(=O)[O-])cc6F)c6ccc3[nH]6)C=C5)C=C4)cc2)nnn1[C@@H](C)[C@H](C)O
REMARK SMILES IDX 10 1 9 2 8 3 6 4 7 5 5 7 4 8 84 9 82 10 83 11 3 12 2 13 1 14
REMARK SMILES IDX 85 15 86 16 87 17 88 18 89 19 11 21 12 22 13 23 14 24 15 26
REMARK SMILES IDX 16 27 17 28 81 29 18 30 80 31 19 32 20 33 21 34 74 35 22 36
REMARK SMILES IDX 79 37 73 38 75 39 23 40 78 41 72 42 71 43 24 45 58 46 37 47
REMARK SMILES IDX 57 48 38 49 41 50 56 51 76 52 39 53 40 54 55 56 77 57 42 58
REMARK SMILES IDX 25 59 26 60 35 61 27 62 28 63 34 64 36 65 29 66 30 67 31 68
REMARK SMILES IDX 32 69 33 70 59 71 60 72 69 73 61 74 62 75 68 76 70 77 63 78
REMARK SMILES IDX 64 79 65 80 66 81 67 82 43 83 44 84 53 85 45 86 46 87 52 88
REMARK SMILES IDX 54 89 47 90 48 91 49 92 50 93 51 94
REMARK H PARENT 8 6 89 20 13 25 75 44 41 55
REMARK Flexibility Score: inf
ROOT
ATOM      1  C   UNL A   1      33.027  29.374  24.860  1.00  0.00     0.023 C 
ENDROOT
BRANCH   1   2
ATOM      2  C   UNL A   1      32.201  28.789  23.702  1.00  0.00     0.116 C 
BRANCH   2   3
ATOM      3  N   UNL A   1      32.993  28.005  22.778  1.00  0.00    -0.351 N 
ATOM      4  C   UNL A   1      33.142  26.662  22.513  1.00  0.00     0.273 C 
ATOM      5  O   UNL A   1      33.797  26.433  21.489  1.00  0.00    -0.267 OA
ATOM      6  H   UNL A   1      33.559  28.566  22.201  1.00  0.00     0.163 HD
BRANCH   4   7
ATOM      7  C   UNL A   1      32.625  25.539  23.318  1.00  0.00     0.173 A 
ATOM      8  C   UNL A   1      33.183  24.522  24.100  1.00  0.00     0.072 A 
ATOM      9  N   UNL A   1      32.094  23.774  24.507  1.00  0.00    -0.243 N 
ATOM     10  N   UNL A   1      31.273  25.258  23.195  1.00  0.00    -0.125 NA
ATOM     11  N   UNL A   1      30.981  24.172  23.881  1.00  0.00    -0.066 NA
BRANCH   8  12
ATOM     12  C   UNL A   1      34.569  24.136  24.445  1.00  0.00     0.058 C 
BRANCH  12  13
ATOM     13  C   UNL A   1      35.312  23.374  23.338  1.00  0.00     0.003 C 
ATOM     14  C   UNL A   1      36.724  22.882  23.642  1.00  0.00     0.004 C 
ENDBRANCH  12  13
ENDBRANCH   8  12
BRANCH   9  15
ATOM     15  C   UNL A   1      32.007  22.678  25.465  1.00  0.00     0.135 C 
ATOM     16  C   UNL A   1      30.602  22.581  26.088  1.00  0.00     0.036 C 
BRANCH  15  17
ATOM     17  C   UNL A   1      32.450  21.283  24.930  1.00  0.00     0.135 C 
ATOM     18  C   UNL A   1      32.353  21.139  23.409  1.00  0.00     0.040 C 
BRANCH  17  19
ATOM     19  O   UNL A   1      31.812  20.161  25.535  1.00  0.00    -0.391 OA
ATOM     20  H   UNL A   1      32.468  19.465  25.700  1.00  0.00     0.211 HD
ENDBRANCH  17  19
ENDBRANCH  15  17
ENDBRANCH   9  15
ENDBRANCH   4   7
ENDBRANCH   2   3
ENDBRANCH   1   2
BRANCH   1  21
ATOM     21  C   UNL A   1      33.549  28.432  25.951  1.00  0.00     0.023 C 
BRANCH  21  22
ATOM     22  C   UNL A   1      34.648  29.012  26.832  1.00  0.00     0.116 C 
BRANCH  22  23
ATOM     23  N   UNL A   1      34.465  30.448  27.122  1.00  0.00    -0.352 N 
ATOM     24  C   UNL A   1      34.998  31.220  28.154  1.00  0.00     0.251 C 
ATOM     25  H   UNL A   1      33.880  30.931  26.496  1.00  0.00     0.163 HD
ATOM     26  O   UNL A   1      34.514  32.286  28.470  1.00  0.00    -0.269 OA
BRANCH  24  27
ATOM     27  C   UNL A   1      36.211  30.706  28.816  1.00  0.00     0.039 A 
ATOM     28  C   UNL A   1      36.227  29.618  29.693  1.00  0.00     0.014 A 
ATOM     29  C   UNL A   1      37.383  31.289  28.371  1.00  0.00     0.014 A 
ATOM     30  C   UNL A   1      37.465  29.078  30.041  1.00  0.00     0.010 A 
ATOM     31  C   UNL A   1      38.511  30.541  28.415  1.00  0.00     0.010 A 
ATOM     32  C   UNL A   1      38.602  29.546  29.369  1.00  0.00    -0.014 A 
BRANCH  32  33
ATOM     33  C   UNL A   1      39.940  29.021  29.542  1.00  0.00     0.031 A 
ATOM     34  C   UNL A   1      40.302  28.714  30.941  1.00  0.00     0.074 A 
ATOM     35  C   UNL A   1      40.651  28.568  28.484  1.00  0.00     0.049 A 
ATOM     36  N   UNL A   1      41.024  29.439  31.725  1.00  0.00    -0.248 NA
ATOM     37  C   UNL A   1      39.626  27.598  31.619  1.00  0.00     0.031 C 
ATOM     38  C   UNL A   1      40.268  28.474  27.067  1.00  0.00     0.029 A 
ATOM     39  N   UNL A   1      41.876  27.992  28.492  1.00  0.00    -0.354 N 
ATOM     40  C   UNL A   1      41.115  28.729  32.915  1.00  0.00     0.074 A 
ATOM     41  C   UNL A   1      40.041  27.772  32.878  1.00  0.00     0.031 C 
ATOM     42  C   UNL A   1      41.149  27.691  26.405  1.00  0.00     0.029 A 
ATOM     43  C   UNL A   1      42.241  27.373  27.301  1.00  0.00     0.049 A 
ATOM     44  H   UNL A   1      42.464  28.010  29.282  1.00  0.00     0.167 HD
ATOM     45  C   UNL A   1      42.227  28.818  33.699  1.00  0.00     0.037 A 
ATOM     46  C   UNL A   1      43.364  26.634  27.108  1.00  0.00     0.037 A 
ATOM     47  C   UNL A   1      43.100  29.866  33.212  1.00  0.00     0.049 A 
ATOM     48  C   UNL A   1      44.324  27.064  28.171  1.00  0.00     0.074 A 
ATOM     49  C   UNL A   1      42.957  31.227  33.022  1.00  0.00     0.029 A 
ATOM     50  N   UNL A   1      44.162  29.486  32.418  1.00  0.00    -0.354 N 
ATOM     51  N   UNL A   1      44.820  28.275  28.241  1.00  0.00    -0.248 NA
ATOM     52  C   UNL A   1      44.310  26.334  29.432  1.00  0.00     0.031 C 
ATOM     53  C   UNL A   1      43.593  31.493  31.772  1.00  0.00     0.029 A 
ATOM     54  C   UNL A   1      44.177  30.308  31.317  1.00  0.00     0.049 A 
ATOM     55  H   UNL A   1      44.795  28.757  32.606  1.00  0.00     0.167 HD
ATOM     56  C   UNL A   1      44.783  28.609  29.591  1.00  0.00     0.074 A 
ATOM     57  C   UNL A   1      44.524  27.344  30.282  1.00  0.00     0.031 C 
ATOM     58  C   UNL A   1      44.652  29.908  30.004  1.00  0.00     0.037 A 
BRANCH  45  59
ATOM     59  C   UNL A   1      42.717  27.767  34.667  1.00  0.00     0.058 A 
ATOM     60  C   UNL A   1      42.800  28.095  36.038  1.00  0.00     0.135 A 
ATOM     61  C   UNL A   1      43.334  26.552  34.298  1.00  0.00     0.135 A 
ATOM     62  F   UNL A   1      42.236  29.219  36.509  1.00  0.00    -0.206 F 
ATOM     63  C   UNL A   1      43.517  27.323  36.951  1.00  0.00     0.059 A 
ATOM     64  C   UNL A   1      44.007  25.739  35.204  1.00  0.00     0.059 A 
ATOM     65  F   UNL A   1      43.401  26.134  33.030  1.00  0.00    -0.206 F 
ATOM     66  C   UNL A   1      44.133  26.155  36.518  1.00  0.00     0.060 A 
BRANCH  66  67
ATOM     67  S   UNL A   1      45.149  25.216  37.669  1.00  0.00     0.124 S 
ATOM     68  O   UNL A   1      44.941  23.853  37.193  1.00  0.00    -0.237 OA
ATOM     69  O   UNL A   1      46.473  25.782  37.433  1.00  0.00    -0.237 OA
ATOM     70  O   UNL A   1      44.561  25.529  38.968  1.00  0.00    -0.744 OA
ENDBRANCH  66  67
ENDBRANCH  45  59
BRANCH  46  71
ATOM     71  C   UNL A   1      43.468  25.347  26.363  1.00  0.00     0.058 A 
ATOM     72  C   UNL A   1      44.470  25.148  25.396  1.00  0.00     0.135 A 
ATOM     73  C   UNL A   1      42.772  24.189  26.774  1.00  0.00     0.135 A 
ATOM     74  F   UNL A   1      45.187  26.188  24.944  1.00  0.00    -0.206 F 
ATOM     75  C   UNL A   1      44.814  23.872  24.926  1.00  0.00     0.059 A 
ATOM     76  C   UNL A   1      43.088  22.912  26.312  1.00  0.00     0.059 A 
ATOM     77  F   UNL A   1      41.818  24.248  27.715  1.00  0.00    -0.206 F 
ATOM     78  C   UNL A   1      44.135  22.756  25.414  1.00  0.00     0.060 A 
BRANCH  78  79
ATOM     79  S   UNL A   1      44.720  21.097  24.991  1.00  0.00     0.124 S 
ATOM     80  O   UNL A   1      46.093  21.127  25.483  1.00  0.00    -0.237 OA
ATOM     81  O   UNL A   1      43.795  20.247  25.733  1.00  0.00    -0.237 OA
ATOM     82  O   UNL A   1      44.576  21.048  23.539  1.00  0.00    -0.744 OA
ENDBRANCH  78  79
ENDBRANCH  46  71
BRANCH  58  83
ATOM     83  C   UNL A   1      44.790  31.013  28.978  1.00  0.00     0.058 A 
ATOM     84  C   UNL A   1      46.016  31.487  28.474  1.00  0.00     0.135 A 
ATOM     85  C   UNL A   1      43.630  31.482  28.347  1.00  0.00     0.135 A 
ATOM     86  F   UNL A   1      47.179  31.017  28.936  1.00  0.00    -0.206 F 
ATOM     87  C   UNL A   1      46.086  32.407  27.425  1.00  0.00     0.059 A 
ATOM     88  C   UNL A   1      43.674  32.378  27.278  1.00  0.00     0.059 A 
ATOM     89  F   UNL A   1      42.427  31.023  28.727  1.00  0.00    -0.206 F 
ATOM     90  C   UNL A   1      44.906  32.848  26.831  1.00  0.00     0.060 A 
BRANCH  90  91
ATOM     91  S   UNL A   1      44.997  33.987  25.434  1.00  0.00     0.124 S 
ATOM     92  O   UNL A   1      44.415  33.196  24.355  1.00  0.00    -0.237 OA
ATOM     93  O   UNL A   1      44.196  35.119  25.893  1.00  0.00    -0.237 OA
ATOM     94  O   UNL A   1      46.428  34.258  25.307  1.00  0.00    -0.744 OA
ENDBRANCH  90  91
ENDBRANCH  58  83
ENDBRANCH  32  33
ENDBRANCH  24  27
ENDBRANCH  22  23
ENDBRANCH  21  22
ENDBRANCH   1  21
TORSDOF 19
ENDMDL
