MODEL 1
REMARK VINA RESULT:     -11.1      0.000      0.000
REMARK SMILES CC[C@@H](C)S(=O)(=O)c1cc(C(=O)NCCCCNC(=O)c2ccc(-c3c4nc(c(-c5c(F)cc(S(=O)(=O)[O-])cc5F)c5ccc([nH]5)c(-c5c(F)cc(S(=O)(=O)[O-])cc5F)c5nc(c(-c6c(F)cc(S(=O)(=O)[O-])cc6F)c6ccc3[nH]6)C=C5)C=C4)cc2)c(C)cc1C
REMARK SMILES IDX 15 1 14 2 13 3 11 4 12 5 10 7 8 8 9 9 90 10 89 11 91 12
REMARK SMILES IDX 87 13 88 14 5 15 6 16 7 17 3 18 4 19 2 20 1 21 16 22 17 23
REMARK SMILES IDX 18 24 19 25 20 27 21 28 22 29 86 30 23 31 85 32 24 33 25 34
REMARK SMILES IDX 26 35 79 36 27 37 84 38 78 39 80 40 28 41 83 42 77 43 76 44
REMARK SMILES IDX 29 46 63 47 42 48 62 49 43 50 46 51 61 52 81 53 44 54 45 55
REMARK SMILES IDX 60 57 82 58 47 59 30 60 31 61 40 62 32 63 33 64 39 65 41 66
REMARK SMILES IDX 34 67 35 68 36 69 37 70 38 71 64 72 65 73 74 74 66 75 67 76
REMARK SMILES IDX 73 77 75 78 68 79 69 80 70 81 71 82 72 83 48 84 49 85 58 86
REMARK SMILES IDX 50 87 51 88 57 89 59 90 52 91 53 92 54 93 55 94 56 95
REMARK H PARENT 13 6 18 26 80 45 46 56
REMARK Flexibility Score: inf
ROOT
ATOM      1  C   UNL A   1      33.803  28.416  24.412  1.00  0.00     0.023 C 
ENDROOT
BRANCH   1   2
ATOM      2  C   UNL A   1      33.038  28.900  23.177  1.00  0.00     0.116 C 
BRANCH   2   3
ATOM      3  N   UNL A   1      33.226  27.952  22.106  1.00  0.00    -0.352 N 
ATOM      4  C   UNL A   1      33.093  26.598  22.002  1.00  0.00     0.251 C 
ATOM      5  O   UNL A   1      33.491  26.113  20.935  1.00  0.00    -0.269 OA
ATOM      6  H   UNL A   1      33.513  28.376  21.265  1.00  0.00     0.163 HD
BRANCH   4   7
ATOM      7  C   UNL A   1      32.433  25.664  22.979  1.00  0.00     0.044 A 
ATOM      8  C   UNL A   1      33.047  23.789  24.480  1.00  0.00     0.071 A 
ATOM      9  C   UNL A   1      33.340  24.675  23.440  1.00  0.00     0.034 A 
ATOM     10  C   UNL A   1      31.762  23.792  25.034  1.00  0.00    -0.032 A 
ATOM     11  C   UNL A   1      30.836  24.726  24.546  1.00  0.00     0.009 A 
ATOM     12  C   UNL A   1      31.283  22.854  26.108  1.00  0.00     0.046 C 
ATOM     13  C   UNL A   1      31.169  25.711  23.587  1.00  0.00    -0.038 A 
ATOM     14  C   UNL A   1      30.125  26.766  23.404  1.00  0.00     0.045 C 
BRANCH   8  15
ATOM     15  S   UNL A   1      34.305  22.732  25.181  1.00  0.00     0.181 S 
ATOM     16  O   UNL A   1      34.035  21.405  24.655  1.00  0.00    -0.223 OA
ATOM     17  O   UNL A   1      34.247  22.962  26.615  1.00  0.00    -0.223 OA
BRANCH  15  18
ATOM     18  C   UNL A   1      35.959  23.173  24.657  1.00  0.00     0.110 C 
ATOM     19  C   UNL A   1      36.270  22.795  23.208  1.00  0.00     0.025 C 
BRANCH  18  20
ATOM     20  C   UNL A   1      37.029  22.791  25.691  1.00  0.00     0.016 C 
ATOM     21  C   UNL A   1      37.840  23.974  26.198  1.00  0.00     0.005 C 
ENDBRANCH  18  20
ENDBRANCH  15  18
ENDBRANCH   8  15
ENDBRANCH   4   7
ENDBRANCH   2   3
ENDBRANCH   1   2
BRANCH   1  22
ATOM     22  C   UNL A   1      32.996  28.366  25.705  1.00  0.00     0.023 C 
BRANCH  22  23
ATOM     23  C   UNL A   1      33.818  28.550  26.969  1.00  0.00     0.116 C 
BRANCH  23  24
ATOM     24  N   UNL A   1      33.694  29.875  27.559  1.00  0.00    -0.352 N 
ATOM     25  C   UNL A   1      34.649  30.593  28.248  1.00  0.00     0.251 C 
ATOM     26  H   UNL A   1      32.820  30.314  27.453  1.00  0.00     0.163 HD
ATOM     27  O   UNL A   1      34.379  31.667  28.750  1.00  0.00    -0.269 OA
BRANCH  25  28
ATOM     28  C   UNL A   1      35.991  29.993  28.404  1.00  0.00     0.039 A 
ATOM     29  C   UNL A   1      36.894  30.084  27.344  1.00  0.00     0.014 A 
ATOM     30  C   UNL A   1      36.376  29.438  29.627  1.00  0.00     0.014 A 
ATOM     31  C   UNL A   1      38.217  29.689  27.540  1.00  0.00     0.010 A 
ATOM     32  C   UNL A   1      37.711  29.127  29.845  1.00  0.00     0.010 A 
ATOM     33  C   UNL A   1      38.644  29.251  28.805  1.00  0.00    -0.014 A 
BRANCH  33  34
ATOM     34  C   UNL A   1      40.064  28.910  29.067  1.00  0.00     0.031 A 
ATOM     35  C   UNL A   1      40.979  29.946  29.658  1.00  0.00     0.074 A 
ATOM     36  C   UNL A   1      40.542  27.706  28.697  1.00  0.00     0.049 A 
ATOM     37  N   UNL A   1      42.267  29.883  29.871  1.00  0.00    -0.248 NA
ATOM     38  C   UNL A   1      40.372  31.236  30.022  1.00  0.00     0.031 C 
ATOM     39  C   UNL A   1      39.762  26.644  28.053  1.00  0.00     0.029 A 
ATOM     40  N   UNL A   1      41.802  27.176  28.796  1.00  0.00    -0.354 N 
ATOM     41  C   UNL A   1      42.626  31.129  30.369  1.00  0.00     0.074 A 
ATOM     42  C   UNL A   1      41.432  31.945  30.377  1.00  0.00     0.031 C 
ATOM     43  C   UNL A   1      40.558  25.584  27.837  1.00  0.00     0.029 A 
ATOM     44  C   UNL A   1      41.906  25.898  28.296  1.00  0.00     0.049 A 
ATOM     45  H   UNL A   1      42.562  27.664  29.186  1.00  0.00     0.167 HD
ATOM     46  C   UNL A   1      43.838  31.547  30.805  1.00  0.00     0.037 A 
ATOM     47  C   UNL A   1      42.971  25.077  28.220  1.00  0.00     0.037 A 
ATOM     48  C   UNL A   1      45.010  30.714  30.839  1.00  0.00     0.049 A 
ATOM     49  C   UNL A   1      44.295  25.547  28.755  1.00  0.00     0.074 A 
ATOM     50  C   UNL A   1      46.269  31.017  31.324  1.00  0.00     0.029 A 
ATOM     51  N   UNL A   1      45.061  29.406  30.377  1.00  0.00    -0.354 N 
ATOM     52  N   UNL A   1      44.606  26.709  29.278  1.00  0.00    -0.248 NA
ATOM     53  C   UNL A   1      45.413  24.595  28.697  1.00  0.00     0.031 C 
ATOM     54  C   UNL A   1      47.089  29.900  31.134  1.00  0.00     0.029 A 
ATOM     55  C   UNL A   1      46.332  28.891  30.562  1.00  0.00     0.049 A 
ATOM     56  H   UNL A   1      44.306  28.918  29.978  1.00  0.00     0.167 HD
ATOM     57  C   UNL A   1      45.946  26.619  29.636  1.00  0.00     0.074 A 
ATOM     58  C   UNL A   1      46.385  25.286  29.277  1.00  0.00     0.031 C 
ATOM     59  C   UNL A   1      46.741  27.555  30.210  1.00  0.00     0.037 A 
BRANCH  46  60
ATOM     60  C   UNL A   1      43.946  32.962  31.296  1.00  0.00     0.058 A 
ATOM     61  C   UNL A   1      43.826  33.277  32.659  1.00  0.00     0.135 A 
ATOM     62  C   UNL A   1      44.185  34.014  30.398  1.00  0.00     0.135 A 
ATOM     63  F   UNL A   1      43.576  32.311  33.556  1.00  0.00    -0.206 F 
ATOM     64  C   UNL A   1      43.906  34.589  33.112  1.00  0.00     0.059 A 
ATOM     65  C   UNL A   1      44.297  35.333  30.833  1.00  0.00     0.059 A 
ATOM     66  F   UNL A   1      44.306  33.770  29.084  1.00  0.00    -0.206 F 
ATOM     67  C   UNL A   1      44.139  35.611  32.190  1.00  0.00     0.060 A 
BRANCH  67  68
ATOM     68  S   UNL A   1      44.239  37.310  32.792  1.00  0.00     0.124 S 
ATOM     69  O   UNL A   1      45.516  37.291  33.499  1.00  0.00    -0.237 OA
ATOM     70  O   UNL A   1      44.213  38.084  31.555  1.00  0.00    -0.237 OA
ATOM     71  O   UNL A   1      43.055  37.440  33.634  1.00  0.00    -0.744 OA
ENDBRANCH  67  68
ENDBRANCH  46  60
BRANCH  47  72
ATOM     72  C   UNL A   1      42.818  23.713  27.649  1.00  0.00     0.058 A 
ATOM     73  C   UNL A   1      42.976  23.491  26.273  1.00  0.00     0.135 A 
ATOM     74  C   UNL A   1      42.525  22.608  28.462  1.00  0.00     0.135 A 
ATOM     75  F   UNL A   1      43.254  24.518  25.456  1.00  0.00    -0.206 F 
ATOM     76  C   UNL A   1      42.832  22.223  25.718  1.00  0.00     0.059 A 
ATOM     77  C   UNL A   1      42.397  21.327  27.934  1.00  0.00     0.059 A 
ATOM     78  F   UNL A   1      42.383  22.767  29.787  1.00  0.00    -0.206 F 
ATOM     79  C   UNL A   1      42.542  21.147  26.558  1.00  0.00     0.060 A 
BRANCH  79  80
ATOM     80  S   UNL A   1      42.405  19.496  25.837  1.00  0.00     0.124 S 
ATOM     81  O   UNL A   1      43.363  19.576  24.741  1.00  0.00    -0.237 OA
ATOM     82  O   UNL A   1      42.782  18.637  26.955  1.00  0.00    -0.237 OA
ATOM     83  O   UNL A   1      41.001  19.420  25.445  1.00  0.00    -0.744 OA
ENDBRANCH  79  80
ENDBRANCH  47  72
BRANCH  59  84
ATOM     84  C   UNL A   1      48.157  27.160  30.519  1.00  0.00     0.058 A 
ATOM     85  C   UNL A   1      49.217  27.505  29.668  1.00  0.00     0.135 A 
ATOM     86  C   UNL A   1      48.460  26.483  31.710  1.00  0.00     0.135 A 
ATOM     87  F   UNL A   1      48.977  28.147  28.515  1.00  0.00    -0.206 F 
ATOM     88  C   UNL A   1      50.531  27.178  29.981  1.00  0.00     0.059 A 
ATOM     89  C   UNL A   1      49.769  26.164  32.055  1.00  0.00     0.059 A 
ATOM     90  F   UNL A   1      47.478  26.140  32.561  1.00  0.00    -0.206 F 
ATOM     91  C   UNL A   1      50.798  26.508  31.178  1.00  0.00     0.060 A 
BRANCH  91  92
ATOM     92  S   UNL A   1      52.511  26.125  31.596  1.00  0.00     0.124 S 
ATOM     93  O   UNL A   1      52.859  27.248  32.461  1.00  0.00    -0.237 OA
ATOM     94  O   UNL A   1      52.392  24.829  32.257  1.00  0.00    -0.237 OA
ATOM     95  O   UNL A   1      53.179  26.099  30.299  1.00  0.00    -0.744 OA
ENDBRANCH  91  92
ENDBRANCH  59  84
ENDBRANCH  33  34
ENDBRANCH  25  28
ENDBRANCH  23  24
ENDBRANCH  22  23
ENDBRANCH   1  22
TORSDOF 17
ENDMDL
MODEL 2
REMARK VINA RESULT:     -11.1      3.053      9.248
REMARK SMILES CC[C@@H](C)S(=O)(=O)c1cc(C(=O)NCCCCNC(=O)c2ccc(-c3c4nc(c(-c5c(F)cc(S(=O)(=O)[O-])cc5F)c5ccc([nH]5)c(-c5c(F)cc(S(=O)(=O)[O-])cc5F)c5nc(c(-c6c(F)cc(S(=O)(=O)[O-])cc6F)c6ccc3[nH]6)C=C5)C=C4)cc2)c(C)cc1C
REMARK SMILES IDX 15 1 14 2 13 3 11 4 12 5 10 7 8 8 9 9 90 10 89 11 91 12
REMARK SMILES IDX 87 13 88 14 5 15 6 16 7 17 3 18 4 19 2 20 1 21 16 22 17 23
REMARK SMILES IDX 18 24 19 25 20 27 21 28 22 29 86 30 23 31 85 32 24 33 25 34
REMARK SMILES IDX 26 35 79 36 27 37 84 38 78 39 80 40 28 41 83 42 77 43 76 44
REMARK SMILES IDX 29 46 63 47 42 48 62 49 43 50 46 51 61 52 81 53 44 54 45 55
REMARK SMILES IDX 60 57 82 58 47 59 30 60 31 61 40 62 32 63 33 64 39 65 41 66
REMARK SMILES IDX 34 67 35 68 36 69 37 70 38 71 64 72 65 73 74 74 66 75 67 76
REMARK SMILES IDX 73 77 75 78 68 79 69 80 70 81 71 82 72 83 48 84 49 85 58 86
REMARK SMILES IDX 50 87 51 88 57 89 59 90 52 91 53 92 54 93 55 94 56 95
REMARK H PARENT 13 6 18 26 80 45 46 56
REMARK Flexibility Score: inf
ROOT
ATOM      1  C   UNL A   1      34.856  22.781  26.639  1.00  0.00     0.023 C 
ENDROOT
BRANCH   1   2
ATOM      2  C   UNL A   1      33.903  21.598  26.831  1.00  0.00     0.116 C 
BRANCH   2   3
ATOM      3  N   UNL A   1      32.619  22.093  27.265  1.00  0.00    -0.352 N 
ATOM      4  C   UNL A   1      31.785  23.081  26.828  1.00  0.00     0.251 C 
ATOM      5  O   UNL A   1      30.815  23.309  27.561  1.00  0.00    -0.269 OA
ATOM      6  H   UNL A   1      32.267  21.611  28.048  1.00  0.00     0.163 HD
BRANCH   4   7
ATOM      7  C   UNL A   1      31.859  23.836  25.530  1.00  0.00     0.044 A 
ATOM      8  C   UNL A   1      32.303  26.139  24.727  1.00  0.00     0.071 A 
ATOM      9  C   UNL A   1      32.031  25.227  25.750  1.00  0.00     0.034 A 
ATOM     10  C   UNL A   1      32.306  25.692  23.401  1.00  0.00    -0.032 A 
ATOM     11  C   UNL A   1      32.080  24.329  23.164  1.00  0.00     0.009 A 
ATOM     12  C   UNL A   1      32.516  26.569  22.196  1.00  0.00     0.046 C 
ATOM     13  C   UNL A   1      31.935  23.381  24.204  1.00  0.00    -0.038 A 
ATOM     14  C   UNL A   1      31.972  21.957  23.746  1.00  0.00     0.045 C 
BRANCH   8  15
ATOM     15  S   UNL A   1      32.748  27.831  25.087  1.00  0.00     0.181 S 
ATOM     16  O   UNL A   1      31.587  28.625  24.721  1.00  0.00    -0.223 OA
ATOM     17  O   UNL A   1      34.012  28.051  24.405  1.00  0.00    -0.223 OA
BRANCH  15  18
ATOM     18  C   UNL A   1      33.047  28.119  26.829  1.00  0.00     0.110 C 
ATOM     19  C   UNL A   1      31.788  28.476  27.621  1.00  0.00     0.025 C 
BRANCH  18  20
ATOM     20  C   UNL A   1      34.270  29.015  27.079  1.00  0.00     0.016 C 
ATOM     21  C   UNL A   1      33.924  30.484  27.269  1.00  0.00     0.005 C 
ENDBRANCH  18  20
ENDBRANCH  15  18
ENDBRANCH   8  15
ENDBRANCH   4   7
ENDBRANCH   2   3
ENDBRANCH   1   2
BRANCH   1  22
ATOM     22  C   UNL A   1      35.459  22.917  25.244  1.00  0.00     0.023 C 
BRANCH  22  23
ATOM     23  C   UNL A   1      36.823  23.585  25.210  1.00  0.00     0.116 C 
BRANCH  23  24
ATOM     24  N   UNL A   1      37.931  22.661  25.401  1.00  0.00    -0.352 N 
ATOM     25  C   UNL A   1      39.109  22.874  26.086  1.00  0.00     0.251 C 
ATOM     26  H   UNL A   1      37.827  21.773  24.991  1.00  0.00     0.163 HD
ATOM     27  O   UNL A   1      39.982  22.028  26.102  1.00  0.00    -0.269 OA
BRANCH  25  28
ATOM     28  C   UNL A   1      39.300  24.181  26.751  1.00  0.00     0.039 A 
ATOM     29  C   UNL A   1      38.809  24.352  28.046  1.00  0.00     0.014 A 
ATOM     30  C   UNL A   1      40.046  25.185  26.129  1.00  0.00     0.014 A 
ATOM     31  C   UNL A   1      39.141  25.508  28.753  1.00  0.00     0.010 A 
ATOM     32  C   UNL A   1      40.444  26.294  26.864  1.00  0.00     0.010 A 
ATOM     33  C   UNL A   1      39.997  26.464  28.183  1.00  0.00    -0.014 A 
BRANCH  33  34
ATOM     34  C   UNL A   1      40.438  27.659  28.943  1.00  0.00     0.031 A 
ATOM     35  C   UNL A   1      41.777  27.652  29.625  1.00  0.00     0.074 A 
ATOM     36  C   UNL A   1      39.603  28.706  29.086  1.00  0.00     0.049 A 
ATOM     37  N   UNL A   1      42.305  28.549  30.416  1.00  0.00    -0.248 NA
ATOM     38  C   UNL A   1      42.618  26.461  29.422  1.00  0.00     0.031 C 
ATOM     39  C   UNL A   1      38.252  28.799  28.524  1.00  0.00     0.029 A 
ATOM     40  N   UNL A   1      39.761  29.890  29.760  1.00  0.00    -0.354 N 
ATOM     41  C   UNL A   1      43.524  28.020  30.823  1.00  0.00     0.074 A 
ATOM     42  C   UNL A   1      43.634  26.704  30.235  1.00  0.00     0.031 C 
ATOM     43  C   UNL A   1      37.717  29.985  28.858  1.00  0.00     0.029 A 
ATOM     44  C   UNL A   1      38.669  30.723  29.681  1.00  0.00     0.049 A 
ATOM     45  H   UNL A   1      40.579  30.122  30.256  1.00  0.00     0.167 HD
ATOM     46  C   UNL A   1      44.477  28.592  31.596  1.00  0.00     0.037 A 
ATOM     47  C   UNL A   1      38.463  31.943  30.213  1.00  0.00     0.037 A 
ATOM     48  C   UNL A   1      44.379  29.922  32.137  1.00  0.00     0.049 A 
ATOM     49  C   UNL A   1      39.556  32.577  31.029  1.00  0.00     0.074 A 
ATOM     50  C   UNL A   1      45.317  30.622  32.876  1.00  0.00     0.029 A 
ATOM     51  N   UNL A   1      43.281  30.756  31.987  1.00  0.00    -0.354 N 
ATOM     52  N   UNL A   1      40.728  32.088  31.355  1.00  0.00    -0.248 NA
ATOM     53  C   UNL A   1      39.303  33.930  31.542  1.00  0.00     0.031 C 
ATOM     54  C   UNL A   1      44.775  31.872  33.193  1.00  0.00     0.029 A 
ATOM     55  C   UNL A   1      43.515  31.962  32.623  1.00  0.00     0.049 A 
ATOM     56  H   UNL A   1      42.458  30.524  31.500  1.00  0.00     0.167 HD
ATOM     57  C   UNL A   1      41.364  33.083  32.089  1.00  0.00     0.074 A 
ATOM     58  C   UNL A   1      40.449  34.204  32.152  1.00  0.00     0.031 C 
ATOM     59  C   UNL A   1      42.594  33.069  32.660  1.00  0.00     0.037 A 
BRANCH  46  60
ATOM     60  C   UNL A   1      45.711  27.787  31.883  1.00  0.00     0.058 A 
ATOM     61  C   UNL A   1      45.809  26.974  33.023  1.00  0.00     0.135 A 
ATOM     62  C   UNL A   1      46.804  27.815  31.002  1.00  0.00     0.135 A 
ATOM     63  F   UNL A   1      44.800  26.927  33.908  1.00  0.00    -0.206 F 
ATOM     64  C   UNL A   1      46.959  26.243  33.300  1.00  0.00     0.059 A 
ATOM     65  C   UNL A   1      47.955  27.070  31.245  1.00  0.00     0.059 A 
ATOM     66  F   UNL A   1      46.765  28.578  29.898  1.00  0.00    -0.206 F 
ATOM     67  C   UNL A   1      48.028  26.300  32.404  1.00  0.00     0.060 A 
BRANCH  67  68
ATOM     68  S   UNL A   1      49.516  25.347  32.776  1.00  0.00     0.124 S 
ATOM     69  O   UNL A   1      49.945  24.948  31.439  1.00  0.00    -0.237 OA
ATOM     70  O   UNL A   1      50.361  26.331  33.445  1.00  0.00    -0.237 OA
ATOM     71  O   UNL A   1      49.023  24.269  33.626  1.00  0.00    -0.744 OA
ENDBRANCH  67  68
ENDBRANCH  46  60
BRANCH  47  72
ATOM     72  C   UNL A   1      37.186  32.659  29.959  1.00  0.00     0.058 A 
ATOM     73  C   UNL A   1      37.085  33.600  28.924  1.00  0.00     0.135 A 
ATOM     74  C   UNL A   1      36.041  32.410  30.732  1.00  0.00     0.135 A 
ATOM     75  F   UNL A   1      38.154  33.872  28.161  1.00  0.00    -0.206 F 
ATOM     76  C   UNL A   1      35.900  34.284  28.674  1.00  0.00     0.059 A 
ATOM     77  C   UNL A   1      34.839  33.066  30.488  1.00  0.00     0.059 A 
ATOM     78  F   UNL A   1      36.083  31.505  31.722  1.00  0.00    -0.206 F 
ATOM     79  C   UNL A   1      34.781  34.010  29.462  1.00  0.00     0.060 A 
BRANCH  79  80
ATOM     80  S   UNL A   1      33.233  34.867  29.099  1.00  0.00     0.124 S 
ATOM     81  O   UNL A   1      33.719  36.130  28.555  1.00  0.00    -0.237 OA
ATOM     82  O   UNL A   1      32.595  33.963  28.148  1.00  0.00    -0.237 OA
ATOM     83  O   UNL A   1      32.584  34.949  30.404  1.00  0.00    -0.744 OA
ENDBRANCH  79  80
ENDBRANCH  47  72
BRANCH  59  84
ATOM     84  C   UNL A   1      43.037  34.316  33.370  1.00  0.00     0.058 A 
ATOM     85  C   UNL A   1      43.816  35.289  32.727  1.00  0.00     0.135 A 
ATOM     86  C   UNL A   1      42.624  34.565  34.688  1.00  0.00     0.135 A 
ATOM     87  F   UNL A   1      44.239  35.093  31.469  1.00  0.00    -0.206 F 
ATOM     88  C   UNL A   1      44.185  36.463  33.374  1.00  0.00     0.059 A 
ATOM     89  C   UNL A   1      42.963  35.742  35.347  1.00  0.00     0.059 A 
ATOM     90  F   UNL A   1      41.870  33.667  35.342  1.00  0.00    -0.206 F 
ATOM     91  C   UNL A   1      43.753  36.682  34.684  1.00  0.00     0.060 A 
BRANCH  91  92
ATOM     92  S   UNL A   1      44.201  38.227  35.500  1.00  0.00     0.124 S 
ATOM     93  O   UNL A   1      43.406  39.195  34.751  1.00  0.00    -0.237 OA
ATOM     94  O   UNL A   1      43.778  37.990  36.877  1.00  0.00    -0.237 OA
ATOM     95  O   UNL A   1      45.645  38.309  35.302  1.00  0.00    -0.744 OA
ENDBRANCH  91  92
ENDBRANCH  59  84
ENDBRANCH  33  34
ENDBRANCH  25  28
ENDBRANCH  23  24
ENDBRANCH  22  23
ENDBRANCH   1  22
TORSDOF 17
ENDMDL
MODEL 3
REMARK VINA RESULT:     -10.5      4.994      9.784
REMARK SMILES CC[C@@H](C)S(=O)(=O)c1cc(C(=O)NCCCCNC(=O)c2ccc(-c3c4nc(c(-c5c(F)cc(S(=O)(=O)[O-])cc5F)c5ccc([nH]5)c(-c5c(F)cc(S(=O)(=O)[O-])cc5F)c5nc(c(-c6c(F)cc(S(=O)(=O)[O-])cc6F)c6ccc3[nH]6)C=C5)C=C4)cc2)c(C)cc1C
REMARK SMILES IDX 15 1 14 2 13 3 11 4 12 5 10 7 8 8 9 9 90 10 89 11 91 12
REMARK SMILES IDX 87 13 88 14 5 15 6 16 7 17 3 18 4 19 2 20 1 21 16 22 17 23
REMARK SMILES IDX 18 24 19 25 20 27 21 28 22 29 86 30 23 31 85 32 24 33 25 34
REMARK SMILES IDX 26 35 79 36 27 37 84 38 78 39 80 40 28 41 83 42 77 43 76 44
REMARK SMILES IDX 29 46 63 47 42 48 62 49 43 50 46 51 61 52 81 53 44 54 45 55
REMARK SMILES IDX 60 57 82 58 47 59 30 60 31 61 40 62 32 63 33 64 39 65 41 66
REMARK SMILES IDX 34 67 35 68 36 69 37 70 38 71 64 72 65 73 74 74 66 75 67 76
REMARK SMILES IDX 73 77 75 78 68 79 69 80 70 81 71 82 72 83 48 84 49 85 58 86
REMARK SMILES IDX 50 87 51 88 57 89 59 90 52 91 53 92 54 93 55 94 56 95
REMARK H PARENT 13 6 18 26 80 45 46 56
REMARK Flexibility Score: inf
ROOT
ATOM      1  C   UNL A   1      36.749  23.457  25.063  1.00  0.00     0.023 C 
ENDROOT
BRANCH   1   2
ATOM      2  C   UNL A   1      36.450  22.416  23.980  1.00  0.00     0.116 C 
BRANCH   2   3
ATOM      3  N   UNL A   1      35.564  22.997  23.001  1.00  0.00    -0.352 N 
ATOM      4  C   UNL A   1      34.210  23.154  22.920  1.00  0.00     0.251 C 
ATOM      5  O   UNL A   1      33.797  23.581  21.835  1.00  0.00    -0.269 OA
ATOM      6  H   UNL A   1      36.040  23.361  22.220  1.00  0.00     0.163 HD
BRANCH   4   7
ATOM      7  C   UNL A   1      33.199  22.967  24.017  1.00  0.00     0.044 A 
ATOM      8  C   UNL A   1      31.611  24.327  25.350  1.00  0.00     0.071 A 
ATOM      9  C   UNL A   1      32.686  24.212  24.464  1.00  0.00     0.034 A 
ATOM     10  C   UNL A   1      31.068  23.167  25.914  1.00  0.00    -0.032 A 
ATOM     11  C   UNL A   1      31.604  21.931  25.525  1.00  0.00     0.009 A 
ATOM     12  C   UNL A   1      29.958  23.141  26.929  1.00  0.00     0.046 C 
ATOM     13  C   UNL A   1      32.603  21.804  24.531  1.00  0.00    -0.038 A 
ATOM     14  C   UNL A   1      32.841  20.399  24.077  1.00  0.00     0.045 C 
BRANCH   8  15
ATOM     15  S   UNL A   1      30.854  25.909  25.689  1.00  0.00     0.181 S 
ATOM     16  O   UNL A   1      31.353  26.307  26.994  1.00  0.00    -0.223 OA
ATOM     17  O   UNL A   1      29.428  25.704  25.498  1.00  0.00    -0.223 OA
BRANCH  15  18
ATOM     18  C   UNL A   1      31.348  27.183  24.531  1.00  0.00     0.110 C 
ATOM     19  C   UNL A   1      31.444  28.578  25.152  1.00  0.00     0.025 C 
BRANCH  18  20
ATOM     20  C   UNL A   1      30.592  27.096  23.197  1.00  0.00     0.016 C 
ATOM     21  C   UNL A   1      29.559  28.196  23.007  1.00  0.00     0.005 C 
ENDBRANCH  18  20
ENDBRANCH  15  18
ENDBRANCH   8  15
ENDBRANCH   4   7
ENDBRANCH   2   3
ENDBRANCH   1   2
BRANCH   1  22
ATOM     22  C   UNL A   1      37.841  23.075  26.056  1.00  0.00     0.023 C 
BRANCH  22  23
ATOM     23  C   UNL A   1      38.633  24.249  26.605  1.00  0.00     0.116 C 
BRANCH  23  24
ATOM     24  N   UNL A   1      39.981  24.347  26.066  1.00  0.00    -0.352 N 
ATOM     25  C   UNL A   1      40.967  25.253  26.399  1.00  0.00     0.251 C 
ATOM     26  H   UNL A   1      40.221  23.685  25.379  1.00  0.00     0.163 HD
ATOM     27  O   UNL A   1      42.032  25.260  25.810  1.00  0.00    -0.269 OA
BRANCH  25  28
ATOM     28  C   UNL A   1      40.671  26.247  27.451  1.00  0.00     0.039 A 
ATOM     29  C   UNL A   1      39.770  25.907  28.461  1.00  0.00     0.014 A 
ATOM     30  C   UNL A   1      41.359  27.463  27.486  1.00  0.00     0.014 A 
ATOM     31  C   UNL A   1      39.620  26.758  29.557  1.00  0.00     0.010 A 
ATOM     32  C   UNL A   1      41.272  28.265  28.615  1.00  0.00     0.010 A 
ATOM     33  C   UNL A   1      40.403  27.919  29.662  1.00  0.00    -0.014 A 
BRANCH  33  34
ATOM     34  C   UNL A   1      40.331  28.795  30.856  1.00  0.00     0.031 A 
ATOM     35  C   UNL A   1      39.315  29.902  30.904  1.00  0.00     0.074 A 
ATOM     36  C   UNL A   1      41.228  28.647  31.850  1.00  0.00     0.049 A 
ATOM     37  N   UNL A   1      39.154  30.836  31.805  1.00  0.00    -0.248 NA
ATOM     38  C   UNL A   1      38.382  29.995  29.769  1.00  0.00     0.031 C 
ATOM     39  C   UNL A   1      42.303  27.649  31.884  1.00  0.00     0.029 A 
ATOM     40  N   UNL A   1      41.390  29.344  33.019  1.00  0.00    -0.354 N 
ATOM     41  C   UNL A   1      38.122  31.638  31.333  1.00  0.00     0.074 A 
ATOM     42  C   UNL A   1      37.730  31.114  30.044  1.00  0.00     0.031 C 
ATOM     43  C   UNL A   1      42.994  27.786  33.026  1.00  0.00     0.029 A 
ATOM     44  C   UNL A   1      42.437  28.896  33.791  1.00  0.00     0.049 A 
ATOM     45  H   UNL A   1      40.812  30.096  33.282  1.00  0.00     0.167 HD
ATOM     46  C   UNL A   1      37.536  32.700  31.935  1.00  0.00     0.037 A 
ATOM     47  C   UNL A   1      42.892  29.333  34.981  1.00  0.00     0.037 A 
ATOM     48  C   UNL A   1      37.899  33.184  33.240  1.00  0.00     0.049 A 
ATOM     49  C   UNL A   1      42.194  30.485  35.651  1.00  0.00     0.074 A 
ATOM     50  C   UNL A   1      37.324  34.210  33.969  1.00  0.00     0.029 A 
ATOM     51  N   UNL A   1      38.927  32.667  34.015  1.00  0.00    -0.354 N 
ATOM     52  N   UNL A   1      41.180  31.196  35.220  1.00  0.00    -0.248 NA
ATOM     53  C   UNL A   1      42.695  30.890  36.972  1.00  0.00     0.031 C 
ATOM     54  C   UNL A   1      38.020  34.329  35.176  1.00  0.00     0.029 A 
ATOM     55  C   UNL A   1      39.007  33.356  35.213  1.00  0.00     0.049 A 
ATOM     56  H   UNL A   1      39.513  31.922  33.752  1.00  0.00     0.167 HD
ATOM     57  C   UNL A   1      40.903  32.114  36.226  1.00  0.00     0.074 A 
ATOM     58  C   UNL A   1      41.852  31.864  37.292  1.00  0.00     0.031 C 
ATOM     59  C   UNL A   1      39.951  33.078  36.264  1.00  0.00     0.037 A 
BRANCH  46  60
ATOM     60  C   UNL A   1      36.430  33.392  31.192  1.00  0.00     0.058 A 
ATOM     61  C   UNL A   1      36.684  34.150  30.037  1.00  0.00     0.135 A 
ATOM     62  C   UNL A   1      35.100  33.288  31.629  1.00  0.00     0.135 A 
ATOM     63  F   UNL A   1      37.940  34.298  29.589  1.00  0.00    -0.206 F 
ATOM     64  C   UNL A   1      35.663  34.807  29.360  1.00  0.00     0.059 A 
ATOM     65  C   UNL A   1      34.058  33.916  30.950  1.00  0.00     0.059 A 
ATOM     66  F   UNL A   1      34.802  32.579  32.729  1.00  0.00    -0.206 F 
ATOM     67  C   UNL A   1      34.353  34.686  29.827  1.00  0.00     0.060 A 
BRANCH  67  68
ATOM     68  S   UNL A   1      33.038  35.546  28.938  1.00  0.00     0.124 S 
ATOM     69  O   UNL A   1      32.240  36.072  30.042  1.00  0.00    -0.237 OA
ATOM     70  O   UNL A   1      33.777  36.538  28.163  1.00  0.00    -0.237 OA
ATOM     71  O   UNL A   1      32.409  34.487  28.156  1.00  0.00    -0.744 OA
ENDBRANCH  67  68
ENDBRANCH  46  60
BRANCH  47  72
ATOM     72  C   UNL A   1      44.044  28.656  35.631  1.00  0.00     0.058 A 
ATOM     73  C   UNL A   1      45.360  29.055  35.354  1.00  0.00     0.135 A 
ATOM     74  C   UNL A   1      43.856  27.609  36.546  1.00  0.00     0.135 A 
ATOM     75  F   UNL A   1      45.588  30.049  34.483  1.00  0.00    -0.206 F 
ATOM     76  C   UNL A   1      46.451  28.430  35.948  1.00  0.00     0.059 A 
ATOM     77  C   UNL A   1      44.931  26.982  37.169  1.00  0.00     0.059 A 
ATOM     78  F   UNL A   1      42.615  27.203  36.858  1.00  0.00    -0.206 F 
ATOM     79  C   UNL A   1      46.226  27.394  36.855  1.00  0.00     0.060 A 
BRANCH  79  80
ATOM     80  S   UNL A   1      47.647  26.620  37.659  1.00  0.00     0.124 S 
ATOM     81  O   UNL A   1      48.706  27.578  37.365  1.00  0.00    -0.237 OA
ATOM     82  O   UNL A   1      47.216  26.551  39.051  1.00  0.00    -0.237 OA
ATOM     83  O   UNL A   1      47.753  25.332  36.980  1.00  0.00    -0.744 OA
ENDBRANCH  79  80
ENDBRANCH  47  72
BRANCH  59  84
ATOM     84  C   UNL A   1      39.863  33.909  37.512  1.00  0.00     0.058 A 
ATOM     85  C   UNL A   1      40.544  35.130  37.630  1.00  0.00     0.135 A 
ATOM     86  C   UNL A   1      39.039  33.508  38.575  1.00  0.00     0.135 A 
ATOM     87  F   UNL A   1      41.347  35.553  36.642  1.00  0.00    -0.206 F 
ATOM     88  C   UNL A   1      40.423  35.919  38.768  1.00  0.00     0.059 A 
ATOM     89  C   UNL A   1      38.886  34.291  39.714  1.00  0.00     0.059 A 
ATOM     90  F   UNL A   1      38.361  32.351  38.504  1.00  0.00    -0.206 F 
ATOM     91  C   UNL A   1      39.590  35.491  39.805  1.00  0.00     0.060 A 
BRANCH  91  92
ATOM     92  S   UNL A   1      39.406  36.542  41.260  1.00  0.00     0.124 S 
ATOM     93  O   UNL A   1      38.903  37.777  40.667  1.00  0.00    -0.237 OA
ATOM     94  O   UNL A   1      38.449  35.794  42.070  1.00  0.00    -0.237 OA
ATOM     95  O   UNL A   1      40.758  36.609  41.804  1.00  0.00    -0.744 OA
ENDBRANCH  91  92
ENDBRANCH  59  84
ENDBRANCH  33  34
ENDBRANCH  25  28
ENDBRANCH  23  24
ENDBRANCH  22  23
ENDBRANCH   1  22
TORSDOF 17
ENDMDL
