MODEL 1
REMARK VINA RESULT:     -10.9      0.000      0.000
REMARK SMILES CCN1C(=O)N(CC)[C@H]2NC(=O)N(CCCC(=O)NCCCCNC(=O)c3ccc(-c4c5nc(c(-c6c(F)cc(S(=O)(=O)[O-])cc6F)c6ccc([nH]6)c(-c6c(F)cc(S(=O)(=O)[O-])cc6F)c6nc(c(-c7c(F)cc(S(=O)(=O)[O-])cc7F)c7ccc4[nH]7)C=C6)C=C5)cc3)[C@@H]21
REMARK SMILES IDX 21 1 20 2 19 3 17 4 18 5 16 7 15 8 14 9 13 10 3 11 4 12
REMARK SMILES IDX 93 13 5 14 6 15 9 16 10 17 11 18 12 20 2 21 1 22 7 23 8 24
REMARK SMILES IDX 22 25 23 26 24 27 25 28 26 30 27 31 28 32 92 33 29 34 91 35
REMARK SMILES IDX 30 36 31 37 32 38 85 39 33 40 90 41 84 42 86 43 34 44 89 45
REMARK SMILES IDX 83 46 82 47 35 49 69 50 48 51 68 52 49 53 52 54 67 55 87 56
REMARK SMILES IDX 50 57 51 58 66 60 88 61 53 62 36 63 37 64 46 65 38 66 39 67
REMARK SMILES IDX 45 68 47 69 40 70 41 71 42 72 43 73 44 74 70 75 71 76 80 77
REMARK SMILES IDX 72 78 73 79 79 80 81 81 74 82 75 83 76 84 77 85 78 86 54 87
REMARK SMILES IDX 55 88 64 89 56 90 57 91 63 92 65 93 58 94 59 95 60 96 61 97
REMARK SMILES IDX 62 98
REMARK H PARENT 19 6 10 19 24 29 86 48 52 59
REMARK Flexibility Score: inf
ROOT
ATOM      1  C   UNL A   1      31.997  28.651  25.114  1.00  0.00     0.023 C 
ENDROOT
BRANCH   1   2
ATOM      2  C   UNL A   1      33.354  28.746  24.408  1.00  0.00     0.116 C 
BRANCH   2   3
ATOM      3  N   UNL A   1      33.378  27.919  23.222  1.00  0.00    -0.356 N 
ATOM      4  C   UNL A   1      33.706  26.630  22.983  1.00  0.00     0.220 C 
ATOM      5  O   UNL A   1      33.692  26.285  21.795  1.00  0.00    -0.275 OA
ATOM      6  H   UNL A   1      33.093  28.400  22.412  1.00  0.00     0.163 HD
BRANCH   4   7
ATOM      7  C   UNL A   1      33.890  25.561  24.055  1.00  0.00     0.102 C 
BRANCH   7   8
ATOM      8  C   UNL A   1      32.857  25.072  25.075  1.00  0.00     0.031 C 
BRANCH   8   9
ATOM      9  C   UNL A   1      33.183  23.998  26.095  1.00  0.00     0.124 C 
BRANCH   9  10
ATOM     10  N   UNL A   1      33.212  22.582  25.730  1.00  0.00    -0.300 N 
ATOM     11  N   UNL A   1      35.589  21.400  25.202  1.00  0.00    -0.300 N 
ATOM     12  C   UNL A   1      35.722  19.989  24.905  1.00  0.00     0.323 C 
ATOM     13  C   UNL A   1      34.248  21.563  25.720  1.00  0.00     0.231 C 
ATOM     14  O   UNL A   1      36.777  19.373  24.791  1.00  0.00    -0.248 OA
ATOM     15  N   UNL A   1      34.433  19.440  24.837  1.00  0.00    -0.300 N 
ATOM     16  C   UNL A   1      33.544  20.534  24.818  1.00  0.00     0.228 C 
ATOM     17  N   UNL A   1      32.230  20.540  25.309  1.00  0.00    -0.314 N 
ATOM     18  C   UNL A   1      31.971  21.864  25.665  1.00  0.00     0.320 C 
ATOM     19  H   UNL A   1      31.620  19.770  25.387  1.00  0.00     0.167 HD
ATOM     20  O   UNL A   1      30.841  22.307  25.857  1.00  0.00    -0.249 OA
BRANCH  11  21
ATOM     21  C   UNL A   1      36.789  22.109  25.598  1.00  0.00     0.120 C 
ATOM     22  C   UNL A   1      36.995  23.412  24.853  1.00  0.00     0.027 C 
ENDBRANCH  11  21
BRANCH  15  23
ATOM     23  C   UNL A   1      34.068  18.051  24.659  1.00  0.00     0.120 C 
ATOM     24  C   UNL A   1      33.322  17.756  23.368  1.00  0.00     0.027 C 
ENDBRANCH  15  23
ENDBRANCH   9  10
ENDBRANCH   8   9
ENDBRANCH   7   8
ENDBRANCH   4   7
ENDBRANCH   2   3
ENDBRANCH   1   2
BRANCH   1  25
ATOM     25  C   UNL A   1      32.111  28.257  26.577  1.00  0.00     0.023 C 
BRANCH  25  26
ATOM     26  C   UNL A   1      33.441  28.665  27.196  1.00  0.00     0.116 C 
BRANCH  26  27
ATOM     27  N   UNL A   1      33.455  30.041  27.679  1.00  0.00    -0.352 N 
ATOM     28  C   UNL A   1      34.503  30.729  28.251  1.00  0.00     0.251 C 
ATOM     29  H   UNL A   1      32.612  30.540  27.583  1.00  0.00     0.163 HD
ATOM     30  O   UNL A   1      34.346  31.865  28.688  1.00  0.00    -0.269 OA
BRANCH  28  31
ATOM     31  C   UNL A   1      35.805  30.044  28.372  1.00  0.00     0.039 A 
ATOM     32  C   UNL A   1      36.702  30.101  27.303  1.00  0.00     0.014 A 
ATOM     33  C   UNL A   1      36.180  29.477  29.592  1.00  0.00     0.014 A 
ATOM     34  C   UNL A   1      38.015  29.667  27.492  1.00  0.00     0.010 A 
ATOM     35  C   UNL A   1      37.510  29.134  29.802  1.00  0.00     0.010 A 
ATOM     36  C   UNL A   1      38.443  29.232  28.758  1.00  0.00    -0.014 A 
BRANCH  36  37
ATOM     37  C   UNL A   1      39.863  28.882  29.018  1.00  0.00     0.031 A 
ATOM     38  C   UNL A   1      40.788  29.906  29.614  1.00  0.00     0.074 A 
ATOM     39  C   UNL A   1      40.340  27.679  28.639  1.00  0.00     0.049 A 
ATOM     40  N   UNL A   1      42.074  29.826  29.840  1.00  0.00    -0.248 NA
ATOM     41  C   UNL A   1      40.196  31.205  29.970  1.00  0.00     0.031 C 
ATOM     42  C   UNL A   1      39.561  26.620  27.993  1.00  0.00     0.029 A 
ATOM     43  N   UNL A   1      41.602  27.146  28.737  1.00  0.00    -0.354 N 
ATOM     44  C   UNL A   1      42.448  31.070  30.333  1.00  0.00     0.074 A 
ATOM     45  C   UNL A   1      41.264  31.902  30.323  1.00  0.00     0.031 C 
ATOM     46  C   UNL A   1      40.351  25.554  27.787  1.00  0.00     0.029 A 
ATOM     47  C   UNL A   1      41.700  25.864  28.251  1.00  0.00     0.049 A 
ATOM     48  H   UNL A   1      42.365  27.637  29.119  1.00  0.00     0.167 HD
ATOM     49  C   UNL A   1      43.660  31.477  30.778  1.00  0.00     0.037 A 
ATOM     50  C   UNL A   1      42.758  25.030  28.190  1.00  0.00     0.037 A 
ATOM     51  C   UNL A   1      44.823  30.632  30.830  1.00  0.00     0.049 A 
ATOM     52  C   UNL A   1      44.088  25.491  28.718  1.00  0.00     0.074 A 
ATOM     53  C   UNL A   1      46.075  30.922  31.342  1.00  0.00     0.029 A 
ATOM     54  N   UNL A   1      44.876  29.330  30.355  1.00  0.00    -0.354 N 
ATOM     55  N   UNL A   1      44.408  26.647  29.246  1.00  0.00    -0.248 NA
ATOM     56  C   UNL A   1      45.201  24.533  28.644  1.00  0.00     0.031 C 
ATOM     57  C   UNL A   1      46.896  29.805  31.146  1.00  0.00     0.029 A 
ATOM     58  C   UNL A   1      46.143  28.807  30.546  1.00  0.00     0.049 A 
ATOM     59  H   UNL A   1      44.122  28.848  29.943  1.00  0.00     0.167 HD
ATOM     60  C   UNL A   1      45.751  26.549  29.593  1.00  0.00     0.074 A 
ATOM     61  C   UNL A   1      46.182  25.216  29.218  1.00  0.00     0.031 C 
ATOM     62  C   UNL A   1      46.553  27.476  30.172  1.00  0.00     0.037 A 
BRANCH  49  63
ATOM     63  C   UNL A   1      43.777  32.902  31.244  1.00  0.00     0.058 A 
ATOM     64  C   UNL A   1      44.172  33.933  30.376  1.00  0.00     0.135 A 
ATOM     65  C   UNL A   1      43.505  33.238  32.580  1.00  0.00     0.135 A 
ATOM     66  F   UNL A   1      44.459  33.662  29.092  1.00  0.00    -0.206 F 
ATOM     67  C   UNL A   1      44.343  35.236  30.827  1.00  0.00     0.059 A 
ATOM     68  C   UNL A   1      43.642  34.542  33.046  1.00  0.00     0.059 A 
ATOM     69  F   UNL A   1      43.123  32.291  33.452  1.00  0.00    -0.206 F 
ATOM     70  C   UNL A   1      44.085  35.530  32.167  1.00  0.00     0.060 A 
BRANCH  70  71
ATOM     71  S   UNL A   1      44.343  37.218  32.748  1.00  0.00     0.124 S 
ATOM     72  O   UNL A   1      45.720  37.150  33.231  1.00  0.00    -0.237 OA
ATOM     73  O   UNL A   1      44.137  38.005  31.536  1.00  0.00    -0.237 OA
ATOM     74  O   UNL A   1      43.323  37.381  33.779  1.00  0.00    -0.744 OA
ENDBRANCH  70  71
ENDBRANCH  49  63
BRANCH  50  75
ATOM     75  C   UNL A   1      42.583  23.654  27.655  1.00  0.00     0.058 A 
ATOM     76  C   UNL A   1      42.701  23.402  26.281  1.00  0.00     0.135 A 
ATOM     77  C   UNL A   1      42.331  22.563  28.501  1.00  0.00     0.135 A 
ATOM     78  F   UNL A   1      42.935  24.416  25.433  1.00  0.00    -0.206 F 
ATOM     79  C   UNL A   1      42.575  22.119  25.761  1.00  0.00     0.059 A 
ATOM     80  C   UNL A   1      42.219  21.267  28.007  1.00  0.00     0.059 A 
ATOM     81  F   UNL A   1      42.223  22.751  29.826  1.00  0.00    -0.206 F 
ATOM     82  C   UNL A   1      42.339  21.056  26.633  1.00  0.00     0.060 A 
BRANCH  82  83
ATOM     83  S   UNL A   1      42.251  19.384  25.955  1.00  0.00     0.124 S 
ATOM     84  O   UNL A   1      42.812  18.595  27.043  1.00  0.00    -0.237 OA
ATOM     85  O   UNL A   1      40.820  19.224  25.720  1.00  0.00    -0.237 OA
ATOM     86  O   UNL A   1      43.069  19.470  24.749  1.00  0.00    -0.744 OA
ENDBRANCH  82  83
ENDBRANCH  50  75
BRANCH  62  87
ATOM     87  C   UNL A   1      47.971  27.076  30.468  1.00  0.00     0.058 A 
ATOM     88  C   UNL A   1      48.983  27.186  29.503  1.00  0.00     0.135 A 
ATOM     89  C   UNL A   1      48.330  26.632  31.751  1.00  0.00     0.135 A 
ATOM     90  F   UNL A   1      48.688  27.598  28.259  1.00  0.00    -0.206 F 
ATOM     91  C   UNL A   1      50.301  26.856  29.793  1.00  0.00     0.059 A 
ATOM     92  C   UNL A   1      49.646  26.318  32.071  1.00  0.00     0.059 A 
ATOM     93  F   UNL A   1      47.400  26.518  32.712  1.00  0.00    -0.206 F 
ATOM     94  C   UNL A   1      50.624  26.423  31.083  1.00  0.00     0.060 A 
BRANCH  94  95
ATOM     95  S   UNL A   1      52.347  26.038  31.463  1.00  0.00     0.124 S 
ATOM     96  O   UNL A   1      52.631  26.991  32.531  1.00  0.00    -0.237 OA
ATOM     97  O   UNL A   1      52.275  24.637  31.866  1.00  0.00    -0.237 OA
ATOM     98  O   UNL A   1      53.036  26.286  30.200  1.00  0.00    -0.744 OA
ENDBRANCH  94  95
ENDBRANCH  62  87
ENDBRANCH  36  37
ENDBRANCH  28  31
ENDBRANCH  26  27
ENDBRANCH  25  26
ENDBRANCH   1  25
TORSDOF 19
ENDMDL
MODEL 2
REMARK VINA RESULT:     -10.8      2.768      9.369
REMARK SMILES CCN1C(=O)N(CC)[C@H]2NC(=O)N(CCCC(=O)NCCCCNC(=O)c3ccc(-c4c5nc(c(-c6c(F)cc(S(=O)(=O)[O-])cc6F)c6ccc([nH]6)c(-c6c(F)cc(S(=O)(=O)[O-])cc6F)c6nc(c(-c7c(F)cc(S(=O)(=O)[O-])cc7F)c7ccc4[nH]7)C=C6)C=C5)cc3)[C@@H]21
REMARK SMILES IDX 21 1 20 2 19 3 17 4 18 5 16 7 15 8 14 9 13 10 3 11 4 12
REMARK SMILES IDX 93 13 5 14 6 15 9 16 10 17 11 18 12 20 2 21 1 22 7 23 8 24
REMARK SMILES IDX 22 25 23 26 24 27 25 28 26 30 27 31 28 32 92 33 29 34 91 35
REMARK SMILES IDX 30 36 31 37 32 38 85 39 33 40 90 41 84 42 86 43 34 44 89 45
REMARK SMILES IDX 83 46 82 47 35 49 69 50 48 51 68 52 49 53 52 54 67 55 87 56
REMARK SMILES IDX 50 57 51 58 66 60 88 61 53 62 36 63 37 64 46 65 38 66 39 67
REMARK SMILES IDX 45 68 47 69 40 70 41 71 42 72 43 73 44 74 70 75 71 76 80 77
REMARK SMILES IDX 72 78 73 79 79 80 81 81 74 82 75 83 76 84 77 85 78 86 54 87
REMARK SMILES IDX 55 88 64 89 56 90 57 91 63 92 65 93 58 94 59 95 60 96 61 97
REMARK SMILES IDX 62 98
REMARK H PARENT 19 6 10 19 24 29 86 48 52 59
REMARK Flexibility Score: inf
ROOT
ATOM      1  C   UNL A   1      35.528  21.598  25.750  1.00  0.00     0.023 C 
ENDROOT
BRANCH   1   2
ATOM      2  C   UNL A   1      35.531  20.288  24.954  1.00  0.00     0.116 C 
BRANCH   2   3
ATOM      3  N   UNL A   1      34.308  19.547  25.175  1.00  0.00    -0.356 N 
ATOM      4  C   UNL A   1      33.033  19.692  24.749  1.00  0.00     0.220 C 
ATOM      5  O   UNL A   1      32.215  18.898  25.229  1.00  0.00    -0.275 OA
ATOM      6  H   UNL A   1      34.432  18.768  25.762  1.00  0.00     0.163 HD
BRANCH   4   7
ATOM      7  C   UNL A   1      32.589  20.603  23.609  1.00  0.00     0.102 C 
BRANCH   7   8
ATOM      8  C   UNL A   1      32.281  22.101  23.676  1.00  0.00     0.031 C 
BRANCH   8   9
ATOM      9  C   UNL A   1      31.419  22.696  24.774  1.00  0.00     0.124 C 
BRANCH   9  10
ATOM     10  N   UNL A   1      31.654  24.047  25.281  1.00  0.00    -0.300 N 
ATOM     11  N   UNL A   1      33.283  25.714  23.905  1.00  0.00    -0.300 N 
ATOM     12  C   UNL A   1      33.515  27.090  24.291  1.00  0.00     0.323 C 
ATOM     13  C   UNL A   1      32.145  25.278  24.686  1.00  0.00     0.231 C 
ATOM     14  O   UNL A   1      34.130  27.928  23.640  1.00  0.00    -0.248 OA
ATOM     15  N   UNL A   1      32.856  27.312  25.510  1.00  0.00    -0.300 N 
ATOM     16  C   UNL A   1      32.472  26.041  25.982  1.00  0.00     0.228 C 
ATOM     17  N   UNL A   1      31.363  25.762  26.794  1.00  0.00    -0.314 N 
ATOM     18  C   UNL A   1      31.008  24.444  26.500  1.00  0.00     0.320 C 
ATOM     19  H   UNL A   1      30.926  26.368  27.435  1.00  0.00     0.167 HD
ATOM     20  O   UNL A   1      30.277  23.762  27.214  1.00  0.00    -0.249 OA
BRANCH  11  21
ATOM     21  C   UNL A   1      33.626  25.341  22.547  1.00  0.00     0.120 C 
ATOM     22  C   UNL A   1      32.595  25.771  21.524  1.00  0.00     0.027 C 
ENDBRANCH  11  21
BRANCH  15  23
ATOM     23  C   UNL A   1      32.726  28.558  26.235  1.00  0.00     0.120 C 
ATOM     24  C   UNL A   1      31.655  29.492  25.695  1.00  0.00     0.027 C 
ENDBRANCH  15  23
ENDBRANCH   9  10
ENDBRANCH   8   9
ENDBRANCH   7   8
ENDBRANCH   4   7
ENDBRANCH   2   3
ENDBRANCH   1   2
BRANCH   1  25
ATOM     25  C   UNL A   1      35.693  22.829  24.876  1.00  0.00     0.023 C 
BRANCH  25  26
ATOM     26  C   UNL A   1      36.994  23.573  25.143  1.00  0.00     0.116 C 
BRANCH  26  27
ATOM     27  N   UNL A   1      38.125  22.687  25.394  1.00  0.00    -0.352 N 
ATOM     28  C   UNL A   1      39.269  22.954  26.114  1.00  0.00     0.251 C 
ATOM     29  H   UNL A   1      38.062  21.786  25.001  1.00  0.00     0.163 HD
ATOM     30  O   UNL A   1      40.180  22.135  26.175  1.00  0.00    -0.269 OA
BRANCH  28  31
ATOM     31  C   UNL A   1      39.391  24.272  26.767  1.00  0.00     0.039 A 
ATOM     32  C   UNL A   1      38.890  24.436  28.060  1.00  0.00     0.014 A 
ATOM     33  C   UNL A   1      40.126  25.287  26.150  1.00  0.00     0.014 A 
ATOM     34  C   UNL A   1      39.209  25.593  28.772  1.00  0.00     0.010 A 
ATOM     35  C   UNL A   1      40.517  26.392  26.895  1.00  0.00     0.010 A 
ATOM     36  C   UNL A   1      40.069  26.555  28.216  1.00  0.00    -0.014 A 
BRANCH  36  37
ATOM     37  C   UNL A   1      40.523  27.734  28.997  1.00  0.00     0.031 A 
ATOM     38  C   UNL A   1      41.881  27.726  29.641  1.00  0.00     0.074 A 
ATOM     39  C   UNL A   1      39.684  28.771  29.199  1.00  0.00     0.049 A 
ATOM     40  N   UNL A   1      42.427  28.616  30.428  1.00  0.00    -0.248 NA
ATOM     41  C   UNL A   1      42.722  26.543  29.398  1.00  0.00     0.031 C 
ATOM     42  C   UNL A   1      38.318  28.873  28.681  1.00  0.00     0.029 A 
ATOM     43  N   UNL A   1      39.857  29.936  29.903  1.00  0.00    -0.354 N 
ATOM     44  C   UNL A   1      43.658  28.088  30.797  1.00  0.00     0.074 A 
ATOM     45  C   UNL A   1      43.755  26.778  30.191  1.00  0.00     0.031 C 
ATOM     46  C   UNL A   1      37.792  30.051  29.053  1.00  0.00     0.029 A 
ATOM     47  C   UNL A   1      38.767  30.773  29.866  1.00  0.00     0.049 A 
ATOM     48  H   UNL A   1      40.685  30.153  30.390  1.00  0.00     0.167 HD
ATOM     49  C   UNL A   1      44.631  28.652  31.551  1.00  0.00     0.037 A 
ATOM     50  C   UNL A   1      38.575  31.986  30.421  1.00  0.00     0.037 A 
ATOM     51  C   UNL A   1      44.550  29.973  32.112  1.00  0.00     0.049 A 
ATOM     52  C   UNL A   1      39.681  32.607  31.229  1.00  0.00     0.074 A 
ATOM     53  C   UNL A   1      45.516  30.669  32.819  1.00  0.00     0.029 A 
ATOM     54  N   UNL A   1      43.441  30.801  32.029  1.00  0.00    -0.354 N 
ATOM     55  N   UNL A   1      40.866  32.123  31.510  1.00  0.00    -0.248 NA
ATOM     56  C   UNL A   1      39.424  33.940  31.794  1.00  0.00     0.031 C 
ATOM     57  C   UNL A   1      44.977  31.906  33.192  1.00  0.00     0.029 A 
ATOM     58  C   UNL A   1      43.689  31.994  32.685  1.00  0.00     0.049 A 
ATOM     59  H   UNL A   1      42.600  30.573  31.570  1.00  0.00     0.167 HD
ATOM     60  C   UNL A   1      41.509  33.102  32.261  1.00  0.00     0.074 A 
ATOM     61  C   UNL A   1      40.580  34.208  32.386  1.00  0.00     0.031 C 
ATOM     62  C   UNL A   1      42.755  33.088  32.794  1.00  0.00     0.037 A 
BRANCH  49  63
ATOM     63  C   UNL A   1      45.865  27.830  31.803  1.00  0.00     0.058 A 
ATOM     64  C   UNL A   1      45.919  26.875  32.831  1.00  0.00     0.135 A 
ATOM     65  C   UNL A   1      47.014  28.012  31.017  1.00  0.00     0.135 A 
ATOM     66  F   UNL A   1      44.853  26.673  33.623  1.00  0.00    -0.206 F 
ATOM     67  C   UNL A   1      47.083  26.165  33.103  1.00  0.00     0.059 A 
ATOM     68  C   UNL A   1      48.181  27.292  31.253  1.00  0.00     0.059 A 
ATOM     69  F   UNL A   1      47.017  28.912  30.020  1.00  0.00    -0.206 F 
ATOM     70  C   UNL A   1      48.213  26.388  32.315  1.00  0.00     0.060 A 
BRANCH  70  71
ATOM     71  S   UNL A   1      49.728  25.486  32.699  1.00  0.00     0.124 S 
ATOM     72  O   UNL A   1      49.285  24.634  33.800  1.00  0.00    -0.237 OA
ATOM     73  O   UNL A   1      50.014  24.799  31.445  1.00  0.00    -0.237 OA
ATOM     74  O   UNL A   1      50.668  26.542  33.061  1.00  0.00    -0.744 OA
ENDBRANCH  70  71
ENDBRANCH  49  63
BRANCH  50  75
ATOM     75  C   UNL A   1      37.302  32.714  30.183  1.00  0.00     0.058 A 
ATOM     76  C   UNL A   1      37.205  33.665  29.156  1.00  0.00     0.135 A 
ATOM     77  C   UNL A   1      36.152  32.455  30.944  1.00  0.00     0.135 A 
ATOM     78  F   UNL A   1      38.281  33.951  28.406  1.00  0.00    -0.206 F 
ATOM     79  C   UNL A   1      36.016  34.335  28.891  1.00  0.00     0.059 A 
ATOM     80  C   UNL A   1      34.945  33.099  30.687  1.00  0.00     0.059 A 
ATOM     81  F   UNL A   1      36.189  31.543  31.929  1.00  0.00    -0.206 F 
ATOM     82  C   UNL A   1      34.889  34.041  29.660  1.00  0.00     0.060 A 
BRANCH  82  83
ATOM     83  S   UNL A   1      33.331  34.863  29.259  1.00  0.00     0.124 S 
ATOM     84  O   UNL A   1      32.727  33.914  28.332  1.00  0.00    -0.237 OA
ATOM     85  O   UNL A   1      32.696  34.972  30.568  1.00  0.00    -0.237 OA
ATOM     86  O   UNL A   1      33.763  36.129  28.674  1.00  0.00    -0.744 OA
ENDBRANCH  82  83
ENDBRANCH  50  75
BRANCH  62  87
ATOM     87  C   UNL A   1      43.204  34.314  33.537  1.00  0.00     0.058 A 
ATOM     88  C   UNL A   1      43.685  35.447  32.864  1.00  0.00     0.135 A 
ATOM     89  C   UNL A   1      43.097  34.375  34.935  1.00  0.00     0.135 A 
ATOM     90  F   UNL A   1      43.814  35.435  31.527  1.00  0.00    -0.206 F 
ATOM     91  C   UNL A   1      44.060  36.595  33.552  1.00  0.00     0.059 A 
ATOM     92  C   UNL A   1      43.443  35.521  35.643  1.00  0.00     0.059 A 
ATOM     93  F   UNL A   1      42.633  33.321  35.625  1.00  0.00    -0.206 F 
ATOM     94  C   UNL A   1      43.934  36.623  34.944  1.00  0.00     0.060 A 
BRANCH  94  95
ATOM     95  S   UNL A   1      44.382  38.134  35.825  1.00  0.00     0.124 S 
ATOM     96  O   UNL A   1      43.916  39.162  34.900  1.00  0.00    -0.237 OA
ATOM     97  O   UNL A   1      43.625  38.010  37.068  1.00  0.00    -0.237 OA
ATOM     98  O   UNL A   1      45.831  38.026  35.967  1.00  0.00    -0.744 OA
ENDBRANCH  94  95
ENDBRANCH  62  87
ENDBRANCH  36  37
ENDBRANCH  28  31
ENDBRANCH  26  27
ENDBRANCH  25  26
ENDBRANCH   1  25
TORSDOF 19
ENDMDL
MODEL 3
REMARK VINA RESULT:     -10.5      4.703     10.443
REMARK SMILES CCN1C(=O)N(CC)[C@H]2NC(=O)N(CCCC(=O)NCCCCNC(=O)c3ccc(-c4c5nc(c(-c6c(F)cc(S(=O)(=O)[O-])cc6F)c6ccc([nH]6)c(-c6c(F)cc(S(=O)(=O)[O-])cc6F)c6nc(c(-c7c(F)cc(S(=O)(=O)[O-])cc7F)c7ccc4[nH]7)C=C6)C=C5)cc3)[C@@H]21
REMARK SMILES IDX 21 1 20 2 19 3 17 4 18 5 16 7 15 8 14 9 13 10 3 11 4 12
REMARK SMILES IDX 93 13 5 14 6 15 9 16 10 17 11 18 12 20 2 21 1 22 7 23 8 24
REMARK SMILES IDX 22 25 23 26 24 27 25 28 26 30 27 31 28 32 92 33 29 34 91 35
REMARK SMILES IDX 30 36 31 37 32 38 85 39 33 40 90 41 84 42 86 43 34 44 89 45
REMARK SMILES IDX 83 46 82 47 35 49 69 50 48 51 68 52 49 53 52 54 67 55 87 56
REMARK SMILES IDX 50 57 51 58 66 60 88 61 53 62 36 63 37 64 46 65 38 66 39 67
REMARK SMILES IDX 45 68 47 69 40 70 41 71 42 72 43 73 44 74 70 75 71 76 80 77
REMARK SMILES IDX 72 78 73 79 79 80 81 81 74 82 75 83 76 84 77 85 78 86 54 87
REMARK SMILES IDX 55 88 64 89 56 90 57 91 63 92 65 93 58 94 59 95 60 96 61 97
REMARK SMILES IDX 62 98
REMARK H PARENT 19 6 10 19 24 29 86 48 52 59
REMARK Flexibility Score: inf
ROOT
ATOM      1  C   UNL A   1      39.204  21.516  25.908  1.00  0.00     0.023 C 
ENDROOT
BRANCH   1   2
ATOM      2  C   UNL A   1      37.787  21.291  25.369  1.00  0.00     0.116 C 
BRANCH   2   3
ATOM      3  N   UNL A   1      36.825  22.091  26.095  1.00  0.00    -0.356 N 
ATOM      4  C   UNL A   1      35.474  22.126  26.135  1.00  0.00     0.220 C 
ATOM      5  O   UNL A   1      34.982  23.030  26.823  1.00  0.00    -0.275 OA
ATOM      6  H   UNL A   1      37.245  22.753  26.689  1.00  0.00     0.163 HD
BRANCH   4   7
ATOM      7  C   UNL A   1      34.553  21.048  25.573  1.00  0.00     0.102 C 
BRANCH   7   8
ATOM      8  C   UNL A   1      33.211  21.242  24.862  1.00  0.00     0.031 C 
BRANCH   8   9
ATOM      9  C   UNL A   1      32.010  21.848  25.563  1.00  0.00     0.124 C 
BRANCH   9  10
ATOM     10  N   UNL A   1      31.878  23.293  25.739  1.00  0.00    -0.300 N 
ATOM     11  N   UNL A   1      33.407  24.954  24.245  1.00  0.00    -0.300 N 
ATOM     12  C   UNL A   1      33.292  26.396  24.297  1.00  0.00     0.323 C 
ATOM     13  C   UNL A   1      32.238  24.446  24.930  1.00  0.00     0.231 C 
ATOM     14  O   UNL A   1      33.857  27.192  23.554  1.00  0.00    -0.248 OA
ATOM     15  N   UNL A   1      32.370  26.718  25.304  1.00  0.00    -0.300 N 
ATOM     16  C   UNL A   1      32.144  25.526  26.022  1.00  0.00     0.228 C 
ATOM     17  N   UNL A   1      30.967  25.180  26.700  1.00  0.00    -0.314 N 
ATOM     18  C   UNL A   1      30.934  23.785  26.703  1.00  0.00     0.320 C 
ATOM     19  H   UNL A   1      30.302  25.793  27.091  1.00  0.00     0.167 HD
ATOM     20  O   UNL A   1      30.216  23.123  27.448  1.00  0.00    -0.249 OA
BRANCH  11  21
ATOM     21  C   UNL A   1      34.083  24.385  23.096  1.00  0.00     0.120 C 
ATOM     22  C   UNL A   1      33.140  23.961  21.990  1.00  0.00     0.027 C 
ENDBRANCH  11  21
BRANCH  15  23
ATOM     23  C   UNL A   1      31.862  28.027  25.658  1.00  0.00     0.120 C 
ATOM     24  C   UNL A   1      31.149  28.753  24.529  1.00  0.00     0.027 C 
ENDBRANCH  15  23
ENDBRANCH   9  10
ENDBRANCH   8   9
ENDBRANCH   7   8
ENDBRANCH   4   7
ENDBRANCH   2   3
ENDBRANCH   1   2
BRANCH   1  25
ATOM     25  C   UNL A   1      39.297  22.682  26.876  1.00  0.00     0.023 C 
BRANCH  25  26
ATOM     26  C   UNL A   1      40.720  23.197  27.045  1.00  0.00     0.116 C 
BRANCH  26  27
ATOM     27  N   UNL A   1      41.152  24.067  25.956  1.00  0.00    -0.352 N 
ATOM     28  C   UNL A   1      41.458  25.409  26.012  1.00  0.00     0.251 C 
ATOM     29  H   UNL A   1      41.236  23.642  25.072  1.00  0.00     0.163 HD
ATOM     30  O   UNL A   1      41.731  26.036  24.994  1.00  0.00    -0.269 OA
BRANCH  28  31
ATOM     31  C   UNL A   1      41.399  26.084  27.324  1.00  0.00     0.039 A 
ATOM     32  C   UNL A   1      42.515  26.792  27.772  1.00  0.00     0.014 A 
ATOM     33  C   UNL A   1      40.193  26.128  28.028  1.00  0.00     0.014 A 
ATOM     34  C   UNL A   1      42.391  27.625  28.886  1.00  0.00     0.010 A 
ATOM     35  C   UNL A   1      40.050  27.027  29.076  1.00  0.00     0.010 A 
ATOM     36  C   UNL A   1      41.145  27.791  29.513  1.00  0.00    -0.014 A 
BRANCH  36  37
ATOM     37  C   UNL A   1      40.957  28.762  30.621  1.00  0.00     0.031 A 
ATOM     38  C   UNL A   1      41.824  28.676  31.846  1.00  0.00     0.074 A 
ATOM     39  C   UNL A   1      39.954  29.662  30.565  1.00  0.00     0.049 A 
ATOM     40  N   UNL A   1      41.764  29.372  32.951  1.00  0.00    -0.248 NA
ATOM     41  C   UNL A   1      42.875  27.645  31.841  1.00  0.00     0.031 C 
ATOM     42  C   UNL A   1      39.003  29.806  29.460  1.00  0.00     0.029 A 
ATOM     43  N   UNL A   1      39.562  30.621  31.464  1.00  0.00    -0.354 N 
ATOM     44  C   UNL A   1      42.744  28.844  33.782  1.00  0.00     0.074 A 
ATOM     45  C   UNL A   1      43.348  27.736  33.074  1.00  0.00     0.031 C 
ATOM     46  C   UNL A   1      38.164  30.819  29.730  1.00  0.00     0.029 A 
ATOM     47  C   UNL A   1      38.490  31.372  31.042  1.00  0.00     0.049 A 
ATOM     48  H   UNL A   1      40.007  30.759  32.332  1.00  0.00     0.167 HD
ATOM     49  C   UNL A   1      43.126  29.259  35.014  1.00  0.00     0.037 A 
ATOM     50  C   UNL A   1      37.847  32.393  31.642  1.00  0.00     0.037 A 
ATOM     51  C   UNL A   1      42.556  30.390  35.694  1.00  0.00     0.049 A 
ATOM     52  C   UNL A   1      38.307  32.858  32.995  1.00  0.00     0.074 A 
ATOM     53  C   UNL A   1      42.930  30.943  36.906  1.00  0.00     0.029 A 
ATOM     54  N   UNL A   1      41.492  31.143  35.221  1.00  0.00    -0.354 N 
ATOM     55  N   UNL A   1      39.282  32.393  33.738  1.00  0.00    -0.248 NA
ATOM     56  C   UNL A   1      37.581  33.988  33.592  1.00  0.00     0.031 C 
ATOM     57  C   UNL A   1      42.069  32.012  37.182  1.00  0.00     0.029 A 
ATOM     58  C   UNL A   1      41.183  32.146  36.123  1.00  0.00     0.049 A 
ATOM     59  H   UNL A   1      41.024  30.986  34.368  1.00  0.00     0.167 HD
ATOM     60  C   UNL A   1      39.307  33.189  34.877  1.00  0.00     0.074 A 
ATOM     61  C   UNL A   1      38.250  34.170  34.723  1.00  0.00     0.031 C 
ATOM     62  C   UNL A   1      40.131  33.118  35.951  1.00  0.00     0.037 A 
BRANCH  49  63
ATOM     63  C   UNL A   1      44.217  28.477  35.692  1.00  0.00     0.058 A 
ATOM     64  C   UNL A   1      45.575  28.761  35.472  1.00  0.00     0.135 A 
ATOM     65  C   UNL A   1      43.901  27.421  36.561  1.00  0.00     0.135 A 
ATOM     66  F   UNL A   1      45.932  29.750  34.638  1.00  0.00    -0.206 F 
ATOM     67  C   UNL A   1      46.580  27.993  36.049  1.00  0.00     0.059 A 
ATOM     68  C   UNL A   1      44.892  26.658  37.172  1.00  0.00     0.059 A 
ATOM     69  F   UNL A   1      42.619  27.108  36.808  1.00  0.00    -0.206 F 
ATOM     70  C   UNL A   1      46.228  26.937  36.890  1.00  0.00     0.060 A 
BRANCH  70  71
ATOM     71  S   UNL A   1      47.541  25.926  37.606  1.00  0.00     0.124 S 
ATOM     72  O   UNL A   1      47.204  25.979  39.026  1.00  0.00    -0.237 OA
ATOM     73  O   UNL A   1      47.337  24.637  36.955  1.00  0.00    -0.237 OA
ATOM     74  O   UNL A   1      48.759  26.633  37.223  1.00  0.00    -0.744 OA
ENDBRANCH  70  71
ENDBRANCH  49  63
BRANCH  50  75
ATOM     75  C   UNL A   1      36.732  33.079  30.936  1.00  0.00     0.058 A 
ATOM     76  C   UNL A   1      35.400  32.831  31.297  1.00  0.00     0.135 A 
ATOM     77  C   UNL A   1      36.971  34.016  29.919  1.00  0.00     0.135 A 
ATOM     78  F   UNL A   1      35.123  31.939  32.260  1.00  0.00    -0.206 F 
ATOM     79  C   UNL A   1      34.342  33.485  30.675  1.00  0.00     0.059 A 
ATOM     80  C   UNL A   1      35.931  34.696  29.294  1.00  0.00     0.059 A 
ATOM     81  F   UNL A   1      38.230  34.298  29.548  1.00  0.00    -0.206 F 
ATOM     82  C   UNL A   1      34.618  34.420  29.678  1.00  0.00     0.060 A 
BRANCH  82  83
ATOM     83  S   UNL A   1      33.240  35.317  28.929  1.00  0.00     0.124 S 
ATOM     84  O   UNL A   1      32.652  34.293  28.074  1.00  0.00    -0.237 OA
ATOM     85  O   UNL A   1      32.455  35.704  30.097  1.00  0.00    -0.237 OA
ATOM     86  O   UNL A   1      33.898  36.420  28.234  1.00  0.00    -0.744 OA
ENDBRANCH  82  83
ENDBRANCH  50  75
BRANCH  62  87
ATOM     87  C   UNL A   1      39.948  34.143  37.033  1.00  0.00     0.058 A 
ATOM     88  C   UNL A   1      40.675  35.343  37.040  1.00  0.00     0.135 A 
ATOM     89  C   UNL A   1      38.993  33.947  38.043  1.00  0.00     0.135 A 
ATOM     90  F   UNL A   1      41.606  35.575  36.101  1.00  0.00    -0.206 F 
ATOM     91  C   UNL A   1      40.472  36.309  38.020  1.00  0.00     0.059 A 
ATOM     92  C   UNL A   1      38.757  34.908  39.020  1.00  0.00     0.059 A 
ATOM     93  F   UNL A   1      38.265  32.819  38.075  1.00  0.00    -0.206 F 
ATOM     94  C   UNL A   1      39.509  36.082  39.006  1.00  0.00     0.060 A 
BRANCH  94  95
ATOM     95  S   UNL A   1      39.222  37.360  40.249  1.00  0.00     0.124 S 
ATOM     96  O   UNL A   1      38.249  38.212  39.573  1.00  0.00    -0.237 OA
ATOM     97  O   UNL A   1      38.714  36.591  41.381  1.00  0.00    -0.237 OA
ATOM     98  O   UNL A   1      40.545  37.948  40.441  1.00  0.00    -0.744 OA
ENDBRANCH  94  95
ENDBRANCH  62  87
ENDBRANCH  36  37
ENDBRANCH  28  31
ENDBRANCH  26  27
ENDBRANCH  25  26
ENDBRANCH   1  25
TORSDOF 19
ENDMDL
