MODEL 1
REMARK VINA RESULT:     -12.0      0.000      0.000
REMARK SMILES CC[C@@H]1CC[C@](C[C@@H]2CCCc3ccccc32)(C(=O)NCCCCNC(=O)c2ccc(-c3c4nc(c(-c5c(F)cc(S(=O)(=O)[O-])cc5F)c5ccc([nH]5)c(-c5c(F)cc(S(=O)(=O)[O-])cc5F)c5nc(c(-c6c(F)cc(S(=O)(=O)[O-])cc6F)c6ccc3[nH]6)C=C5)C=C4)cc2)C1
REMARK SMILES IDX 23 1 22 2 21 3 20 4 18 5 19 6 6 8 3 9 4 10 94 11 5 12 2 13
REMARK SMILES IDX 1 14 7 15 8 16 9 17 17 18 10 19 12 20 16 21 11 22 13 23
REMARK SMILES IDX 15 24 14 25 24 26 25 27 26 28 27 30 28 31 29 32 93 33 30 34
REMARK SMILES IDX 92 35 31 36 32 37 33 38 86 39 34 40 91 41 85 42 87 43 35 44
REMARK SMILES IDX 90 45 84 46 83 47 36 49 70 50 49 51 69 52 50 53 53 54 68 55
REMARK SMILES IDX 88 56 51 57 52 58 67 60 89 61 54 62 37 63 38 64 47 65 39 66
REMARK SMILES IDX 40 67 46 68 48 69 41 70 42 71 43 72 44 73 45 74 71 75 72 76
REMARK SMILES IDX 81 77 73 78 74 79 80 80 82 81 75 82 76 83 77 84 78 85 79 86
REMARK SMILES IDX 55 87 56 88 65 89 57 90 58 91 64 92 66 93 59 94 60 95 61 96
REMARK SMILES IDX 62 97 63 98
REMARK H PARENT 20 7 25 29 87 48 53 59
REMARK Flexibility Score: inf
ROOT
ATOM      1  C   UNL A   1      32.261  27.832  26.696  1.00  0.00     0.023 C 
ENDROOT
BRANCH   1   2
ATOM      2  C   UNL A   1      32.260  27.649  25.182  1.00  0.00     0.023 C 
BRANCH   2   3
ATOM      3  C   UNL A   1      33.651  27.586  24.531  1.00  0.00     0.116 C 
BRANCH   3   4
ATOM      4  N   UNL A   1      33.593  26.923  23.242  1.00  0.00    -0.356 N 
ATOM      5  C   UNL A   1      33.757  25.627  22.850  1.00  0.00     0.226 C 
ATOM      6  O   UNL A   1      33.712  25.457  21.625  1.00  0.00    -0.274 OA
ATOM      7  H   UNL A   1      33.394  27.535  22.497  1.00  0.00     0.163 HD
BRANCH   5   8
ATOM      8  C   UNL A   1      33.859  24.414  23.843  1.00  0.00     0.050 C 
ATOM      9  C   UNL A   1      35.862  23.533  24.945  1.00  0.00    -0.010 C 
ATOM     10  C   UNL A   1      35.972  23.182  23.474  1.00  0.00     0.005 C 
ATOM     11  C   UNL A   1      34.924  24.736  24.931  1.00  0.00     0.020 C 
ATOM     12  C   UNL A   1      34.511  23.273  23.010  1.00  0.00     0.017 C 
BRANCH   9  13
ATOM     13  C   UNL A   1      37.150  23.715  25.745  1.00  0.00     0.000 C 
ATOM     14  C   UNL A   1      38.082  22.518  25.814  1.00  0.00     0.004 C 
ENDBRANCH   9  13
BRANCH   8  15
ATOM     15  C   UNL A   1      32.487  24.130  24.534  1.00  0.00     0.025 C 
BRANCH  15  16
ATOM     16  C   UNL A   1      32.089  23.009  25.538  1.00  0.00     0.020 C 
ATOM     17  C   UNL A   1      32.233  23.308  27.034  1.00  0.00     0.009 C 
ATOM     18  C   UNL A   1      32.532  21.624  25.148  1.00  0.00    -0.042 A 
ATOM     19  C   UNL A   1      33.526  22.829  27.662  1.00  0.00     0.005 C 
ATOM     20  C   UNL A   1      33.480  20.927  25.906  1.00  0.00    -0.045 A 
ATOM     21  C   UNL A   1      32.010  21.036  23.978  1.00  0.00     0.004 A 
ATOM     22  C   UNL A   1      33.925  21.405  27.267  1.00  0.00     0.036 C 
ATOM     23  C   UNL A   1      33.974  19.707  25.417  1.00  0.00     0.004 A 
ATOM     24  C   UNL A   1      32.490  19.812  23.517  1.00  0.00     0.000 A 
ATOM     25  C   UNL A   1      33.495  19.162  24.223  1.00  0.00     0.000 A 
ENDBRANCH  15  16
ENDBRANCH   8  15
ENDBRANCH   5   8
ENDBRANCH   3   4
ENDBRANCH   2   3
ENDBRANCH   1   2
BRANCH   1  26
ATOM     26  C   UNL A   1      33.551  28.405  27.255  1.00  0.00     0.116 C 
BRANCH  26  27
ATOM     27  N   UNL A   1      33.446  29.808  27.628  1.00  0.00    -0.352 N 
ATOM     28  C   UNL A   1      34.426  30.614  28.162  1.00  0.00     0.251 C 
ATOM     29  H   UNL A   1      32.569  30.232  27.483  1.00  0.00     0.163 HD
ATOM     30  O   UNL A   1      34.171  31.756  28.516  1.00  0.00    -0.269 OA
BRANCH  28  31
ATOM     31  C   UNL A   1      35.778  30.047  28.345  1.00  0.00     0.039 A 
ATOM     32  C   UNL A   1      36.688  30.121  27.289  1.00  0.00     0.014 A 
ATOM     33  C   UNL A   1      36.163  29.525  29.582  1.00  0.00     0.014 A 
ATOM     34  C   UNL A   1      38.011  29.733  27.499  1.00  0.00     0.010 A 
ATOM     35  C   UNL A   1      37.498  29.218  29.811  1.00  0.00     0.010 A 
ATOM     36  C   UNL A   1      38.435  29.317  28.772  1.00  0.00    -0.014 A 
BRANCH  36  37
ATOM     37  C   UNL A   1      39.853  28.975  29.039  1.00  0.00     0.031 A 
ATOM     38  C   UNL A   1      40.776  30.013  29.615  1.00  0.00     0.074 A 
ATOM     39  C   UNL A   1      40.322  27.760  28.694  1.00  0.00     0.049 A 
ATOM     40  N   UNL A   1      42.059  29.936  29.851  1.00  0.00    -0.248 NA
ATOM     41  C   UNL A   1      40.184  31.321  29.938  1.00  0.00     0.031 C 
ATOM     42  C   UNL A   1      39.535  26.692  28.072  1.00  0.00     0.029 A 
ATOM     43  N   UNL A   1      41.578  27.220  28.807  1.00  0.00    -0.354 N 
ATOM     44  C   UNL A   1      42.430  31.185  30.334  1.00  0.00     0.074 A 
ATOM     45  C   UNL A   1      41.249  32.019  30.303  1.00  0.00     0.031 C 
ATOM     46  C   UNL A   1      40.320  25.620  27.881  1.00  0.00     0.029 A 
ATOM     47  C   UNL A   1      41.672  25.933  28.333  1.00  0.00     0.049 A 
ATOM     48  H   UNL A   1      42.341  27.709  29.192  1.00  0.00     0.167 HD
ATOM     49  C   UNL A   1      43.639  31.591  30.787  1.00  0.00     0.037 A 
ATOM     50  C   UNL A   1      42.731  25.102  28.268  1.00  0.00     0.037 A 
ATOM     51  C   UNL A   1      44.802  30.744  30.844  1.00  0.00     0.049 A 
ATOM     52  C   UNL A   1      44.061  25.570  28.794  1.00  0.00     0.074 A 
ATOM     53  C   UNL A   1      46.056  31.038  31.345  1.00  0.00     0.029 A 
ATOM     54  N   UNL A   1      44.849  29.435  30.387  1.00  0.00    -0.354 N 
ATOM     55  N   UNL A   1      44.377  26.733  29.311  1.00  0.00    -0.248 NA
ATOM     56  C   UNL A   1      45.173  24.613  28.737  1.00  0.00     0.031 C 
ATOM     57  C   UNL A   1      46.874  29.919  31.157  1.00  0.00     0.029 A 
ATOM     58  C   UNL A   1      46.116  28.913  30.580  1.00  0.00     0.049 A 
ATOM     59  H   UNL A   1      44.092  28.949  29.985  1.00  0.00     0.167 HD
ATOM     60  C   UNL A   1      45.719  26.639  29.665  1.00  0.00     0.074 A 
ATOM     61  C   UNL A   1      46.150  25.301  29.312  1.00  0.00     0.031 C 
ATOM     62  C   UNL A   1      46.522  27.574  30.229  1.00  0.00     0.037 A 
BRANCH  49  63
ATOM     63  C   UNL A   1      43.760  33.011  31.264  1.00  0.00     0.058 A 
ATOM     64  C   UNL A   1      43.524  33.359  32.604  1.00  0.00     0.135 A 
ATOM     65  C   UNL A   1      44.141  34.034  30.381  1.00  0.00     0.135 A 
ATOM     66  F   UNL A   1      43.140  32.425  33.488  1.00  0.00    -0.206 F 
ATOM     67  C   UNL A   1      43.629  34.675  33.044  1.00  0.00     0.059 A 
ATOM     68  C   UNL A   1      44.280  35.352  30.805  1.00  0.00     0.059 A 
ATOM     69  F   UNL A   1      44.376  33.757  29.088  1.00  0.00    -0.206 F 
ATOM     70  C   UNL A   1      44.006  35.664  32.136  1.00  0.00     0.060 A 
BRANCH  70  71
ATOM     71  S   UNL A   1      44.140  37.366  32.723  1.00  0.00     0.124 S 
ATOM     72  O   UNL A   1      43.016  37.443  33.651  1.00  0.00    -0.237 OA
ATOM     73  O   UNL A   1      45.466  37.382  33.332  1.00  0.00    -0.237 OA
ATOM     74  O   UNL A   1      44.003  38.157  31.504  1.00  0.00    -0.744 OA
ENDBRANCH  70  71
ENDBRANCH  49  63
BRANCH  50  75
ATOM     75  C   UNL A   1      42.568  23.733  27.711  1.00  0.00     0.058 A 
ATOM     76  C   UNL A   1      42.409  22.626  28.557  1.00  0.00     0.135 A 
ATOM     77  C   UNL A   1      42.553  23.505  26.326  1.00  0.00     0.135 A 
ATOM     78  F   UNL A   1      42.422  22.792  29.889  1.00  0.00    -0.206 F 
ATOM     79  C   UNL A   1      42.259  21.337  28.052  1.00  0.00     0.059 A 
ATOM     80  C   UNL A   1      42.378  22.230  25.797  1.00  0.00     0.059 A 
ATOM     81  F   UNL A   1      42.681  24.533  25.474  1.00  0.00    -0.206 F 
ATOM     82  C   UNL A   1      42.242  21.150  26.670  1.00  0.00     0.060 A 
BRANCH  82  83
ATOM     83  S   UNL A   1      41.997  19.481  26.025  1.00  0.00     0.124 S 
ATOM     84  O   UNL A   1      42.837  19.500  24.833  1.00  0.00    -0.237 OA
ATOM     85  O   UNL A   1      42.471  18.653  27.129  1.00  0.00    -0.237 OA
ATOM     86  O   UNL A   1      40.558  19.424  25.783  1.00  0.00    -0.744 OA
ENDBRANCH  82  83
ENDBRANCH  50  75
BRANCH  62  87
ATOM     87  C   UNL A   1      47.939  27.176  30.535  1.00  0.00     0.058 A 
ATOM     88  C   UNL A   1      48.964  27.316  29.586  1.00  0.00     0.135 A 
ATOM     89  C   UNL A   1      48.283  26.700  31.810  1.00  0.00     0.135 A 
ATOM     90  F   UNL A   1      48.685  27.761  28.350  1.00  0.00    -0.206 F 
ATOM     91  C   UNL A   1      50.280  26.980  29.886  1.00  0.00     0.059 A 
ATOM     92  C   UNL A   1      49.596  26.382  32.139  1.00  0.00     0.059 A 
ATOM     93  F   UNL A   1      47.341  26.558  32.756  1.00  0.00    -0.206 F 
ATOM     94  C   UNL A   1      50.586  26.515  31.167  1.00  0.00     0.060 A 
BRANCH  94  95
ATOM     95  S   UNL A   1      52.304  26.118  31.556  1.00  0.00     0.124 S 
ATOM     96  O   UNL A   1      52.192  24.731  31.996  1.00  0.00    -0.237 OA
ATOM     97  O   UNL A   1      52.972  26.325  30.275  1.00  0.00    -0.237 OA
ATOM     98  O   UNL A   1      52.648  27.082  32.597  1.00  0.00    -0.744 OA
ENDBRANCH  94  95
ENDBRANCH  62  87
ENDBRANCH  36  37
ENDBRANCH  28  31
ENDBRANCH  26  27
ENDBRANCH   1  26
TORSDOF 17
ENDMDL
MODEL 2
REMARK VINA RESULT:     -11.6      0.642      2.125
REMARK SMILES CC[C@@H]1CC[C@](C[C@@H]2CCCc3ccccc32)(C(=O)NCCCCNC(=O)c2ccc(-c3c4nc(c(-c5c(F)cc(S(=O)(=O)[O-])cc5F)c5ccc([nH]5)c(-c5c(F)cc(S(=O)(=O)[O-])cc5F)c5nc(c(-c6c(F)cc(S(=O)(=O)[O-])cc6F)c6ccc3[nH]6)C=C5)C=C4)cc2)C1
REMARK SMILES IDX 23 1 22 2 21 3 20 4 18 5 19 6 6 8 3 9 4 10 94 11 5 12 2 13
REMARK SMILES IDX 1 14 7 15 8 16 9 17 17 18 10 19 12 20 16 21 11 22 13 23
REMARK SMILES IDX 15 24 14 25 24 26 25 27 26 28 27 30 28 31 29 32 93 33 30 34
REMARK SMILES IDX 92 35 31 36 32 37 33 38 86 39 34 40 91 41 85 42 87 43 35 44
REMARK SMILES IDX 90 45 84 46 83 47 36 49 70 50 49 51 69 52 50 53 53 54 68 55
REMARK SMILES IDX 88 56 51 57 52 58 67 60 89 61 54 62 37 63 38 64 47 65 39 66
REMARK SMILES IDX 40 67 46 68 48 69 41 70 42 71 43 72 44 73 45 74 71 75 72 76
REMARK SMILES IDX 81 77 73 78 74 79 80 80 82 81 75 82 76 83 77 84 78 85 79 86
REMARK SMILES IDX 55 87 56 88 65 89 57 90 58 91 64 92 66 93 59 94 60 95 61 96
REMARK SMILES IDX 62 97 63 98
REMARK H PARENT 20 7 25 29 87 48 53 59
REMARK Flexibility Score: inf
ROOT
ATOM      1  C   UNL A   1      34.095  28.277  25.847  1.00  0.00     0.023 C 
ENDROOT
BRANCH   1   2
ATOM      2  C   UNL A   1      33.234  28.863  24.733  1.00  0.00     0.023 C 
BRANCH   2   3
ATOM      3  C   UNL A   1      32.163  27.915  24.169  1.00  0.00     0.116 C 
BRANCH   3   4
ATOM      4  N   UNL A   1      32.580  27.356  22.898  1.00  0.00    -0.356 N 
ATOM      5  C   UNL A   1      33.181  26.183  22.544  1.00  0.00     0.226 C 
ATOM      6  O   UNL A   1      33.459  26.096  21.342  1.00  0.00    -0.274 OA
ATOM      7  H   UNL A   1      32.390  27.944  22.131  1.00  0.00     0.163 HD
BRANCH   5   8
ATOM      8  C   UNL A   1      33.393  24.974  23.525  1.00  0.00     0.050 C 
ATOM      9  C   UNL A   1      32.621  22.664  23.256  1.00  0.00    -0.010 C 
ATOM     10  C   UNL A   1      31.396  23.515  23.526  1.00  0.00     0.005 C 
ATOM     11  C   UNL A   1      33.613  23.677  22.692  1.00  0.00     0.020 C 
ATOM     12  C   UNL A   1      32.005  24.757  24.193  1.00  0.00     0.017 C 
BRANCH   9  13
ATOM     13  C   UNL A   1      32.452  21.386  22.436  1.00  0.00     0.000 C 
ATOM     14  C   UNL A   1      32.151  20.116  23.212  1.00  0.00     0.004 C 
ENDBRANCH   9  13
BRANCH   8  15
ATOM     15  C   UNL A   1      34.629  25.205  24.452  1.00  0.00     0.025 C 
BRANCH  15  16
ATOM     16  C   UNL A   1      35.496  24.175  25.233  1.00  0.00     0.020 C 
ATOM     17  C   UNL A   1      36.785  23.679  24.568  1.00  0.00     0.009 C 
ATOM     18  C   UNL A   1      34.718  23.094  25.934  1.00  0.00    -0.042 A 
ATOM     19  C   UNL A   1      36.657  22.369  23.818  1.00  0.00     0.005 C 
ATOM     20  C   UNL A   1      34.825  21.755  25.540  1.00  0.00    -0.045 A 
ATOM     21  C   UNL A   1      33.838  23.444  26.978  1.00  0.00     0.004 A 
ATOM     22  C   UNL A   1      35.887  21.286  24.577  1.00  0.00     0.036 C 
ATOM     23  C   UNL A   1      33.964  20.809  26.121  1.00  0.00     0.004 A 
ATOM     24  C   UNL A   1      33.009  22.490  27.563  1.00  0.00     0.000 A 
ATOM     25  C   UNL A   1      33.052  21.177  27.112  1.00  0.00     0.000 A 
ENDBRANCH  15  16
ENDBRANCH   8  15
ENDBRANCH   5   8
ENDBRANCH   3   4
ENDBRANCH   2   3
ENDBRANCH   1   2
BRANCH   1  26
ATOM     26  C   UNL A   1      33.531  28.476  27.242  1.00  0.00     0.116 C 
BRANCH  26  27
ATOM     27  N   UNL A   1      33.432  29.876  27.632  1.00  0.00    -0.352 N 
ATOM     28  C   UNL A   1      34.415  30.672  28.175  1.00  0.00     0.251 C 
ATOM     29  H   UNL A   1      32.557  30.304  27.490  1.00  0.00     0.163 HD
ATOM     30  O   UNL A   1      34.163  31.811  28.542  1.00  0.00    -0.269 OA
BRANCH  28  31
ATOM     31  C   UNL A   1      35.765  30.098  28.352  1.00  0.00     0.039 A 
ATOM     32  C   UNL A   1      36.675  30.179  27.297  1.00  0.00     0.014 A 
ATOM     33  C   UNL A   1      36.147  29.561  29.584  1.00  0.00     0.014 A 
ATOM     34  C   UNL A   1      37.997  29.784  27.504  1.00  0.00     0.010 A 
ATOM     35  C   UNL A   1      37.480  29.246  29.810  1.00  0.00     0.010 A 
ATOM     36  C   UNL A   1      38.418  29.353  28.773  1.00  0.00    -0.014 A 
BRANCH  36  37
ATOM     37  C   UNL A   1      39.834  29.002  29.036  1.00  0.00     0.031 A 
ATOM     38  C   UNL A   1      40.768  30.039  29.598  1.00  0.00     0.074 A 
ATOM     39  C   UNL A   1      40.293  27.780  28.701  1.00  0.00     0.049 A 
ATOM     40  N   UNL A   1      42.052  29.953  29.830  1.00  0.00    -0.248 NA
ATOM     41  C   UNL A   1      40.188  31.354  29.912  1.00  0.00     0.031 C 
ATOM     42  C   UNL A   1      39.495  26.713  28.092  1.00  0.00     0.029 A 
ATOM     43  N   UNL A   1      41.545  27.232  28.814  1.00  0.00    -0.354 N 
ATOM     44  C   UNL A   1      42.434  31.204  30.299  1.00  0.00     0.074 A 
ATOM     45  C   UNL A   1      41.259  32.047  30.265  1.00  0.00     0.031 C 
ATOM     46  C   UNL A   1      40.271  25.633  27.908  1.00  0.00     0.029 A 
ATOM     47  C   UNL A   1      41.627  25.939  28.351  1.00  0.00     0.049 A 
ATOM     48  H   UNL A   1      42.314  27.719  29.191  1.00  0.00     0.167 HD
ATOM     49  C   UNL A   1      43.649  31.605  30.743  1.00  0.00     0.037 A 
ATOM     50  C   UNL A   1      42.679  25.100  28.289  1.00  0.00     0.037 A 
ATOM     51  C   UNL A   1      44.805  30.749  30.803  1.00  0.00     0.049 A 
ATOM     52  C   UNL A   1      44.015  25.563  28.805  1.00  0.00     0.074 A 
ATOM     53  C   UNL A   1      46.064  31.039  31.295  1.00  0.00     0.029 A 
ATOM     54  N   UNL A   1      44.840  29.436  30.358  1.00  0.00    -0.354 N 
ATOM     55  N   UNL A   1      44.342  26.728  29.310  1.00  0.00    -0.248 NA
ATOM     56  C   UNL A   1      45.120  24.597  28.751  1.00  0.00     0.031 C 
ATOM     57  C   UNL A   1      46.873  29.912  31.114  1.00  0.00     0.029 A 
ATOM     58  C   UNL A   1      46.104  28.906  30.550  1.00  0.00     0.049 A 
ATOM     59  H   UNL A   1      44.078  28.952  29.963  1.00  0.00     0.167 HD
ATOM     60  C   UNL A   1      45.686  26.626  29.658  1.00  0.00     0.074 A 
ATOM     61  C   UNL A   1      46.104  25.282  29.316  1.00  0.00     0.031 C 
ATOM     62  C   UNL A   1      46.498  27.561  30.210  1.00  0.00     0.037 A 
BRANCH  49  63
ATOM     63  C   UNL A   1      43.783  33.028  31.206  1.00  0.00     0.058 A 
ATOM     64  C   UNL A   1      43.501  33.400  32.531  1.00  0.00     0.135 A 
ATOM     65  C   UNL A   1      44.222  34.030  30.326  1.00  0.00     0.135 A 
ATOM     66  F   UNL A   1      43.061  32.487  33.410  1.00  0.00    -0.206 F 
ATOM     67  C   UNL A   1      43.618  34.719  32.958  1.00  0.00     0.059 A 
ATOM     68  C   UNL A   1      44.373  35.351  30.738  1.00  0.00     0.059 A 
ATOM     69  F   UNL A   1      44.503  33.731  29.048  1.00  0.00    -0.206 F 
ATOM     70  C   UNL A   1      44.054  35.688  32.053  1.00  0.00     0.060 A 
BRANCH  70  71
ATOM     71  S   UNL A   1      44.203  37.394  32.623  1.00  0.00     0.124 S 
ATOM     72  O   UNL A   1      43.932  38.134  31.395  1.00  0.00    -0.237 OA
ATOM     73  O   UNL A   1      43.169  37.472  33.650  1.00  0.00    -0.237 OA
ATOM     74  O   UNL A   1      45.575  37.470  33.112  1.00  0.00    -0.744 OA
ENDBRANCH  70  71
ENDBRANCH  49  63
BRANCH  50  75
ATOM     75  C   UNL A   1      42.503  23.727  27.746  1.00  0.00     0.058 A 
ATOM     76  C   UNL A   1      42.507  23.494  26.363  1.00  0.00     0.135 A 
ATOM     77  C   UNL A   1      42.340  22.620  28.595  1.00  0.00     0.135 A 
ATOM     78  F   UNL A   1      42.654  24.520  25.510  1.00  0.00    -0.206 F 
ATOM     79  C   UNL A   1      42.341  22.216  25.838  1.00  0.00     0.059 A 
ATOM     80  C   UNL A   1      42.198  21.330  28.094  1.00  0.00     0.059 A 
ATOM     81  F   UNL A   1      42.348  22.788  29.926  1.00  0.00    -0.206 F 
ATOM     82  C   UNL A   1      42.188  21.140  26.712  1.00  0.00     0.060 A 
BRANCH  82  83
ATOM     83  S   UNL A   1      42.022  19.479  26.022  1.00  0.00     0.124 S 
ATOM     84  O   UNL A   1      42.567  18.658  27.096  1.00  0.00    -0.237 OA
ATOM     85  O   UNL A   1      40.582  19.379  25.808  1.00  0.00    -0.237 OA
ATOM     86  O   UNL A   1      42.825  19.542  24.804  1.00  0.00    -0.744 OA
ENDBRANCH  82  83
ENDBRANCH  50  75
BRANCH  62  87
ATOM     87  C   UNL A   1      47.913  27.155  30.513  1.00  0.00     0.058 A 
ATOM     88  C   UNL A   1      48.976  27.496  29.662  1.00  0.00     0.135 A 
ATOM     89  C   UNL A   1      48.215  26.462  31.696  1.00  0.00     0.135 A 
ATOM     90  F   UNL A   1      48.739  28.152  28.514  1.00  0.00    -0.206 F 
ATOM     91  C   UNL A   1      50.288  27.149  29.965  1.00  0.00     0.059 A 
ATOM     92  C   UNL A   1      49.522  26.128  32.032  1.00  0.00     0.059 A 
ATOM     93  F   UNL A   1      47.236  26.122  32.549  1.00  0.00    -0.206 F 
ATOM     94  C   UNL A   1      50.551  26.466  31.154  1.00  0.00     0.060 A 
BRANCH  94  95
ATOM     95  S   UNL A   1      52.263  26.054  31.555  1.00  0.00     0.124 S 
ATOM     96  O   UNL A   1      52.641  27.175  32.410  1.00  0.00    -0.237 OA
ATOM     97  O   UNL A   1      52.127  24.764  32.224  1.00  0.00    -0.237 OA
ATOM     98  O   UNL A   1      52.916  26.010  30.250  1.00  0.00    -0.744 OA
ENDBRANCH  94  95
ENDBRANCH  62  87
ENDBRANCH  36  37
ENDBRANCH  28  31
ENDBRANCH  26  27
ENDBRANCH   1  26
TORSDOF 17
ENDMDL
MODEL 3
REMARK VINA RESULT:     -11.5      1.041      2.694
REMARK SMILES CC[C@@H]1CC[C@](C[C@@H]2CCCc3ccccc32)(C(=O)NCCCCNC(=O)c2ccc(-c3c4nc(c(-c5c(F)cc(S(=O)(=O)[O-])cc5F)c5ccc([nH]5)c(-c5c(F)cc(S(=O)(=O)[O-])cc5F)c5nc(c(-c6c(F)cc(S(=O)(=O)[O-])cc6F)c6ccc3[nH]6)C=C5)C=C4)cc2)C1
REMARK SMILES IDX 23 1 22 2 21 3 20 4 18 5 19 6 6 8 3 9 4 10 94 11 5 12 2 13
REMARK SMILES IDX 1 14 7 15 8 16 9 17 17 18 10 19 12 20 16 21 11 22 13 23
REMARK SMILES IDX 15 24 14 25 24 26 25 27 26 28 27 30 28 31 29 32 93 33 30 34
REMARK SMILES IDX 92 35 31 36 32 37 33 38 86 39 34 40 91 41 85 42 87 43 35 44
REMARK SMILES IDX 90 45 84 46 83 47 36 49 70 50 49 51 69 52 50 53 53 54 68 55
REMARK SMILES IDX 88 56 51 57 52 58 67 60 89 61 54 62 37 63 38 64 47 65 39 66
REMARK SMILES IDX 40 67 46 68 48 69 41 70 42 71 43 72 44 73 45 74 71 75 72 76
REMARK SMILES IDX 81 77 73 78 74 79 80 80 82 81 75 82 76 83 77 84 78 85 79 86
REMARK SMILES IDX 55 87 56 88 65 89 57 90 58 91 64 92 66 93 59 94 60 95 61 96
REMARK SMILES IDX 62 97 63 98
REMARK H PARENT 20 7 25 29 87 48 53 59
REMARK Flexibility Score: inf
ROOT
ATOM      1  C   UNL A   1      32.430  27.593  27.384  1.00  0.00     0.023 C 
ENDROOT
BRANCH   1   2
ATOM      2  C   UNL A   1      31.317  27.466  26.349  1.00  0.00     0.023 C 
BRANCH   2   3
ATOM      3  C   UNL A   1      31.256  26.116  25.619  1.00  0.00     0.116 C 
BRANCH   3   4
ATOM      4  N   UNL A   1      30.865  25.052  26.525  1.00  0.00    -0.356 N 
ATOM      5  C   UNL A   1      31.429  23.856  26.861  1.00  0.00     0.226 C 
ATOM      6  O   UNL A   1      30.744  23.168  27.627  1.00  0.00    -0.274 OA
ATOM      7  H   UNL A   1      30.018  25.230  26.993  1.00  0.00     0.163 HD
BRANCH   5   8
ATOM      8  C   UNL A   1      32.879  23.419  26.442  1.00  0.00     0.050 C 
ATOM      9  C   UNL A   1      33.618  21.228  25.631  1.00  0.00    -0.010 C 
ATOM     10  C   UNL A   1      33.290  21.072  27.104  1.00  0.00     0.005 C 
ATOM     11  C   UNL A   1      32.786  22.444  25.232  1.00  0.00     0.020 C 
ATOM     12  C   UNL A   1      33.376  22.519  27.610  1.00  0.00     0.017 C 
BRANCH   9  13
ATOM     13  C   UNL A   1      33.474  20.010  24.722  1.00  0.00     0.000 C 
ATOM     14  C   UNL A   1      32.583  20.172  23.503  1.00  0.00     0.004 C 
ENDBRANCH   9  13
BRANCH   8  15
ATOM     15  C   UNL A   1      33.750  24.654  26.042  1.00  0.00     0.025 C 
BRANCH  15  16
ATOM     16  C   UNL A   1      34.784  24.813  24.889  1.00  0.00     0.020 C 
ATOM     17  C   UNL A   1      34.243  25.019  23.470  1.00  0.00     0.009 C 
ATOM     18  C   UNL A   1      35.962  23.879  24.963  1.00  0.00    -0.042 A 
ATOM     19  C   UNL A   1      34.138  23.760  22.634  1.00  0.00     0.005 C 
ATOM     20  C   UNL A   1      36.161  22.889  23.993  1.00  0.00    -0.045 A 
ATOM     21  C   UNL A   1      36.857  23.981  26.047  1.00  0.00     0.004 A 
ATOM     22  C   UNL A   1      35.368  22.853  22.710  1.00  0.00     0.036 C 
ATOM     23  C   UNL A   1      37.184  21.946  24.190  1.00  0.00     0.004 A 
ATOM     24  C   UNL A   1      37.884  23.055  26.216  1.00  0.00     0.000 A 
ATOM     25  C   UNL A   1      38.027  22.019  25.301  1.00  0.00     0.000 A 
ENDBRANCH  15  16
ENDBRANCH   8  15
ENDBRANCH   5   8
ENDBRANCH   3   4
ENDBRANCH   2   3
ENDBRANCH   1   2
BRANCH   1  26
ATOM     26  C   UNL A   1      33.578  28.490  26.961  1.00  0.00     0.116 C 
BRANCH  26  27
ATOM     27  N   UNL A   1      33.438  29.865  27.418  1.00  0.00    -0.352 N 
ATOM     28  C   UNL A   1      34.376  30.641  28.061  1.00  0.00     0.251 C 
ATOM     29  H   UNL A   1      32.567  30.292  27.247  1.00  0.00     0.163 HD
ATOM     30  O   UNL A   1      34.088  31.755  28.473  1.00  0.00    -0.269 OA
BRANCH  28  31
ATOM     31  C   UNL A   1      35.720  30.070  28.289  1.00  0.00     0.039 A 
ATOM     32  C   UNL A   1      36.664  30.141  27.264  1.00  0.00     0.014 A 
ATOM     33  C   UNL A   1      36.063  29.548  29.539  1.00  0.00     0.014 A 
ATOM     34  C   UNL A   1      37.979  29.751  27.517  1.00  0.00     0.010 A 
ATOM     35  C   UNL A   1      37.388  29.239  29.812  1.00  0.00     0.010 A 
ATOM     36  C   UNL A   1      38.359  29.335  28.804  1.00  0.00    -0.014 A 
BRANCH  36  37
ATOM     37  C   UNL A   1      39.767  28.990  29.117  1.00  0.00     0.031 A 
ATOM     38  C   UNL A   1      40.664  30.017  29.752  1.00  0.00     0.074 A 
ATOM     39  C   UNL A   1      40.253  27.784  28.764  1.00  0.00     0.049 A 
ATOM     40  N   UNL A   1      41.938  29.936  30.036  1.00  0.00    -0.248 NA
ATOM     41  C   UNL A   1      40.056  31.316  30.081  1.00  0.00     0.031 C 
ATOM     42  C   UNL A   1      39.494  26.728  28.088  1.00  0.00     0.029 A 
ATOM     43  N   UNL A   1      41.505  27.244  28.913  1.00  0.00    -0.354 N 
ATOM     44  C   UNL A   1      42.286  31.175  30.560  1.00  0.00     0.074 A 
ATOM     45  C   UNL A   1      41.104  32.008  30.502  1.00  0.00     0.031 C 
ATOM     46  C   UNL A   1      40.289  25.662  27.904  1.00  0.00     0.029 A 
ATOM     47  C   UNL A   1      41.621  25.968  28.415  1.00  0.00     0.049 A 
ATOM     48  H   UNL A   1      42.251  27.726  29.338  1.00  0.00     0.167 HD
ATOM     49  C   UNL A   1      43.476  31.574  31.068  1.00  0.00     0.037 A 
ATOM     50  C   UNL A   1      42.684  25.141  28.372  1.00  0.00     0.037 A 
ATOM     51  C   UNL A   1      44.637  30.728  31.151  1.00  0.00     0.049 A 
ATOM     52  C   UNL A   1      43.991  25.600  28.959  1.00  0.00     0.074 A 
ATOM     53  C   UNL A   1      45.871  31.014  31.707  1.00  0.00     0.029 A 
ATOM     54  N   UNL A   1      44.706  29.429  30.667  1.00  0.00    -0.354 N 
ATOM     55  N   UNL A   1      44.284  26.752  29.514  1.00  0.00    -0.248 NA
ATOM     56  C   UNL A   1      45.108  24.647  28.923  1.00  0.00     0.031 C 
ATOM     57  C   UNL A   1      46.699  29.901  31.525  1.00  0.00     0.029 A 
ATOM     58  C   UNL A   1      45.967  28.906  30.897  1.00  0.00     0.049 A 
ATOM     59  H   UNL A   1      43.967  28.951  30.225  1.00  0.00     0.167 HD
ATOM     60  C   UNL A   1      45.612  26.652  29.917  1.00  0.00     0.074 A 
ATOM     61  C   UNL A   1      46.060  25.324  29.551  1.00  0.00     0.031 C 
ATOM     62  C   UNL A   1      46.389  27.576  30.533  1.00  0.00     0.037 A 
BRANCH  49  63
ATOM     63  C   UNL A   1      43.574  32.983  31.582  1.00  0.00     0.058 A 
ATOM     64  C   UNL A   1      43.413  33.282  32.944  1.00  0.00     0.135 A 
ATOM     65  C   UNL A   1      43.857  34.045  30.708  1.00  0.00     0.135 A 
ATOM     66  F   UNL A   1      43.123  32.308  33.821  1.00  0.00    -0.206 F 
ATOM     67  C   UNL A   1      43.497  34.587  33.418  1.00  0.00     0.059 A 
ATOM     68  C   UNL A   1      43.974  35.355  31.164  1.00  0.00     0.059 A 
ATOM     69  F   UNL A   1      44.018  33.816  29.395  1.00  0.00    -0.206 F 
ATOM     70  C   UNL A   1      43.776  35.618  32.519  1.00  0.00     0.060 A 
BRANCH  70  71
ATOM     71  S   UNL A   1      43.884  37.305  33.150  1.00  0.00     0.124 S 
ATOM     72  O   UNL A   1      43.850  38.080  31.913  1.00  0.00    -0.237 OA
ATOM     73  O   UNL A   1      42.693  37.402  33.989  1.00  0.00    -0.237 OA
ATOM     74  O   UNL A   1      45.155  37.320  33.865  1.00  0.00    -0.744 OA
ENDBRANCH  70  71
ENDBRANCH  49  63
BRANCH  50  75
ATOM     75  C   UNL A   1      42.546  23.785  27.779  1.00  0.00     0.058 A 
ATOM     76  C   UNL A   1      42.513  23.607  26.388  1.00  0.00     0.135 A 
ATOM     77  C   UNL A   1      42.460  22.639  28.586  1.00  0.00     0.135 A 
ATOM     78  F   UNL A   1      42.587  24.671  25.574  1.00  0.00    -0.206 F 
ATOM     79  C   UNL A   1      42.381  22.345  25.816  1.00  0.00     0.059 A 
ATOM     80  C   UNL A   1      42.354  21.365  28.038  1.00  0.00     0.059 A 
ATOM     81  F   UNL A   1      42.507  22.754  29.922  1.00  0.00    -0.206 F 
ATOM     82  C   UNL A   1      42.304  21.229  26.651  1.00  0.00     0.060 A 
BRANCH  82  83
ATOM     83  S   UNL A   1      42.183  19.592  25.898  1.00  0.00     0.124 S 
ATOM     84  O   UNL A   1      40.815  19.600  25.394  1.00  0.00    -0.237 OA
ATOM     85  O   UNL A   1      43.237  19.639  24.890  1.00  0.00    -0.237 OA
ATOM     86  O   UNL A   1      42.439  18.690  27.018  1.00  0.00    -0.744 OA
ENDBRANCH  82  83
ENDBRANCH  50  75
BRANCH  62  87
ATOM     87  C   UNL A   1      47.795  27.174  30.883  1.00  0.00     0.058 A 
ATOM     88  C   UNL A   1      48.101  26.555  32.105  1.00  0.00     0.135 A 
ATOM     89  C   UNL A   1      48.837  27.361  29.961  1.00  0.00     0.135 A 
ATOM     90  F   UNL A   1      47.141  26.360  33.023  1.00  0.00    -0.206 F 
ATOM     91  C   UNL A   1      49.397  26.153  32.409  1.00  0.00     0.059 A 
ATOM     92  C   UNL A   1      50.135  26.943  30.233  1.00  0.00     0.059 A 
ATOM     93  F   UNL A   1      48.594  27.938  28.774  1.00  0.00    -0.206 F 
ATOM     94  C   UNL A   1      50.407  26.349  31.465  1.00  0.00     0.060 A 
BRANCH  94  95
ATOM     95  S   UNL A   1      52.078  25.788  31.856  1.00  0.00     0.124 S 
ATOM     96  O   UNL A   1      51.858  24.368  32.111  1.00  0.00    -0.237 OA
ATOM     97  O   UNL A   1      52.810  26.107  30.634  1.00  0.00    -0.237 OA
ATOM     98  O   UNL A   1      52.441  26.587  33.023  1.00  0.00    -0.744 OA
ENDBRANCH  94  95
ENDBRANCH  62  87
ENDBRANCH  36  37
ENDBRANCH  28  31
ENDBRANCH  26  27
ENDBRANCH   1  26
TORSDOF 17
ENDMDL
