MODEL 1
REMARK VINA RESULT:     -13.8      0.000      0.000
REMARK SMILES Cc1cccc(C(=O)NCCCCNC(=O)c2ccc(-c3c4nc(c(-c5c(F)cc(S(=O)(=O)[O-])cc5F)c5ccc([nH]5)c(-c5c(F)cc(S(=O)(=O)[O-])cc5F)c5nc(c(-c6c(F)cc(S(=O)(=O)[O-])cc6F)c6ccc3[nH]6)C=C5)C=C4)cc2)c1NC(=O)Cc1ccccc1
REMARK SMILES IDX 11 1 10 2 9 3 7 4 8 5 6 7 1 8 2 9 3 10 83 11 4 12 5 13 84 14
REMARK SMILES IDX 85 15 86 17 87 18 88 19 89 20 93 21 90 22 92 23 91 24 12 25
REMARK SMILES IDX 13 26 14 27 15 28 16 30 17 31 18 32 82 33 19 34 81 35 20 36
REMARK SMILES IDX 21 37 22 38 75 39 23 40 80 41 74 42 76 43 24 44 79 45 73 46
REMARK SMILES IDX 72 47 25 49 59 50 38 51 58 52 39 53 42 54 57 55 77 56 40 57
REMARK SMILES IDX 41 58 56 60 78 61 43 62 26 63 27 64 36 65 28 66 29 67 35 68
REMARK SMILES IDX 37 69 30 70 31 71 32 72 33 73 34 74 60 75 61 76 70 77 62 78
REMARK SMILES IDX 63 79 69 80 71 81 64 82 65 83 66 84 67 85 68 86 44 87 45 88
REMARK SMILES IDX 54 89 46 90 47 91 53 92 55 93 48 94 49 95 50 96 51 97 52 98
REMARK H PARENT 9 6 84 16 14 29 76 48 42 59
REMARK Flexibility Score: inf
ROOT
ATOM      1  C   UNL A   1      32.532  30.051  25.959  1.00  0.00     0.023 C 
ENDROOT
BRANCH   1   2
ATOM      2  C   UNL A   1      31.385  29.020  25.924  1.00  0.00     0.116 C 
BRANCH   2   3
ATOM      3  N   UNL A   1      30.825  28.557  24.655  1.00  0.00    -0.352 N 
ATOM      4  C   UNL A   1      30.365  27.303  24.287  1.00  0.00     0.253 C 
ATOM      5  O   UNL A   1      29.434  27.200  23.491  1.00  0.00    -0.269 OA
ATOM      6  H   UNL A   1      30.767  29.244  23.952  1.00  0.00     0.163 HD
BRANCH   4   7
ATOM      7  C   UNL A   1      30.975  26.060  24.814  1.00  0.00     0.063 A 
ATOM      8  C   UNL A   1      34.452  25.229  25.756  1.00  0.00     0.046 C 
ATOM      9  C   UNL A   1      32.989  25.004  25.489  1.00  0.00    -0.027 A 
ATOM     10  C   UNL A   1      32.275  24.193  26.383  1.00  0.00     0.005 A 
ATOM     11  C   UNL A   1      32.278  25.707  24.504  1.00  0.00     0.056 A 
ATOM     12  C   UNL A   1      30.885  24.242  26.410  1.00  0.00     0.001 A 
ATOM     13  C   UNL A   1      30.243  25.251  25.695  1.00  0.00     0.016 A 
BRANCH  11  14
ATOM     14  N   UNL A   1      32.872  25.895  23.236  1.00  0.00    -0.325 N 
ATOM     15  C   UNL A   1      33.087  25.054  22.168  1.00  0.00     0.228 C 
ATOM     16  H   UNL A   1      33.198  26.812  23.086  1.00  0.00     0.169 HD
ATOM     17  O   UNL A   1      33.673  25.558  21.199  1.00  0.00    -0.274 OA
BRANCH  15  18
ATOM     18  C   UNL A   1      32.798  23.552  22.175  1.00  0.00     0.135 C 
BRANCH  18  19
ATOM     19  C   UNL A   1      33.691  22.683  23.050  1.00  0.00    -0.039 A 
ATOM     20  C   UNL A   1      35.058  22.983  23.165  1.00  0.00     0.004 A 
ATOM     21  C   UNL A   1      33.196  21.635  23.832  1.00  0.00     0.004 A 
ATOM     22  C   UNL A   1      35.894  22.241  24.009  1.00  0.00     0.000 A 
ATOM     23  C   UNL A   1      34.024  20.902  24.686  1.00  0.00     0.000 A 
ATOM     24  C   UNL A   1      35.376  21.200  24.772  1.00  0.00     0.000 A 
ENDBRANCH  18  19
ENDBRANCH  15  18
ENDBRANCH  11  14
ENDBRANCH   4   7
ENDBRANCH   2   3
ENDBRANCH   1   2
BRANCH   1  25
ATOM     25  C   UNL A   1      33.179  30.524  27.265  1.00  0.00     0.023 C 
BRANCH  25  26
ATOM     26  C   UNL A   1      34.653  30.186  27.436  1.00  0.00     0.116 C 
BRANCH  26  27
ATOM     27  N   UNL A   1      35.439  31.290  28.010  1.00  0.00    -0.352 N 
ATOM     28  C   UNL A   1      36.706  31.232  28.550  1.00  0.00     0.251 C 
ATOM     29  H   UNL A   1      35.009  32.175  28.010  1.00  0.00     0.163 HD
ATOM     30  O   UNL A   1      37.266  32.187  29.074  1.00  0.00    -0.269 OA
BRANCH  28  31
ATOM     31  C   UNL A   1      37.415  29.948  28.398  1.00  0.00     0.039 A 
ATOM     32  C   UNL A   1      37.535  29.146  29.538  1.00  0.00     0.014 A 
ATOM     33  C   UNL A   1      38.255  29.795  27.297  1.00  0.00     0.014 A 
ATOM     34  C   UNL A   1      38.649  28.327  29.667  1.00  0.00     0.010 A 
ATOM     35  C   UNL A   1      39.396  29.035  27.461  1.00  0.00     0.010 A 
ATOM     36  C   UNL A   1      39.624  28.365  28.672  1.00  0.00    -0.014 A 
BRANCH  36  37
ATOM     37  C   UNL A   1      40.964  27.821  28.850  1.00  0.00     0.031 A 
ATOM     38  C   UNL A   1      41.234  26.417  28.478  1.00  0.00     0.074 A 
ATOM     39  C   UNL A   1      41.955  28.604  29.334  1.00  0.00     0.049 A 
ATOM     40  N   UNL A   1      42.273  25.757  28.857  1.00  0.00    -0.248 NA
ATOM     41  C   UNL A   1      40.283  25.603  27.723  1.00  0.00     0.031 C 
ATOM     42  C   UNL A   1      43.391  28.340  29.306  1.00  0.00     0.029 A 
ATOM     43  N   UNL A   1      41.834  29.723  30.151  1.00  0.00    -0.354 N 
ATOM     44  C   UNL A   1      42.269  24.550  28.200  1.00  0.00     0.074 A 
ATOM     45  C   UNL A   1      40.957  24.453  27.615  1.00  0.00     0.031 C 
ATOM     46  C   UNL A   1      43.995  29.105  30.230  1.00  0.00     0.029 A 
ATOM     47  C   UNL A   1      42.956  29.779  30.989  1.00  0.00     0.049 A 
ATOM     48  H   UNL A   1      41.088  30.365  30.143  1.00  0.00     0.167 HD
ATOM     49  C   UNL A   1      43.427  23.837  28.134  1.00  0.00     0.037 A 
ATOM     50  C   UNL A   1      42.824  29.696  32.347  1.00  0.00     0.037 A 
ATOM     51  C   UNL A   1      44.384  24.337  29.124  1.00  0.00     0.049 A 
ATOM     52  C   UNL A   1      43.458  28.461  32.950  1.00  0.00     0.074 A 
ATOM     53  C   UNL A   1      45.511  25.136  29.043  1.00  0.00     0.029 A 
ATOM     54  N   UNL A   1      44.060  24.249  30.477  1.00  0.00    -0.354 N 
ATOM     55  N   UNL A   1      43.824  27.413  32.262  1.00  0.00    -0.248 NA
ATOM     56  C   UNL A   1      43.720  28.307  34.378  1.00  0.00     0.031 C 
ATOM     57  C   UNL A   1      45.785  25.630  30.350  1.00  0.00     0.029 A 
ATOM     58  C   UNL A   1      44.862  25.086  31.230  1.00  0.00     0.049 A 
ATOM     59  H   UNL A   1      43.355  23.668  30.846  1.00  0.00     0.167 HD
ATOM     60  C   UNL A   1      44.298  26.447  33.112  1.00  0.00     0.074 A 
ATOM     61  C   UNL A   1      44.250  27.072  34.421  1.00  0.00     0.031 C 
ATOM     62  C   UNL A   1      44.671  25.206  32.672  1.00  0.00     0.037 A 
BRANCH  49  63
ATOM     63  C   UNL A   1      43.777  22.822  27.055  1.00  0.00     0.058 A 
ATOM     64  C   UNL A   1      43.033  21.625  26.937  1.00  0.00     0.135 A 
ATOM     65  C   UNL A   1      44.908  22.883  26.210  1.00  0.00     0.135 A 
ATOM     66  F   UNL A   1      41.939  21.413  27.683  1.00  0.00    -0.206 F 
ATOM     67  C   UNL A   1      43.398  20.576  26.079  1.00  0.00     0.059 A 
ATOM     68  C   UNL A   1      45.265  21.871  25.316  1.00  0.00     0.059 A 
ATOM     69  F   UNL A   1      45.780  23.895  26.241  1.00  0.00    -0.206 F 
ATOM     70  C   UNL A   1      44.522  20.707  25.275  1.00  0.00     0.060 A 
BRANCH  70  71
ATOM     71  S   UNL A   1      45.034  19.344  24.212  1.00  0.00     0.124 S 
ATOM     72  O   UNL A   1      46.479  19.329  24.416  1.00  0.00    -0.237 OA
ATOM     73  O   UNL A   1      44.299  18.215  24.774  1.00  0.00    -0.237 OA
ATOM     74  O   UNL A   1      44.598  19.766  22.884  1.00  0.00    -0.744 OA
ENDBRANCH  70  71
ENDBRANCH  49  63
BRANCH  50  75
ATOM     75  C   UNL A   1      41.614  30.391  32.864  1.00  0.00     0.058 A 
ATOM     76  C   UNL A   1      40.478  29.602  33.133  1.00  0.00     0.135 A 
ATOM     77  C   UNL A   1      41.695  31.644  33.488  1.00  0.00     0.135 A 
ATOM     78  F   UNL A   1      40.346  28.398  32.553  1.00  0.00    -0.206 F 
ATOM     79  C   UNL A   1      39.549  29.963  34.101  1.00  0.00     0.059 A 
ATOM     80  C   UNL A   1      40.769  32.029  34.463  1.00  0.00     0.059 A 
ATOM     81  F   UNL A   1      42.751  32.441  33.269  1.00  0.00    -0.206 F 
ATOM     82  C   UNL A   1      39.740  31.150  34.805  1.00  0.00     0.060 A 
BRANCH  82  83
ATOM     83  S   UNL A   1      38.745  31.407  36.294  1.00  0.00     0.124 S 
ATOM     84  O   UNL A   1      38.400  30.040  36.663  1.00  0.00    -0.237 OA
ATOM     85  O   UNL A   1      39.703  32.076  37.174  1.00  0.00    -0.237 OA
ATOM     86  O   UNL A   1      37.643  32.234  35.819  1.00  0.00    -0.744 OA
ENDBRANCH  82  83
ENDBRANCH  50  75
BRANCH  62  87
ATOM     87  C   UNL A   1      44.968  24.017  33.563  1.00  0.00     0.058 A 
ATOM     88  C   UNL A   1      44.034  23.013  33.880  1.00  0.00     0.135 A 
ATOM     89  C   UNL A   1      46.284  23.785  34.031  1.00  0.00     0.135 A 
ATOM     90  F   UNL A   1      42.787  23.037  33.389  1.00  0.00    -0.206 F 
ATOM     91  C   UNL A   1      44.355  21.913  34.679  1.00  0.00     0.059 A 
ATOM     92  C   UNL A   1      46.639  22.664  34.779  1.00  0.00     0.059 A 
ATOM     93  F   UNL A   1      47.281  24.643  33.766  1.00  0.00    -0.206 F 
ATOM     94  C   UNL A   1      45.660  21.748  35.130  1.00  0.00     0.060 A 
BRANCH  94  95
ATOM     95  S   UNL A   1      46.092  20.310  36.126  1.00  0.00     0.124 S 
ATOM     96  O   UNL A   1      47.523  20.194  35.863  1.00  0.00    -0.237 OA
ATOM     97  O   UNL A   1      45.734  20.729  37.478  1.00  0.00    -0.237 OA
ATOM     98  O   UNL A   1      45.257  19.254  35.565  1.00  0.00    -0.744 OA
ENDBRANCH  94  95
ENDBRANCH  62  87
ENDBRANCH  36  37
ENDBRANCH  28  31
ENDBRANCH  26  27
ENDBRANCH  25  26
ENDBRANCH   1  25
TORSDOF 17
ENDMDL
MODEL 2
REMARK VINA RESULT:     -13.8      4.993     11.437
REMARK SMILES Cc1cccc(C(=O)NCCCCNC(=O)c2ccc(-c3c4nc(c(-c5c(F)cc(S(=O)(=O)[O-])cc5F)c5ccc([nH]5)c(-c5c(F)cc(S(=O)(=O)[O-])cc5F)c5nc(c(-c6c(F)cc(S(=O)(=O)[O-])cc6F)c6ccc3[nH]6)C=C5)C=C4)cc2)c1NC(=O)Cc1ccccc1
REMARK SMILES IDX 11 1 10 2 9 3 7 4 8 5 6 7 1 8 2 9 3 10 83 11 4 12 5 13 84 14
REMARK SMILES IDX 85 15 86 17 87 18 88 19 89 20 93 21 90 22 92 23 91 24 12 25
REMARK SMILES IDX 13 26 14 27 15 28 16 30 17 31 18 32 82 33 19 34 81 35 20 36
REMARK SMILES IDX 21 37 22 38 75 39 23 40 80 41 74 42 76 43 24 44 79 45 73 46
REMARK SMILES IDX 72 47 25 49 59 50 38 51 58 52 39 53 42 54 57 55 77 56 40 57
REMARK SMILES IDX 41 58 56 60 78 61 43 62 26 63 27 64 36 65 28 66 29 67 35 68
REMARK SMILES IDX 37 69 30 70 31 71 32 72 33 73 34 74 60 75 61 76 70 77 62 78
REMARK SMILES IDX 63 79 69 80 71 81 64 82 65 83 66 84 67 85 68 86 44 87 45 88
REMARK SMILES IDX 54 89 46 90 47 91 53 92 55 93 48 94 49 95 50 96 51 97 52 98
REMARK H PARENT 9 6 84 16 14 29 76 48 42 59
REMARK Flexibility Score: inf
ROOT
ATOM      1  C   UNL A   1      36.394  21.555  25.623  1.00  0.00     0.023 C 
ENDROOT
BRANCH   1   2
ATOM      2  C   UNL A   1      35.713  20.332  24.978  1.00  0.00     0.116 C 
BRANCH   2   3
ATOM      3  N   UNL A   1      34.283  20.082  25.157  1.00  0.00    -0.352 N 
ATOM      4  C   UNL A   1      33.192  20.637  24.509  1.00  0.00     0.253 C 
ATOM      5  O   UNL A   1      32.181  19.963  24.322  1.00  0.00    -0.269 OA
ATOM      6  H   UNL A   1      34.062  19.415  25.847  1.00  0.00     0.163 HD
BRANCH   4   7
ATOM      7  C   UNL A   1      33.191  22.043  24.043  1.00  0.00     0.063 A 
ATOM      8  C   UNL A   1      34.535  25.140  25.550  1.00  0.00     0.046 C 
ATOM      9  C   UNL A   1      33.796  24.277  24.565  1.00  0.00    -0.027 A 
ATOM     10  C   UNL A   1      33.940  24.566  23.199  1.00  0.00     0.005 A 
ATOM     11  C   UNL A   1      33.126  23.101  24.935  1.00  0.00     0.056 A 
ATOM     12  C   UNL A   1      33.599  23.613  22.246  1.00  0.00     0.001 A 
ATOM     13  C   UNL A   1      33.320  22.317  22.673  1.00  0.00     0.016 A 
BRANCH  11  14
ATOM     14  N   UNL A   1      32.334  23.106  26.106  1.00  0.00    -0.325 N 
ATOM     15  C   UNL A   1      31.094  23.625  26.396  1.00  0.00     0.228 C 
ATOM     16  H   UNL A   1      32.756  22.644  26.868  1.00  0.00     0.169 HD
ATOM     17  O   UNL A   1      30.704  23.462  27.561  1.00  0.00    -0.274 OA
BRANCH  15  18
ATOM     18  C   UNL A   1      30.274  24.495  25.442  1.00  0.00     0.135 C 
BRANCH  18  19
ATOM     19  C   UNL A   1      30.737  25.933  25.252  1.00  0.00    -0.039 A 
ATOM     20  C   UNL A   1      31.156  26.683  26.363  1.00  0.00     0.004 A 
ATOM     21  C   UNL A   1      30.854  26.531  23.994  1.00  0.00     0.004 A 
ATOM     22  C   UNL A   1      31.645  27.987  26.214  1.00  0.00     0.000 A 
ATOM     23  C   UNL A   1      31.355  27.826  23.839  1.00  0.00     0.000 A 
ATOM     24  C   UNL A   1      31.746  28.559  24.950  1.00  0.00     0.000 A 
ENDBRANCH  18  19
ENDBRANCH  15  18
ENDBRANCH  11  14
ENDBRANCH   4   7
ENDBRANCH   2   3
ENDBRANCH   1   2
BRANCH   1  25
ATOM     25  C   UNL A   1      37.824  21.982  25.278  1.00  0.00     0.023 C 
BRANCH  25  26
ATOM     26  C   UNL A   1      38.331  23.234  25.979  1.00  0.00     0.116 C 
BRANCH  26  27
ATOM     27  N   UNL A   1      39.679  23.077  26.551  1.00  0.00    -0.352 N 
ATOM     28  C   UNL A   1      40.475  24.049  27.116  1.00  0.00     0.251 C 
ATOM     29  H   UNL A   1      40.057  22.169  26.525  1.00  0.00     0.163 HD
ATOM     30  O   UNL A   1      41.618  23.849  27.507  1.00  0.00    -0.269 OA
BRANCH  28  31
ATOM     31  C   UNL A   1      39.846  25.369  27.308  1.00  0.00     0.039 A 
ATOM     32  C   UNL A   1      40.356  26.434  26.558  1.00  0.00     0.014 A 
ATOM     33  C   UNL A   1      39.102  25.573  28.468  1.00  0.00     0.014 A 
ATOM     34  C   UNL A   1      40.309  27.714  27.094  1.00  0.00     0.010 A 
ATOM     35  C   UNL A   1      39.122  26.834  29.029  1.00  0.00     0.010 A 
ATOM     36  C   UNL A   1      39.789  27.882  28.376  1.00  0.00    -0.014 A 
BRANCH  36  37
ATOM     37  C   UNL A   1      39.988  29.091  29.164  1.00  0.00     0.031 A 
ATOM     38  C   UNL A   1      38.978  30.167  29.112  1.00  0.00     0.074 A 
ATOM     39  C   UNL A   1      41.081  29.215  29.951  1.00  0.00     0.049 A 
ATOM     40  N   UNL A   1      39.184  31.371  29.520  1.00  0.00    -0.248 NA
ATOM     41  C   UNL A   1      37.668  29.992  28.488  1.00  0.00     0.031 C 
ATOM     42  C   UNL A   1      41.306  30.191  31.013  1.00  0.00     0.029 A 
ATOM     43  N   UNL A   1      42.316  28.595  29.796  1.00  0.00    -0.354 N 
ATOM     44  C   UNL A   1      37.988  32.047  29.464  1.00  0.00     0.074 A 
ATOM     45  C   UNL A   1      37.118  31.192  28.700  1.00  0.00     0.031 C 
ATOM     46  C   UNL A   1      42.624  30.275  31.260  1.00  0.00     0.029 A 
ATOM     47  C   UNL A   1      43.308  29.468  30.265  1.00  0.00     0.049 A 
ATOM     48  H   UNL A   1      42.469  27.697  29.421  1.00  0.00     0.167 HD
ATOM     49  C   UNL A   1      37.853  33.197  30.180  1.00  0.00     0.037 A 
ATOM     50  C   UNL A   1      44.278  29.943  29.429  1.00  0.00     0.037 A 
ATOM     51  C   UNL A   1      39.169  33.697  30.584  1.00  0.00     0.049 A 
ATOM     52  C   UNL A   1      44.221  31.439  29.213  1.00  0.00     0.074 A 
ATOM     53  C   UNL A   1      39.870  33.682  31.777  1.00  0.00     0.029 A 
ATOM     54  N   UNL A   1      40.079  34.071  29.596  1.00  0.00    -0.354 N 
ATOM     55  N   UNL A   1      43.194  32.187  29.516  1.00  0.00    -0.248 NA
ATOM     56  C   UNL A   1      45.314  32.211  28.627  1.00  0.00     0.031 C 
ATOM     57  C   UNL A   1      41.240  33.926  31.475  1.00  0.00     0.029 A 
ATOM     58  C   UNL A   1      41.359  34.146  30.112  1.00  0.00     0.049 A 
ATOM     59  H   UNL A   1      39.842  34.255  28.659  1.00  0.00     0.167 HD
ATOM     60  C   UNL A   1      43.436  33.481  29.134  1.00  0.00     0.074 A 
ATOM     61  C   UNL A   1      44.794  33.451  28.620  1.00  0.00     0.031 C 
ATOM     62  C   UNL A   1      42.494  34.467  29.251  1.00  0.00     0.037 A 
BRANCH  49  63
ATOM     63  C   UNL A   1      36.537  33.771  30.685  1.00  0.00     0.058 A 
ATOM     64  C   UNL A   1      35.574  34.254  29.769  1.00  0.00     0.135 A 
ATOM     65  C   UNL A   1      36.216  34.015  32.039  1.00  0.00     0.135 A 
ATOM     66  F   UNL A   1      35.742  34.109  28.446  1.00  0.00    -0.206 F 
ATOM     67  C   UNL A   1      34.416  34.941  30.163  1.00  0.00     0.059 A 
ATOM     68  C   UNL A   1      35.049  34.657  32.458  1.00  0.00     0.059 A 
ATOM     69  F   UNL A   1      37.043  33.710  33.043  1.00  0.00    -0.206 F 
ATOM     70  C   UNL A   1      34.165  35.144  31.514  1.00  0.00     0.060 A 
BRANCH  70  71
ATOM     71  S   UNL A   1      32.712  36.076  32.031  1.00  0.00     0.124 S 
ATOM     72  O   UNL A   1      33.259  36.932  33.078  1.00  0.00    -0.237 OA
ATOM     73  O   UNL A   1      32.316  36.749  30.799  1.00  0.00    -0.237 OA
ATOM     74  O   UNL A   1      31.790  35.041  32.493  1.00  0.00    -0.744 OA
ENDBRANCH  70  71
ENDBRANCH  49  63
BRANCH  50  75
ATOM     75  C   UNL A   1      44.740  28.939  28.432  1.00  0.00     0.058 A 
ATOM     76  C   UNL A   1      44.197  29.017  27.134  1.00  0.00     0.135 A 
ATOM     77  C   UNL A   1      45.952  28.251  28.587  1.00  0.00     0.135 A 
ATOM     78  F   UNL A   1      43.033  29.655  26.932  1.00  0.00    -0.206 F 
ATOM     79  C   UNL A   1      44.901  28.580  26.019  1.00  0.00     0.059 A 
ATOM     80  C   UNL A   1      46.675  27.799  27.479  1.00  0.00     0.059 A 
ATOM     81  F   UNL A   1      46.517  28.142  29.798  1.00  0.00    -0.206 F 
ATOM     82  C   UNL A   1      46.168  28.029  26.198  1.00  0.00     0.060 A 
BRANCH  82  83
ATOM     83  S   UNL A   1      47.203  27.820  24.729  1.00  0.00     0.124 S 
ATOM     84  O   UNL A   1      48.533  28.096  25.258  1.00  0.00    -0.237 OA
ATOM     85  O   UNL A   1      46.940  26.423  24.382  1.00  0.00    -0.237 OA
ATOM     86  O   UNL A   1      46.670  28.810  23.803  1.00  0.00    -0.744 OA
ENDBRANCH  82  83
ENDBRANCH  50  75
BRANCH  62  87
ATOM     87  C   UNL A   1      42.593  35.847  28.635  1.00  0.00     0.058 A 
ATOM     88  C   UNL A   1      42.143  36.170  27.341  1.00  0.00     0.135 A 
ATOM     89  C   UNL A   1      43.043  36.945  29.407  1.00  0.00     0.135 A 
ATOM     90  F   UNL A   1      41.569  35.252  26.551  1.00  0.00    -0.206 F 
ATOM     91  C   UNL A   1      42.222  37.463  26.818  1.00  0.00     0.059 A 
ATOM     92  C   UNL A   1      43.073  38.253  28.926  1.00  0.00     0.059 A 
ATOM     93  F   UNL A   1      43.463  36.784  30.672  1.00  0.00    -0.206 F 
ATOM     94  C   UNL A   1      42.693  38.499  27.616  1.00  0.00     0.060 A 
BRANCH  94  95
ATOM     95  S   UNL A   1      42.758  40.178  26.964  1.00  0.00     0.124 S 
ATOM     96  O   UNL A   1      43.103  40.941  28.160  1.00  0.00    -0.237 OA
ATOM     97  O   UNL A   1      43.805  40.094  25.949  1.00  0.00    -0.237 OA
ATOM     98  O   UNL A   1      41.410  40.386  26.446  1.00  0.00    -0.744 OA
ENDBRANCH  94  95
ENDBRANCH  62  87
ENDBRANCH  36  37
ENDBRANCH  28  31
ENDBRANCH  26  27
ENDBRANCH  25  26
ENDBRANCH   1  25
TORSDOF 17
ENDMDL
MODEL 3
REMARK VINA RESULT:     -13.5      4.887     11.356
REMARK SMILES Cc1cccc(C(=O)NCCCCNC(=O)c2ccc(-c3c4nc(c(-c5c(F)cc(S(=O)(=O)[O-])cc5F)c5ccc([nH]5)c(-c5c(F)cc(S(=O)(=O)[O-])cc5F)c5nc(c(-c6c(F)cc(S(=O)(=O)[O-])cc6F)c6ccc3[nH]6)C=C5)C=C4)cc2)c1NC(=O)Cc1ccccc1
REMARK SMILES IDX 11 1 10 2 9 3 7 4 8 5 6 7 1 8 2 9 3 10 83 11 4 12 5 13 84 14
REMARK SMILES IDX 85 15 86 17 87 18 88 19 89 20 93 21 90 22 92 23 91 24 12 25
REMARK SMILES IDX 13 26 14 27 15 28 16 30 17 31 18 32 82 33 19 34 81 35 20 36
REMARK SMILES IDX 21 37 22 38 75 39 23 40 80 41 74 42 76 43 24 44 79 45 73 46
REMARK SMILES IDX 72 47 25 49 59 50 38 51 58 52 39 53 42 54 57 55 77 56 40 57
REMARK SMILES IDX 41 58 56 60 78 61 43 62 26 63 27 64 36 65 28 66 29 67 35 68
REMARK SMILES IDX 37 69 30 70 31 71 32 72 33 73 34 74 60 75 61 76 70 77 62 78
REMARK SMILES IDX 63 79 69 80 71 81 64 82 65 83 66 84 67 85 68 86 44 87 45 88
REMARK SMILES IDX 54 89 46 90 47 91 53 92 55 93 48 94 49 95 50 96 51 97 52 98
REMARK H PARENT 9 6 84 16 14 29 76 48 42 59
REMARK Flexibility Score: inf
ROOT
ATOM      1  C   UNL A   1      36.482  21.706  25.443  1.00  0.00     0.023 C 
ENDROOT
BRANCH   1   2
ATOM      2  C   UNL A   1      35.391  22.657  24.911  1.00  0.00     0.116 C 
BRANCH   2   3
ATOM      3  N   UNL A   1      34.278  22.153  24.105  1.00  0.00    -0.352 N 
ATOM      4  C   UNL A   1      33.117  22.786  23.692  1.00  0.00     0.253 C 
ATOM      5  O   UNL A   1      32.612  22.495  22.610  1.00  0.00    -0.269 OA
ATOM      6  H   UNL A   1      34.369  21.217  23.812  1.00  0.00     0.163 HD
BRANCH   4   7
ATOM      7  C   UNL A   1      32.441  23.804  24.529  1.00  0.00     0.063 A 
ATOM      8  C   UNL A   1      29.539  25.999  23.874  1.00  0.00     0.046 C 
ATOM      9  C   UNL A   1      30.717  25.432  24.617  1.00  0.00    -0.027 A 
ATOM     10  C   UNL A   1      30.589  25.234  26.000  1.00  0.00     0.005 A 
ATOM     11  C   UNL A   1      31.855  24.927  23.969  1.00  0.00     0.056 A 
ATOM     12  C   UNL A   1      31.473  24.393  26.668  1.00  0.00     0.001 A 
ATOM     13  C   UNL A   1      32.334  23.601  25.913  1.00  0.00     0.016 A 
BRANCH  11  14
ATOM     14  N   UNL A   1      32.401  25.652  22.886  1.00  0.00    -0.325 N 
ATOM     15  C   UNL A   1      33.421  26.569  22.792  1.00  0.00     0.228 C 
ATOM     16  H   UNL A   1      31.962  25.461  22.024  1.00  0.00     0.169 HD
ATOM     17  O   UNL A   1      33.621  27.035  21.660  1.00  0.00    -0.274 OA
BRANCH  15  18
ATOM     18  C   UNL A   1      34.185  27.142  23.987  1.00  0.00     0.135 C 
BRANCH  18  19
ATOM     19  C   UNL A   1      33.366  27.874  25.041  1.00  0.00    -0.039 A 
ATOM     20  C   UNL A   1      32.486  28.897  24.653  1.00  0.00     0.004 A 
ATOM     21  C   UNL A   1      33.378  27.516  26.392  1.00  0.00     0.004 A 
ATOM     22  C   UNL A   1      31.673  29.548  25.590  1.00  0.00     0.000 A 
ATOM     23  C   UNL A   1      32.559  28.153  27.328  1.00  0.00     0.000 A 
ATOM     24  C   UNL A   1      31.708  29.174  26.929  1.00  0.00     0.000 A 
ENDBRANCH  18  19
ENDBRANCH  15  18
ENDBRANCH  11  14
ENDBRANCH   4   7
ENDBRANCH   2   3
ENDBRANCH   1   2
BRANCH   1  25
ATOM     25  C   UNL A   1      37.975  22.046  25.381  1.00  0.00     0.023 C 
BRANCH  25  26
ATOM     26  C   UNL A   1      38.415  23.255  26.195  1.00  0.00     0.116 C 
BRANCH  26  27
ATOM     27  N   UNL A   1      39.819  23.181  26.632  1.00  0.00    -0.352 N 
ATOM     28  C   UNL A   1      40.604  24.201  27.124  1.00  0.00     0.251 C 
ATOM     29  H   UNL A   1      40.249  22.299  26.564  1.00  0.00     0.163 HD
ATOM     30  O   UNL A   1      41.790  24.073  27.402  1.00  0.00    -0.269 OA
BRANCH  28  31
ATOM     31  C   UNL A   1      39.915  25.479  27.385  1.00  0.00     0.039 A 
ATOM     32  C   UNL A   1      40.321  26.587  26.633  1.00  0.00     0.014 A 
ATOM     33  C   UNL A   1      39.232  25.616  28.591  1.00  0.00     0.014 A 
ATOM     34  C   UNL A   1      40.234  27.851  27.202  1.00  0.00     0.010 A 
ATOM     35  C   UNL A   1      39.215  26.864  29.180  1.00  0.00     0.010 A 
ATOM     36  C   UNL A   1      39.783  27.961  28.516  1.00  0.00    -0.014 A 
BRANCH  36  37
ATOM     37  C   UNL A   1      39.962  29.163  29.321  1.00  0.00     0.031 A 
ATOM     38  C   UNL A   1      38.945  30.233  29.263  1.00  0.00     0.074 A 
ATOM     39  C   UNL A   1      41.041  29.285  30.127  1.00  0.00     0.049 A 
ATOM     40  N   UNL A   1      39.137  31.434  29.689  1.00  0.00    -0.248 NA
ATOM     41  C   UNL A   1      37.646  30.056  28.616  1.00  0.00     0.031 C 
ATOM     42  C   UNL A   1      41.242  30.251  31.202  1.00  0.00     0.029 A 
ATOM     43  N   UNL A   1      42.282  28.675  29.985  1.00  0.00    -0.354 N 
ATOM     44  C   UNL A   1      37.938  32.103  29.620  1.00  0.00     0.074 A 
ATOM     45  C   UNL A   1      37.085  31.251  28.833  1.00  0.00     0.031 C 
ATOM     46  C   UNL A   1      42.554  30.340  31.472  1.00  0.00     0.029 A 
ATOM     47  C   UNL A   1      43.260  29.548  30.480  1.00  0.00     0.049 A 
ATOM     48  H   UNL A   1      42.446  27.783  29.603  1.00  0.00     0.167 HD
ATOM     49  C   UNL A   1      37.783  33.244  30.347  1.00  0.00     0.037 A 
ATOM     50  C   UNL A   1      44.241  30.040  29.665  1.00  0.00     0.037 A 
ATOM     51  C   UNL A   1      39.089  33.748  30.778  1.00  0.00     0.049 A 
ATOM     52  C   UNL A   1      44.178  31.538  29.464  1.00  0.00     0.074 A 
ATOM     53  C   UNL A   1      39.770  33.724  31.982  1.00  0.00     0.029 A 
ATOM     54  N   UNL A   1      40.013  34.138  29.810  1.00  0.00    -0.354 N 
ATOM     55  N   UNL A   1      43.141  32.275  29.759  1.00  0.00    -0.248 NA
ATOM     56  C   UNL A   1      45.275  32.323  28.905  1.00  0.00     0.031 C 
ATOM     57  C   UNL A   1      41.143  33.980  31.706  1.00  0.00     0.029 A 
ATOM     58  C   UNL A   1      41.284  34.216  30.347  1.00  0.00     0.049 A 
ATOM     59  H   UNL A   1      39.789  34.332  28.870  1.00  0.00     0.167 HD
ATOM     60  C   UNL A   1      43.380  33.575  29.395  1.00  0.00     0.074 A 
ATOM     61  C   UNL A   1      44.746  33.559  28.903  1.00  0.00     0.031 C 
ATOM     62  C   UNL A   1      42.430  34.553  29.508  1.00  0.00     0.037 A 
BRANCH  49  63
ATOM     63  C   UNL A   1      36.455  33.803  30.836  1.00  0.00     0.058 A 
ATOM     64  C   UNL A   1      35.479  34.233  29.908  1.00  0.00     0.135 A 
ATOM     65  C   UNL A   1      36.132  34.086  32.183  1.00  0.00     0.135 A 
ATOM     66  F   UNL A   1      35.646  34.047  28.590  1.00  0.00    -0.206 F 
ATOM     67  C   UNL A   1      34.306  34.906  30.283  1.00  0.00     0.059 A 
ATOM     68  C   UNL A   1      34.952  34.714  32.584  1.00  0.00     0.059 A 
ATOM     69  F   UNL A   1      36.969  33.834  33.194  1.00  0.00    -0.206 F 
ATOM     70  C   UNL A   1      34.054  35.148  31.627  1.00  0.00     0.060 A 
BRANCH  70  71
ATOM     71  S   UNL A   1      32.580  36.063  32.117  1.00  0.00     0.124 S 
ATOM     72  O   UNL A   1      32.220  36.742  30.877  1.00  0.00    -0.237 OA
ATOM     73  O   UNL A   1      31.680  34.999  32.547  1.00  0.00    -0.237 OA
ATOM     74  O   UNL A   1      33.061  36.935  33.187  1.00  0.00    -0.744 OA
ENDBRANCH  70  71
ENDBRANCH  49  63
BRANCH  50  75
ATOM     75  C   UNL A   1      44.725  29.049  28.664  1.00  0.00     0.058 A 
ATOM     76  C   UNL A   1      44.281  29.200  27.336  1.00  0.00     0.135 A 
ATOM     77  C   UNL A   1      45.889  28.297  28.877  1.00  0.00     0.135 A 
ATOM     78  F   UNL A   1      43.166  29.902  27.077  1.00  0.00    -0.206 F 
ATOM     79  C   UNL A   1      45.043  28.768  26.257  1.00  0.00     0.059 A 
ATOM     80  C   UNL A   1      46.668  27.850  27.806  1.00  0.00     0.059 A 
ATOM     81  F   UNL A   1      46.360  28.117  30.120  1.00  0.00    -0.206 F 
ATOM     82  C   UNL A   1      46.266  28.150  26.503  1.00  0.00     0.060 A 
BRANCH  82  83
ATOM     83  S   UNL A   1      47.393  27.941  25.103  1.00  0.00     0.124 S 
ATOM     84  O   UNL A   1      46.690  28.654  24.043  1.00  0.00    -0.237 OA
ATOM     85  O   UNL A   1      48.605  28.591  25.603  1.00  0.00    -0.237 OA
ATOM     86  O   UNL A   1      47.472  26.494  24.952  1.00  0.00    -0.744 OA
ENDBRANCH  82  83
ENDBRANCH  50  75
BRANCH  62  87
ATOM     87  C   UNL A   1      42.530  35.941  28.909  1.00  0.00     0.058 A 
ATOM     88  C   UNL A   1      43.258  37.001  29.483  1.00  0.00     0.135 A 
ATOM     89  C   UNL A   1      41.982  36.209  27.631  1.00  0.00     0.135 A 
ATOM     90  F   UNL A   1      43.940  36.842  30.626  1.00  0.00    -0.206 F 
ATOM     91  C   UNL A   1      43.354  38.259  28.883  1.00  0.00     0.059 A 
ATOM     92  C   UNL A   1      42.118  37.438  26.987  1.00  0.00     0.059 A 
ATOM     93  F   UNL A   1      41.299  35.274  26.953  1.00  0.00    -0.206 F 
ATOM     94  C   UNL A   1      42.776  38.471  27.636  1.00  0.00     0.060 A 
BRANCH  94  95
ATOM     95  S   UNL A   1      42.932  40.079  26.835  1.00  0.00     0.124 S 
ATOM     96  O   UNL A   1      44.003  39.823  25.877  1.00  0.00    -0.237 OA
ATOM     97  O   UNL A   1      41.607  40.285  26.257  1.00  0.00    -0.237 OA
ATOM     98  O   UNL A   1      43.268  40.969  27.941  1.00  0.00    -0.744 OA
ENDBRANCH  94  95
ENDBRANCH  62  87
ENDBRANCH  36  37
ENDBRANCH  28  31
ENDBRANCH  26  27
ENDBRANCH  25  26
ENDBRANCH   1  25
TORSDOF 17
ENDMDL
