MODEL 1
REMARK VINA RESULT:     -10.3      0.000      0.000
REMARK SMILES CC(C)C[C@@H](CNC(=O)N(C)CCC#N)C(=O)NCCCCNC(=O)c1ccc(-c2c3nc(c(-c4c(F)cc(S(=O)(=O)[O-])cc4F)c4ccc([nH]4)c(-c4c(F)cc(S(=O)(=O)[O-])cc4F)c4nc(c(-c5c(F)cc(S(=O)(=O)[O-])cc5F)c5ccc2[nH]5)C=C4)C=C3)cc1
REMARK SMILES IDX 19 1 18 2 16 3 17 4 5 6 4 7 2 8 1 9 3 10 6 11 7 12 8 13 9 15
REMARK SMILES IDX 10 16 11 17 12 18 13 19 14 20 15 21 20 22 21 23 22 24 23 25
REMARK SMILES IDX 24 26 25 28 26 29 27 30 91 31 28 32 90 33 29 34 30 35 31 36
REMARK SMILES IDX 84 37 32 38 89 39 83 40 85 41 33 42 88 43 82 44 81 45 34 47
REMARK SMILES IDX 68 48 47 49 67 50 48 51 51 52 66 53 86 54 49 55 50 56 65 58
REMARK SMILES IDX 87 59 52 60 35 61 36 62 45 63 37 64 38 65 44 66 46 67 39 68
REMARK SMILES IDX 40 69 41 70 42 71 43 72 69 73 70 74 79 75 71 76 72 77 78 78
REMARK SMILES IDX 80 79 73 80 74 81 75 82 76 83 77 84 53 85 54 86 63 87 55 88
REMARK SMILES IDX 56 89 62 90 64 91 57 92 58 93 59 94 60 95 61 96
REMARK H PARENT 18 5 7 14 23 27 85 46 51 57
REMARK Flexibility Score: inf
ROOT
ATOM      1  C   UNL A   1      37.479  22.549  25.717  1.00  0.00     0.116 C 
ENDROOT
BRANCH   1   2
ATOM      2  N   UNL A   1      36.756  22.760  24.474  1.00  0.00    -0.356 N 
ATOM      3  C   UNL A   1      35.475  22.479  24.120  1.00  0.00     0.224 C 
ATOM      4  O   UNL A   1      35.038  23.034  23.105  1.00  0.00    -0.275 OA
ATOM      5  H   UNL A   1      37.290  23.181  23.763  1.00  0.00     0.163 HD
BRANCH   3   6
ATOM      6  C   UNL A   1      34.550  21.549  24.908  1.00  0.00     0.098 C 
BRANCH   6   7
ATOM      7  C   UNL A   1      34.993  20.071  24.912  1.00  0.00     0.018 C 
BRANCH   7   8
ATOM      8  C   UNL A   1      33.904  18.989  24.782  1.00  0.00    -0.017 C 
ATOM      9  C   UNL A   1      32.689  19.442  23.977  1.00  0.00     0.007 C 
ATOM     10  C   UNL A   1      34.516  17.745  24.117  1.00  0.00     0.007 C 
ENDBRANCH   7   8
ENDBRANCH   6   7
BRANCH   6  11
ATOM     11  C   UNL A   1      34.058  22.222  26.206  1.00  0.00     0.131 C 
BRANCH  11  12
ATOM     12  N   UNL A   1      32.703  22.730  26.184  1.00  0.00    -0.337 N 
ATOM     13  C   UNL A   1      32.165  23.893  26.575  1.00  0.00     0.317 C 
ATOM     14  H   UNL A   1      32.049  22.097  25.808  1.00  0.00     0.165 HD
ATOM     15  O   UNL A   1      31.154  23.746  27.258  1.00  0.00    -0.249 OA
BRANCH  13  16
ATOM     16  N   UNL A   1      32.597  25.130  26.197  1.00  0.00    -0.327 N 
ATOM     17  C   UNL A   1      33.888  25.470  25.625  1.00  0.00     0.148 C 
BRANCH  16  18
ATOM     18  C   UNL A   1      31.643  26.272  26.320  1.00  0.00     0.136 C 
BRANCH  18  19
ATOM     19  C   UNL A   1      31.407  27.124  25.038  1.00  0.00     0.141 C 
BRANCH  19  20
ATOM     20  C   UNL A   1      30.055  26.743  24.456  1.00  0.00     0.064 C 
ATOM     21  N   UNL A   1      28.936  26.426  23.972  1.00  0.00    -0.198 NA
ENDBRANCH  19  20
ENDBRANCH  18  19
ENDBRANCH  16  18
ENDBRANCH  13  16
ENDBRANCH  11  12
ENDBRANCH   6  11
ENDBRANCH   3   6
ENDBRANCH   1   2
BRANCH   1  22
ATOM     22  C   UNL A   1      38.800  21.809  25.538  1.00  0.00     0.023 C 
BRANCH  22  23
ATOM     23  C   UNL A   1      39.694  21.808  26.779  1.00  0.00     0.023 C 
BRANCH  23  24
ATOM     24  C   UNL A   1      40.247  23.169  27.205  1.00  0.00     0.116 C 
BRANCH  24  25
ATOM     25  N   UNL A   1      40.781  23.963  26.107  1.00  0.00    -0.352 N 
ATOM     26  C   UNL A   1      41.128  25.296  26.104  1.00  0.00     0.251 C 
ATOM     27  H   UNL A   1      40.911  23.485  25.257  1.00  0.00     0.163 HD
ATOM     28  O   UNL A   1      41.438  25.863  25.060  1.00  0.00    -0.269 OA
BRANCH  26  29
ATOM     29  C   UNL A   1      41.080  26.057  27.371  1.00  0.00     0.039 A 
ATOM     30  C   UNL A   1      42.198  26.801  27.756  1.00  0.00     0.014 A 
ATOM     31  C   UNL A   1      39.918  26.075  28.148  1.00  0.00     0.014 A 
ATOM     32  C   UNL A   1      42.118  27.637  28.870  1.00  0.00     0.010 A 
ATOM     33  C   UNL A   1      39.818  26.960  29.218  1.00  0.00     0.010 A 
ATOM     34  C   UNL A   1      40.912  27.761  29.581  1.00  0.00    -0.014 A 
BRANCH  34  35
ATOM     35  C   UNL A   1      40.765  28.747  30.682  1.00  0.00     0.031 A 
ATOM     36  C   UNL A   1      41.608  28.632  31.922  1.00  0.00     0.074 A 
ATOM     37  C   UNL A   1      39.813  29.698  30.598  1.00  0.00     0.049 A 
ATOM     38  N   UNL A   1      41.564  29.343  33.018  1.00  0.00    -0.248 NA
ATOM     39  C   UNL A   1      42.613  27.557  31.942  1.00  0.00     0.031 C 
ATOM     40  C   UNL A   1      38.891  29.876  29.474  1.00  0.00     0.029 A 
ATOM     41  N   UNL A   1      39.453  30.687  31.480  1.00  0.00    -0.354 N 
ATOM     42  C   UNL A   1      42.520  28.794  33.864  1.00  0.00     0.074 A 
ATOM     43  C   UNL A   1      43.096  27.662  33.171  1.00  0.00     0.031 C 
ATOM     44  C   UNL A   1      38.085  30.920  29.727  1.00  0.00     0.029 A 
ATOM     45  C   UNL A   1      38.408  31.466  31.040  1.00  0.00     0.049 A 
ATOM     46  H   UNL A   1      39.900  30.824  32.347  1.00  0.00     0.167 HD
ATOM     47  C   UNL A   1      42.899  29.211  35.097  1.00  0.00     0.037 A 
ATOM     48  C   UNL A   1      37.780  32.501  31.631  1.00  0.00     0.037 A 
ATOM     49  C   UNL A   1      42.346  30.356  35.769  1.00  0.00     0.049 A 
ATOM     50  C   UNL A   1      38.235  32.960  32.988  1.00  0.00     0.074 A 
ATOM     51  C   UNL A   1      42.705  30.893  36.993  1.00  0.00     0.029 A 
ATOM     52  N   UNL A   1      41.319  31.146  35.273  1.00  0.00    -0.354 N 
ATOM     53  N   UNL A   1      39.183  32.465  33.749  1.00  0.00    -0.248 NA
ATOM     54  C   UNL A   1      37.545  34.122  33.565  1.00  0.00     0.031 C 
ATOM     55  C   UNL A   1      41.874  31.990  37.251  1.00  0.00     0.029 A 
ATOM     56  C   UNL A   1      41.024  32.159  36.171  1.00  0.00     0.049 A 
ATOM     57  H   UNL A   1      40.867  31.007  34.409  1.00  0.00     0.167 HD
ATOM     58  C   UNL A   1      39.216  33.269  34.883  1.00  0.00     0.074 A 
ATOM     59  C   UNL A   1      38.202  34.287  34.704  1.00  0.00     0.031 C 
ATOM     60  C   UNL A   1      40.015  33.170  35.974  1.00  0.00     0.037 A 
BRANCH  47  61
ATOM     61  C   UNL A   1      43.974  28.422  35.791  1.00  0.00     0.058 A 
ATOM     62  C   UNL A   1      43.662  27.365  36.662  1.00  0.00     0.135 A 
ATOM     63  C   UNL A   1      45.330  28.709  35.570  1.00  0.00     0.135 A 
ATOM     64  F   UNL A   1      42.382  27.058  36.920  1.00  0.00    -0.206 F 
ATOM     65  C   UNL A   1      44.656  26.644  37.315  1.00  0.00     0.059 A 
ATOM     66  C   UNL A   1      46.342  27.984  36.193  1.00  0.00     0.059 A 
ATOM     67  F   UNL A   1      45.684  29.708  34.746  1.00  0.00    -0.206 F 
ATOM     68  C   UNL A   1      45.993  26.965  37.079  1.00  0.00     0.060 A 
BRANCH  68  69
ATOM     69  S   UNL A   1      47.274  26.027  37.939  1.00  0.00     0.124 S 
ATOM     70  O   UNL A   1      46.543  25.545  39.108  1.00  0.00    -0.237 OA
ATOM     71  O   UNL A   1      47.634  25.010  36.956  1.00  0.00    -0.237 OA
ATOM     72  O   UNL A   1      48.302  27.025  38.210  1.00  0.00    -0.744 OA
ENDBRANCH  68  69
ENDBRANCH  47  61
BRANCH  48  73
ATOM     73  C   UNL A   1      36.667  33.190  30.927  1.00  0.00     0.058 A 
ATOM     74  C   UNL A   1      35.331  32.908  31.245  1.00  0.00     0.135 A 
ATOM     75  C   UNL A   1      36.915  34.155  29.938  1.00  0.00     0.135 A 
ATOM     76  F   UNL A   1      35.044  31.989  32.179  1.00  0.00    -0.206 F 
ATOM     77  C   UNL A   1      34.277  33.548  30.600  1.00  0.00     0.059 A 
ATOM     78  C   UNL A   1      35.880  34.823  29.294  1.00  0.00     0.059 A 
ATOM     79  F   UNL A   1      38.178  34.472  29.610  1.00  0.00    -0.206 F 
ATOM     80  C   UNL A   1      34.562  34.506  29.626  1.00  0.00     0.060 A 
BRANCH  80  81
ATOM     81  S   UNL A   1      33.190  35.369  28.829  1.00  0.00     0.124 S 
ATOM     82  O   UNL A   1      32.492  34.269  28.174  1.00  0.00    -0.237 OA
ATOM     83  O   UNL A   1      32.503  35.973  29.967  1.00  0.00    -0.237 OA
ATOM     84  O   UNL A   1      33.861  36.313  27.940  1.00  0.00    -0.744 OA
ENDBRANCH  80  81
ENDBRANCH  48  73
BRANCH  60  85
ATOM     85  C   UNL A   1      39.847  34.207  37.048  1.00  0.00     0.058 A 
ATOM     86  C   UNL A   1      40.469  35.462  36.961  1.00  0.00     0.135 A 
ATOM     87  C   UNL A   1      39.014  33.959  38.151  1.00  0.00     0.135 A 
ATOM     88  F   UNL A   1      41.281  35.744  35.930  1.00  0.00    -0.206 F 
ATOM     89  C   UNL A   1      40.284  36.431  37.941  1.00  0.00     0.059 A 
ATOM     90  C   UNL A   1      38.797  34.923  39.130  1.00  0.00     0.059 A 
ATOM     91  F   UNL A   1      38.390  32.778  38.275  1.00  0.00    -0.206 F 
ATOM     92  C   UNL A   1      39.445  36.153  39.022  1.00  0.00     0.060 A 
BRANCH  92  93
ATOM     93  S   UNL A   1      39.180  37.433  40.268  1.00  0.00     0.124 S 
ATOM     94  O   UNL A   1      40.538  37.928  40.473  1.00  0.00    -0.237 OA
ATOM     95  O   UNL A   1      38.267  38.349  39.590  1.00  0.00    -0.237 OA
ATOM     96  O   UNL A   1      38.602  36.699  41.390  1.00  0.00    -0.744 OA
ENDBRANCH  92  93
ENDBRANCH  60  85
ENDBRANCH  34  35
ENDBRANCH  26  29
ENDBRANCH  24  25
ENDBRANCH  23  24
ENDBRANCH  22  23
ENDBRANCH   1  22
TORSDOF 22
ENDMDL
MODEL 2
REMARK VINA RESULT:     -10.3      6.350      8.973
REMARK SMILES CC(C)C[C@@H](CNC(=O)N(C)CCC#N)C(=O)NCCCCNC(=O)c1ccc(-c2c3nc(c(-c4c(F)cc(S(=O)(=O)[O-])cc4F)c4ccc([nH]4)c(-c4c(F)cc(S(=O)(=O)[O-])cc4F)c4nc(c(-c5c(F)cc(S(=O)(=O)[O-])cc5F)c5ccc2[nH]5)C=C4)C=C3)cc1
REMARK SMILES IDX 19 1 18 2 16 3 17 4 5 6 4 7 2 8 1 9 3 10 6 11 7 12 8 13 9 15
REMARK SMILES IDX 10 16 11 17 12 18 13 19 14 20 15 21 20 22 21 23 22 24 23 25
REMARK SMILES IDX 24 26 25 28 26 29 27 30 91 31 28 32 90 33 29 34 30 35 31 36
REMARK SMILES IDX 84 37 32 38 89 39 83 40 85 41 33 42 88 43 82 44 81 45 34 47
REMARK SMILES IDX 68 48 47 49 67 50 48 51 51 52 66 53 86 54 49 55 50 56 65 58
REMARK SMILES IDX 87 59 52 60 35 61 36 62 45 63 37 64 38 65 44 66 46 67 39 68
REMARK SMILES IDX 40 69 41 70 42 71 43 72 69 73 70 74 79 75 71 76 72 77 78 78
REMARK SMILES IDX 80 79 73 80 74 81 75 82 76 83 77 84 53 85 54 86 63 87 55 88
REMARK SMILES IDX 56 89 62 90 64 91 57 92 58 93 59 94 60 95 61 96
REMARK H PARENT 18 5 7 14 23 27 85 46 51 57
REMARK Flexibility Score: inf
ROOT
ATOM      1  C   UNL A   1      35.671  20.589  24.992  1.00  0.00     0.116 C 
ENDROOT
BRANCH   1   2
ATOM      2  N   UNL A   1      35.230  21.117  26.272  1.00  0.00    -0.356 N 
ATOM      3  C   UNL A   1      34.046  21.655  26.663  1.00  0.00     0.224 C 
ATOM      4  O   UNL A   1      33.844  21.747  27.879  1.00  0.00    -0.275 OA
ATOM      5  H   UNL A   1      35.910  21.077  26.982  1.00  0.00     0.163 HD
BRANCH   3   6
ATOM      6  C   UNL A   1      32.955  22.124  25.696  1.00  0.00     0.098 C 
BRANCH   6   7
ATOM      7  C   UNL A   1      33.409  23.226  24.717  1.00  0.00     0.018 C 
BRANCH   7   8
ATOM      8  C   UNL A   1      34.631  24.079  25.104  1.00  0.00    -0.017 C 
ATOM      9  C   UNL A   1      35.687  24.164  24.004  1.00  0.00     0.007 C 
ATOM     10  C   UNL A   1      34.155  25.497  25.458  1.00  0.00     0.007 C 
ENDBRANCH   7   8
ENDBRANCH   6   7
BRANCH   6  11
ATOM     11  C   UNL A   1      32.103  20.937  25.200  1.00  0.00     0.131 C 
BRANCH  11  12
ATOM     12  N   UNL A   1      32.535  19.623  25.625  1.00  0.00    -0.337 N 
ATOM     13  C   UNL A   1      32.476  18.418  25.043  1.00  0.00     0.317 C 
ATOM     14  H   UNL A   1      32.955  19.613  26.515  1.00  0.00     0.165 HD
ATOM     15  O   UNL A   1      32.046  17.545  25.794  1.00  0.00    -0.249 OA
BRANCH  13  16
ATOM     16  N   UNL A   1      32.926  18.121  23.791  1.00  0.00    -0.327 N 
ATOM     17  C   UNL A   1      32.299  18.473  22.529  1.00  0.00     0.148 C 
BRANCH  16  18
ATOM     18  C   UNL A   1      34.232  17.408  23.667  1.00  0.00     0.136 C 
BRANCH  18  19
ATOM     19  C   UNL A   1      34.292  15.960  24.236  1.00  0.00     0.141 C 
BRANCH  19  20
ATOM     20  C   UNL A   1      35.432  15.890  25.239  1.00  0.00     0.064 C 
ATOM     21  N   UNL A   1      36.377  15.833  26.072  1.00  0.00    -0.198 NA
ENDBRANCH  19  20
ENDBRANCH  18  19
ENDBRANCH  16  18
ENDBRANCH  13  16
ENDBRANCH  11  12
ENDBRANCH   6  11
ENDBRANCH   3   6
ENDBRANCH   1   2
BRANCH   1  22
ATOM     22  C   UNL A   1      37.090  20.030  25.017  1.00  0.00     0.023 C 
BRANCH  22  23
ATOM     23  C   UNL A   1      38.186  21.095  25.011  1.00  0.00     0.023 C 
BRANCH  23  24
ATOM     24  C   UNL A   1      39.196  21.023  26.158  1.00  0.00     0.116 C 
BRANCH  24  25
ATOM     25  N   UNL A   1      40.067  19.858  26.109  1.00  0.00    -0.352 N 
ATOM     26  C   UNL A   1      41.443  19.816  26.156  1.00  0.00     0.251 C 
ATOM     27  H   UNL A   1      39.615  18.988  26.034  1.00  0.00     0.163 HD
ATOM     28  O   UNL A   1      42.047  18.763  25.967  1.00  0.00    -0.269 OA
BRANCH  26  29
ATOM     29  C   UNL A   1      42.196  21.066  26.393  1.00  0.00     0.039 A 
ATOM     30  C   UNL A   1      42.568  21.849  25.298  1.00  0.00     0.014 A 
ATOM     31  C   UNL A   1      42.487  21.487  27.693  1.00  0.00     0.014 A 
ATOM     32  C   UNL A   1      43.149  23.100  25.512  1.00  0.00     0.010 A 
ATOM     33  C   UNL A   1      43.004  22.762  27.907  1.00  0.00     0.010 A 
ATOM     34  C   UNL A   1      43.326  23.588  26.818  1.00  0.00    -0.014 A 
BRANCH  34  35
ATOM     35  C   UNL A   1      43.813  24.968  27.065  1.00  0.00     0.031 A 
ATOM     36  C   UNL A   1      45.260  25.314  26.847  1.00  0.00     0.074 A 
ATOM     37  C   UNL A   1      42.966  25.891  27.565  1.00  0.00     0.049 A 
ATOM     38  N   UNL A   1      45.886  26.437  27.087  1.00  0.00    -0.248 NA
ATOM     39  C   UNL A   1      46.123  24.247  26.314  1.00  0.00     0.031 C 
ATOM     40  C   UNL A   1      41.554  25.662  27.878  1.00  0.00     0.029 A 
ATOM     41  N   UNL A   1      43.173  27.203  27.912  1.00  0.00    -0.354 N 
ATOM     42  C   UNL A   1      47.215  26.209  26.752  1.00  0.00     0.074 A 
ATOM     43  C   UNL A   1      47.314  24.827  26.335  1.00  0.00     0.031 C 
ATOM     44  C   UNL A   1      41.018  26.799  28.353  1.00  0.00     0.029 A 
ATOM     45  C   UNL A   1      42.052  27.827  28.409  1.00  0.00     0.049 A 
ATOM     46  H   UNL A   1      44.042  27.656  27.815  1.00  0.00     0.167 HD
ATOM     47  C   UNL A   1      48.254  27.079  26.769  1.00  0.00     0.037 A 
ATOM     48  C   UNL A   1      41.878  29.083  28.862  1.00  0.00     0.037 A 
ATOM     49  C   UNL A   1      48.144  28.462  27.155  1.00  0.00     0.049 A 
ATOM     50  C   UNL A   1      43.039  30.038  28.847  1.00  0.00     0.074 A 
ATOM     51  C   UNL A   1      49.126  29.437  27.149  1.00  0.00     0.029 A 
ATOM     52  N   UNL A   1      46.983  29.067  27.611  1.00  0.00    -0.354 N 
ATOM     53  N   UNL A   1      44.277  29.820  28.471  1.00  0.00    -0.248 NA
ATOM     54  C   UNL A   1      42.781  31.408  29.310  1.00  0.00     0.031 C 
ATOM     55  C   UNL A   1      48.564  30.626  27.630  1.00  0.00     0.029 A 
ATOM     56  C   UNL A   1      47.225  30.400  27.900  1.00  0.00     0.049 A 
ATOM     57  H   UNL A   1      46.113  28.615  27.714  1.00  0.00     0.167 HD
ATOM     58  C   UNL A   1      44.939  31.033  28.630  1.00  0.00     0.074 A 
ATOM     59  C   UNL A   1      43.963  31.981  29.127  1.00  0.00     0.031 C 
ATOM     60  C   UNL A   1      46.239  31.333  28.387  1.00  0.00     0.037 A 
BRANCH  47  61
ATOM     61  C   UNL A   1      49.598  26.557  26.347  1.00  0.00     0.058 A 
ATOM     62  C   UNL A   1      50.401  25.807  27.222  1.00  0.00     0.135 A 
ATOM     63  C   UNL A   1      50.083  26.790  25.051  1.00  0.00     0.135 A 
ATOM     64  F   UNL A   1      49.992  25.567  28.477  1.00  0.00    -0.206 F 
ATOM     65  C   UNL A   1      51.651  25.335  26.836  1.00  0.00     0.059 A 
ATOM     66  C   UNL A   1      51.320  26.305  24.635  1.00  0.00     0.059 A 
ATOM     67  F   UNL A   1      49.356  27.501  24.174  1.00  0.00    -0.206 F 
ATOM     68  C   UNL A   1      52.105  25.594  25.543  1.00  0.00     0.060 A 
BRANCH  68  69
ATOM     69  S   UNL A   1      53.733  24.983  25.057  1.00  0.00     0.124 S 
ATOM     70  O   UNL A   1      53.528  23.539  25.110  1.00  0.00    -0.237 OA
ATOM     71  O   UNL A   1      53.897  25.550  23.722  1.00  0.00    -0.237 OA
ATOM     72  O   UNL A   1      54.619  25.529  26.079  1.00  0.00    -0.744 OA
ENDBRANCH  68  69
ENDBRANCH  47  61
BRANCH  48  73
ATOM     73  C   UNL A   1      40.541  29.517  29.344  1.00  0.00     0.058 A 
ATOM     74  C   UNL A   1      39.490  29.743  28.444  1.00  0.00     0.135 A 
ATOM     75  C   UNL A   1      40.281  29.697  30.712  1.00  0.00     0.135 A 
ATOM     76  F   UNL A   1      39.692  29.590  27.126  1.00  0.00    -0.206 F 
ATOM     77  C   UNL A   1      38.231  30.144  28.879  1.00  0.00     0.059 A 
ATOM     78  C   UNL A   1      39.025  30.078  31.173  1.00  0.00     0.059 A 
ATOM     79  F   UNL A   1      41.250  29.477  31.615  1.00  0.00    -0.206 F 
ATOM     80  C   UNL A   1      38.007  30.308  30.246  1.00  0.00     0.060 A 
BRANCH  80  81
ATOM     81  S   UNL A   1      36.356  30.780  30.807  1.00  0.00     0.124 S 
ATOM     82  O   UNL A   1      35.617  30.807  29.550  1.00  0.00    -0.237 OA
ATOM     83  O   UNL A   1      36.019  29.693  31.722  1.00  0.00    -0.237 OA
ATOM     84  O   UNL A   1      36.577  32.076  31.440  1.00  0.00    -0.744 OA
ENDBRANCH  80  81
ENDBRANCH  48  73
BRANCH  60  85
ATOM     85  C   UNL A   1      46.677  32.750  28.626  1.00  0.00     0.058 A 
ATOM     86  C   UNL A   1      47.208  33.156  29.859  1.00  0.00     0.135 A 
ATOM     87  C   UNL A   1      46.611  33.697  27.593  1.00  0.00     0.135 A 
ATOM     88  F   UNL A   1      47.285  32.290  30.882  1.00  0.00    -0.206 F 
ATOM     89  C   UNL A   1      47.643  34.461  30.066  1.00  0.00     0.059 A 
ATOM     90  C   UNL A   1      47.062  35.001  27.771  1.00  0.00     0.059 A 
ATOM     91  F   UNL A   1      46.120  33.356  26.392  1.00  0.00    -0.206 F 
ATOM     92  C   UNL A   1      47.567  35.377  29.015  1.00  0.00     0.060 A 
BRANCH  92  93
ATOM     93  S   UNL A   1      48.171  37.057  29.281  1.00  0.00     0.124 S 
ATOM     94  O   UNL A   1      49.090  37.220  28.160  1.00  0.00    -0.237 OA
ATOM     95  O   UNL A   1      46.944  37.847  29.216  1.00  0.00    -0.237 OA
ATOM     96  O   UNL A   1      48.794  36.989  30.600  1.00  0.00    -0.744 OA
ENDBRANCH  92  93
ENDBRANCH  60  85
ENDBRANCH  34  35
ENDBRANCH  26  29
ENDBRANCH  24  25
ENDBRANCH  23  24
ENDBRANCH  22  23
ENDBRANCH   1  22
TORSDOF 22
ENDMDL
MODEL 3
REMARK VINA RESULT:     -10.3      6.393     11.060
REMARK SMILES CC(C)C[C@@H](CNC(=O)N(C)CCC#N)C(=O)NCCCCNC(=O)c1ccc(-c2c3nc(c(-c4c(F)cc(S(=O)(=O)[O-])cc4F)c4ccc([nH]4)c(-c4c(F)cc(S(=O)(=O)[O-])cc4F)c4nc(c(-c5c(F)cc(S(=O)(=O)[O-])cc5F)c5ccc2[nH]5)C=C4)C=C3)cc1
REMARK SMILES IDX 19 1 18 2 16 3 17 4 5 6 4 7 2 8 1 9 3 10 6 11 7 12 8 13 9 15
REMARK SMILES IDX 10 16 11 17 12 18 13 19 14 20 15 21 20 22 21 23 22 24 23 25
REMARK SMILES IDX 24 26 25 28 26 29 27 30 91 31 28 32 90 33 29 34 30 35 31 36
REMARK SMILES IDX 84 37 32 38 89 39 83 40 85 41 33 42 88 43 82 44 81 45 34 47
REMARK SMILES IDX 68 48 47 49 67 50 48 51 51 52 66 53 86 54 49 55 50 56 65 58
REMARK SMILES IDX 87 59 52 60 35 61 36 62 45 63 37 64 38 65 44 66 46 67 39 68
REMARK SMILES IDX 40 69 41 70 42 71 43 72 69 73 70 74 79 75 71 76 72 77 78 78
REMARK SMILES IDX 80 79 73 80 74 81 75 82 76 83 77 84 53 85 54 86 63 87 55 88
REMARK SMILES IDX 56 89 62 90 64 91 57 92 58 93 59 94 60 95 61 96
REMARK H PARENT 18 5 7 14 23 27 85 46 51 57
REMARK Flexibility Score: inf
ROOT
ATOM      1  C   UNL A   1      35.963  21.492  24.506  1.00  0.00     0.116 C 
ENDROOT
BRANCH   1   2
ATOM      2  N   UNL A   1      35.114  21.559  25.684  1.00  0.00    -0.356 N 
ATOM      3  C   UNL A   1      33.833  21.157  25.892  1.00  0.00     0.224 C 
ATOM      4  O   UNL A   1      33.458  21.061  27.067  1.00  0.00    -0.275 OA
ATOM      5  H   UNL A   1      35.543  21.968  26.469  1.00  0.00     0.163 HD
BRANCH   3   6
ATOM      6  C   UNL A   1      32.852  20.798  24.774  1.00  0.00     0.098 C 
BRANCH   6   7
ATOM      7  C   UNL A   1      32.358  19.337  24.811  1.00  0.00     0.018 C 
BRANCH   7   8
ATOM      8  C   UNL A   1      33.069  18.310  23.910  1.00  0.00    -0.017 C 
ATOM      9  C   UNL A   1      33.176  16.922  24.537  1.00  0.00     0.007 C 
ATOM     10  C   UNL A   1      32.308  18.206  22.578  1.00  0.00     0.007 C 
ENDBRANCH   7   8
ENDBRANCH   6   7
BRANCH   6  11
ATOM     11  C   UNL A   1      31.864  21.953  24.507  1.00  0.00     0.131 C 
BRANCH  11  12
ATOM     12  N   UNL A   1      31.275  22.568  25.677  1.00  0.00    -0.337 N 
ATOM     13  C   UNL A   1      31.282  23.824  26.141  1.00  0.00     0.317 C 
ATOM     14  H   UNL A   1      30.769  21.939  26.241  1.00  0.00     0.165 HD
ATOM     15  O   UNL A   1      31.554  23.890  27.337  1.00  0.00    -0.249 OA
BRANCH  13  16
ATOM     16  N   UNL A   1      30.934  24.933  25.427  1.00  0.00    -0.327 N 
ATOM     17  C   UNL A   1      29.778  25.786  25.643  1.00  0.00     0.148 C 
BRANCH  16  18
ATOM     18  C   UNL A   1      31.848  25.378  24.334  1.00  0.00     0.136 C 
BRANCH  18  19
ATOM     19  C   UNL A   1      31.237  25.457  22.904  1.00  0.00     0.141 C 
BRANCH  19  20
ATOM     20  C   UNL A   1      32.362  25.737  21.920  1.00  0.00     0.064 C 
ATOM     21  N   UNL A   1      33.294  25.971  21.105  1.00  0.00    -0.198 NA
ENDBRANCH  19  20
ENDBRANCH  18  19
ENDBRANCH  16  18
ENDBRANCH  13  16
ENDBRANCH  11  12
ENDBRANCH   6  11
ENDBRANCH   3   6
ENDBRANCH   1   2
BRANCH   1  22
ATOM     22  C   UNL A   1      37.440  21.726  24.804  1.00  0.00     0.023 C 
BRANCH  22  23
ATOM     23  C   UNL A   1      38.140  20.547  25.483  1.00  0.00     0.023 C 
BRANCH  23  24
ATOM     24  C   UNL A   1      39.568  20.806  25.966  1.00  0.00     0.116 C 
BRANCH  24  25
ATOM     25  N   UNL A   1      40.406  19.616  26.004  1.00  0.00    -0.352 N 
ATOM     26  C   UNL A   1      41.770  19.535  26.176  1.00  0.00     0.251 C 
ATOM     27  H   UNL A   1      39.937  18.758  25.894  1.00  0.00     0.163 HD
ATOM     28  O   UNL A   1      42.358  18.464  26.050  1.00  0.00    -0.269 OA
BRANCH  26  29
ATOM     29  C   UNL A   1      42.535  20.765  26.472  1.00  0.00     0.039 A 
ATOM     30  C   UNL A   1      43.117  21.470  25.416  1.00  0.00     0.014 A 
ATOM     31  C   UNL A   1      42.631  21.246  27.780  1.00  0.00     0.014 A 
ATOM     32  C   UNL A   1      43.715  22.707  25.661  1.00  0.00     0.010 A 
ATOM     33  C   UNL A   1      43.168  22.509  28.013  1.00  0.00     0.010 A 
ATOM     34  C   UNL A   1      43.702  23.259  26.953  1.00  0.00    -0.014 A 
BRANCH  34  35
ATOM     35  C   UNL A   1      44.210  24.631  27.208  1.00  0.00     0.031 A 
ATOM     36  C   UNL A   1      43.266  25.725  27.622  1.00  0.00     0.074 A 
ATOM     37  C   UNL A   1      45.511  24.909  26.987  1.00  0.00     0.049 A 
ATOM     38  N   UNL A   1      43.507  26.997  27.807  1.00  0.00    -0.248 NA
ATOM     39  C   UNL A   1      41.859  25.344  27.827  1.00  0.00     0.031 C 
ATOM     40  C   UNL A   1      46.515  23.948  26.525  1.00  0.00     0.029 A 
ATOM     41  N   UNL A   1      46.209  26.085  27.108  1.00  0.00    -0.354 N 
ATOM     42  C   UNL A   1      42.283  27.571  28.133  1.00  0.00     0.074 A 
ATOM     43  C   UNL A   1      41.294  26.517  28.076  1.00  0.00     0.031 C 
ATOM     44  C   UNL A   1      47.702  24.568  26.420  1.00  0.00     0.029 A 
ATOM     45  C   UNL A   1      47.539  25.974  26.774  1.00  0.00     0.049 A 
ATOM     46  H   UNL A   1      45.797  26.928  27.405  1.00  0.00     0.167 HD
ATOM     47  C   UNL A   1      42.014  28.855  28.472  1.00  0.00     0.037 A 
ATOM     48  C   UNL A   1      48.515  26.902  26.751  1.00  0.00     0.037 A 
ATOM     49  C   UNL A   1      43.007  29.894  28.559  1.00  0.00     0.049 A 
ATOM     50  C   UNL A   1      48.198  28.315  27.155  1.00  0.00     0.074 A 
ATOM     51  C   UNL A   1      42.842  31.211  28.951  1.00  0.00     0.029 A 
ATOM     52  N   UNL A   1      44.350  29.733  28.254  1.00  0.00    -0.354 N 
ATOM     53  N   UNL A   1      47.045  28.826  27.518  1.00  0.00    -0.248 NA
ATOM     54  C   UNL A   1      49.310  29.274  27.156  1.00  0.00     0.031 C 
ATOM     55  C   UNL A   1      44.082  31.854  28.854  1.00  0.00     0.029 A 
ATOM     56  C   UNL A   1      45.025  30.929  28.438  1.00  0.00     0.049 A 
ATOM     57  H   UNL A   1      44.764  28.892  27.952  1.00  0.00     0.167 HD
ATOM     58  C   UNL A   1      47.300  30.161  27.812  1.00  0.00     0.074 A 
ATOM     59  C   UNL A   1      48.716  30.375  27.594  1.00  0.00     0.031 C 
ATOM     60  C   UNL A   1      46.437  31.123  28.224  1.00  0.00     0.037 A 
BRANCH  47  61
ATOM     61  C   UNL A   1      40.585  29.201  28.784  1.00  0.00     0.058 A 
ATOM     62  C   UNL A   1      39.631  29.367  27.766  1.00  0.00     0.135 A 
ATOM     63  C   UNL A   1      40.157  29.350  30.113  1.00  0.00     0.135 A 
ATOM     64  F   UNL A   1      39.990  29.250  26.479  1.00  0.00    -0.206 F 
ATOM     65  C   UNL A   1      38.312  29.700  28.054  1.00  0.00     0.059 A 
ATOM     66  C   UNL A   1      38.836  29.658  30.424  1.00  0.00     0.059 A 
ATOM     67  F   UNL A   1      41.027  29.202  31.124  1.00  0.00    -0.206 F 
ATOM     68  C   UNL A   1      37.925  29.850  29.386  1.00  0.00     0.060 A 
BRANCH  68  69
ATOM     69  S   UNL A   1      36.212  30.291  29.746  1.00  0.00     0.124 S 
ATOM     70  O   UNL A   1      35.518  29.718  28.596  1.00  0.00    -0.237 OA
ATOM     71  O   UNL A   1      35.976  29.625  31.023  1.00  0.00    -0.237 OA
ATOM     72  O   UNL A   1      36.241  31.748  29.798  1.00  0.00    -0.744 OA
ENDBRANCH  68  69
ENDBRANCH  47  61
BRANCH  48  73
ATOM     73  C   UNL A   1      49.894  26.515  26.354  1.00  0.00     0.058 A 
ATOM     74  C   UNL A   1      50.763  25.907  27.270  1.00  0.00     0.135 A 
ATOM     75  C   UNL A   1      50.365  26.728  25.048  1.00  0.00     0.135 A 
ATOM     76  F   UNL A   1      50.360  25.688  28.532  1.00  0.00    -0.206 F 
ATOM     77  C   UNL A   1      52.055  25.534  26.914  1.00  0.00     0.059 A 
ATOM     78  C   UNL A   1      51.645  26.345  24.662  1.00  0.00     0.059 A 
ATOM     79  F   UNL A   1      49.565  27.292  24.129  1.00  0.00    -0.206 F 
ATOM     80  C   UNL A   1      52.487  25.756  25.606  1.00  0.00     0.060 A 
BRANCH  80  81
ATOM     81  S   UNL A   1      54.147  25.222  25.137  1.00  0.00     0.124 S 
ATOM     82  O   UNL A   1      53.943  23.797  24.906  1.00  0.00    -0.237 OA
ATOM     83  O   UNL A   1      54.407  26.030  23.949  1.00  0.00    -0.237 OA
ATOM     84  O   UNL A   1      54.951  25.565  26.306  1.00  0.00    -0.744 OA
ENDBRANCH  80  81
ENDBRANCH  48  73
BRANCH  60  85
ATOM     85  C   UNL A   1      47.003  32.487  28.495  1.00  0.00     0.058 A 
ATOM     86  C   UNL A   1      47.498  32.839  29.761  1.00  0.00     0.135 A 
ATOM     87  C   UNL A   1      47.098  33.435  27.464  1.00  0.00     0.135 A 
ATOM     88  F   UNL A   1      47.423  31.970  30.781  1.00  0.00    -0.206 F 
ATOM     89  C   UNL A   1      48.052  34.092  29.999  1.00  0.00     0.059 A 
ATOM     90  C   UNL A   1      47.670  34.686  27.676  1.00  0.00     0.059 A 
ATOM     91  F   UNL A   1      46.648  33.145  26.235  1.00  0.00    -0.206 F 
ATOM     92  C   UNL A   1      48.135  35.009  28.950  1.00  0.00     0.060 A 
BRANCH  92  93
ATOM     93  S   UNL A   1      48.892  36.618  29.261  1.00  0.00     0.124 S 
ATOM     94  O   UNL A   1      49.544  36.888  27.983  1.00  0.00    -0.237 OA
ATOM     95  O   UNL A   1      47.737  37.455  29.572  1.00  0.00    -0.237 OA
ATOM     96  O   UNL A   1      49.791  36.360  30.382  1.00  0.00    -0.744 OA
ENDBRANCH  92  93
ENDBRANCH  60  85
ENDBRANCH  34  35
ENDBRANCH  26  29
ENDBRANCH  24  25
ENDBRANCH  23  24
ENDBRANCH  22  23
ENDBRANCH   1  22
TORSDOF 22
ENDMDL
