MODEL 1
REMARK VINA RESULT:     -11.2      0.000      0.000
REMARK SMILES Nc1cccc(C(=O)N2CCC[C@H]2C(=O)NCCCCNC(=O)c2ccc(-c3c4nc(c(-c5c(F)cc(S(=O)(=O)[O-])cc5F)c5ccc([nH]5)c(-c5c(F)cc(S(=O)(=O)[O-])cc5F)c5nc(c(-c6c(F)cc(S(=O)(=O)[O-])cc6F)c6ccc3[nH]6)C=C5)C=C4)cc2)c1
REMARK SMILES IDX 18 1 17 2 16 3 14 4 15 5 13 7 9 8 10 9 11 10 12 11 7 12 8 13
REMARK SMILES IDX 6 14 2 15 3 16 90 17 4 18 5 19 1 20 19 23 20 24 21 25 22 26
REMARK SMILES IDX 23 28 24 29 25 30 89 31 26 32 88 33 27 34 28 35 29 36 82 37
REMARK SMILES IDX 30 38 87 39 81 40 83 41 31 42 86 43 80 44 79 45 32 47 66 48
REMARK SMILES IDX 45 49 65 50 46 51 49 52 64 53 84 54 47 55 48 56 63 58 85 59
REMARK SMILES IDX 50 60 33 61 34 62 43 63 35 64 36 65 42 66 44 67 37 68 38 69
REMARK SMILES IDX 39 70 40 71 41 72 67 73 68 74 77 75 69 76 70 77 76 78 78 79
REMARK SMILES IDX 71 80 72 81 73 82 74 83 75 84 51 85 52 86 61 87 53 88 54 89
REMARK SMILES IDX 60 90 62 91 55 92 56 93 57 94 58 95 59 96
REMARK H PARENT 16 6 1 21 1 22 21 27 83 46 49 57
REMARK Flexibility Score: inf
ROOT
ATOM      1  C   UNL A   1      34.576  32.632  27.652  1.00  0.00     0.023 C 
ENDROOT
BRANCH   1   2
ATOM      2  C   UNL A   1      33.303  33.316  28.136  1.00  0.00     0.116 C 
BRANCH   2   3
ATOM      3  N   UNL A   1      33.373  34.758  28.086  1.00  0.00    -0.354 N 
ATOM      4  C   UNL A   1      33.372  35.680  29.091  1.00  0.00     0.242 C 
ATOM      5  O   UNL A   1      33.738  36.822  28.786  1.00  0.00    -0.273 OA
ATOM      6  H   UNL A   1      33.429  35.136  27.178  1.00  0.00     0.163 HD
BRANCH   4   7
ATOM      7  C   UNL A   1      33.160  35.312  30.577  1.00  0.00     0.174 C 
ATOM      8  N   UNL A   1      34.330  35.020  31.412  1.00  0.00    -0.327 N 
ATOM      9  C   UNL A   1      34.448  35.964  32.511  1.00  0.00     0.121 C 
ATOM     10  C   UNL A   1      33.020  36.424  32.733  1.00  0.00     0.024 C 
ATOM     11  C   UNL A   1      32.402  36.411  31.336  1.00  0.00     0.037 C 
BRANCH   8  12
ATOM     12  C   UNL A   1      34.975  33.807  31.215  1.00  0.00     0.254 C 
ATOM     13  O   UNL A   1      34.382  32.736  31.318  1.00  0.00    -0.269 OA
BRANCH  12  14
ATOM     14  C   UNL A   1      36.437  33.759  30.957  1.00  0.00     0.042 A 
ATOM     15  C   UNL A   1      38.710  33.343  31.724  1.00  0.00     0.032 A 
ATOM     16  C   UNL A   1      39.151  33.422  30.402  1.00  0.00     0.025 A 
ATOM     17  C   UNL A   1      37.342  33.442  31.979  1.00  0.00     0.039 A 
ATOM     18  C   UNL A   1      38.251  33.675  29.362  1.00  0.00     0.003 A 
ATOM     19  C   UNL A   1      36.896  33.853  29.640  1.00  0.00     0.014 A 
BRANCH  15  20
ATOM     20  N   UNL A   1      39.591  33.023  32.747  1.00  0.00    -0.399 N 
ATOM     21  H   UNL A   1      39.916  32.100  32.846  1.00  0.00     0.156 HD
ATOM     22  H   UNL A   1      39.890  33.721  33.374  1.00  0.00     0.156 HD
ENDBRANCH  15  20
ENDBRANCH  12  14
ENDBRANCH   8  12
ENDBRANCH   4   7
ENDBRANCH   2   3
ENDBRANCH   1   2
BRANCH   1  23
ATOM     23  C   UNL A   1      34.515  31.106  27.640  1.00  0.00     0.023 C 
BRANCH  23  24
ATOM     24  C   UNL A   1      35.675  30.400  28.334  1.00  0.00     0.116 C 
BRANCH  24  25
ATOM     25  N   UNL A   1      35.561  30.385  29.785  1.00  0.00    -0.352 N 
ATOM     26  C   UNL A   1      36.544  30.147  30.717  1.00  0.00     0.251 C 
ATOM     27  H   UNL A   1      34.664  30.569  30.148  1.00  0.00     0.163 HD
ATOM     28  O   UNL A   1      36.259  30.069  31.909  1.00  0.00    -0.269 OA
BRANCH  26  29
ATOM     29  C   UNL A   1      37.936  29.943  30.263  1.00  0.00     0.039 A 
ATOM     30  C   UNL A   1      38.919  29.648  31.211  1.00  0.00     0.014 A 
ATOM     31  C   UNL A   1      38.258  30.003  28.905  1.00  0.00     0.014 A 
ATOM     32  C   UNL A   1      40.214  29.342  30.788  1.00  0.00     0.010 A 
ATOM     33  C   UNL A   1      39.530  29.630  28.482  1.00  0.00     0.010 A 
ATOM     34  C   UNL A   1      40.521  29.295  29.418  1.00  0.00    -0.014 A 
BRANCH  34  35
ATOM     35  C   UNL A   1      41.868  28.893  28.941  1.00  0.00     0.031 A 
ATOM     36  C   UNL A   1      42.958  29.922  28.809  1.00  0.00     0.074 A 
ATOM     37  C   UNL A   1      42.084  27.620  28.550  1.00  0.00     0.049 A 
ATOM     38  N   UNL A   1      44.168  29.786  28.335  1.00  0.00    -0.248 NA
ATOM     39  C   UNL A   1      42.632  31.294  29.235  1.00  0.00     0.031 C 
ATOM     40  C   UNL A   1      41.087  26.548  28.565  1.00  0.00     0.029 A 
ATOM     41  N   UNL A   1      43.208  27.018  28.043  1.00  0.00    -0.354 N 
ATOM     42  C   UNL A   1      44.738  31.053  28.378  1.00  0.00     0.074 A 
ATOM     43  C   UNL A   1      43.727  31.954  28.889  1.00  0.00     0.031 C 
ATOM     44  C   UNL A   1      41.646  25.418  28.102  1.00  0.00     0.029 A 
ATOM     45  C   UNL A   1      43.031  25.690  27.728  1.00  0.00     0.049 A 
ATOM     46  H   UNL A   1      44.063  27.491  27.917  1.00  0.00     0.167 HD
ATOM     47  C   UNL A   1      45.994  31.428  28.041  1.00  0.00     0.037 A 
ATOM     48  C   UNL A   1      43.885  24.797  27.191  1.00  0.00     0.037 A 
ATOM     49  C   UNL A   1      47.010  30.517  27.581  1.00  0.00     0.049 A 
ATOM     50  C   UNL A   1      45.292  25.228  26.876  1.00  0.00     0.074 A 
ATOM     51  C   UNL A   1      48.339  30.781  27.302  1.00  0.00     0.029 A 
ATOM     52  N   UNL A   1      46.809  29.167  27.335  1.00  0.00    -0.354 N 
ATOM     53  N   UNL A   1      45.839  26.413  27.006  1.00  0.00    -0.248 NA
ATOM     54  C   UNL A   1      46.202  24.200  26.353  1.00  0.00     0.031 C 
ATOM     55  C   UNL A   1      48.934  29.598  26.855  1.00  0.00     0.029 A 
ATOM     56  C   UNL A   1      47.987  28.588  26.894  1.00  0.00     0.049 A 
ATOM     57  H   UNL A   1      45.957  28.690  27.456  1.00  0.00     0.167 HD
ATOM     58  C   UNL A   1      47.163  26.265  26.608  1.00  0.00     0.074 A 
ATOM     59  C   UNL A   1      47.337  24.875  26.243  1.00  0.00     0.031 C 
ATOM     60  C   UNL A   1      48.147  27.197  26.552  1.00  0.00     0.037 A 
BRANCH  47  61
ATOM     61  C   UNL A   1      46.350  32.882  28.166  1.00  0.00     0.058 A 
ATOM     62  C   UNL A   1      46.900  33.408  29.345  1.00  0.00     0.135 A 
ATOM     63  C   UNL A   1      46.187  33.752  27.075  1.00  0.00     0.135 A 
ATOM     64  F   UNL A   1      47.062  32.625  30.424  1.00  0.00    -0.206 F 
ATOM     65  C   UNL A   1      47.257  34.749  29.447  1.00  0.00     0.059 A 
ATOM     66  C   UNL A   1      46.560  35.091  27.147  1.00  0.00     0.059 A 
ATOM     67  F   UNL A   1      45.663  33.301  25.924  1.00  0.00    -0.206 F 
ATOM     68  C   UNL A   1      47.084  35.582  28.342  1.00  0.00     0.060 A 
BRANCH  68  69
ATOM     69  S   UNL A   1      47.570  37.315  28.482  1.00  0.00     0.124 S 
ATOM     70  O   UNL A   1      48.873  37.306  27.823  1.00  0.00    -0.237 OA
ATOM     71  O   UNL A   1      46.502  37.999  27.760  1.00  0.00    -0.237 OA
ATOM     72  O   UNL A   1      47.597  37.546  29.922  1.00  0.00    -0.744 OA
ENDBRANCH  68  69
ENDBRANCH  47  61
BRANCH  48  73
ATOM     73  C   UNL A   1      43.443  23.400  26.939  1.00  0.00     0.058 A 
ATOM     74  C   UNL A   1      43.237  22.505  28.000  1.00  0.00     0.135 A 
ATOM     75  C   UNL A   1      43.222  22.930  25.635  1.00  0.00     0.135 A 
ATOM     76  F   UNL A   1      43.439  22.908  29.264  1.00  0.00    -0.206 F 
ATOM     77  C   UNL A   1      42.853  21.187  27.777  1.00  0.00     0.059 A 
ATOM     78  C   UNL A   1      42.814  21.622  25.389  1.00  0.00     0.059 A 
ATOM     79  F   UNL A   1      43.387  23.753  24.587  1.00  0.00    -0.206 F 
ATOM     80  C   UNL A   1      42.646  20.754  26.467  1.00  0.00     0.060 A 
BRANCH  80  81
ATOM     81  S   UNL A   1      42.117  19.050  26.190  1.00  0.00     0.124 S 
ATOM     82  O   UNL A   1      43.000  18.643  25.103  1.00  0.00    -0.237 OA
ATOM     83  O   UNL A   1      42.373  18.431  27.486  1.00  0.00    -0.237 OA
ATOM     84  O   UNL A   1      40.706  19.192  25.840  1.00  0.00    -0.744 OA
ENDBRANCH  80  81
ENDBRANCH  48  73
BRANCH  60  85
ATOM     85  C   UNL A   1      49.511  26.737  26.123  1.00  0.00     0.058 A 
ATOM     86  C   UNL A   1      49.957  26.882  24.800  1.00  0.00     0.135 A 
ATOM     87  C   UNL A   1      50.402  26.192  27.061  1.00  0.00     0.135 A 
ATOM     88  F   UNL A   1      49.141  27.393  23.864  1.00  0.00    -0.206 F 
ATOM     89  C   UNL A   1      51.232  26.481  24.417  1.00  0.00     0.059 A 
ATOM     90  C   UNL A   1      51.690  25.806  26.706  1.00  0.00     0.059 A 
ATOM     91  F   UNL A   1      50.028  26.042  28.342  1.00  0.00    -0.206 F 
ATOM     92  C   UNL A   1      52.092  25.943  25.378  1.00  0.00     0.060 A 
BRANCH  92  93
ATOM     93  S   UNL A   1      53.756  25.456  24.877  1.00  0.00     0.124 S 
ATOM     94  O   UNL A   1      54.562  26.014  25.958  1.00  0.00    -0.237 OA
ATOM     95  O   UNL A   1      53.662  24.000  24.843  1.00  0.00    -0.237 OA
ATOM     96  O   UNL A   1      53.919  26.097  23.575  1.00  0.00    -0.744 OA
ENDBRANCH  92  93
ENDBRANCH  60  85
ENDBRANCH  34  35
ENDBRANCH  26  29
ENDBRANCH  24  25
ENDBRANCH  23  24
ENDBRANCH   1  23
TORSDOF 17
ENDMDL
MODEL 2
REMARK VINA RESULT:     -10.9      0.546      8.268
REMARK SMILES Nc1cccc(C(=O)N2CCC[C@H]2C(=O)NCCCCNC(=O)c2ccc(-c3c4nc(c(-c5c(F)cc(S(=O)(=O)[O-])cc5F)c5ccc([nH]5)c(-c5c(F)cc(S(=O)(=O)[O-])cc5F)c5nc(c(-c6c(F)cc(S(=O)(=O)[O-])cc6F)c6ccc3[nH]6)C=C5)C=C4)cc2)c1
REMARK SMILES IDX 18 1 17 2 16 3 14 4 15 5 13 7 9 8 10 9 11 10 12 11 7 12 8 13
REMARK SMILES IDX 6 14 2 15 3 16 90 17 4 18 5 19 1 20 19 23 20 24 21 25 22 26
REMARK SMILES IDX 23 28 24 29 25 30 89 31 26 32 88 33 27 34 28 35 29 36 82 37
REMARK SMILES IDX 30 38 87 39 81 40 83 41 31 42 86 43 80 44 79 45 32 47 66 48
REMARK SMILES IDX 45 49 65 50 46 51 49 52 64 53 84 54 47 55 48 56 63 58 85 59
REMARK SMILES IDX 50 60 33 61 34 62 43 63 35 64 36 65 42 66 44 67 37 68 38 69
REMARK SMILES IDX 39 70 40 71 41 72 67 73 68 74 77 75 69 76 70 77 76 78 78 79
REMARK SMILES IDX 71 80 72 81 73 82 74 83 75 84 51 85 52 86 61 87 53 88 54 89
REMARK SMILES IDX 60 90 62 91 55 92 56 93 57 94 58 95 59 96
REMARK H PARENT 16 6 1 21 1 22 21 27 83 46 49 57
REMARK Flexibility Score: inf
ROOT
ATOM      1  C   UNL A   1      34.500  32.744  27.633  1.00  0.00     0.023 C 
ENDROOT
BRANCH   1   2
ATOM      2  C   UNL A   1      33.207  33.460  28.003  1.00  0.00     0.116 C 
BRANCH   2   3
ATOM      3  N   UNL A   1      33.340  34.898  28.041  1.00  0.00    -0.354 N 
ATOM      4  C   UNL A   1      33.390  35.754  29.100  1.00  0.00     0.242 C 
ATOM      5  O   UNL A   1      33.803  36.897  28.862  1.00  0.00    -0.273 OA
ATOM      6  H   UNL A   1      33.403  35.329  27.158  1.00  0.00     0.163 HD
BRANCH   4   7
ATOM      7  C   UNL A   1      33.177  35.304  30.564  1.00  0.00     0.174 C 
ATOM      8  N   UNL A   1      34.346  34.953  31.377  1.00  0.00    -0.327 N 
ATOM      9  C   UNL A   1      34.476  35.830  32.528  1.00  0.00     0.121 C 
ATOM     10  C   UNL A   1      33.054  36.292  32.781  1.00  0.00     0.024 C 
ATOM     11  C   UNL A   1      32.433  36.366  31.386  1.00  0.00     0.037 C 
BRANCH   8  12
ATOM     12  C   UNL A   1      34.978  33.746  31.110  1.00  0.00     0.254 C 
ATOM     13  O   UNL A   1      34.370  32.679  31.138  1.00  0.00    -0.269 OA
BRANCH  12  14
ATOM     14  C   UNL A   1      36.442  33.696  30.863  1.00  0.00     0.042 A 
ATOM     15  C   UNL A   1      38.703  33.218  31.630  1.00  0.00     0.032 A 
ATOM     16  C   UNL A   1      39.157  33.357  30.318  1.00  0.00     0.025 A 
ATOM     17  C   UNL A   1      37.334  33.319  31.877  1.00  0.00     0.039 A 
ATOM     18  C   UNL A   1      38.271  33.671  29.283  1.00  0.00     0.003 A 
ATOM     19  C   UNL A   1      36.915  33.849  29.557  1.00  0.00     0.014 A 
BRANCH  15  20
ATOM     20  N   UNL A   1      39.570  32.839  32.644  1.00  0.00    -0.399 N 
ATOM     21  H   UNL A   1      39.804  31.891  32.763  1.00  0.00     0.156 HD
ATOM     22  H   UNL A   1      39.951  33.519  33.246  1.00  0.00     0.156 HD
ENDBRANCH  15  20
ENDBRANCH  12  14
ENDBRANCH   8  12
ENDBRANCH   4   7
ENDBRANCH   2   3
ENDBRANCH   1   2
BRANCH   1  23
ATOM     23  C   UNL A   1      34.428  31.219  27.703  1.00  0.00     0.023 C 
BRANCH  23  24
ATOM     24  C   UNL A   1      35.657  30.533  28.291  1.00  0.00     0.116 C 
BRANCH  24  25
ATOM     25  N   UNL A   1      35.573  30.322  29.729  1.00  0.00    -0.352 N 
ATOM     26  C   UNL A   1      36.577  29.975  30.601  1.00  0.00     0.251 C 
ATOM     27  H   UNL A   1      34.681  30.442  30.129  1.00  0.00     0.163 HD
ATOM     28  O   UNL A   1      36.318  29.735  31.777  1.00  0.00    -0.269 OA
BRANCH  26  29
ATOM     29  C   UNL A   1      37.962  29.855  30.099  1.00  0.00     0.039 A 
ATOM     30  C   UNL A   1      38.988  29.574  31.005  1.00  0.00     0.014 A 
ATOM     31  C   UNL A   1      38.238  29.978  28.734  1.00  0.00     0.014 A 
ATOM     32  C   UNL A   1      40.281  29.346  30.532  1.00  0.00     0.010 A 
ATOM     33  C   UNL A   1      39.512  29.682  28.259  1.00  0.00     0.010 A 
ATOM     34  C   UNL A   1      40.547  29.362  29.152  1.00  0.00    -0.014 A 
BRANCH  34  35
ATOM     35  C   UNL A   1      41.895  29.042  28.621  1.00  0.00     0.031 A 
ATOM     36  C   UNL A   1      42.209  27.644  28.158  1.00  0.00     0.074 A 
ATOM     37  C   UNL A   1      42.858  29.986  28.632  1.00  0.00     0.049 A 
ATOM     38  N   UNL A   1      43.345  27.149  27.743  1.00  0.00    -0.248 NA
ATOM     39  C   UNL A   1      41.109  26.667  28.201  1.00  0.00     0.031 C 
ATOM     40  C   UNL A   1      42.694  31.358  29.121  1.00  0.00     0.029 A 
ATOM     41  N   UNL A   1      44.172  29.931  28.241  1.00  0.00    -0.354 N 
ATOM     42  C   UNL A   1      43.106  25.801  27.503  1.00  0.00     0.074 A 
ATOM     43  C   UNL A   1      41.726  25.548  27.856  1.00  0.00     0.031 C 
ATOM     44  C   UNL A   1      43.858  32.015  28.988  1.00  0.00     0.029 A 
ATOM     45  C   UNL A   1      44.858  31.107  28.435  1.00  0.00     0.049 A 
ATOM     46  H   UNL A   1      44.586  29.124  27.856  1.00  0.00     0.167 HD
ATOM     47  C   UNL A   1      43.954  24.865  27.014  1.00  0.00     0.037 A 
ATOM     48  C   UNL A   1      46.148  31.416  28.202  1.00  0.00     0.037 A 
ATOM     49  C   UNL A   1      45.311  25.137  26.618  1.00  0.00     0.049 A 
ATOM     50  C   UNL A   1      47.055  30.372  27.609  1.00  0.00     0.074 A 
ATOM     51  C   UNL A   1      46.221  24.280  26.026  1.00  0.00     0.029 A 
ATOM     52  N   UNL A   1      45.951  26.358  26.772  1.00  0.00    -0.354 N 
ATOM     53  N   UNL A   1      46.787  29.124  27.306  1.00  0.00    -0.248 NA
ATOM     54  C   UNL A   1      48.436  30.778  27.314  1.00  0.00     0.031 C 
ATOM     55  C   UNL A   1      47.424  24.973  25.853  1.00  0.00     0.029 A 
ATOM     56  C   UNL A   1      47.249  26.273  26.298  1.00  0.00     0.049 A 
ATOM     57  H   UNL A   1      45.543  27.166  27.159  1.00  0.00     0.167 HD
ATOM     58  C   UNL A   1      47.955  28.606  26.759  1.00  0.00     0.074 A 
ATOM     59  C   UNL A   1      48.929  29.678  26.763  1.00  0.00     0.031 C 
ATOM     60  C   UNL A   1      48.199  27.356  26.294  1.00  0.00     0.037 A 
BRANCH  47  61
ATOM     61  C   UNL A   1      43.440  23.461  26.868  1.00  0.00     0.058 A 
ATOM     62  C   UNL A   1      43.228  22.634  27.982  1.00  0.00     0.135 A 
ATOM     63  C   UNL A   1      43.109  22.953  25.601  1.00  0.00     0.135 A 
ATOM     64  F   UNL A   1      43.544  23.063  29.213  1.00  0.00    -0.206 F 
ATOM     65  C   UNL A   1      42.724  21.344  27.844  1.00  0.00     0.059 A 
ATOM     66  C   UNL A   1      42.580  21.675  25.443  1.00  0.00     0.059 A 
ATOM     67  F   UNL A   1      43.295  23.702  24.503  1.00  0.00    -0.206 F 
ATOM     68  C   UNL A   1      42.402  20.874  26.570  1.00  0.00     0.060 A 
BRANCH  68  69
ATOM     69  S   UNL A   1      41.729  19.206  26.410  1.00  0.00     0.124 S 
ATOM     70  O   UNL A   1      41.882  18.699  27.770  1.00  0.00    -0.237 OA
ATOM     71  O   UNL A   1      40.358  19.463  25.981  1.00  0.00    -0.237 OA
ATOM     72  O   UNL A   1      42.591  18.587  25.409  1.00  0.00    -0.744 OA
ENDBRANCH  68  69
ENDBRANCH  47  61
BRANCH  48  73
ATOM     73  C   UNL A   1      46.657  32.780  28.507  1.00  0.00     0.058 A 
ATOM     74  C   UNL A   1      47.231  33.075  29.752  1.00  0.00     0.135 A 
ATOM     75  C   UNL A   1      46.578  33.814  27.562  1.00  0.00     0.135 A 
ATOM     76  F   UNL A   1      47.325  32.119  30.689  1.00  0.00    -0.206 F 
ATOM     77  C   UNL A   1      47.683  34.353  30.062  1.00  0.00     0.059 A 
ATOM     78  C   UNL A   1      47.047  35.095  27.840  1.00  0.00     0.059 A 
ATOM     79  F   UNL A   1      46.056  33.577  26.348  1.00  0.00    -0.206 F 
ATOM     80  C   UNL A   1      47.585  35.358  29.098  1.00  0.00     0.060 A 
BRANCH  80  81
ATOM     81  S   UNL A   1      48.205  37.007  29.498  1.00  0.00     0.124 S 
ATOM     82  O   UNL A   1      49.596  36.905  29.074  1.00  0.00    -0.237 OA
ATOM     83  O   UNL A   1      47.350  37.865  28.684  1.00  0.00    -0.237 OA
ATOM     84  O   UNL A   1      47.987  37.105  30.938  1.00  0.00    -0.744 OA
ENDBRANCH  80  81
ENDBRANCH  48  73
BRANCH  60  85
ATOM     85  C   UNL A   1      49.557  27.089  25.708  1.00  0.00     0.058 A 
ATOM     86  C   UNL A   1      49.820  27.273  24.342  1.00  0.00     0.135 A 
ATOM     87  C   UNL A   1      50.621  26.695  26.535  1.00  0.00     0.135 A 
ATOM     88  F   UNL A   1      48.836  27.645  23.507  1.00  0.00    -0.206 F 
ATOM     89  C   UNL A   1      51.087  27.053  23.811  1.00  0.00     0.059 A 
ATOM     90  C   UNL A   1      51.900  26.492  26.032  1.00  0.00     0.059 A 
ATOM     91  F   UNL A   1      50.423  26.516  27.851  1.00  0.00    -0.206 F 
ATOM     92  C   UNL A   1      52.121  26.661  24.665  1.00  0.00     0.060 A 
BRANCH  92  93
ATOM     93  S   UNL A   1      53.769  26.409  23.973  1.00  0.00     0.124 S 
ATOM     94  O   UNL A   1      54.214  25.226  24.700  1.00  0.00    -0.237 OA
ATOM     95  O   UNL A   1      53.489  26.213  22.554  1.00  0.00    -0.237 OA
ATOM     96  O   UNL A   1      54.467  27.649  24.301  1.00  0.00    -0.744 OA
ENDBRANCH  92  93
ENDBRANCH  60  85
ENDBRANCH  34  35
ENDBRANCH  26  29
ENDBRANCH  24  25
ENDBRANCH  23  24
ENDBRANCH   1  23
TORSDOF 17
ENDMDL
MODEL 3
REMARK VINA RESULT:     -10.9      7.269     13.690
REMARK SMILES Nc1cccc(C(=O)N2CCC[C@H]2C(=O)NCCCCNC(=O)c2ccc(-c3c4nc(c(-c5c(F)cc(S(=O)(=O)[O-])cc5F)c5ccc([nH]5)c(-c5c(F)cc(S(=O)(=O)[O-])cc5F)c5nc(c(-c6c(F)cc(S(=O)(=O)[O-])cc6F)c6ccc3[nH]6)C=C5)C=C4)cc2)c1
REMARK SMILES IDX 18 1 17 2 16 3 14 4 15 5 13 7 9 8 10 9 11 10 12 11 7 12 8 13
REMARK SMILES IDX 6 14 2 15 3 16 90 17 4 18 5 19 1 20 19 23 20 24 21 25 22 26
REMARK SMILES IDX 23 28 24 29 25 30 89 31 26 32 88 33 27 34 28 35 29 36 82 37
REMARK SMILES IDX 30 38 87 39 81 40 83 41 31 42 86 43 80 44 79 45 32 47 66 48
REMARK SMILES IDX 45 49 65 50 46 51 49 52 64 53 84 54 47 55 48 56 63 58 85 59
REMARK SMILES IDX 50 60 33 61 34 62 43 63 35 64 36 65 42 66 44 67 37 68 38 69
REMARK SMILES IDX 39 70 40 71 41 72 67 73 68 74 77 75 69 76 70 77 76 78 78 79
REMARK SMILES IDX 71 80 72 81 73 82 74 83 75 84 51 85 52 86 61 87 53 88 54 89
REMARK SMILES IDX 60 90 62 91 55 92 56 93 57 94 58 95 59 96
REMARK H PARENT 16 6 1 21 1 22 21 27 83 46 49 57
REMARK Flexibility Score: inf
ROOT
ATOM      1  C   UNL A   1      35.940  24.018  25.775  1.00  0.00     0.023 C 
ENDROOT
BRANCH   1   2
ATOM      2  C   UNL A   1      35.100  22.798  26.136  1.00  0.00     0.116 C 
BRANCH   2   3
ATOM      3  N   UNL A   1      33.917  23.123  26.898  1.00  0.00    -0.354 N 
ATOM      4  C   UNL A   1      32.722  23.643  26.498  1.00  0.00     0.242 C 
ATOM      5  O   UNL A   1      31.785  23.544  27.302  1.00  0.00    -0.273 OA
ATOM      6  H   UNL A   1      33.986  22.941  27.863  1.00  0.00     0.163 HD
BRANCH   4   7
ATOM      7  C   UNL A   1      32.448  24.123  25.055  1.00  0.00     0.174 C 
ATOM      8  N   UNL A   1      32.017  23.146  24.050  1.00  0.00    -0.327 N 
ATOM      9  C   UNL A   1      30.696  23.463  23.532  1.00  0.00     0.121 C 
ATOM     10  C   UNL A   1      30.592  24.962  23.729  1.00  0.00     0.024 C 
ATOM     11  C   UNL A   1      31.380  25.226  25.012  1.00  0.00     0.037 C 
BRANCH   8  12
ATOM     12  C   UNL A   1      32.968  22.260  23.563  1.00  0.00     0.254 C 
ATOM     13  O   UNL A   1      33.924  22.644  22.892  1.00  0.00    -0.269 OA
BRANCH  12  14
ATOM     14  C   UNL A   1      32.814  20.797  23.763  1.00  0.00     0.042 A 
ATOM     15  C   UNL A   1      32.728  18.859  25.235  1.00  0.00     0.032 A 
ATOM     16  C   UNL A   1      32.270  18.090  24.164  1.00  0.00     0.025 A 
ATOM     17  C   UNL A   1      32.927  20.225  25.038  1.00  0.00     0.039 A 
ATOM     18  C   UNL A   1      32.092  18.658  22.899  1.00  0.00     0.003 A 
ATOM     19  C   UNL A   1      32.372  20.009  22.696  1.00  0.00     0.014 A 
BRANCH  15  20
ATOM     20  N   UNL A   1      32.839  18.311  26.505  1.00  0.00    -0.399 N 
ATOM     21  H   UNL A   1      32.635  17.360  26.650  1.00  0.00     0.156 HD
ATOM     22  H   UNL A   1      33.121  18.876  27.260  1.00  0.00     0.156 HD
ENDBRANCH  15  20
ENDBRANCH  12  14
ENDBRANCH   8  12
ENDBRANCH   4   7
ENDBRANCH   2   3
ENDBRANCH   1   2
BRANCH   1  23
ATOM     23  C   UNL A   1      37.405  23.714  25.462  1.00  0.00     0.023 C 
BRANCH  23  24
ATOM     24  C   UNL A   1      38.396  24.071  26.565  1.00  0.00     0.116 C 
BRANCH  24  25
ATOM     25  N   UNL A   1      39.788  23.971  26.151  1.00  0.00    -0.352 N 
ATOM     26  C   UNL A   1      40.844  24.776  26.504  1.00  0.00     0.251 C 
ATOM     27  H   UNL A   1      40.001  23.229  25.538  1.00  0.00     0.163 HD
ATOM     28  O   UNL A   1      41.945  24.615  25.983  1.00  0.00    -0.269 OA
BRANCH  26  29
ATOM     29  C   UNL A   1      40.630  25.862  27.484  1.00  0.00     0.039 A 
ATOM     30  C   UNL A   1      39.672  25.689  28.486  1.00  0.00     0.014 A 
ATOM     31  C   UNL A   1      41.403  27.026  27.437  1.00  0.00     0.014 A 
ATOM     32  C   UNL A   1      39.538  26.656  29.485  1.00  0.00     0.010 A 
ATOM     33  C   UNL A   1      41.315  27.953  28.471  1.00  0.00     0.010 A 
ATOM     34  C   UNL A   1      40.384  27.777  29.506  1.00  0.00    -0.014 A 
BRANCH  34  35
ATOM     35  C   UNL A   1      40.315  28.776  30.602  1.00  0.00     0.031 A 
ATOM     36  C   UNL A   1      41.185  28.616  31.820  1.00  0.00     0.074 A 
ATOM     37  C   UNL A   1      39.414  29.776  30.538  1.00  0.00     0.049 A 
ATOM     38  N   UNL A   1      41.212  29.331  32.914  1.00  0.00    -0.248 NA
ATOM     39  C   UNL A   1      42.126  27.483  31.821  1.00  0.00     0.031 C 
ATOM     40  C   UNL A   1      38.467  29.995  29.441  1.00  0.00     0.029 A 
ATOM     41  N   UNL A   1      39.129  30.785  31.423  1.00  0.00    -0.354 N 
ATOM     42  C   UNL A   1      42.146  28.722  33.743  1.00  0.00     0.074 A 
ATOM     43  C   UNL A   1      42.636  27.555  33.041  1.00  0.00     0.031 C 
ATOM     44  C   UNL A   1      37.718  31.076  29.713  1.00  0.00     0.029 A 
ATOM     45  C   UNL A   1      38.107  31.609  31.015  1.00  0.00     0.049 A 
ATOM     46  H   UNL A   1      39.613  30.908  32.272  1.00  0.00     0.167 HD
ATOM     47  C   UNL A   1      42.569  29.110  34.969  1.00  0.00     0.037 A 
ATOM     48  C   UNL A   1      37.541  32.669  31.625  1.00  0.00     0.037 A 
ATOM     49  C   UNL A   1      42.113  30.299  35.640  1.00  0.00     0.049 A 
ATOM     50  C   UNL A   1      38.068  33.111  32.964  1.00  0.00     0.074 A 
ATOM     51  C   UNL A   1      42.548  30.829  36.841  1.00  0.00     0.029 A 
ATOM     52  N   UNL A   1      41.120  31.144  35.164  1.00  0.00    -0.354 N 
ATOM     53  N   UNL A   1      39.015  32.571  33.695  1.00  0.00    -0.248 NA
ATOM     54  C   UNL A   1      37.461  34.310  33.556  1.00  0.00     0.031 C 
ATOM     55  C   UNL A   1      41.794  31.976  37.110  1.00  0.00     0.029 A 
ATOM     56  C   UNL A   1      40.920  32.184  36.057  1.00  0.00     0.049 A 
ATOM     57  H   UNL A   1      40.632  31.023  34.319  1.00  0.00     0.167 HD
ATOM     58  C   UNL A   1      39.135  33.382  34.817  1.00  0.00     0.074 A 
ATOM     59  C   UNL A   1      38.173  34.453  34.665  1.00  0.00     0.031 C 
ATOM     60  C   UNL A   1      39.969  33.252  35.879  1.00  0.00     0.037 A 
BRANCH  47  61
ATOM     61  C   UNL A   1      43.586  28.250  35.665  1.00  0.00     0.058 A 
ATOM     62  C   UNL A   1      44.964  28.435  35.472  1.00  0.00     0.135 A 
ATOM     63  C   UNL A   1      43.179  27.262  36.576  1.00  0.00     0.135 A 
ATOM     64  F   UNL A   1      45.408  29.354  34.601  1.00  0.00    -0.206 F 
ATOM     65  C   UNL A   1      45.903  27.656  36.141  1.00  0.00     0.059 A 
ATOM     66  C   UNL A   1      44.101  26.488  37.275  1.00  0.00     0.059 A 
ATOM     67  F   UNL A   1      41.873  27.042  36.796  1.00  0.00    -0.206 F 
ATOM     68  C   UNL A   1      45.461  26.686  37.042  1.00  0.00     0.060 A 
BRANCH  68  69
ATOM     69  S   UNL A   1      46.692  25.698  37.919  1.00  0.00     0.124 S 
ATOM     70  O   UNL A   1      47.852  25.836  37.045  1.00  0.00    -0.237 OA
ATOM     71  O   UNL A   1      46.784  26.382  39.205  1.00  0.00    -0.237 OA
ATOM     72  O   UNL A   1      46.093  24.368  37.962  1.00  0.00    -0.744 OA
ENDBRANCH  68  69
ENDBRANCH  47  61
BRANCH  48  73
ATOM     73  C   UNL A   1      36.427  33.403  30.967  1.00  0.00     0.058 A 
ATOM     74  C   UNL A   1      35.121  33.337  31.473  1.00  0.00     0.135 A 
ATOM     75  C   UNL A   1      36.646  34.181  29.820  1.00  0.00     0.135 A 
ATOM     76  F   UNL A   1      34.862  32.603  32.566  1.00  0.00    -0.206 F 
ATOM     77  C   UNL A   1      34.065  33.994  30.851  1.00  0.00     0.059 A 
ATOM     78  C   UNL A   1      35.609  34.868  29.194  1.00  0.00     0.059 A 
ATOM     79  F   UNL A   1      37.882  34.293  29.308  1.00  0.00    -0.206 F 
ATOM     80  C   UNL A   1      34.319  34.756  29.709  1.00  0.00     0.060 A 
BRANCH  80  81
ATOM     81  S   UNL A   1      32.946  35.631  28.927  1.00  0.00     0.124 S 
ATOM     82  O   UNL A   1      33.643  36.717  28.247  1.00  0.00    -0.237 OA
ATOM     83  O   UNL A   1      32.373  34.602  28.066  1.00  0.00    -0.237 OA
ATOM     84  O   UNL A   1      32.113  36.025  30.060  1.00  0.00    -0.744 OA
ENDBRANCH  80  81
ENDBRANCH  48  73
BRANCH  60  85
ATOM     85  C   UNL A   1      39.911  34.317  36.938  1.00  0.00     0.058 A 
ATOM     86  C   UNL A   1      40.639  35.511  36.823  1.00  0.00     0.135 A 
ATOM     87  C   UNL A   1      39.077  34.160  38.055  1.00  0.00     0.135 A 
ATOM     88  F   UNL A   1      41.455  35.708  35.776  1.00  0.00    -0.206 F 
ATOM     89  C   UNL A   1      40.558  36.505  37.792  1.00  0.00     0.059 A 
ATOM     90  C   UNL A   1      38.962  35.149  39.025  1.00  0.00     0.059 A 
ATOM     91  F   UNL A   1      38.352  33.039  38.206  1.00  0.00    -0.206 F 
ATOM     92  C   UNL A   1      39.717  36.315  38.892  1.00  0.00     0.060 A 
BRANCH  92  93
ATOM     93  S   UNL A   1      39.594  37.623  40.128  1.00  0.00     0.124 S 
ATOM     94  O   UNL A   1      38.494  38.423  39.600  1.00  0.00    -0.237 OA
ATOM     95  O   UNL A   1      39.306  36.878  41.350  1.00  0.00    -0.237 OA
ATOM     96  O   UNL A   1      40.910  38.255  40.083  1.00  0.00    -0.744 OA
ENDBRANCH  92  93
ENDBRANCH  60  85
ENDBRANCH  34  35
ENDBRANCH  26  29
ENDBRANCH  24  25
ENDBRANCH  23  24
ENDBRANCH   1  23
TORSDOF 17
ENDMDL
