MODEL 1
REMARK VINA RESULT:     -10.1      0.000      0.000
REMARK SMILES CCCc1nnsc1C(=O)NC[C@@H]1CC[C@@H](C(=O)NCCCCNC(=O)c2ccc(-c3c4nc(c(-c5c(F)cc(S(=O)(=O)[O-])cc5F)c5ccc([nH]5)c(-c5c(F)cc(S(=O)(=O)[O-])cc5F)c5nc(c(-c6c(F)cc(S(=O)(=O)[O-])cc6F)c6ccc3[nH]6)C=C5)C=C4)cc2)O1
REMARK SMILES IDX 20 1 19 2 17 3 18 4 16 6 13 7 14 8 93 9 15 10 12 11 11 12
REMARK SMILES IDX 9 13 10 14 8 16 4 17 5 18 6 19 7 20 3 21 2 22 1 23 21 24
REMARK SMILES IDX 22 25 23 26 24 27 25 28 26 30 27 31 28 32 92 33 29 34 91 35
REMARK SMILES IDX 30 36 31 37 32 38 85 39 33 40 90 41 84 42 86 43 34 44 89 45
REMARK SMILES IDX 83 46 82 47 35 49 69 50 48 51 68 52 49 53 52 54 67 55 87 56
REMARK SMILES IDX 50 57 51 58 66 60 88 61 53 62 36 63 37 64 46 65 38 66 39 67
REMARK SMILES IDX 45 68 47 69 40 70 41 71 42 72 43 73 44 74 70 75 71 76 80 77
REMARK SMILES IDX 72 78 73 79 79 80 81 81 74 82 75 83 76 84 77 85 78 86 54 87
REMARK SMILES IDX 55 88 64 89 56 90 57 91 63 92 65 93 58 94 59 95 60 96 61 97
REMARK SMILES IDX 62 98
REMARK H PARENT 19 5 11 15 24 29 86 48 52 59
REMARK Flexibility Score: inf
ROOT
ATOM      1  C   UNL A   1      47.435  27.378  26.611  1.00  0.00     0.116 C 
ENDROOT
BRANCH   1   2
ATOM      2  N   UNL A   1      47.866  26.621  27.770  1.00  0.00    -0.354 N 
ATOM      3  C   UNL A   1      47.177  26.005  28.767  1.00  0.00     0.249 C 
ATOM      4  O   UNL A   1      47.835  25.517  29.691  1.00  0.00    -0.272 OA
ATOM      5  H   UNL A   1      48.844  26.535  27.850  1.00  0.00     0.163 HD
BRANCH   3   6
ATOM      6  C   UNL A   1      45.642  25.844  28.746  1.00  0.00     0.207 C 
ATOM      7  C   UNL A   1      44.751  23.711  28.740  1.00  0.00     0.138 C 
ATOM      8  C   UNL A   1      44.231  24.359  30.001  1.00  0.00     0.037 C 
ATOM      9  O   UNL A   1      45.065  24.843  27.914  1.00  0.00    -0.363 OA
ATOM     10  C   UNL A   1      45.163  25.539  30.169  1.00  0.00     0.045 C 
BRANCH   7  11
ATOM     11  C   UNL A   1      43.779  22.812  27.970  1.00  0.00     0.148 C 
BRANCH  11  12
ATOM     12  N   UNL A   1      43.821  22.971  26.536  1.00  0.00    -0.349 N 
ATOM     13  C   UNL A   1      43.476  22.177  25.473  1.00  0.00     0.265 C 
ATOM     14  O   UNL A   1      43.276  22.855  24.455  1.00  0.00    -0.268 OA
ATOM     15  H   UNL A   1      44.177  23.846  26.259  1.00  0.00     0.163 HD
BRANCH  13  16
ATOM     16  C   UNL A   1      43.379  20.723  25.449  1.00  0.00     0.136 A 
ATOM     17  C   UNL A   1      42.533  19.673  25.829  1.00  0.00     0.088 A 
ATOM     18  N   UNL A   1      43.063  18.390  25.632  1.00  0.00    -0.142 NA
ATOM     19  N   UNL A   1      44.266  18.405  25.111  1.00  0.00    -0.090 NA
ATOM     20  S   UNL A   1      44.814  19.937  24.819  1.00  0.00    -0.006 S 
BRANCH  17  21
ATOM     21  C   UNL A   1      41.170  19.631  26.427  1.00  0.00     0.060 C 
BRANCH  21  22
ATOM     22  C   UNL A   1      40.299  20.878  26.245  1.00  0.00     0.003 C 
ATOM     23  C   UNL A   1      40.307  21.907  27.366  1.00  0.00     0.004 C 
ENDBRANCH  21  22
ENDBRANCH  17  21
ENDBRANCH  13  16
ENDBRANCH  11  12
ENDBRANCH   7  11
ENDBRANCH   3   6
ENDBRANCH   1   2
BRANCH   1  24
ATOM     24  C   UNL A   1      47.399  26.520  25.353  1.00  0.00     0.023 C 
BRANCH  24  25
ATOM     25  C   UNL A   1      46.008  26.023  24.970  1.00  0.00     0.023 C 
BRANCH  25  26
ATOM     26  C   UNL A   1      44.866  26.959  25.347  1.00  0.00     0.116 C 
BRANCH  26  27
ATOM     27  N   UNL A   1      43.564  26.473  24.913  1.00  0.00    -0.352 N 
ATOM     28  C   UNL A   1      42.399  26.397  25.640  1.00  0.00     0.251 C 
ATOM     29  H   UNL A   1      43.512  26.157  23.982  1.00  0.00     0.163 HD
ATOM     30  O   UNL A   1      41.403  25.850  25.175  1.00  0.00    -0.269 OA
BRANCH  28  31
ATOM     31  C   UNL A   1      42.387  26.950  27.007  1.00  0.00     0.039 A 
ATOM     32  C   UNL A   1      42.948  28.207  27.232  1.00  0.00     0.014 A 
ATOM     33  C   UNL A   1      41.714  26.270  28.026  1.00  0.00     0.014 A 
ATOM     34  C   UNL A   1      42.750  28.831  28.464  1.00  0.00     0.010 A 
ATOM     35  C   UNL A   1      41.462  26.922  29.228  1.00  0.00     0.010 A 
ATOM     36  C   UNL A   1      41.959  28.217  29.449  1.00  0.00    -0.014 A 
BRANCH  36  37
ATOM     37  C   UNL A   1      41.592  28.923  30.701  1.00  0.00     0.031 A 
ATOM     38  C   UNL A   1      40.421  29.863  30.716  1.00  0.00     0.074 A 
ATOM     39  C   UNL A   1      42.373  28.790  31.792  1.00  0.00     0.049 A 
ATOM     40  N   UNL A   1      40.023  30.670  31.665  1.00  0.00    -0.248 NA
ATOM     41  C   UNL A   1      39.605  29.923  29.492  1.00  0.00     0.031 C 
ATOM     42  C   UNL A   1      43.561  27.938  31.887  1.00  0.00     0.029 A 
ATOM     43  N   UNL A   1      42.299  29.386  33.027  1.00  0.00    -0.354 N 
ATOM     44  C   UNL A   1      38.921  31.341  31.152  1.00  0.00     0.074 A 
ATOM     45  C   UNL A   1      38.740  30.881  29.792  1.00  0.00     0.031 C 
ATOM     46  C   UNL A   1      44.096  28.058  33.113  1.00  0.00     0.029 A 
ATOM     47  C   UNL A   1      43.320  29.029  33.877  1.00  0.00     0.049 A 
ATOM     48  H   UNL A   1      41.582  30.011  33.280  1.00  0.00     0.167 HD
ATOM     49  C   UNL A   1      38.121  32.242  31.767  1.00  0.00     0.037 A 
ATOM     50  C   UNL A   1      43.611  29.452  35.122  1.00  0.00     0.037 A 
ATOM     51  C   UNL A   1      38.294  32.676  33.128  1.00  0.00     0.049 A 
ATOM     52  C   UNL A   1      42.727  30.482  35.771  1.00  0.00     0.074 A 
ATOM     53  C   UNL A   1      37.498  33.536  33.865  1.00  0.00     0.029 A 
ATOM     54  N   UNL A   1      39.337  32.290  33.957  1.00  0.00    -0.354 N 
ATOM     55  N   UNL A   1      41.650  31.059  35.295  1.00  0.00    -0.248 NA
ATOM     56  C   UNL A   1      43.098  30.923  37.123  1.00  0.00     0.031 C 
ATOM     57  C   UNL A   1      38.084  33.704  35.124  1.00  0.00     0.029 A 
ATOM     58  C   UNL A   1      39.222  32.917  35.187  1.00  0.00     0.049 A 
ATOM     59  H   UNL A   1      40.054  31.662  33.707  1.00  0.00     0.167 HD
ATOM     60  C   UNL A   1      41.209  31.921  36.292  1.00  0.00     0.074 A 
ATOM     61  C   UNL A   1      42.124  31.777  37.405  1.00  0.00     0.031 C 
ATOM     62  C   UNL A   1      40.145  32.762  36.284  1.00  0.00     0.037 A 
BRANCH  49  63
ATOM     63  C   UNL A   1      36.976  32.814  30.978  1.00  0.00     0.058 A 
ATOM     64  C   UNL A   1      37.186  33.774  29.975  1.00  0.00     0.135 A 
ATOM     65  C   UNL A   1      35.664  32.366  31.195  1.00  0.00     0.135 A 
ATOM     66  F   UNL A   1      38.419  34.248  29.739  1.00  0.00    -0.206 F 
ATOM     67  C   UNL A   1      36.130  34.286  29.229  1.00  0.00     0.059 A 
ATOM     68  C   UNL A   1      34.596  32.845  30.443  1.00  0.00     0.059 A 
ATOM     69  F   UNL A   1      35.410  31.451  32.145  1.00  0.00    -0.206 F 
ATOM     70  C   UNL A   1      34.838  33.814  29.469  1.00  0.00     0.060 A 
BRANCH  70  71
ATOM     71  S   UNL A   1      33.482  34.480  28.481  1.00  0.00     0.124 S 
ATOM     72  O   UNL A   1      34.150  35.560  27.761  1.00  0.00    -0.237 OA
ATOM     73  O   UNL A   1      33.091  33.329  27.674  1.00  0.00    -0.237 OA
ATOM     74  O   UNL A   1      32.507  34.902  29.482  1.00  0.00    -0.744 OA
ENDBRANCH  70  71
ENDBRANCH  49  63
BRANCH  50  75
ATOM     75  C   UNL A   1      44.798  28.910  35.838  1.00  0.00     0.058 A 
ATOM     76  C   UNL A   1      44.682  27.798  36.685  1.00  0.00     0.135 A 
ATOM     77  C   UNL A   1      46.067  29.490  35.691  1.00  0.00     0.135 A 
ATOM     78  F   UNL A   1      43.487  27.214  36.864  1.00  0.00    -0.206 F 
ATOM     79  C   UNL A   1      45.778  27.289  37.374  1.00  0.00     0.059 A 
ATOM     80  C   UNL A   1      47.183  28.985  36.351  1.00  0.00     0.059 A 
ATOM     81  F   UNL A   1      46.235  30.547  34.881  1.00  0.00    -0.206 F 
ATOM     82  C   UNL A   1      47.025  27.889  37.199  1.00  0.00     0.060 A 
BRANCH  82  83
ATOM     83  S   UNL A   1      48.450  27.197  38.066  1.00  0.00     0.124 S 
ATOM     84  O   UNL A   1      49.508  28.123  37.679  1.00  0.00    -0.237 OA
ATOM     85  O   UNL A   1      48.022  27.262  39.460  1.00  0.00    -0.237 OA
ATOM     86  O   UNL A   1      48.555  25.849  37.514  1.00  0.00    -0.744 OA
ENDBRANCH  82  83
ENDBRANCH  50  75
BRANCH  62  87
ATOM     87  C   UNL A   1      39.903  33.585  37.516  1.00  0.00     0.058 A 
ATOM     88  C   UNL A   1      40.601  34.781  37.743  1.00  0.00     0.135 A 
ATOM     89  C   UNL A   1      38.914  33.217  38.441  1.00  0.00     0.135 A 
ATOM     90  F   UNL A   1      41.565  35.173  36.893  1.00  0.00    -0.206 F 
ATOM     91  C   UNL A   1      40.332  35.580  38.849  1.00  0.00     0.059 A 
ATOM     92  C   UNL A   1      38.610  34.013  39.541  1.00  0.00     0.059 A 
ATOM     93  F   UNL A   1      38.212  32.085  38.264  1.00  0.00    -0.206 F 
ATOM     94  C   UNL A   1      39.329  35.190  39.738  1.00  0.00     0.060 A 
BRANCH  94  95
ATOM     95  S   UNL A   1      38.949  36.267  41.137  1.00  0.00     0.124 S 
ATOM     96  O   UNL A   1      37.925  35.496  41.833  1.00  0.00    -0.237 OA
ATOM     97  O   UNL A   1      40.239  36.365  41.814  1.00  0.00    -0.237 OA
ATOM     98  O   UNL A   1      38.486  37.498  40.503  1.00  0.00    -0.744 OA
ENDBRANCH  94  95
ENDBRANCH  62  87
ENDBRANCH  36  37
ENDBRANCH  28  31
ENDBRANCH  26  27
ENDBRANCH  25  26
ENDBRANCH  24  25
ENDBRANCH   1  24
TORSDOF 19
ENDMDL
MODEL 2
REMARK VINA RESULT:     -10.1      6.480     12.818
REMARK SMILES CCCc1nnsc1C(=O)NC[C@@H]1CC[C@@H](C(=O)NCCCCNC(=O)c2ccc(-c3c4nc(c(-c5c(F)cc(S(=O)(=O)[O-])cc5F)c5ccc([nH]5)c(-c5c(F)cc(S(=O)(=O)[O-])cc5F)c5nc(c(-c6c(F)cc(S(=O)(=O)[O-])cc6F)c6ccc3[nH]6)C=C5)C=C4)cc2)O1
REMARK SMILES IDX 20 1 19 2 17 3 18 4 16 6 13 7 14 8 93 9 15 10 12 11 11 12
REMARK SMILES IDX 9 13 10 14 8 16 4 17 5 18 6 19 7 20 3 21 2 22 1 23 21 24
REMARK SMILES IDX 22 25 23 26 24 27 25 28 26 30 27 31 28 32 92 33 29 34 91 35
REMARK SMILES IDX 30 36 31 37 32 38 85 39 33 40 90 41 84 42 86 43 34 44 89 45
REMARK SMILES IDX 83 46 82 47 35 49 69 50 48 51 68 52 49 53 52 54 67 55 87 56
REMARK SMILES IDX 50 57 51 58 66 60 88 61 53 62 36 63 37 64 46 65 38 66 39 67
REMARK SMILES IDX 45 68 47 69 40 70 41 71 42 72 43 73 44 74 70 75 71 76 80 77
REMARK SMILES IDX 72 78 73 79 79 80 81 81 74 82 75 83 76 84 77 85 78 86 54 87
REMARK SMILES IDX 55 88 64 89 56 90 57 91 63 92 65 93 58 94 59 95 60 96 61 97
REMARK SMILES IDX 62 98
REMARK H PARENT 19 5 11 15 24 29 86 48 52 59
REMARK Flexibility Score: inf
ROOT
ATOM      1  C   UNL A   1      34.398  32.247  27.646  1.00  0.00     0.116 C 
ENDROOT
BRANCH   1   2
ATOM      2  N   UNL A   1      35.143  31.003  27.652  1.00  0.00    -0.354 N 
ATOM      3  C   UNL A   1      34.824  29.746  27.243  1.00  0.00     0.249 C 
ATOM      4  O   UNL A   1      35.644  28.851  27.473  1.00  0.00    -0.272 OA
ATOM      5  H   UNL A   1      36.052  31.083  28.021  1.00  0.00     0.163 HD
BRANCH   3   6
ATOM      6  C   UNL A   1      33.533  29.424  26.460  1.00  0.00     0.207 C 
ATOM      7  C   UNL A   1      32.736  27.254  26.479  1.00  0.00     0.138 C 
ATOM      8  C   UNL A   1      31.638  28.090  27.094  1.00  0.00     0.037 C 
ATOM      9  O   UNL A   1      33.466  28.219  25.705  1.00  0.00    -0.363 OA
ATOM     10  C   UNL A   1      32.363  29.371  27.448  1.00  0.00     0.045 C 
BRANCH   7  11
ATOM     11  C   UNL A   1      32.304  26.120  25.546  1.00  0.00     0.148 C 
BRANCH  11  12
ATOM     12  N   UNL A   1      31.484  25.109  26.169  1.00  0.00    -0.349 N 
ATOM     13  C   UNL A   1      31.697  23.814  26.569  1.00  0.00     0.265 C 
ATOM     14  O   UNL A   1      30.872  23.470  27.427  1.00  0.00    -0.268 OA
ATOM     15  H   UNL A   1      30.567  25.418  26.348  1.00  0.00     0.163 HD
BRANCH  13  16
ATOM     16  C   UNL A   1      32.705  22.887  26.068  1.00  0.00     0.136 A 
ATOM     17  C   UNL A   1      33.011  22.098  24.953  1.00  0.00     0.088 A 
ATOM     18  N   UNL A   1      34.138  21.276  25.106  1.00  0.00    -0.142 NA
ATOM     19  N   UNL A   1      34.714  21.407  26.276  1.00  0.00    -0.090 NA
ATOM     20  S   UNL A   1      33.956  22.516  27.240  1.00  0.00    -0.006 S 
BRANCH  17  21
ATOM     21  C   UNL A   1      32.370  21.927  23.620  1.00  0.00     0.060 C 
BRANCH  21  22
ATOM     22  C   UNL A   1      33.028  22.652  22.442  1.00  0.00     0.003 C 
ATOM     23  C   UNL A   1      33.601  24.038  22.704  1.00  0.00     0.004 C 
ENDBRANCH  21  22
ENDBRANCH  17  21
ENDBRANCH  13  16
ENDBRANCH  11  12
ENDBRANCH   7  11
ENDBRANCH   3   6
ENDBRANCH   1   2
BRANCH   1  24
ATOM     24  C   UNL A   1      35.289  33.443  27.958  1.00  0.00     0.023 C 
BRANCH  24  25
ATOM     25  C   UNL A   1      35.409  33.768  29.444  1.00  0.00     0.023 C 
BRANCH  25  26
ATOM     26  C   UNL A   1      36.509  33.011  30.179  1.00  0.00     0.116 C 
BRANCH  26  27
ATOM     27  N   UNL A   1      36.041  31.772  30.783  1.00  0.00    -0.352 N 
ATOM     28  C   UNL A   1      36.703  30.570  30.882  1.00  0.00     0.251 C 
ATOM     29  H   UNL A   1      35.135  31.797  31.169  1.00  0.00     0.163 HD
ATOM     30  O   UNL A   1      36.134  29.573  31.313  1.00  0.00    -0.269 OA
BRANCH  28  31
ATOM     31  C   UNL A   1      38.101  30.500  30.416  1.00  0.00     0.039 A 
ATOM     32  C   UNL A   1      39.129  30.508  31.359  1.00  0.00     0.014 A 
ATOM     33  C   UNL A   1      38.372  30.304  29.059  1.00  0.00     0.014 A 
ATOM     34  C   UNL A   1      40.432  30.224  30.950  1.00  0.00     0.010 A 
ATOM     35  C   UNL A   1      39.659  29.955  28.666  1.00  0.00     0.010 A 
ATOM     36  C   UNL A   1      40.696  29.890  29.611  1.00  0.00    -0.014 A 
BRANCH  36  37
ATOM     37  C   UNL A   1      42.035  29.421  29.177  1.00  0.00     0.031 A 
ATOM     38  C   UNL A   1      43.170  30.397  29.062  1.00  0.00     0.074 A 
ATOM     39  C   UNL A   1      42.198  28.138  28.795  1.00  0.00     0.049 A 
ATOM     40  N   UNL A   1      44.370  30.213  28.576  1.00  0.00    -0.248 NA
ATOM     41  C   UNL A   1      42.914  31.769  29.531  1.00  0.00     0.031 C 
ATOM     42  C   UNL A   1      41.158  27.106  28.822  1.00  0.00     0.029 A 
ATOM     43  N   UNL A   1      43.293  27.486  28.286  1.00  0.00    -0.354 N 
ATOM     44  C   UNL A   1      45.008  31.444  28.669  1.00  0.00     0.074 A 
ATOM     45  C   UNL A   1      44.047  32.378  29.215  1.00  0.00     0.031 C 
ATOM     46  C   UNL A   1      41.668  25.952  28.363  1.00  0.00     0.029 A 
ATOM     47  C   UNL A   1      43.054  26.170  27.965  1.00  0.00     0.049 A 
ATOM     48  H   UNL A   1      44.169  27.920  28.163  1.00  0.00     0.167 HD
ATOM     49  C   UNL A   1      46.284  31.758  28.348  1.00  0.00     0.037 A 
ATOM     50  C   UNL A   1      43.854  25.249  27.393  1.00  0.00     0.037 A 
ATOM     51  C   UNL A   1      47.240  30.816  27.828  1.00  0.00     0.049 A 
ATOM     52  C   UNL A   1      45.258  25.634  27.012  1.00  0.00     0.074 A 
ATOM     53  C   UNL A   1      48.576  31.021  27.534  1.00  0.00     0.029 A 
ATOM     54  N   UNL A   1      46.961  29.493  27.519  1.00  0.00    -0.354 N 
ATOM     55  N   UNL A   1      45.865  26.786  27.166  1.00  0.00    -0.248 NA
ATOM     56  C   UNL A   1      46.084  24.598  26.374  1.00  0.00     0.031 C 
ATOM     57  C   UNL A   1      49.094  29.834  27.005  1.00  0.00     0.029 A 
ATOM     58  C   UNL A   1      48.092  28.878  27.009  1.00  0.00     0.049 A 
ATOM     59  H   UNL A   1      46.087  29.056  27.644  1.00  0.00     0.167 HD
ATOM     60  C   UNL A   1      47.147  26.610  26.657  1.00  0.00     0.074 A 
ATOM     61  C   UNL A   1      47.234  25.237  26.206  1.00  0.00     0.031 C 
ATOM     62  C   UNL A   1      48.159  27.508  26.564  1.00  0.00     0.037 A 
BRANCH  49  63
ATOM     63  C   UNL A   1      46.727  33.179  28.560  1.00  0.00     0.058 A 
ATOM     64  C   UNL A   1      47.280  33.599  29.780  1.00  0.00     0.135 A 
ATOM     65  C   UNL A   1      46.642  34.118  27.520  1.00  0.00     0.135 A 
ATOM     66  F   UNL A   1      47.369  32.746  30.813  1.00  0.00    -0.206 F 
ATOM     67  C   UNL A   1      47.711  34.907  29.969  1.00  0.00     0.059 A 
ATOM     68  C   UNL A   1      47.091  35.424  27.678  1.00  0.00     0.059 A 
ATOM     69  F   UNL A   1      46.119  33.767  26.334  1.00  0.00    -0.206 F 
ATOM     70  C   UNL A   1      47.614  35.813  28.911  1.00  0.00     0.060 A 
BRANCH  70  71
ATOM     71  S   UNL A   1      48.193  37.503  29.170  1.00  0.00     0.124 S 
ATOM     72  O   UNL A   1      49.521  37.451  28.564  1.00  0.00    -0.237 OA
ATOM     73  O   UNL A   1      47.199  38.287  28.447  1.00  0.00    -0.237 OA
ATOM     74  O   UNL A   1      48.171  37.651  30.621  1.00  0.00    -0.744 OA
ENDBRANCH  70  71
ENDBRANCH  49  63
BRANCH  50  75
ATOM     75  C   UNL A   1      43.348  23.874  27.136  1.00  0.00     0.058 A 
ATOM     76  C   UNL A   1      43.291  22.924  28.166  1.00  0.00     0.135 A 
ATOM     77  C   UNL A   1      42.911  23.482  25.861  1.00  0.00     0.135 A 
ATOM     78  F   UNL A   1      43.705  23.248  29.400  1.00  0.00    -0.206 F 
ATOM     79  C   UNL A   1      42.835  21.629  27.939  1.00  0.00     0.059 A 
ATOM     80  C   UNL A   1      42.429  22.201  25.615  1.00  0.00     0.059 A 
ATOM     81  F   UNL A   1      42.931  24.358  24.844  1.00  0.00    -0.206 F 
ATOM     82  C   UNL A   1      42.405  21.278  26.659  1.00  0.00     0.060 A 
BRANCH  82  83
ATOM     83  S   UNL A   1      41.777  19.607  26.384  1.00  0.00     0.124 S 
ATOM     84  O   UNL A   1      40.343  19.847  26.271  1.00  0.00    -0.237 OA
ATOM     85  O   UNL A   1      42.460  19.221  25.153  1.00  0.00    -0.237 OA
ATOM     86  O   UNL A   1      42.206  18.887  27.580  1.00  0.00    -0.744 OA
ENDBRANCH  82  83
ENDBRANCH  50  75
BRANCH  62  87
ATOM     87  C   UNL A   1      49.452  27.036  25.964  1.00  0.00     0.058 A 
ATOM     88  C   UNL A   1      49.670  27.074  24.577  1.00  0.00     0.135 A 
ATOM     89  C   UNL A   1      50.510  26.611  26.783  1.00  0.00     0.135 A 
ATOM     90  F   UNL A   1      48.685  27.462  23.750  1.00  0.00    -0.206 F 
ATOM     91  C   UNL A   1      50.889  26.700  24.024  1.00  0.00     0.059 A 
ATOM     92  C   UNL A   1      51.746  26.257  26.253  1.00  0.00     0.059 A 
ATOM     93  F   UNL A   1      50.354  26.564  28.116  1.00  0.00    -0.206 F 
ATOM     94  C   UNL A   1      51.923  26.300  24.871  1.00  0.00     0.060 A 
BRANCH  94  95
ATOM     95  S   UNL A   1      53.521  25.875  24.143  1.00  0.00     0.124 S 
ATOM     96  O   UNL A   1      54.397  26.870  24.753  1.00  0.00    -0.237 OA
ATOM     97  O   UNL A   1      53.713  24.500  24.595  1.00  0.00    -0.237 OA
ATOM     98  O   UNL A   1      53.294  26.032  22.710  1.00  0.00    -0.744 OA
ENDBRANCH  94  95
ENDBRANCH  62  87
ENDBRANCH  36  37
ENDBRANCH  28  31
ENDBRANCH  26  27
ENDBRANCH  25  26
ENDBRANCH  24  25
ENDBRANCH   1  24
TORSDOF 19
ENDMDL
MODEL 3
REMARK VINA RESULT:      -9.9      4.733     11.153
REMARK SMILES CCCc1nnsc1C(=O)NC[C@@H]1CC[C@@H](C(=O)NCCCCNC(=O)c2ccc(-c3c4nc(c(-c5c(F)cc(S(=O)(=O)[O-])cc5F)c5ccc([nH]5)c(-c5c(F)cc(S(=O)(=O)[O-])cc5F)c5nc(c(-c6c(F)cc(S(=O)(=O)[O-])cc6F)c6ccc3[nH]6)C=C5)C=C4)cc2)O1
REMARK SMILES IDX 20 1 19 2 17 3 18 4 16 6 13 7 14 8 93 9 15 10 12 11 11 12
REMARK SMILES IDX 9 13 10 14 8 16 4 17 5 18 6 19 7 20 3 21 2 22 1 23 21 24
REMARK SMILES IDX 22 25 23 26 24 27 25 28 26 30 27 31 28 32 92 33 29 34 91 35
REMARK SMILES IDX 30 36 31 37 32 38 85 39 33 40 90 41 84 42 86 43 34 44 89 45
REMARK SMILES IDX 83 46 82 47 35 49 69 50 48 51 68 52 49 53 52 54 67 55 87 56
REMARK SMILES IDX 50 57 51 58 66 60 88 61 53 62 36 63 37 64 46 65 38 66 39 67
REMARK SMILES IDX 45 68 47 69 40 70 41 71 42 72 43 73 44 74 70 75 71 76 80 77
REMARK SMILES IDX 72 78 73 79 79 80 81 81 74 82 75 83 76 84 77 85 78 86 54 87
REMARK SMILES IDX 55 88 64 89 56 90 57 91 63 92 65 93 58 94 59 95 60 96 61 97
REMARK SMILES IDX 62 98
REMARK H PARENT 19 5 11 15 24 29 86 48 52 59
REMARK Flexibility Score: inf
ROOT
ATOM      1  C   UNL A   1      36.797  32.100  33.318  1.00  0.00     0.116 C 
ENDROOT
BRANCH   1   2
ATOM      2  N   UNL A   1      36.806  30.653  33.216  1.00  0.00    -0.354 N 
ATOM      3  C   UNL A   1      37.787  29.731  33.403  1.00  0.00     0.249 C 
ATOM      4  O   UNL A   1      37.515  28.554  33.139  1.00  0.00    -0.272 OA
ATOM      5  H   UNL A   1      35.937  30.264  32.965  1.00  0.00     0.163 HD
BRANCH   3   6
ATOM      6  C   UNL A   1      39.172  30.088  33.983  1.00  0.00     0.207 C 
ATOM      7  C   UNL A   1      40.897  28.565  33.758  1.00  0.00     0.138 C 
ATOM      8  C   UNL A   1      41.361  29.807  33.034  1.00  0.00     0.037 C 
ATOM      9  O   UNL A   1      39.914  29.085  34.668  1.00  0.00    -0.363 OA
ATOM     10  C   UNL A   1      40.070  30.573  32.840  1.00  0.00     0.045 C 
BRANCH   7  11
ATOM     11  C   UNL A   1      41.946  27.804  34.572  1.00  0.00     0.148 C 
BRANCH  11  12
ATOM     12  N   UNL A   1      41.505  26.524  35.073  1.00  0.00    -0.349 N 
ATOM     13  C   UNL A   1      42.135  25.342  35.370  1.00  0.00     0.265 C 
ATOM     14  O   UNL A   1      41.463  24.665  36.162  1.00  0.00    -0.268 OA
ATOM     15  H   UNL A   1      40.536  26.493  35.240  1.00  0.00     0.163 HD
BRANCH  13  16
ATOM     16  C   UNL A   1      43.399  24.854  34.834  1.00  0.00     0.136 A 
ATOM     17  C   UNL A   1      44.668  25.297  34.441  1.00  0.00     0.088 A 
ATOM     18  N   UNL A   1      45.481  24.313  33.859  1.00  0.00    -0.142 NA
ATOM     19  N   UNL A   1      44.902  23.138  33.799  1.00  0.00    -0.090 NA
ATOM     20  S   UNL A   1      43.378  23.145  34.440  1.00  0.00    -0.006 S 
BRANCH  17  21
ATOM     21  C   UNL A   1      45.343  26.623  34.492  1.00  0.00     0.060 C 
BRANCH  21  22
ATOM     22  C   UNL A   1      46.257  26.884  35.693  1.00  0.00     0.003 C 
ATOM     23  C   UNL A   1      47.730  27.143  35.410  1.00  0.00     0.004 C 
ENDBRANCH  21  22
ENDBRANCH  17  21
ENDBRANCH  13  16
ENDBRANCH  11  12
ENDBRANCH   7  11
ENDBRANCH   3   6
ENDBRANCH   1   2
BRANCH   1  24
ATOM     24  C   UNL A   1      36.770  32.765  31.948  1.00  0.00     0.023 C 
BRANCH  24  25
ATOM     25  C   UNL A   1      35.451  32.603  31.196  1.00  0.00     0.023 C 
BRANCH  25  26
ATOM     26  C   UNL A   1      35.563  32.695  29.679  1.00  0.00     0.116 C 
BRANCH  26  27
ATOM     27  N   UNL A   1      34.549  31.914  28.985  1.00  0.00    -0.352 N 
ATOM     28  C   UNL A   1      34.700  30.711  28.334  1.00  0.00     0.251 C 
ATOM     29  H   UNL A   1      33.641  32.295  28.979  1.00  0.00     0.163 HD
ATOM     30  O   UNL A   1      33.776  30.227  27.688  1.00  0.00    -0.269 OA
BRANCH  28  31
ATOM     31  C   UNL A   1      36.012  30.040  28.396  1.00  0.00     0.039 A 
ATOM     32  C   UNL A   1      36.862  30.114  27.293  1.00  0.00     0.014 A 
ATOM     33  C   UNL A   1      36.433  29.448  29.590  1.00  0.00     0.014 A 
ATOM     34  C   UNL A   1      38.181  29.675  27.418  1.00  0.00     0.010 A 
ATOM     35  C   UNL A   1      37.765  29.074  29.731  1.00  0.00     0.010 A 
ATOM     36  C   UNL A   1      38.655  29.205  28.653  1.00  0.00    -0.014 A 
BRANCH  36  37
ATOM     37  C   UNL A   1      40.090  28.889  28.864  1.00  0.00     0.031 A 
ATOM     38  C   UNL A   1      41.037  29.965  29.308  1.00  0.00     0.074 A 
ATOM     39  C   UNL A   1      40.550  27.658  28.561  1.00  0.00     0.049 A 
ATOM     40  N   UNL A   1      42.340  29.924  29.419  1.00  0.00    -0.248 NA
ATOM     41  C   UNL A   1      40.444  31.269  29.649  1.00  0.00     0.031 C 
ATOM     42  C   UNL A   1      39.733  26.540  28.081  1.00  0.00     0.029 A 
ATOM     43  N   UNL A   1      41.822  27.144  28.590  1.00  0.00    -0.354 N 
ATOM     44  C   UNL A   1      42.724  31.194  29.828  1.00  0.00     0.074 A 
ATOM     45  C   UNL A   1      41.523  31.997  29.902  1.00  0.00     0.031 C 
ATOM     46  C   UNL A   1      40.521  25.473  27.872  1.00  0.00     0.029 A 
ATOM     47  C   UNL A   1      41.904  25.841  28.156  1.00  0.00     0.049 A 
ATOM     48  H   UNL A   1      42.605  27.660  28.892  1.00  0.00     0.167 HD
ATOM     49  C   UNL A   1      43.964  31.642  30.133  1.00  0.00     0.037 A 
ATOM     50  C   UNL A   1      42.974  25.040  27.986  1.00  0.00     0.037 A 
ATOM     51  C   UNL A   1      45.150  30.830  30.080  1.00  0.00     0.049 A 
ATOM     52  C   UNL A   1      44.345  25.573  28.298  1.00  0.00     0.074 A 
ATOM     53  C   UNL A   1      46.443  31.172  30.433  1.00  0.00     0.029 A 
ATOM     54  N   UNL A   1      45.191  29.515  29.639  1.00  0.00    -0.354 N 
ATOM     55  N   UNL A   1      44.684  26.758  28.746  1.00  0.00    -0.248 NA
ATOM     56  C   UNL A   1      45.480  24.666  28.077  1.00  0.00     0.031 C 
ATOM     57  C   UNL A   1      47.274  30.079  30.165  1.00  0.00     0.029 A 
ATOM     58  C   UNL A   1      46.492  29.041  29.683  1.00  0.00     0.049 A 
ATOM     59  H   UNL A   1      44.410  28.996  29.339  1.00  0.00     0.167 HD
ATOM     60  C   UNL A   1      46.069  26.734  28.873  1.00  0.00     0.074 A 
ATOM     61  C   UNL A   1      46.503  25.412  28.472  1.00  0.00     0.031 C 
ATOM     62  C   UNL A   1      46.906  27.721  29.278  1.00  0.00     0.037 A 
BRANCH  49  63
ATOM     63  C   UNL A   1      44.101  33.075  30.566  1.00  0.00     0.058 A 
ATOM     64  C   UNL A   1      44.449  34.085  29.654  1.00  0.00     0.135 A 
ATOM     65  C   UNL A   1      43.840  33.451  31.893  1.00  0.00     0.135 A 
ATOM     66  F   UNL A   1      44.726  33.778  28.377  1.00  0.00    -0.206 F 
ATOM     67  C   UNL A   1      44.554  35.414  30.049  1.00  0.00     0.059 A 
ATOM     68  C   UNL A   1      43.913  34.777  32.304  1.00  0.00     0.059 A 
ATOM     69  F   UNL A   1      43.507  32.523  32.805  1.00  0.00    -0.206 F 
ATOM     70  C   UNL A   1      44.283  35.751  31.376  1.00  0.00     0.060 A 
BRANCH  70  71
ATOM     71  S   UNL A   1      44.410  37.484  31.867  1.00  0.00     0.124 S 
ATOM     72  O   UNL A   1      43.769  38.153  30.738  1.00  0.00    -0.237 OA
ATOM     73  O   UNL A   1      43.667  37.508  33.122  1.00  0.00    -0.237 OA
ATOM     74  O   UNL A   1      45.848  37.698  31.988  1.00  0.00    -0.744 OA
ENDBRANCH  70  71
ENDBRANCH  49  63
BRANCH  50  75
ATOM     75  C   UNL A   1      42.795  23.650  27.486  1.00  0.00     0.058 A 
ATOM     76  C   UNL A   1      42.420  22.615  28.355  1.00  0.00     0.135 A 
ATOM     77  C   UNL A   1      42.995  23.328  26.134  1.00  0.00     0.135 A 
ATOM     78  F   UNL A   1      42.226  22.872  29.658  1.00  0.00    -0.206 F 
ATOM     79  C   UNL A   1      42.265  21.308  27.907  1.00  0.00     0.059 A 
ATOM     80  C   UNL A   1      42.822  22.032  25.658  1.00  0.00     0.059 A 
ATOM     81  F   UNL A   1      43.340  24.285  25.258  1.00  0.00    -0.206 F 
ATOM     82  C   UNL A   1      42.467  21.026  26.556  1.00  0.00     0.060 A 
BRANCH  82  83
ATOM     83  S   UNL A   1      42.224  19.333  25.976  1.00  0.00     0.124 S 
ATOM     84  O   UNL A   1      40.776  19.288  25.801  1.00  0.00    -0.237 OA
ATOM     85  O   UNL A   1      43.017  19.311  24.751  1.00  0.00    -0.237 OA
ATOM     86  O   UNL A   1      42.754  18.525  27.071  1.00  0.00    -0.744 OA
ENDBRANCH  82  83
ENDBRANCH  50  75
BRANCH  62  87
ATOM     87  C   UNL A   1      48.374  27.411  29.320  1.00  0.00     0.058 A 
ATOM     88  C   UNL A   1      49.204  27.656  28.215  1.00  0.00     0.135 A 
ATOM     89  C   UNL A   1      48.972  26.933  30.497  1.00  0.00     0.135 A 
ATOM     90  F   UNL A   1      48.679  28.104  27.062  1.00  0.00    -0.206 F 
ATOM     91  C   UNL A   1      50.575  27.432  28.273  1.00  0.00     0.059 A 
ATOM     92  C   UNL A   1      50.345  26.726  30.585  1.00  0.00     0.059 A 
ATOM     93  F   UNL A   1      48.223  26.689  31.584  1.00  0.00    -0.206 F 
ATOM     94  C   UNL A   1      51.137  26.974  29.465  1.00  0.00     0.060 A 
BRANCH  94  95
ATOM     95  S   UNL A   1      52.927  26.745  29.545  1.00  0.00     0.124 S 
ATOM     96  O   UNL A   1      53.066  25.921  30.741  1.00  0.00    -0.237 OA
ATOM     97  O   UNL A   1      53.212  26.077  28.278  1.00  0.00    -0.237 OA
ATOM     98  O   UNL A   1      53.439  28.107  29.657  1.00  0.00    -0.744 OA
ENDBRANCH  94  95
ENDBRANCH  62  87
ENDBRANCH  36  37
ENDBRANCH  28  31
ENDBRANCH  26  27
ENDBRANCH  25  26
ENDBRANCH  24  25
ENDBRANCH   1  24
TORSDOF 19
ENDMDL
