MODEL 1
REMARK VINA RESULT:     -10.9      0.000      0.000
REMARK SMILES O=C(C[C@H]([NH2+]Cc1ccccc1C1CC1)c1cccs1)NCCCCNC(=O)c1ccc(-c2c3nc(c(-c4c(F)cc(S(=O)(=O)[O-])cc4F)c4ccc([nH]4)c(-c4c(F)cc(S(=O)(=O)[O-])cc4F)c4nc(c(-c5c(F)cc(S(=O)(=O)[O-])cc5F)c5ccc2[nH]5)C=C4)C=C3)cc1
REMARK SMILES IDX 22 1 21 2 1 3 2 4 3 6 4 7 16 8 17 9 20 10 18 11 19 12 5 13
REMARK SMILES IDX 6 16 7 17 8 18 12 19 9 20 11 21 10 22 13 23 14 24 15 25
REMARK SMILES IDX 23 26 24 27 25 28 26 29 27 30 28 32 29 33 30 34 94 35 31 36
REMARK SMILES IDX 93 37 32 38 33 39 34 40 87 41 35 42 92 43 86 44 88 45 36 46
REMARK SMILES IDX 91 47 85 48 84 49 37 51 71 52 50 53 70 54 51 55 54 56 69 57
REMARK SMILES IDX 89 58 52 59 53 60 68 62 90 63 55 64 38 65 39 66 48 67 40 68
REMARK SMILES IDX 41 69 47 70 49 71 42 72 43 73 44 74 45 75 46 76 72 77 73 78
REMARK SMILES IDX 82 79 74 80 75 81 81 82 83 83 76 84 77 85 78 86 79 87 80 88
REMARK SMILES IDX 56 89 57 90 66 91 58 92 59 93 65 94 67 95 60 96 61 97 62 98
REMARK SMILES IDX 63 99 64 100
REMARK H PARENT 21 5 5 14 5 15 26 31 88 50 54 61
REMARK Flexibility Score: inf
ROOT
ATOM      1  C   UNL A   1      34.514  29.963  27.635  1.00  0.00     0.116 C 
ENDROOT
BRANCH   1   2
ATOM      2  N   UNL A   1      33.259  29.285  27.414  1.00  0.00    -0.356 N 
ATOM      3  O   UNL A   1      34.098  27.464  26.272  1.00  0.00    -0.275 OA
ATOM      4  C   UNL A   1      33.167  28.048  26.812  1.00  0.00     0.226 C 
ATOM      5  H   UNL A   1      32.429  29.727  27.707  1.00  0.00     0.163 HD
BRANCH   4   6
ATOM      6  C   UNL A   1      31.769  27.478  26.874  1.00  0.00     0.171 C 
BRANCH   6   7
ATOM      7  C   UNL A   1      31.258  26.789  25.589  1.00  0.00     0.233 C 
BRANCH   7   8
ATOM      8  C   UNL A   1      30.631  27.723  24.567  1.00  0.00     0.062 A 
ATOM      9  C   UNL A   1      30.954  29.034  24.259  1.00  0.00     0.021 A 
ATOM     10  S   UNL A   1      29.363  27.158  23.544  1.00  0.00    -0.143 S 
ATOM     11  C   UNL A   1      30.094  29.596  23.273  1.00  0.00     0.012 A 
ATOM     12  C   UNL A   1      29.132  28.705  22.858  1.00  0.00     0.065 A 
ENDBRANCH   7   8
BRANCH   7  13
ATOM     13  N   UNL A   1      32.397  26.094  24.957  1.00  0.00    -0.335 N 
ATOM     14  H   UNL A   1      33.210  26.187  25.565  1.00  0.00     0.347 HD
ATOM     15  H   UNL A   1      32.542  26.527  24.045  1.00  0.00     0.347 HD
BRANCH  13  16
ATOM     16  C   UNL A   1      32.159  24.677  24.721  1.00  0.00     0.298 C 
BRANCH  16  17
ATOM     17  C   UNL A   1      32.926  23.838  25.722  1.00  0.00     0.010 A 
ATOM     18  C   UNL A   1      32.154  23.276  26.771  1.00  0.00     0.010 A 
ATOM     19  C   UNL A   1      34.318  23.567  25.650  1.00  0.00    -0.036 A 
ATOM     20  C   UNL A   1      32.728  22.507  27.777  1.00  0.00     0.001 A 
ATOM     21  C   UNL A   1      34.860  22.804  26.719  1.00  0.00     0.004 A 
ATOM     22  C   UNL A   1      34.091  22.286  27.762  1.00  0.00     0.000 A 
BRANCH  19  23
ATOM     23  C   UNL A   1      35.322  23.955  24.565  1.00  0.00     0.020 C 
ATOM     24  C   UNL A   1      36.643  23.320  24.243  1.00  0.00     0.009 C 
ATOM     25  C   UNL A   1      35.473  23.104  23.329  1.00  0.00     0.009 C 
ENDBRANCH  19  23
ENDBRANCH  16  17
ENDBRANCH  13  16
ENDBRANCH   7  13
ENDBRANCH   6   7
ENDBRANCH   4   6
ENDBRANCH   1   2
BRANCH   1  26
ATOM     26  C   UNL A   1      34.331  31.437  27.992  1.00  0.00     0.023 C 
BRANCH  26  27
ATOM     27  C   UNL A   1      35.614  32.273  28.089  1.00  0.00     0.023 C 
BRANCH  27  28
ATOM     28  C   UNL A   1      36.152  32.516  29.496  1.00  0.00     0.116 C 
BRANCH  28  29
ATOM     29  N   UNL A   1      35.865  31.433  30.419  1.00  0.00    -0.352 N 
ATOM     30  C   UNL A   1      36.617  30.327  30.743  1.00  0.00     0.251 C 
ATOM     31  H   UNL A   1      34.998  31.499  30.884  1.00  0.00     0.163 HD
ATOM     32  O   UNL A   1      36.150  29.472  31.485  1.00  0.00    -0.269 OA
BRANCH  30  33
ATOM     33  C   UNL A   1      37.974  30.148  30.173  1.00  0.00     0.039 A 
ATOM     34  C   UNL A   1      39.074  30.211  31.033  1.00  0.00     0.014 A 
ATOM     35  C   UNL A   1      38.172  29.930  28.806  1.00  0.00     0.014 A 
ATOM     36  C   UNL A   1      40.361  29.981  30.537  1.00  0.00     0.010 A 
ATOM     37  C   UNL A   1      39.450  29.641  28.323  1.00  0.00     0.010 A 
ATOM     38  C   UNL A   1      40.558  29.653  29.185  1.00  0.00    -0.014 A 
BRANCH  38  39
ATOM     39  C   UNL A   1      41.909  29.286  28.677  1.00  0.00     0.031 A 
ATOM     40  C   UNL A   1      42.212  27.878  28.240  1.00  0.00     0.074 A 
ATOM     41  C   UNL A   1      42.885  30.217  28.654  1.00  0.00     0.049 A 
ATOM     42  N   UNL A   1      43.338  27.375  27.799  1.00  0.00    -0.248 NA
ATOM     43  C   UNL A   1      41.114  26.903  28.328  1.00  0.00     0.031 C 
ATOM     44  C   UNL A   1      42.735  31.609  29.088  1.00  0.00     0.029 A 
ATOM     45  N   UNL A   1      44.197  30.138  28.255  1.00  0.00    -0.354 N 
ATOM     46  C   UNL A   1      43.088  26.026  27.566  1.00  0.00     0.074 A 
ATOM     47  C   UNL A   1      41.717  25.781  27.960  1.00  0.00     0.031 C 
ATOM     48  C   UNL A   1      43.898  32.254  28.908  1.00  0.00     0.029 A 
ATOM     49  C   UNL A   1      44.889  31.319  28.385  1.00  0.00     0.049 A 
ATOM     50  H   UNL A   1      44.605  29.311  27.908  1.00  0.00     0.167 HD
ATOM     51  C   UNL A   1      43.918  25.085  27.054  1.00  0.00     0.037 A 
ATOM     52  C   UNL A   1      46.177  31.619  28.122  1.00  0.00     0.037 A 
ATOM     53  C   UNL A   1      45.279  25.338  26.650  1.00  0.00     0.049 A 
ATOM     54  C   UNL A   1      47.084  30.551  27.571  1.00  0.00     0.074 A 
ATOM     55  C   UNL A   1      46.177  24.462  26.063  1.00  0.00     0.029 A 
ATOM     56  N   UNL A   1      45.942  26.547  26.797  1.00  0.00    -0.354 N 
ATOM     57  N   UNL A   1      46.809  29.301  27.289  1.00  0.00    -0.248 NA
ATOM     58  C   UNL A   1      48.476  30.936  27.298  1.00  0.00     0.031 C 
ATOM     59  C   UNL A   1      47.399  25.125  25.910  1.00  0.00     0.029 A 
ATOM     60  C   UNL A   1      47.247  26.432  26.342  1.00  0.00     0.049 A 
ATOM     61  H   UNL A   1      45.545  27.367  27.171  1.00  0.00     0.167 HD
ATOM     62  C   UNL A   1      47.983  28.758  26.776  1.00  0.00     0.074 A 
ATOM     63  C   UNL A   1      48.967  29.820  26.775  1.00  0.00     0.031 C 
ATOM     64  C   UNL A   1      48.221  27.496  26.339  1.00  0.00     0.037 A 
BRANCH  51  65
ATOM     65  C   UNL A   1      43.383  23.686  26.905  1.00  0.00     0.058 A 
ATOM     66  C   UNL A   1      42.951  23.186  25.665  1.00  0.00     0.135 A 
ATOM     67  C   UNL A   1      43.346  22.814  28.007  1.00  0.00     0.135 A 
ATOM     68  F   UNL A   1      42.954  23.977  24.580  1.00  0.00    -0.206 F 
ATOM     69  C   UNL A   1      42.470  21.888  25.530  1.00  0.00     0.059 A 
ATOM     70  C   UNL A   1      42.899  21.501  27.888  1.00  0.00     0.059 A 
ATOM     71  F   UNL A   1      43.751  23.236  29.215  1.00  0.00    -0.206 F 
ATOM     72  C   UNL A   1      42.448  21.052  26.648  1.00  0.00     0.060 A 
BRANCH  72  73
ATOM     73  S   UNL A   1      41.823  19.369  26.454  1.00  0.00     0.124 S 
ATOM     74  O   UNL A   1      42.099  18.804  27.771  1.00  0.00    -0.237 OA
ATOM     75  O   UNL A   1      40.414  19.595  26.145  1.00  0.00    -0.237 OA
ATOM     76  O   UNL A   1      42.624  18.832  25.359  1.00  0.00    -0.744 OA
ENDBRANCH  72  73
ENDBRANCH  51  65
BRANCH  52  77
ATOM     77  C   UNL A   1      46.684  32.999  28.356  1.00  0.00     0.058 A 
ATOM     78  C   UNL A   1      46.656  33.962  27.336  1.00  0.00     0.135 A 
ATOM     79  C   UNL A   1      47.199  33.385  29.604  1.00  0.00     0.135 A 
ATOM     80  F   UNL A   1      46.181  33.639  26.123  1.00  0.00    -0.206 F 
ATOM     81  C   UNL A   1      47.136  35.252  27.537  1.00  0.00     0.059 A 
ATOM     82  C   UNL A   1      47.658  34.678  29.838  1.00  0.00     0.059 A 
ATOM     83  F   UNL A   1      47.235  32.508  30.619  1.00  0.00    -0.206 F 
ATOM     84  C   UNL A   1      47.631  35.602  28.794  1.00  0.00     0.060 A 
BRANCH  84  85
ATOM     85  S   UNL A   1      48.207  37.293  29.057  1.00  0.00     0.124 S 
ATOM     86  O   UNL A   1      47.869  37.920  27.784  1.00  0.00    -0.237 OA
ATOM     87  O   UNL A   1      47.411  37.712  30.206  1.00  0.00    -0.237 OA
ATOM     88  O   UNL A   1      49.634  37.126  29.319  1.00  0.00    -0.744 OA
ENDBRANCH  84  85
ENDBRANCH  52  77
BRANCH  64  89
ATOM     89  C   UNL A   1      49.589  27.194  25.789  1.00  0.00     0.058 A 
ATOM     90  C   UNL A   1      50.623  26.702  26.600  1.00  0.00     0.135 A 
ATOM     91  C   UNL A   1      49.853  27.354  24.418  1.00  0.00     0.135 A 
ATOM     92  F   UNL A   1      50.430  26.537  27.918  1.00  0.00    -0.206 F 
ATOM     93  C   UNL A   1      51.878  26.399  26.076  1.00  0.00     0.059 A 
ATOM     94  C   UNL A   1      51.089  27.029  23.868  1.00  0.00     0.059 A 
ATOM     95  F   UNL A   1      48.897  27.813  23.595  1.00  0.00    -0.206 F 
ATOM     96  C   UNL A   1      52.100  26.563  24.708  1.00  0.00     0.060 A 
BRANCH  96  97
ATOM     97  S   UNL A   1      53.719  26.134  24.037  1.00  0.00     0.124 S 
ATOM     98  O   UNL A   1      54.521  27.283  24.443  1.00  0.00    -0.237 OA
ATOM     99  O   UNL A   1      54.017  24.879  24.721  1.00  0.00    -0.237 OA
ATOM    100  O   UNL A   1      53.473  26.016  22.603  1.00  0.00    -0.744 OA
ENDBRANCH  96  97
ENDBRANCH  64  89
ENDBRANCH  38  39
ENDBRANCH  30  33
ENDBRANCH  28  29
ENDBRANCH  27  28
ENDBRANCH  26  27
ENDBRANCH   1  26
TORSDOF 20
ENDMDL
MODEL 2
REMARK VINA RESULT:     -10.7      1.308      8.342
REMARK SMILES O=C(C[C@H]([NH2+]Cc1ccccc1C1CC1)c1cccs1)NCCCCNC(=O)c1ccc(-c2c3nc(c(-c4c(F)cc(S(=O)(=O)[O-])cc4F)c4ccc([nH]4)c(-c4c(F)cc(S(=O)(=O)[O-])cc4F)c4nc(c(-c5c(F)cc(S(=O)(=O)[O-])cc5F)c5ccc2[nH]5)C=C4)C=C3)cc1
REMARK SMILES IDX 22 1 21 2 1 3 2 4 3 6 4 7 16 8 17 9 20 10 18 11 19 12 5 13
REMARK SMILES IDX 6 16 7 17 8 18 12 19 9 20 11 21 10 22 13 23 14 24 15 25
REMARK SMILES IDX 23 26 24 27 25 28 26 29 27 30 28 32 29 33 30 34 94 35 31 36
REMARK SMILES IDX 93 37 32 38 33 39 34 40 87 41 35 42 92 43 86 44 88 45 36 46
REMARK SMILES IDX 91 47 85 48 84 49 37 51 71 52 50 53 70 54 51 55 54 56 69 57
REMARK SMILES IDX 89 58 52 59 53 60 68 62 90 63 55 64 38 65 39 66 48 67 40 68
REMARK SMILES IDX 41 69 47 70 49 71 42 72 43 73 44 74 45 75 46 76 72 77 73 78
REMARK SMILES IDX 82 79 74 80 75 81 81 82 83 83 76 84 77 85 78 86 79 87 80 88
REMARK SMILES IDX 56 89 57 90 66 91 58 92 59 93 65 94 67 95 60 96 61 97 62 98
REMARK SMILES IDX 63 99 64 100
REMARK H PARENT 21 5 5 14 5 15 26 31 88 50 54 61
REMARK Flexibility Score: inf
ROOT
ATOM      1  C   UNL A   1      33.297  29.285  25.733  1.00  0.00     0.116 C 
ENDROOT
BRANCH   1   2
ATOM      2  N   UNL A   1      32.605  28.369  24.858  1.00  0.00    -0.356 N 
ATOM      3  O   UNL A   1      33.506  29.115  22.868  1.00  0.00    -0.275 OA
ATOM      4  C   UNL A   1      32.827  28.314  23.498  1.00  0.00     0.226 C 
ATOM      5  H   UNL A   1      31.942  27.755  25.251  1.00  0.00     0.163 HD
BRANCH   4   6
ATOM      6  C   UNL A   1      32.123  27.147  22.846  1.00  0.00     0.171 C 
BRANCH   6   7
ATOM      7  C   UNL A   1      32.551  25.741  23.322  1.00  0.00     0.233 C 
BRANCH   7   8
ATOM      8  C   UNL A   1      31.901  25.277  24.615  1.00  0.00     0.062 A 
ATOM      9  C   UNL A   1      32.475  24.673  25.721  1.00  0.00     0.021 A 
ATOM     10  S   UNL A   1      30.217  25.544  24.880  1.00  0.00    -0.143 S 
ATOM     11  C   UNL A   1      31.520  24.335  26.723  1.00  0.00     0.012 A 
ATOM     12  C   UNL A   1      30.241  24.682  26.354  1.00  0.00     0.065 A 
ENDBRANCH   7   8
BRANCH   7  13
ATOM     13  N   UNL A   1      32.220  24.775  22.256  1.00  0.00    -0.335 N 
ATOM     14  H   UNL A   1      31.941  25.294  21.424  1.00  0.00     0.347 HD
ATOM     15  H   UNL A   1      31.471  24.180  22.612  1.00  0.00     0.347 HD
BRANCH  13  16
ATOM     16  C   UNL A   1      33.326  23.897  21.899  1.00  0.00     0.298 C 
BRANCH  16  17
ATOM     17  C   UNL A   1      33.339  22.673  22.791  1.00  0.00     0.010 A 
ATOM     18  C   UNL A   1      32.293  21.741  22.568  1.00  0.00     0.010 A 
ATOM     19  C   UNL A   1      34.324  22.403  23.777  1.00  0.00    -0.036 A 
ATOM     20  C   UNL A   1      32.161  20.585  23.331  1.00  0.00     0.001 A 
ATOM     21  C   UNL A   1      34.126  21.227  24.549  1.00  0.00     0.004 A 
ATOM     22  C   UNL A   1      33.072  20.336  24.339  1.00  0.00     0.000 A 
BRANCH  19  23
ATOM     23  C   UNL A   1      35.593  23.184  24.113  1.00  0.00     0.020 C 
ATOM     24  C   UNL A   1      36.882  22.674  24.688  1.00  0.00     0.009 C 
ATOM     25  C   UNL A   1      36.817  23.059  23.239  1.00  0.00     0.009 C 
ENDBRANCH  19  23
ENDBRANCH  16  17
ENDBRANCH  13  16
ENDBRANCH   7  13
ENDBRANCH   6   7
ENDBRANCH   4   6
ENDBRANCH   1   2
BRANCH   1  26
ATOM     26  C   UNL A   1      34.650  28.747  26.196  1.00  0.00     0.023 C 
BRANCH  26  27
ATOM     27  C   UNL A   1      35.006  28.991  27.668  1.00  0.00     0.023 C 
BRANCH  27  28
ATOM     28  C   UNL A   1      35.345  30.429  28.048  1.00  0.00     0.116 C 
BRANCH  28  29
ATOM     29  N   UNL A   1      35.314  30.670  29.479  1.00  0.00    -0.352 N 
ATOM     30  C   UNL A   1      36.335  30.638  30.402  1.00  0.00     0.251 C 
ATOM     31  H   UNL A   1      34.427  30.890  29.847  1.00  0.00     0.163 HD
ATOM     32  O   UNL A   1      36.082  30.781  31.591  1.00  0.00    -0.269 OA
BRANCH  30  33
ATOM     33  C   UNL A   1      37.732  30.394  29.969  1.00  0.00     0.039 A 
ATOM     34  C   UNL A   1      38.697  30.131  30.945  1.00  0.00     0.014 A 
ATOM     35  C   UNL A   1      38.099  30.433  28.621  1.00  0.00     0.014 A 
ATOM     36  C   UNL A   1      40.010  29.833  30.565  1.00  0.00     0.010 A 
ATOM     37  C   UNL A   1      39.394  30.076  28.239  1.00  0.00     0.010 A 
ATOM     38  C   UNL A   1      40.362  29.762  29.206  1.00  0.00    -0.014 A 
BRANCH  38  39
ATOM     39  C   UNL A   1      41.725  29.325  28.793  1.00  0.00     0.031 A 
ATOM     40  C   UNL A   1      42.862  30.308  28.724  1.00  0.00     0.074 A 
ATOM     41  C   UNL A   1      41.928  28.042  28.429  1.00  0.00     0.049 A 
ATOM     42  N   UNL A   1      44.104  30.109  28.358  1.00  0.00    -0.248 NA
ATOM     43  C   UNL A   1      42.563  31.699  29.096  1.00  0.00     0.031 C 
ATOM     44  C   UNL A   1      40.900  26.996  28.410  1.00  0.00     0.029 A 
ATOM     45  N   UNL A   1      43.061  27.395  28.000  1.00  0.00    -0.354 N 
ATOM     46  C   UNL A   1      44.731  31.347  28.446  1.00  0.00     0.074 A 
ATOM     47  C   UNL A   1      43.720  32.299  28.854  1.00  0.00     0.031 C 
ATOM     48  C   UNL A   1      41.456  25.840  28.018  1.00  0.00     0.029 A 
ATOM     49  C   UNL A   1      42.867  26.063  27.717  1.00  0.00     0.049 A 
ATOM     50  H   UNL A   1      43.933  27.844  27.904  1.00  0.00     0.167 HD
ATOM     51  C   UNL A   1      46.032  31.658  28.226  1.00  0.00     0.037 A 
ATOM     52  C   UNL A   1      43.722  25.126  27.260  1.00  0.00     0.037 A 
ATOM     53  C   UNL A   1      47.038  30.702  27.834  1.00  0.00     0.049 A 
ATOM     54  C   UNL A   1      45.157  25.500  27.006  1.00  0.00     0.074 A 
ATOM     55  C   UNL A   1      48.394  30.912  27.648  1.00  0.00     0.029 A 
ATOM     56  N   UNL A   1      46.801  29.364  27.558  1.00  0.00    -0.354 N 
ATOM     57  N   UNL A   1      45.747  26.660  27.166  1.00  0.00    -0.248 NA
ATOM     58  C   UNL A   1      46.045  24.437  26.514  1.00  0.00     0.031 C 
ATOM     59  C   UNL A   1      48.966  29.715  27.204  1.00  0.00     0.029 A 
ATOM     60  C   UNL A   1      47.979  28.743  27.173  1.00  0.00     0.049 A 
ATOM     61  H   UNL A   1      45.925  28.920  27.626  1.00  0.00     0.167 HD
ATOM     62  C   UNL A   1      47.081  26.460  26.825  1.00  0.00     0.074 A 
ATOM     63  C   UNL A   1      47.213  25.064  26.461  1.00  0.00     0.031 C 
ATOM     64  C   UNL A   1      48.105  27.350  26.818  1.00  0.00     0.037 A 
BRANCH  51  65
ATOM     65  C   UNL A   1      46.448  33.095  28.398  1.00  0.00     0.058 A 
ATOM     66  C   UNL A   1      46.812  33.616  29.650  1.00  0.00     0.135 A 
ATOM     67  C   UNL A   1      46.529  33.952  27.287  1.00  0.00     0.135 A 
ATOM     68  F   UNL A   1      46.744  32.846  30.748  1.00  0.00    -0.206 F 
ATOM     69  C   UNL A   1      47.209  34.940  29.801  1.00  0.00     0.059 A 
ATOM     70  C   UNL A   1      46.954  35.272  27.410  1.00  0.00     0.059 A 
ATOM     71  F   UNL A   1      46.197  33.507  26.065  1.00  0.00    -0.206 F 
ATOM     72  C   UNL A   1      47.277  35.761  28.673  1.00  0.00     0.060 A 
BRANCH  72  73
ATOM     73  S   UNL A   1      47.796  37.478  28.887  1.00  0.00     0.124 S 
ATOM     74  O   UNL A   1      46.512  38.173  28.873  1.00  0.00    -0.237 OA
ATOM     75  O   UNL A   1      48.479  37.438  30.176  1.00  0.00    -0.237 OA
ATOM     76  O   UNL A   1      48.655  37.721  27.732  1.00  0.00    -0.744 OA
ENDBRANCH  72  73
ENDBRANCH  51  65
BRANCH  52  77
ATOM     77  C   UNL A   1      43.249  23.733  27.033  1.00  0.00     0.058 A 
ATOM     78  C   UNL A   1      42.978  23.264  25.739  1.00  0.00     0.135 A 
ATOM     79  C   UNL A   1      43.063  22.842  28.102  1.00  0.00     0.135 A 
ATOM     80  F   UNL A   1      43.131  24.080  24.685  1.00  0.00    -0.206 F 
ATOM     81  C   UNL A   1      42.525  21.968  25.512  1.00  0.00     0.059 A 
ATOM     82  C   UNL A   1      42.639  21.532  27.898  1.00  0.00     0.059 A 
ATOM     83  F   UNL A   1      43.323  23.235  29.359  1.00  0.00    -0.206 F 
ATOM     84  C   UNL A   1      42.363  21.108  26.599  1.00  0.00     0.060 A 
BRANCH  84  85
ATOM     85  S   UNL A   1      41.821  19.414  26.288  1.00  0.00     0.124 S 
ATOM     86  O   UNL A   1      42.559  19.087  25.074  1.00  0.00    -0.237 OA
ATOM     87  O   UNL A   1      42.251  18.727  27.502  1.00  0.00    -0.237 OA
ATOM     88  O   UNL A   1      40.375  19.547  26.132  1.00  0.00    -0.744 OA
ENDBRANCH  84  85
ENDBRANCH  52  77
BRANCH  64  89
ATOM     89  C   UNL A   1      49.470  26.841  26.441  1.00  0.00     0.058 A 
ATOM     90  C   UNL A   1      50.283  26.152  27.355  1.00  0.00     0.135 A 
ATOM     91  C   UNL A   1      49.950  27.002  25.131  1.00  0.00     0.135 A 
ATOM     92  F   UNL A   1      49.879  25.977  28.622  1.00  0.00    -0.206 F 
ATOM     93  C   UNL A   1      51.534  25.661  26.989  1.00  0.00     0.059 A 
ATOM     94  C   UNL A   1      51.183  26.492  24.735  1.00  0.00     0.059 A 
ATOM     95  F   UNL A   1      49.210  27.645  24.214  1.00  0.00    -0.206 F 
ATOM     96  C   UNL A   1      51.974  25.833  25.675  1.00  0.00     0.060 A 
BRANCH  96  97
ATOM     97  S   UNL A   1      53.581  25.160  25.205  1.00  0.00     0.124 S 
ATOM     98  O   UNL A   1      53.729  25.669  23.846  1.00  0.00    -0.237 OA
ATOM     99  O   UNL A   1      54.469  25.749  26.203  1.00  0.00    -0.237 OA
ATOM    100  O   UNL A   1      53.391  23.717  25.317  1.00  0.00    -0.744 OA
ENDBRANCH  96  97
ENDBRANCH  64  89
ENDBRANCH  38  39
ENDBRANCH  30  33
ENDBRANCH  28  29
ENDBRANCH  27  28
ENDBRANCH  26  27
ENDBRANCH   1  26
TORSDOF 20
ENDMDL
MODEL 3
REMARK VINA RESULT:     -10.7      1.043      8.196
REMARK SMILES O=C(C[C@H]([NH2+]Cc1ccccc1C1CC1)c1cccs1)NCCCCNC(=O)c1ccc(-c2c3nc(c(-c4c(F)cc(S(=O)(=O)[O-])cc4F)c4ccc([nH]4)c(-c4c(F)cc(S(=O)(=O)[O-])cc4F)c4nc(c(-c5c(F)cc(S(=O)(=O)[O-])cc5F)c5ccc2[nH]5)C=C4)C=C3)cc1
REMARK SMILES IDX 22 1 21 2 1 3 2 4 3 6 4 7 16 8 17 9 20 10 18 11 19 12 5 13
REMARK SMILES IDX 6 16 7 17 8 18 12 19 9 20 11 21 10 22 13 23 14 24 15 25
REMARK SMILES IDX 23 26 24 27 25 28 26 29 27 30 28 32 29 33 30 34 94 35 31 36
REMARK SMILES IDX 93 37 32 38 33 39 34 40 87 41 35 42 92 43 86 44 88 45 36 46
REMARK SMILES IDX 91 47 85 48 84 49 37 51 71 52 50 53 70 54 51 55 54 56 69 57
REMARK SMILES IDX 89 58 52 59 53 60 68 62 90 63 55 64 38 65 39 66 48 67 40 68
REMARK SMILES IDX 41 69 47 70 49 71 42 72 43 73 44 74 45 75 46 76 72 77 73 78
REMARK SMILES IDX 82 79 74 80 75 81 81 82 83 83 76 84 77 85 78 86 79 87 80 88
REMARK SMILES IDX 56 89 57 90 66 91 58 92 59 93 65 94 67 95 60 96 61 97 62 98
REMARK SMILES IDX 63 99 64 100
REMARK H PARENT 21 5 5 14 5 15 26 31 88 50 54 61
REMARK Flexibility Score: inf
ROOT
ATOM      1  C   UNL A   1      34.199  31.661  27.845  1.00  0.00     0.116 C 
ENDROOT
BRANCH   1   2
ATOM      2  N   UNL A   1      34.210  30.365  27.209  1.00  0.00    -0.356 N 
ATOM      3  O   UNL A   1      31.930  30.002  27.225  1.00  0.00    -0.275 OA
ATOM      4  C   UNL A   1      33.060  29.675  26.885  1.00  0.00     0.226 C 
ATOM      5  H   UNL A   1      35.079  29.953  26.997  1.00  0.00     0.163 HD
BRANCH   4   6
ATOM      6  C   UNL A   1      33.341  28.441  26.059  1.00  0.00     0.171 C 
BRANCH   6   7
ATOM      7  C   UNL A   1      32.357  27.264  26.239  1.00  0.00     0.233 C 
BRANCH   7   8
ATOM      8  C   UNL A   1      31.223  27.216  25.228  1.00  0.00     0.062 A 
ATOM      9  C   UNL A   1      30.143  26.352  25.157  1.00  0.00     0.021 A 
ATOM     10  S   UNL A   1      31.133  28.398  23.975  1.00  0.00    -0.143 S 
ATOM     11  C   UNL A   1      29.317  26.593  24.022  1.00  0.00     0.012 A 
ATOM     12  C   UNL A   1      29.791  27.629  23.251  1.00  0.00     0.065 A 
ENDBRANCH   7   8
BRANCH   7  13
ATOM     13  N   UNL A   1      33.125  26.006  26.146  1.00  0.00    -0.335 N 
ATOM     14  H   UNL A   1      32.485  25.226  26.294  1.00  0.00     0.347 HD
ATOM     15  H   UNL A   1      33.856  26.049  26.857  1.00  0.00     0.347 HD
BRANCH  13  16
ATOM     16  C   UNL A   1      33.789  25.820  24.864  1.00  0.00     0.298 C 
BRANCH  16  17
ATOM     17  C   UNL A   1      33.609  24.397  24.377  1.00  0.00     0.010 A 
ATOM     18  C   UNL A   1      32.506  24.180  23.512  1.00  0.00     0.010 A 
ATOM     19  C   UNL A   1      34.473  23.318  24.700  1.00  0.00    -0.036 A 
ATOM     20  C   UNL A   1      32.200  22.920  23.010  1.00  0.00     0.001 A 
ATOM     21  C   UNL A   1      34.099  22.046  24.188  1.00  0.00     0.004 A 
ATOM     22  C   UNL A   1      32.990  21.844  23.365  1.00  0.00     0.000 A 
BRANCH  19  23
ATOM     23  C   UNL A   1      35.774  23.329  25.501  1.00  0.00     0.020 C 
ATOM     24  C   UNL A   1      36.887  22.324  25.492  1.00  0.00     0.009 C 
ATOM     25  C   UNL A   1      37.082  23.653  24.823  1.00  0.00     0.009 C 
ENDBRANCH  19  23
ENDBRANCH  16  17
ENDBRANCH  13  16
ENDBRANCH   7  13
ENDBRANCH   6   7
ENDBRANCH   4   6
ENDBRANCH   1   2
BRANCH   1  26
ATOM     26  C   UNL A   1      35.567  32.339  27.821  1.00  0.00     0.023 C 
BRANCH  26  27
ATOM     27  C   UNL A   1      35.818  33.392  28.908  1.00  0.00     0.023 C 
BRANCH  27  28
ATOM     28  C   UNL A   1      36.827  33.015  29.989  1.00  0.00     0.116 C 
BRANCH  28  29
ATOM     29  N   UNL A   1      36.294  32.101  30.982  1.00  0.00    -0.352 N 
ATOM     30  C   UNL A   1      36.757  30.870  31.386  1.00  0.00     0.251 C 
ATOM     31  H   UNL A   1      35.476  32.409  31.436  1.00  0.00     0.163 HD
ATOM     32  O   UNL A   1      36.103  30.208  32.182  1.00  0.00    -0.269 OA
BRANCH  30  33
ATOM     33  C   UNL A   1      38.022  30.324  30.837  1.00  0.00     0.039 A 
ATOM     34  C   UNL A   1      38.244  30.413  29.460  1.00  0.00     0.014 A 
ATOM     35  C   UNL A   1      38.978  29.722  31.659  1.00  0.00     0.014 A 
ATOM     36  C   UNL A   1      39.455  29.967  28.920  1.00  0.00     0.010 A 
ATOM     37  C   UNL A   1      40.210  29.332  31.128  1.00  0.00     0.010 A 
ATOM     38  C   UNL A   1      40.466  29.460  29.754  1.00  0.00    -0.014 A 
BRANCH  38  39
ATOM     39  C   UNL A   1      41.802  29.099  29.201  1.00  0.00     0.031 A 
ATOM     40  C   UNL A   1      42.894  30.130  29.090  1.00  0.00     0.074 A 
ATOM     41  C   UNL A   1      42.018  27.846  28.753  1.00  0.00     0.049 A 
ATOM     42  N   UNL A   1      44.105  30.000  28.609  1.00  0.00    -0.248 NA
ATOM     43  C   UNL A   1      42.579  31.487  29.561  1.00  0.00     0.031 C 
ATOM     44  C   UNL A   1      41.032  26.762  28.765  1.00  0.00     0.029 A 
ATOM     45  N   UNL A   1      43.132  27.268  28.194  1.00  0.00    -0.354 N 
ATOM     46  C   UNL A   1      44.692  31.257  28.710  1.00  0.00     0.074 A 
ATOM     47  C   UNL A   1      43.688  32.145  29.254  1.00  0.00     0.031 C 
ATOM     48  C   UNL A   1      41.592  25.651  28.264  1.00  0.00     0.029 A 
ATOM     49  C   UNL A   1      42.962  25.946  27.856  1.00  0.00     0.049 A 
ATOM     50  H   UNL A   1      43.976  27.756  28.048  1.00  0.00     0.167 HD
ATOM     51  C   UNL A   1      45.957  31.631  28.397  1.00  0.00     0.037 A 
ATOM     52  C   UNL A   1      43.806  25.069  27.277  1.00  0.00     0.037 A 
ATOM     53  C   UNL A   1      46.959  30.738  27.869  1.00  0.00     0.049 A 
ATOM     54  C   UNL A   1      45.200  25.513  26.922  1.00  0.00     0.074 A 
ATOM     55  C   UNL A   1      48.285  31.012  27.579  1.00  0.00     0.029 A 
ATOM     56  N   UNL A   1      46.747  29.407  27.541  1.00  0.00    -0.354 N 
ATOM     57  N   UNL A   1      45.760  26.687  27.093  1.00  0.00    -0.248 NA
ATOM     58  C   UNL A   1      46.078  24.514  26.298  1.00  0.00     0.031 C 
ATOM     59  C   UNL A   1      48.858  29.863  27.023  1.00  0.00     0.029 A 
ATOM     60  C   UNL A   1      47.908  28.855  27.024  1.00  0.00     0.049 A 
ATOM     61  H   UNL A   1      45.896  28.925  27.659  1.00  0.00     0.167 HD
ATOM     62  C   UNL A   1      47.065  26.558  26.629  1.00  0.00     0.074 A 
ATOM     63  C   UNL A   1      47.214  25.189  26.180  1.00  0.00     0.031 C 
ATOM     64  C   UNL A   1      48.051  27.488  26.583  1.00  0.00     0.037 A 
BRANCH  51  65
ATOM     65  C   UNL A   1      46.335  33.072  28.611  1.00  0.00     0.058 A 
ATOM     66  C   UNL A   1      46.173  34.038  27.604  1.00  0.00     0.135 A 
ATOM     67  C   UNL A   1      46.822  33.505  29.856  1.00  0.00     0.135 A 
ATOM     68  F   UNL A   1      45.721  33.680  26.391  1.00  0.00    -0.206 F 
ATOM     69  C   UNL A   1      46.510  35.371  27.811  1.00  0.00     0.059 A 
ATOM     70  C   UNL A   1      47.136  34.840  30.096  1.00  0.00     0.059 A 
ATOM     71  F   UNL A   1      46.994  32.627  30.857  1.00  0.00    -0.206 F 
ATOM     72  C   UNL A   1      46.992  35.763  29.062  1.00  0.00     0.060 A 
BRANCH  72  73
ATOM     73  S   UNL A   1      47.423  37.498  29.314  1.00  0.00     0.124 S 
ATOM     74  O   UNL A   1      46.814  38.121  28.144  1.00  0.00    -0.237 OA
ATOM     75  O   UNL A   1      46.785  37.794  30.593  1.00  0.00    -0.237 OA
ATOM     76  O   UNL A   1      48.883  37.487  29.333  1.00  0.00    -0.744 OA
ENDBRANCH  72  73
ENDBRANCH  51  65
BRANCH  52  77
ATOM     77  C   UNL A   1      43.365  23.672  27.015  1.00  0.00     0.058 A 
ATOM     78  C   UNL A   1      42.920  23.280  25.743  1.00  0.00     0.135 A 
ATOM     79  C   UNL A   1      43.385  22.699  28.027  1.00  0.00     0.135 A 
ATOM     80  F   UNL A   1      42.874  24.176  24.745  1.00  0.00    -0.206 F 
ATOM     81  C   UNL A   1      42.495  21.981  25.486  1.00  0.00     0.059 A 
ATOM     82  C   UNL A   1      42.993  21.385  27.787  1.00  0.00     0.059 A 
ATOM     83  F   UNL A   1      43.817  23.016  29.257  1.00  0.00    -0.206 F 
ATOM     84  C   UNL A   1      42.539  21.039  26.515  1.00  0.00     0.060 A 
BRANCH  84  85
ATOM     85  S   UNL A   1      42.030  19.343  26.158  1.00  0.00     0.124 S 
ATOM     86  O   UNL A   1      40.616  19.519  25.850  1.00  0.00    -0.237 OA
ATOM     87  O   UNL A   1      42.891  18.996  25.032  1.00  0.00    -0.237 OA
ATOM     88  O   UNL A   1      42.322  18.636  27.402  1.00  0.00    -0.744 OA
ENDBRANCH  84  85
ENDBRANCH  52  77
BRANCH  64  89
ATOM     89  C   UNL A   1      49.396  27.055  26.064  1.00  0.00     0.058 A 
ATOM     90  C   UNL A   1      50.362  26.473  26.899  1.00  0.00     0.135 A 
ATOM     91  C   UNL A   1      49.702  27.179  24.698  1.00  0.00     0.135 A 
ATOM     92  F   UNL A   1      50.127  26.337  28.213  1.00  0.00    -0.206 F 
ATOM     93  C   UNL A   1      51.593  26.049  26.404  1.00  0.00     0.059 A 
ATOM     94  C   UNL A   1      50.913  26.734  24.176  1.00  0.00     0.059 A 
ATOM     95  F   UNL A   1      48.811  27.720  23.852  1.00  0.00    -0.206 F 
ATOM     96  C   UNL A   1      51.858  26.182  25.039  1.00  0.00     0.060 A 
BRANCH  96  97
ATOM     97  S   UNL A   1      53.443  25.596  24.406  1.00  0.00     0.124 S 
ATOM     98  O   UNL A   1      53.285  25.813  22.971  1.00  0.00    -0.237 OA
ATOM     99  O   UNL A   1      54.392  26.477  25.079  1.00  0.00    -0.237 OA
ATOM    100  O   UNL A   1      53.483  24.199  24.828  1.00  0.00    -0.744 OA
ENDBRANCH  96  97
ENDBRANCH  64  89
ENDBRANCH  38  39
ENDBRANCH  30  33
ENDBRANCH  28  29
ENDBRANCH  27  28
ENDBRANCH  26  27
ENDBRANCH   1  26
TORSDOF 20
ENDMDL
