MODEL 1
REMARK VINA RESULT:     -12.7      0.000      0.000
REMARK SMILES Cc1cc(=O)n2cc(-c3ccccc3)nc2n1[C@H](C)C(=O)NCCCCNC(=O)c1ccc(-c2c3nc(c(-c4c(F)cc(S(=O)(=O)[O-])cc4F)c4ccc([nH]4)c(-c4c(F)cc(S(=O)(=O)[O-])cc4F)c4nc(c(-c5c(F)cc(S(=O)(=O)[O-])cc5F)c5ccc2[nH]5)C=C4)C=C3)cc1
REMARK SMILES IDX 25 1 24 2 23 3 22 4 20 5 21 6 18 8 19 9 17 10 1 11 2 12 3 13
REMARK SMILES IDX 4 14 16 15 5 16 6 17 15 18 7 19 8 20 9 21 10 22 14 23 11 24
REMARK SMILES IDX 13 25 12 26 26 27 27 28 28 29 29 31 30 32 31 33 95 34 32 35
REMARK SMILES IDX 94 36 33 37 34 38 35 39 88 40 36 41 93 42 87 43 89 44 37 45
REMARK SMILES IDX 92 46 86 47 85 48 38 50 72 51 51 52 71 53 52 54 55 55 70 56
REMARK SMILES IDX 90 57 53 58 54 59 69 61 91 62 56 63 39 64 40 65 49 66 41 67
REMARK SMILES IDX 42 68 48 69 50 70 43 71 44 72 45 73 46 74 47 75 73 76 74 77
REMARK SMILES IDX 83 78 75 79 76 80 82 81 84 82 77 83 78 84 79 85 80 86 81 87
REMARK SMILES IDX 57 88 58 89 67 90 59 91 60 92 66 93 68 94 61 95 62 96 63 97
REMARK SMILES IDX 64 98 65 99
REMARK H PARENT 22 7 27 30 89 49 55 60
REMARK Flexibility Score: inf
ROOT
ATOM      1  C   UNL A   1      39.616  22.794  26.887  1.00  0.00     0.023 C 
ENDROOT
BRANCH   1   2
ATOM      2  C   UNL A   1      38.794  24.079  26.742  1.00  0.00     0.023 C 
BRANCH   2   3
ATOM      3  C   UNL A   1      37.514  23.968  25.909  1.00  0.00     0.116 C 
BRANCH   3   4
ATOM      4  N   UNL A   1      36.629  22.933  26.397  1.00  0.00    -0.354 N 
ATOM      5  C   UNL A   1      35.316  22.684  26.103  1.00  0.00     0.242 C 
ATOM      6  O   UNL A   1      34.739  21.834  26.792  1.00  0.00    -0.273 OA
ATOM      7  H   UNL A   1      37.035  22.309  27.042  1.00  0.00     0.163 HD
BRANCH   5   8
ATOM      8  C   UNL A   1      34.526  23.536  25.071  1.00  0.00     0.176 C 
ATOM      9  C   UNL A   1      34.843  22.936  23.709  1.00  0.00     0.042 C 
BRANCH   8  10
ATOM     10  N   UNL A   1      33.079  23.756  25.451  1.00  0.00    -0.303 N 
ATOM     11  C   UNL A   1      32.110  21.415  24.986  1.00  0.00     0.065 C 
ATOM     12  C   UNL A   1      31.982  22.854  25.405  1.00  0.00     0.024 A 
ATOM     13  C   UNL A   1      30.739  23.233  25.773  1.00  0.00     0.093 A 
ATOM     14  C   UNL A   1      30.466  24.593  26.242  1.00  0.00     0.259 A 
ATOM     15  C   UNL A   1      32.830  25.063  25.829  1.00  0.00     0.218 A 
ATOM     16  O   UNL A   1      29.360  24.990  26.605  1.00  0.00    -0.269 OA
ATOM     17  N   UNL A   1      31.564  25.426  26.251  1.00  0.00    -0.251 N 
ATOM     18  N   UNL A   1      33.648  26.095  25.877  1.00  0.00    -0.212 NA
ATOM     19  C   UNL A   1      31.629  26.726  26.671  1.00  0.00     0.127 A 
ATOM     20  C   UNL A   1      32.926  27.116  26.440  1.00  0.00     0.091 A 
BRANCH  20  21
ATOM     21  C   UNL A   1      33.410  28.450  26.710  1.00  0.00     0.002 A 
ATOM     22  C   UNL A   1      34.724  28.631  27.156  1.00  0.00     0.010 A 
ATOM     23  C   UNL A   1      32.551  29.550  26.632  1.00  0.00     0.010 A 
ATOM     24  C   UNL A   1      35.144  29.879  27.599  1.00  0.00     0.001 A 
ATOM     25  C   UNL A   1      32.983  30.806  27.064  1.00  0.00     0.001 A 
ATOM     26  C   UNL A   1      34.271  30.962  27.568  1.00  0.00     0.000 A 
ENDBRANCH  20  21
ENDBRANCH   8  10
ENDBRANCH   5   8
ENDBRANCH   3   4
ENDBRANCH   2   3
ENDBRANCH   1   2
BRANCH   1  27
ATOM     27  C   UNL A   1      40.893  22.950  27.698  1.00  0.00     0.116 C 
BRANCH  27  28
ATOM     28  N   UNL A   1      42.106  22.746  26.908  1.00  0.00    -0.352 N 
ATOM     29  C   UNL A   1      42.809  23.702  26.196  1.00  0.00     0.251 C 
ATOM     30  H   UNL A   1      42.462  21.828  26.879  1.00  0.00     0.163 HD
ATOM     31  O   UNL A   1      43.534  23.376  25.265  1.00  0.00    -0.269 OA
BRANCH  29  32
ATOM     32  C   UNL A   1      42.664  25.118  26.588  1.00  0.00     0.039 A 
ATOM     33  C   UNL A   1      41.858  25.999  25.867  1.00  0.00     0.014 A 
ATOM     34  C   UNL A   1      43.326  25.545  27.739  1.00  0.00     0.014 A 
ATOM     35  C   UNL A   1      41.666  27.284  26.371  1.00  0.00     0.010 A 
ATOM     36  C   UNL A   1      42.998  26.745  28.322  1.00  0.00     0.010 A 
ATOM     37  C   UNL A   1      42.211  27.644  27.624  1.00  0.00    -0.014 A 
BRANCH  37  38
ATOM     38  C   UNL A   1      41.830  28.901  28.270  1.00  0.00     0.031 A 
ATOM     39  C   UNL A   1      42.851  29.963  28.091  1.00  0.00     0.074 A 
ATOM     40  C   UNL A   1      40.638  29.159  28.859  1.00  0.00     0.049 A 
ATOM     41  N   UNL A   1      43.778  30.278  28.932  1.00  0.00    -0.248 NA
ATOM     42  C   UNL A   1      43.020  30.586  26.768  1.00  0.00     0.031 C 
ATOM     43  C   UNL A   1      39.433  28.319  28.878  1.00  0.00     0.029 A 
ATOM     44  N   UNL A   1      40.233  30.267  29.553  1.00  0.00    -0.354 N 
ATOM     45  C   UNL A   1      44.430  31.370  28.372  1.00  0.00     0.074 A 
ATOM     46  C   UNL A   1      44.105  31.340  26.972  1.00  0.00     0.031 C 
ATOM     47  C   UNL A   1      38.385  29.022  29.367  1.00  0.00     0.029 A 
ATOM     48  C   UNL A   1      38.872  30.300  29.856  1.00  0.00     0.049 A 
ATOM     49  H   UNL A   1      40.854  30.985  29.817  1.00  0.00     0.167 HD
ATOM     50  C   UNL A   1      44.861  32.375  29.185  1.00  0.00     0.037 A 
ATOM     51  C   UNL A   1      38.196  31.226  30.587  1.00  0.00     0.037 A 
ATOM     52  C   UNL A   1      44.829  31.939  30.564  1.00  0.00     0.049 A 
ATOM     53  C   UNL A   1      39.178  31.870  31.478  1.00  0.00     0.074 A 
ATOM     54  C   UNL A   1      45.570  31.117  31.383  1.00  0.00     0.029 A 
ATOM     55  N   UNL A   1      43.596  32.086  31.144  1.00  0.00    -0.354 N 
ATOM     56  N   UNL A   1      39.776  31.240  32.452  1.00  0.00    -0.248 NA
ATOM     57  C   UNL A   1      39.787  33.130  31.070  1.00  0.00     0.031 C 
ATOM     58  C   UNL A   1      44.685  30.666  32.411  1.00  0.00     0.029 A 
ATOM     59  C   UNL A   1      43.444  31.269  32.231  1.00  0.00     0.049 A 
ATOM     60  H   UNL A   1      42.903  32.705  30.819  1.00  0.00     0.167 HD
ATOM     61  C   UNL A   1      41.041  31.785  32.469  1.00  0.00     0.074 A 
ATOM     62  C   UNL A   1      40.940  33.040  31.734  1.00  0.00     0.031 C 
ATOM     63  C   UNL A   1      42.128  31.021  32.775  1.00  0.00     0.037 A 
BRANCH  50  64
ATOM     64  C   UNL A   1      44.784  33.859  28.854  1.00  0.00     0.058 A 
ATOM     65  C   UNL A   1      45.975  34.621  28.881  1.00  0.00     0.135 A 
ATOM     66  C   UNL A   1      43.593  34.616  28.815  1.00  0.00     0.135 A 
ATOM     67  F   UNL A   1      47.174  34.017  28.911  1.00  0.00    -0.206 F 
ATOM     68  C   UNL A   1      45.977  36.016  28.947  1.00  0.00     0.059 A 
ATOM     69  C   UNL A   1      43.573  36.006  28.839  1.00  0.00     0.059 A 
ATOM     70  F   UNL A   1      42.379  34.058  28.841  1.00  0.00    -0.206 F 
ATOM     71  C   UNL A   1      44.766  36.700  28.940  1.00  0.00     0.060 A 
BRANCH  71  72
ATOM     72  S   UNL A   1      44.757  38.493  29.102  1.00  0.00     0.124 S 
ATOM     73  O   UNL A   1      44.625  38.912  27.712  1.00  0.00    -0.237 OA
ATOM     74  O   UNL A   1      43.590  38.710  29.951  1.00  0.00    -0.237 OA
ATOM     75  O   UNL A   1      46.043  38.779  29.731  1.00  0.00    -0.744 OA
ENDBRANCH  71  72
ENDBRANCH  50  64
BRANCH  51  76
ATOM     76  C   UNL A   1      36.947  31.941  30.212  1.00  0.00     0.058 A 
ATOM     77  C   UNL A   1      35.787  31.899  31.006  1.00  0.00     0.135 A 
ATOM     78  C   UNL A   1      36.982  32.932  29.217  1.00  0.00     0.135 A 
ATOM     79  F   UNL A   1      35.706  31.036  32.030  1.00  0.00    -0.206 F 
ATOM     80  C   UNL A   1      34.711  32.774  30.805  1.00  0.00     0.059 A 
ATOM     81  C   UNL A   1      35.926  33.815  28.998  1.00  0.00     0.059 A 
ATOM     82  F   UNL A   1      38.080  33.092  28.462  1.00  0.00    -0.206 F 
ATOM     83  C   UNL A   1      34.791  33.735  29.796  1.00  0.00     0.060 A 
BRANCH  83  84
ATOM     84  S   UNL A   1      33.413  34.872  29.512  1.00  0.00     0.124 S 
ATOM     85  O   UNL A   1      32.889  35.076  30.859  1.00  0.00    -0.237 OA
ATOM     86  O   UNL A   1      34.084  36.018  28.910  1.00  0.00    -0.237 OA
ATOM     87  O   UNL A   1      32.536  34.114  28.623  1.00  0.00    -0.744 OA
ENDBRANCH  83  84
ENDBRANCH  51  76
BRANCH  63  88
ATOM     88  C   UNL A   1      41.919  29.818  33.640  1.00  0.00     0.058 A 
ATOM     89  C   UNL A   1      41.683  28.510  33.183  1.00  0.00     0.135 A 
ATOM     90  C   UNL A   1      42.043  30.006  35.024  1.00  0.00     0.135 A 
ATOM     91  F   UNL A   1      41.604  28.240  31.872  1.00  0.00    -0.206 F 
ATOM     92  C   UNL A   1      41.565  27.438  34.074  1.00  0.00     0.059 A 
ATOM     93  C   UNL A   1      41.958  28.952  35.924  1.00  0.00     0.059 A 
ATOM     94  F   UNL A   1      42.297  31.230  35.514  1.00  0.00    -0.206 F 
ATOM     95  C   UNL A   1      41.712  27.671  35.443  1.00  0.00     0.060 A 
BRANCH  95  96
ATOM     96  S   UNL A   1      41.635  26.281  36.594  1.00  0.00     0.124 S 
ATOM     97  O   UNL A   1      42.995  26.237  37.119  1.00  0.00    -0.237 OA
ATOM     98  O   UNL A   1      40.606  26.711  37.536  1.00  0.00    -0.237 OA
ATOM     99  O   UNL A   1      41.259  25.153  35.745  1.00  0.00    -0.744 OA
ENDBRANCH  95  96
ENDBRANCH  63  88
ENDBRANCH  37  38
ENDBRANCH  29  32
ENDBRANCH  27  28
ENDBRANCH   1  27
TORSDOF 16
ENDMDL
MODEL 2
REMARK VINA RESULT:     -12.2      1.685      3.879
REMARK SMILES Cc1cc(=O)n2cc(-c3ccccc3)nc2n1[C@H](C)C(=O)NCCCCNC(=O)c1ccc(-c2c3nc(c(-c4c(F)cc(S(=O)(=O)[O-])cc4F)c4ccc([nH]4)c(-c4c(F)cc(S(=O)(=O)[O-])cc4F)c4nc(c(-c5c(F)cc(S(=O)(=O)[O-])cc5F)c5ccc2[nH]5)C=C4)C=C3)cc1
REMARK SMILES IDX 25 1 24 2 23 3 22 4 20 5 21 6 18 8 19 9 17 10 1 11 2 12 3 13
REMARK SMILES IDX 4 14 16 15 5 16 6 17 15 18 7 19 8 20 9 21 10 22 14 23 11 24
REMARK SMILES IDX 13 25 12 26 26 27 27 28 28 29 29 31 30 32 31 33 95 34 32 35
REMARK SMILES IDX 94 36 33 37 34 38 35 39 88 40 36 41 93 42 87 43 89 44 37 45
REMARK SMILES IDX 92 46 86 47 85 48 38 50 72 51 51 52 71 53 52 54 55 55 70 56
REMARK SMILES IDX 90 57 53 58 54 59 69 61 91 62 56 63 39 64 40 65 49 66 41 67
REMARK SMILES IDX 42 68 48 69 50 70 43 71 44 72 45 73 46 74 47 75 73 76 74 77
REMARK SMILES IDX 83 78 75 79 76 80 82 81 84 82 77 83 78 84 79 85 80 86 81 87
REMARK SMILES IDX 57 88 58 89 67 90 59 91 60 92 66 93 68 94 61 95 62 96 63 97
REMARK SMILES IDX 64 98 65 99
REMARK H PARENT 22 7 27 30 89 49 55 60
REMARK Flexibility Score: inf
ROOT
ATOM      1  C   UNL A   1      39.600  21.729  26.439  1.00  0.00     0.023 C 
ENDROOT
BRANCH   1   2
ATOM      2  C   UNL A   1      39.222  20.474  25.647  1.00  0.00     0.023 C 
BRANCH   2   3
ATOM      3  C   UNL A   1      37.801  20.438  25.079  1.00  0.00     0.116 C 
BRANCH   3   4
ATOM      4  N   UNL A   1      37.576  21.476  24.097  1.00  0.00    -0.354 N 
ATOM      5  C   UNL A   1      36.814  22.610  24.172  1.00  0.00     0.242 C 
ATOM      6  O   UNL A   1      36.653  23.247  23.124  1.00  0.00    -0.273 OA
ATOM      7  H   UNL A   1      38.045  21.347  23.241  1.00  0.00     0.163 HD
BRANCH   5   8
ATOM      8  C   UNL A   1      36.041  23.002  25.462  1.00  0.00     0.176 C 
ATOM      9  C   UNL A   1      36.869  24.093  26.126  1.00  0.00     0.042 C 
BRANCH   8  10
ATOM     10  N   UNL A   1      34.567  23.244  25.234  1.00  0.00    -0.303 N 
ATOM     11  C   UNL A   1      34.478  25.812  25.418  1.00  0.00     0.065 C 
ATOM     12  C   UNL A   1      33.838  24.463  25.229  1.00  0.00     0.024 A 
ATOM     13  C   UNL A   1      32.504  24.489  25.021  1.00  0.00     0.093 A 
ATOM     14  C   UNL A   1      31.747  23.258  24.783  1.00  0.00     0.259 A 
ATOM     15  C   UNL A   1      33.861  22.064  25.076  1.00  0.00     0.218 A 
ATOM     16  O   UNL A   1      30.536  23.221  24.571  1.00  0.00    -0.269 OA
ATOM     17  N   UNL A   1      32.504  22.107  24.814  1.00  0.00    -0.251 N 
ATOM     18  N   UNL A   1      34.286  20.818  25.120  1.00  0.00    -0.212 NA
ATOM     19  C   UNL A   1      32.089  20.823  24.589  1.00  0.00     0.127 A 
ATOM     20  C   UNL A   1      33.206  20.045  24.775  1.00  0.00     0.091 A 
BRANCH  20  21
ATOM     21  C   UNL A   1      33.193  18.604  24.670  1.00  0.00     0.002 A 
ATOM     22  C   UNL A   1      32.745  17.837  25.751  1.00  0.00     0.010 A 
ATOM     23  C   UNL A   1      33.720  17.967  23.543  1.00  0.00     0.010 A 
ATOM     24  C   UNL A   1      32.903  16.456  25.738  1.00  0.00     0.001 A 
ATOM     25  C   UNL A   1      33.862  16.577  23.529  1.00  0.00     0.001 A 
ATOM     26  C   UNL A   1      33.474  15.828  24.636  1.00  0.00     0.000 A 
ENDBRANCH  20  21
ENDBRANCH   8  10
ENDBRANCH   5   8
ENDBRANCH   3   4
ENDBRANCH   2   3
ENDBRANCH   1   2
BRANCH   1  27
ATOM     27  C   UNL A   1      40.947  21.652  27.141  1.00  0.00     0.116 C 
BRANCH  27  28
ATOM     28  N   UNL A   1      42.069  22.006  26.274  1.00  0.00    -0.352 N 
ATOM     29  C   UNL A   1      42.438  23.275  25.862  1.00  0.00     0.251 C 
ATOM     30  H   UNL A   1      42.624  21.261  25.947  1.00  0.00     0.163 HD
ATOM     31  O   UNL A   1      43.101  23.431  24.844  1.00  0.00    -0.269 OA
BRANCH  29  32
ATOM     32  C   UNL A   1      42.014  24.430  26.678  1.00  0.00     0.039 A 
ATOM     33  C   UNL A   1      42.636  24.741  27.887  1.00  0.00     0.014 A 
ATOM     34  C   UNL A   1      40.993  25.238  26.180  1.00  0.00     0.014 A 
ATOM     35  C   UNL A   1      42.270  25.919  28.536  1.00  0.00     0.010 A 
ATOM     36  C   UNL A   1      40.759  26.477  26.725  1.00  0.00     0.010 A 
ATOM     37  C   UNL A   1      41.353  26.807  27.931  1.00  0.00    -0.014 A 
BRANCH  37  38
ATOM     38  C   UNL A   1      41.135  28.145  28.484  1.00  0.00     0.031 A 
ATOM     39  C   UNL A   1      42.206  29.098  28.101  1.00  0.00     0.074 A 
ATOM     40  C   UNL A   1      40.034  28.553  29.158  1.00  0.00     0.049 A 
ATOM     41  N   UNL A   1      43.238  29.410  28.812  1.00  0.00    -0.248 NA
ATOM     42  C   UNL A   1      42.280  29.581  26.713  1.00  0.00     0.031 C 
ATOM     43  C   UNL A   1      38.779  27.821  29.378  1.00  0.00     0.029 A 
ATOM     44  N   UNL A   1      39.786  29.750  29.774  1.00  0.00    -0.354 N 
ATOM     45  C   UNL A   1      43.904  30.389  28.085  1.00  0.00     0.074 A 
ATOM     46  C   UNL A   1      43.433  30.259  26.734  1.00  0.00     0.031 C 
ATOM     47  C   UNL A   1      37.843  28.650  29.895  1.00  0.00     0.029 A 
ATOM     48  C   UNL A   1      38.470  29.922  30.204  1.00  0.00     0.049 A 
ATOM     49  H   UNL A   1      40.482  30.434  29.904  1.00  0.00     0.167 HD
ATOM     50  C   UNL A   1      44.491  31.425  28.749  1.00  0.00     0.037 A 
ATOM     51  C   UNL A   1      37.944  30.965  30.903  1.00  0.00     0.037 A 
ATOM     52  C   UNL A   1      44.572  31.121  30.160  1.00  0.00     0.049 A 
ATOM     53  C   UNL A   1      39.059  31.603  31.625  1.00  0.00     0.074 A 
ATOM     54  C   UNL A   1      45.334  30.318  30.981  1.00  0.00     0.029 A 
ATOM     55  N   UNL A   1      43.422  31.422  30.841  1.00  0.00    -0.354 N 
ATOM     56  N   UNL A   1      39.709  31.017  32.593  1.00  0.00    -0.248 NA
ATOM     57  C   UNL A   1      39.712  32.766  31.036  1.00  0.00     0.031 C 
ATOM     58  C   UNL A   1      44.531  30.038  32.130  1.00  0.00     0.029 A 
ATOM     59  C   UNL A   1      43.326  30.723  32.013  1.00  0.00     0.049 A 
ATOM     60  H   UNL A   1      42.746  32.064  30.525  1.00  0.00     0.167 HD
ATOM     61  C   UNL A   1      41.006  31.455  32.433  1.00  0.00     0.074 A 
ATOM     62  C   UNL A   1      40.919  32.642  31.590  1.00  0.00     0.031 C 
ATOM     63  C   UNL A   1      42.059  30.636  32.705  1.00  0.00     0.037 A 
BRANCH  50  64
ATOM     64  C   UNL A   1      44.488  32.873  28.281  1.00  0.00     0.058 A 
ATOM     65  C   UNL A   1      45.718  33.470  27.919  1.00  0.00     0.135 A 
ATOM     66  C   UNL A   1      43.417  33.777  28.459  1.00  0.00     0.135 A 
ATOM     67  F   UNL A   1      46.811  32.717  27.714  1.00  0.00    -0.206 F 
ATOM     68  C   UNL A   1      45.887  34.854  27.824  1.00  0.00     0.059 A 
ATOM     69  C   UNL A   1      43.553  35.155  28.328  1.00  0.00     0.059 A 
ATOM     70  F   UNL A   1      42.202  33.389  28.854  1.00  0.00    -0.206 F 
ATOM     71  C   UNL A   1      44.798  35.689  28.045  1.00  0.00     0.060 A 
BRANCH  71  72
ATOM     72  S   UNL A   1      45.024  37.475  27.999  1.00  0.00     0.124 S 
ATOM     73  O   UNL A   1      45.786  37.705  29.219  1.00  0.00    -0.237 OA
ATOM     74  O   UNL A   1      45.750  37.651  26.746  1.00  0.00    -0.237 OA
ATOM     75  O   UNL A   1      43.656  37.985  27.999  1.00  0.00    -0.744 OA
ENDBRANCH  71  72
ENDBRANCH  50  64
BRANCH  51  76
ATOM     76  C   UNL A   1      36.719  31.743  30.583  1.00  0.00     0.058 A 
ATOM     77  C   UNL A   1      35.779  32.107  31.564  1.00  0.00     0.135 A 
ATOM     78  C   UNL A   1      36.616  32.407  29.348  1.00  0.00     0.135 A 
ATOM     79  F   UNL A   1      35.858  31.580  32.795  1.00  0.00    -0.206 F 
ATOM     80  C   UNL A   1      34.777  33.057  31.323  1.00  0.00     0.059 A 
ATOM     81  C   UNL A   1      35.629  33.356  29.085  1.00  0.00     0.059 A 
ATOM     82  F   UNL A   1      37.516  32.175  28.380  1.00  0.00    -0.206 F 
ATOM     83  C   UNL A   1      34.712  33.681  30.077  1.00  0.00     0.060 A 
BRANCH  83  84
ATOM     84  S   UNL A   1      33.424  34.906  29.740  1.00  0.00     0.124 S 
ATOM     85  O   UNL A   1      34.182  36.009  29.157  1.00  0.00    -0.237 OA
ATOM     86  O   UNL A   1      32.549  34.182  28.826  1.00  0.00    -0.237 OA
ATOM     87  O   UNL A   1      32.870  35.177  31.064  1.00  0.00    -0.744 OA
ENDBRANCH  83  84
ENDBRANCH  51  76
BRANCH  63  88
ATOM     88  C   UNL A   1      41.855  29.537  33.702  1.00  0.00     0.058 A 
ATOM     89  C   UNL A   1      41.475  28.218  33.402  1.00  0.00     0.135 A 
ATOM     90  C   UNL A   1      42.141  29.839  35.040  1.00  0.00     0.135 A 
ATOM     91  F   UNL A   1      41.236  27.838  32.139  1.00  0.00    -0.206 F 
ATOM     92  C   UNL A   1      41.374  27.245  34.402  1.00  0.00     0.059 A 
ATOM     93  C   UNL A   1      42.074  28.883  36.045  1.00  0.00     0.059 A 
ATOM     94  F   UNL A   1      42.536  31.077  35.379  1.00  0.00    -0.206 F 
ATOM     95  C   UNL A   1      41.684  27.588  35.720  1.00  0.00     0.060 A 
BRANCH  95  96
ATOM     96  S   UNL A   1      41.627  26.320  37.005  1.00  0.00     0.124 S 
ATOM     97  O   UNL A   1      40.403  26.661  37.722  1.00  0.00    -0.237 OA
ATOM     98  O   UNL A   1      41.583  25.086  36.227  1.00  0.00    -0.237 OA
ATOM     99  O   UNL A   1      42.865  26.533  37.752  1.00  0.00    -0.744 OA
ENDBRANCH  95  96
ENDBRANCH  63  88
ENDBRANCH  37  38
ENDBRANCH  29  32
ENDBRANCH  27  28
ENDBRANCH   1  27
TORSDOF 16
ENDMDL
MODEL 3
REMARK VINA RESULT:     -11.9      3.108      9.563
REMARK SMILES Cc1cc(=O)n2cc(-c3ccccc3)nc2n1[C@H](C)C(=O)NCCCCNC(=O)c1ccc(-c2c3nc(c(-c4c(F)cc(S(=O)(=O)[O-])cc4F)c4ccc([nH]4)c(-c4c(F)cc(S(=O)(=O)[O-])cc4F)c4nc(c(-c5c(F)cc(S(=O)(=O)[O-])cc5F)c5ccc2[nH]5)C=C4)C=C3)cc1
REMARK SMILES IDX 25 1 24 2 23 3 22 4 20 5 21 6 18 8 19 9 17 10 1 11 2 12 3 13
REMARK SMILES IDX 4 14 16 15 5 16 6 17 15 18 7 19 8 20 9 21 10 22 14 23 11 24
REMARK SMILES IDX 13 25 12 26 26 27 27 28 28 29 29 31 30 32 31 33 95 34 32 35
REMARK SMILES IDX 94 36 33 37 34 38 35 39 88 40 36 41 93 42 87 43 89 44 37 45
REMARK SMILES IDX 92 46 86 47 85 48 38 50 72 51 51 52 71 53 52 54 55 55 70 56
REMARK SMILES IDX 90 57 53 58 54 59 69 61 91 62 56 63 39 64 40 65 49 66 41 67
REMARK SMILES IDX 42 68 48 69 50 70 43 71 44 72 45 73 46 74 47 75 73 76 74 77
REMARK SMILES IDX 83 78 75 79 76 80 82 81 84 82 77 83 78 84 79 85 80 86 81 87
REMARK SMILES IDX 57 88 58 89 67 90 59 91 60 92 66 93 68 94 61 95 62 96 63 97
REMARK SMILES IDX 64 98 65 99
REMARK H PARENT 22 7 27 30 89 49 55 60
REMARK Flexibility Score: inf
ROOT
ATOM      1  C   UNL A   1      33.610  31.169  27.379  1.00  0.00     0.023 C 
ENDROOT
BRANCH   1   2
ATOM      2  C   UNL A   1      33.842  29.681  27.663  1.00  0.00     0.023 C 
BRANCH   2   3
ATOM      3  C   UNL A   1      34.659  28.916  26.619  1.00  0.00     0.116 C 
BRANCH   3   4
ATOM      4  N   UNL A   1      33.990  28.848  25.339  1.00  0.00    -0.354 N 
ATOM      5  C   UNL A   1      33.186  27.873  24.814  1.00  0.00     0.242 C 
ATOM      6  O   UNL A   1      32.878  27.983  23.621  1.00  0.00    -0.273 OA
ATOM      7  H   UNL A   1      34.134  29.627  24.753  1.00  0.00     0.163 HD
BRANCH   5   8
ATOM      8  C   UNL A   1      32.810  26.595  25.614  1.00  0.00     0.176 C 
ATOM      9  C   UNL A   1      31.710  27.018  26.577  1.00  0.00     0.042 C 
BRANCH   8  10
ATOM     10  N   UNL A   1      32.587  25.380  24.742  1.00  0.00    -0.303 N 
ATOM     11  C   UNL A   1      30.179  25.814  23.937  1.00  0.00     0.065 C 
ATOM     12  C   UNL A   1      31.436  24.991  24.007  1.00  0.00     0.024 A 
ATOM     13  C   UNL A   1      31.409  23.849  23.286  1.00  0.00     0.093 A 
ATOM     14  C   UNL A   1      32.573  22.961  23.225  1.00  0.00     0.259 A 
ATOM     15  C   UNL A   1      33.673  24.524  24.750  1.00  0.00     0.218 A 
ATOM     16  O   UNL A   1      32.614  21.918  22.573  1.00  0.00    -0.269 OA
ATOM     17  N   UNL A   1      33.654  23.383  23.969  1.00  0.00    -0.251 N 
ATOM     18  N   UNL A   1      34.812  24.616  25.406  1.00  0.00    -0.212 NA
ATOM     19  C   UNL A   1      34.883  22.792  24.076  1.00  0.00     0.127 A 
ATOM     20  C   UNL A   1      35.584  23.574  24.960  1.00  0.00     0.091 A 
BRANCH  20  21
ATOM     21  C   UNL A   1      36.932  23.273  25.386  1.00  0.00     0.002 A 
ATOM     22  C   UNL A   1      37.467  22.003  25.140  1.00  0.00     0.010 A 
ATOM     23  C   UNL A   1      37.667  24.199  26.131  1.00  0.00     0.010 A 
ATOM     24  C   UNL A   1      38.682  21.638  25.706  1.00  0.00     0.001 A 
ATOM     25  C   UNL A   1      38.895  23.832  26.685  1.00  0.00     0.001 A 
ATOM     26  C   UNL A   1      39.389  22.545  26.489  1.00  0.00     0.000 A 
ENDBRANCH  20  21
ENDBRANCH   8  10
ENDBRANCH   5   8
ENDBRANCH   3   4
ENDBRANCH   2   3
ENDBRANCH   1   2
BRANCH   1  27
ATOM     27  C   UNL A   1      34.762  32.075  27.782  1.00  0.00     0.116 C 
BRANCH  27  28
ATOM     28  N   UNL A   1      34.737  32.444  29.197  1.00  0.00    -0.352 N 
ATOM     29  C   UNL A   1      35.486  31.886  30.218  1.00  0.00     0.251 C 
ATOM     30  H   UNL A   1      34.120  33.168  29.451  1.00  0.00     0.163 HD
ATOM     31  O   UNL A   1      35.108  31.963  31.381  1.00  0.00    -0.269 OA
BRANCH  29  32
ATOM     32  C   UNL A   1      36.747  31.201  29.872  1.00  0.00     0.039 A 
ATOM     33  C   UNL A   1      37.952  31.893  29.765  1.00  0.00     0.014 A 
ATOM     34  C   UNL A   1      36.707  29.818  29.695  1.00  0.00     0.014 A 
ATOM     35  C   UNL A   1      39.121  31.161  29.565  1.00  0.00     0.010 A 
ATOM     36  C   UNL A   1      37.871  29.088  29.673  1.00  0.00     0.010 A 
ATOM     37  C   UNL A   1      39.081  29.749  29.555  1.00  0.00    -0.014 A 
BRANCH  37  38
ATOM     38  C   UNL A   1      40.318  28.967  29.577  1.00  0.00     0.031 A 
ATOM     39  C   UNL A   1      40.804  28.712  30.956  1.00  0.00     0.074 A 
ATOM     40  C   UNL A   1      40.918  28.403  28.501  1.00  0.00     0.049 A 
ATOM     41  N   UNL A   1      41.699  29.396  31.587  1.00  0.00    -0.248 NA
ATOM     42  C   UNL A   1      40.078  27.761  31.812  1.00  0.00     0.031 C 
ATOM     43  C   UNL A   1      40.422  28.328  27.120  1.00  0.00     0.029 A 
ATOM     44  N   UNL A   1      42.108  27.732  28.421  1.00  0.00    -0.354 N 
ATOM     45  C   UNL A   1      41.879  28.740  32.798  1.00  0.00     0.074 A 
ATOM     46  C   UNL A   1      40.704  27.932  32.981  1.00  0.00     0.031 C 
ATOM     47  C   UNL A   1      41.197  27.489  26.395  1.00  0.00     0.029 A 
ATOM     48  C   UNL A   1      42.339  27.098  27.201  1.00  0.00     0.049 A 
ATOM     49  H   UNL A   1      42.750  27.701  29.167  1.00  0.00     0.167 HD
ATOM     50  C   UNL A   1      43.131  28.659  33.330  1.00  0.00     0.037 A 
ATOM     51  C   UNL A   1      43.450  26.422  26.803  1.00  0.00     0.037 A 
ATOM     52  C   UNL A   1      44.014  29.582  32.651  1.00  0.00     0.049 A 
ATOM     53  C   UNL A   1      44.575  26.932  27.608  1.00  0.00     0.074 A 
ATOM     54  C   UNL A   1      44.237  30.941  32.632  1.00  0.00     0.029 A 
ATOM     55  N   UNL A   1      44.541  29.068  31.495  1.00  0.00    -0.354 N 
ATOM     56  N   UNL A   1      45.031  28.149  27.503  1.00  0.00    -0.248 NA
ATOM     57  C   UNL A   1      44.975  26.205  28.807  1.00  0.00     0.031 C 
ATOM     58  C   UNL A   1      44.800  31.240  31.353  1.00  0.00     0.029 A 
ATOM     59  C   UNL A   1      44.964  30.054  30.646  1.00  0.00     0.049 A 
ATOM     60  H   UNL A   1      44.609  28.106  31.300  1.00  0.00     0.167 HD
ATOM     61  C   UNL A   1      45.389  28.479  28.792  1.00  0.00     0.074 A 
ATOM     62  C   UNL A   1      45.499  27.213  29.506  1.00  0.00     0.031 C 
ATOM     63  C   UNL A   1      45.234  29.750  29.258  1.00  0.00     0.037 A 
BRANCH  50  64
ATOM     64  C   UNL A   1      43.703  27.435  34.031  1.00  0.00     0.058 A 
ATOM     65  C   UNL A   1      44.188  27.576  35.352  1.00  0.00     0.135 A 
ATOM     66  C   UNL A   1      44.076  26.235  33.385  1.00  0.00     0.135 A 
ATOM     67  F   UNL A   1      43.897  28.670  36.075  1.00  0.00    -0.206 F 
ATOM     68  C   UNL A   1      45.039  26.642  35.948  1.00  0.00     0.059 A 
ATOM     69  C   UNL A   1      44.888  25.272  33.975  1.00  0.00     0.059 A 
ATOM     70  F   UNL A   1      43.750  25.965  32.118  1.00  0.00    -0.206 F 
ATOM     71  C   UNL A   1      45.394  25.497  35.243  1.00  0.00     0.060 A 
BRANCH  71  72
ATOM     72  S   UNL A   1      46.549  24.326  35.974  1.00  0.00     0.124 S 
ATOM     73  O   UNL A   1      47.809  24.742  35.372  1.00  0.00    -0.237 OA
ATOM     74  O   UNL A   1      46.396  24.605  37.398  1.00  0.00    -0.237 OA
ATOM     75  O   UNL A   1      46.035  23.031  35.537  1.00  0.00    -0.744 OA
ENDBRANCH  71  72
ENDBRANCH  50  64
BRANCH  51  76
ATOM     76  C   UNL A   1      43.517  25.063  26.203  1.00  0.00     0.058 A 
ATOM     77  C   UNL A   1      44.433  24.731  25.188  1.00  0.00     0.135 A 
ATOM     78  C   UNL A   1      42.883  23.985  26.844  1.00  0.00     0.135 A 
ATOM     79  F   UNL A   1      45.140  25.696  24.581  1.00  0.00    -0.206 F 
ATOM     80  C   UNL A   1      44.684  23.404  24.813  1.00  0.00     0.059 A 
ATOM     81  C   UNL A   1      43.118  22.657  26.490  1.00  0.00     0.059 A 
ATOM     82  F   UNL A   1      42.050  24.207  27.873  1.00  0.00    -0.206 F 
ATOM     83  C   UNL A   1      44.022  22.370  25.475  1.00  0.00     0.060 A 
BRANCH  83  84
ATOM     84  S   UNL A   1      44.324  20.649  25.005  1.00  0.00     0.124 S 
ATOM     85  O   UNL A   1      43.121  19.975  25.483  1.00  0.00    -0.237 OA
ATOM     86  O   UNL A   1      44.465  20.750  23.558  1.00  0.00    -0.237 OA
ATOM     87  O   UNL A   1      45.543  20.315  25.738  1.00  0.00    -0.744 OA
ENDBRANCH  83  84
ENDBRANCH  51  76
BRANCH  63  88
ATOM     88  C   UNL A   1      45.252  30.869  28.264  1.00  0.00     0.058 A 
ATOM     89  C   UNL A   1      44.131  31.393  27.598  1.00  0.00     0.135 A 
ATOM     90  C   UNL A   1      46.487  31.493  28.039  1.00  0.00     0.135 A 
ATOM     91  F   UNL A   1      42.907  30.886  27.803  1.00  0.00    -0.206 F 
ATOM     92  C   UNL A   1      44.244  32.488  26.735  1.00  0.00     0.059 A 
ATOM     93  C   UNL A   1      46.618  32.597  27.207  1.00  0.00     0.059 A 
ATOM     94  F   UNL A   1      47.587  31.050  28.671  1.00  0.00    -0.206 F 
ATOM     95  C   UNL A   1      45.493  33.086  26.552  1.00  0.00     0.060 A 
BRANCH  95  96
ATOM     96  S   UNL A   1      45.634  34.544  25.495  1.00  0.00     0.124 S 
ATOM     97  O   UNL A   1      45.111  35.601  26.354  1.00  0.00    -0.237 OA
ATOM     98  O   UNL A   1      47.067  34.597  25.225  1.00  0.00    -0.237 OA
ATOM     99  O   UNL A   1      44.802  34.212  24.341  1.00  0.00    -0.744 OA
ENDBRANCH  95  96
ENDBRANCH  63  88
ENDBRANCH  37  38
ENDBRANCH  29  32
ENDBRANCH  27  28
ENDBRANCH   1  27
TORSDOF 16
ENDMDL
