MODEL 1
REMARK VINA RESULT:     -14.2      0.000      0.000
REMARK SMILES Cc1ccc(C(=O)c2cccc(C)c2C(=O)NCCCCNC(=O)c2ccc(-c3c4nc(c(-c5c(F)cc(S(=O)(=O)[O-])cc5F)c5ccc([nH]5)c(-c5c(F)cc(S(=O)(=O)[O-])cc5F)c5nc(c(-c6c(F)cc(S(=O)(=O)[O-])cc6F)c6ccc3[nH]6)C=C5)C=C4)cc2)c(C)c1
REMARK SMILES IDX 20 1 19 2 18 3 17 4 15 5 16 6 14 8 8 9 9 10 10 11 12 12
REMARK SMILES IDX 11 13 13 14 6 15 7 16 5 17 1 18 2 19 3 20 93 21 4 22 91 23
REMARK SMILES IDX 92 24 21 25 22 26 23 27 24 29 25 30 26 31 90 32 27 33 89 34
REMARK SMILES IDX 28 35 29 36 30 37 83 38 31 39 88 40 82 41 84 42 32 43 87 44
REMARK SMILES IDX 81 45 80 46 33 48 67 49 46 50 66 51 47 52 50 53 65 54 85 55
REMARK SMILES IDX 48 56 49 57 64 59 86 60 51 61 34 62 35 63 44 64 36 65 37 66
REMARK SMILES IDX 43 67 45 68 38 69 39 70 40 71 41 72 42 73 68 74 69 75 78 76
REMARK SMILES IDX 70 77 71 78 77 79 79 80 72 81 73 82 74 83 75 84 76 85 52 86
REMARK SMILES IDX 53 87 62 88 54 89 55 90 61 91 63 92 56 93 57 94 58 95 59 96
REMARK SMILES IDX 60 97
REMARK H PARENT 17 7 22 28 84 47 50 58
REMARK Flexibility Score: inf
ROOT
ATOM      1  C   UNL A   1      32.929  30.593  27.106  1.00  0.00     0.023 C 
ENDROOT
BRANCH   1   2
ATOM      2  C   UNL A   1      31.969  29.473  26.713  1.00  0.00     0.023 C 
BRANCH   2   3
ATOM      3  C   UNL A   1      32.258  28.095  27.313  1.00  0.00     0.116 C 
BRANCH   3   4
ATOM      4  N   UNL A   1      31.229  27.090  27.115  1.00  0.00    -0.352 N 
ATOM      5  C   UNL A   1      30.946  26.227  26.075  1.00  0.00     0.252 C 
ATOM      6  O   UNL A   1      30.079  25.380  26.295  1.00  0.00    -0.269 OA
ATOM      7  H   UNL A   1      30.609  27.006  27.875  1.00  0.00     0.163 HD
BRANCH   5   8
ATOM      8  C   UNL A   1      31.537  26.341  24.694  1.00  0.00     0.053 A 
ATOM      9  C   UNL A   1      32.784  25.793  24.337  1.00  0.00     0.036 A 
ATOM     10  C   UNL A   1      33.323  25.969  23.048  1.00  0.00     0.013 A 
ATOM     11  C   UNL A   1      32.618  26.671  22.083  1.00  0.00     0.001 A 
ATOM     12  C   UNL A   1      30.774  26.945  23.657  1.00  0.00    -0.038 A 
ATOM     13  C   UNL A   1      31.337  27.122  22.376  1.00  0.00     0.004 A 
ATOM     14  C   UNL A   1      29.320  27.314  23.823  1.00  0.00     0.045 C 
BRANCH   9  15
ATOM     15  C   UNL A   1      33.400  24.743  25.160  1.00  0.00     0.194 C 
ATOM     16  O   UNL A   1      34.030  25.162  26.125  1.00  0.00    -0.289 OA
BRANCH  15  17
ATOM     17  C   UNL A   1      33.186  23.276  24.903  1.00  0.00     0.025 A 
ATOM     18  C   UNL A   1      32.697  19.007  24.391  1.00  0.00     0.044 C 
ATOM     19  C   UNL A   1      32.837  20.488  24.588  1.00  0.00    -0.051 A 
ATOM     20  C   UNL A   1      31.780  21.276  25.033  1.00  0.00     0.004 A 
ATOM     21  C   UNL A   1      34.041  21.111  24.256  1.00  0.00     0.007 A 
ATOM     22  C   UNL A   1      31.960  22.653  25.207  1.00  0.00     0.013 A 
ATOM     23  C   UNL A   1      34.205  22.505  24.325  1.00  0.00    -0.040 A 
ATOM     24  C   UNL A   1      35.465  23.085  23.747  1.00  0.00     0.045 C 
ENDBRANCH  15  17
ENDBRANCH   9  15
ENDBRANCH   5   8
ENDBRANCH   3   4
ENDBRANCH   2   3
ENDBRANCH   1   2
BRANCH   1  25
ATOM     25  C   UNL A   1      34.397  30.170  27.205  1.00  0.00     0.116 C 
BRANCH  25  26
ATOM     26  N   UNL A   1      35.223  31.254  27.741  1.00  0.00    -0.352 N 
ATOM     27  C   UNL A   1      36.452  31.204  28.367  1.00  0.00     0.251 C 
ATOM     28  H   UNL A   1      34.843  32.157  27.640  1.00  0.00     0.163 HD
ATOM     29  O   UNL A   1      36.953  32.202  28.884  1.00  0.00    -0.269 OA
BRANCH  27  30
ATOM     30  C   UNL A   1      37.192  29.934  28.334  1.00  0.00     0.039 A 
ATOM     31  C   UNL A   1      37.166  29.137  29.483  1.00  0.00     0.014 A 
ATOM     32  C   UNL A   1      38.104  29.700  27.310  1.00  0.00     0.014 A 
ATOM     33  C   UNL A   1      38.208  28.245  29.708  1.00  0.00     0.010 A 
ATOM     34  C   UNL A   1      39.189  28.890  27.583  1.00  0.00     0.010 A 
ATOM     35  C   UNL A   1      39.272  28.217  28.813  1.00  0.00    -0.014 A 
BRANCH  35  36
ATOM     36  C   UNL A   1      40.568  27.619  29.125  1.00  0.00     0.031 A 
ATOM     37  C   UNL A   1      40.868  26.237  28.688  1.00  0.00     0.074 A 
ATOM     38  C   UNL A   1      41.530  28.398  29.669  1.00  0.00     0.049 A 
ATOM     39  N   UNL A   1      41.897  25.545  29.043  1.00  0.00    -0.248 NA
ATOM     40  C   UNL A   1      39.951  25.495  27.829  1.00  0.00     0.031 C 
ATOM     41  C   UNL A   1      42.970  28.169  29.636  1.00  0.00     0.029 A 
ATOM     42  N   UNL A   1      41.366  29.485  30.542  1.00  0.00    -0.354 N 
ATOM     43  C   UNL A   1      41.918  24.390  28.288  1.00  0.00     0.074 A 
ATOM     44  C   UNL A   1      40.659  24.390  27.581  1.00  0.00     0.031 C 
ATOM     45  C   UNL A   1      43.550  28.910  30.593  1.00  0.00     0.029 A 
ATOM     46  C   UNL A   1      42.480  29.474  31.403  1.00  0.00     0.049 A 
ATOM     47  H   UNL A   1      40.621  30.128  30.550  1.00  0.00     0.167 HD
ATOM     48  C   UNL A   1      43.050  23.627  28.257  1.00  0.00     0.037 A 
ATOM     49  C   UNL A   1      42.357  29.255  32.747  1.00  0.00     0.037 A 
ATOM     50  C   UNL A   1      44.031  24.116  29.226  1.00  0.00     0.049 A 
ATOM     51  C   UNL A   1      43.130  28.065  33.239  1.00  0.00     0.074 A 
ATOM     52  C   UNL A   1      45.115  24.972  29.106  1.00  0.00     0.029 A 
ATOM     53  N   UNL A   1      43.778  23.991  30.590  1.00  0.00    -0.354 N 
ATOM     54  N   UNL A   1      43.455  27.046  32.493  1.00  0.00    -0.248 NA
ATOM     55  C   UNL A   1      43.595  27.933  34.616  1.00  0.00     0.031 C 
ATOM     56  C   UNL A   1      45.460  25.426  30.403  1.00  0.00     0.029 A 
ATOM     57  C   UNL A   1      44.608  24.826  31.316  1.00  0.00     0.049 A 
ATOM     58  H   UNL A   1      43.102  23.393  30.982  1.00  0.00     0.167 HD
ATOM     59  C   UNL A   1      44.112  26.122  33.259  1.00  0.00     0.074 A 
ATOM     60  C   UNL A   1      44.199  26.735  34.573  1.00  0.00     0.031 C 
ATOM     61  C   UNL A   1      44.516  24.916  32.766  1.00  0.00     0.037 A 
BRANCH  48  62
ATOM     62  C   UNL A   1      43.377  22.649  27.136  1.00  0.00     0.058 A 
ATOM     63  C   UNL A   1      42.661  21.437  27.006  1.00  0.00     0.135 A 
ATOM     64  C   UNL A   1      44.431  22.796  26.213  1.00  0.00     0.135 A 
ATOM     65  F   UNL A   1      41.562  21.190  27.732  1.00  0.00    -0.206 F 
ATOM     66  C   UNL A   1      43.039  20.412  26.130  1.00  0.00     0.059 A 
ATOM     67  C   UNL A   1      44.869  21.766  25.371  1.00  0.00     0.059 A 
ATOM     68  F   UNL A   1      45.046  23.972  26.038  1.00  0.00    -0.206 F 
ATOM     69  C   UNL A   1      44.172  20.568  25.345  1.00  0.00     0.060 A 
BRANCH  69  70
ATOM     70  S   UNL A   1      44.702  19.207  24.286  1.00  0.00     0.124 S 
ATOM     71  O   UNL A   1      44.527  19.767  22.950  1.00  0.00    -0.237 OA
ATOM     72  O   UNL A   1      46.081  19.007  24.716  1.00  0.00    -0.237 OA
ATOM     73  O   UNL A   1      43.778  18.129  24.631  1.00  0.00    -0.744 OA
ENDBRANCH  69  70
ENDBRANCH  48  62
BRANCH  49  74
ATOM     74  C   UNL A   1      41.092  29.742  33.364  1.00  0.00     0.058 A 
ATOM     75  C   UNL A   1      41.022  31.079  33.774  1.00  0.00     0.135 A 
ATOM     76  C   UNL A   1      39.879  29.076  33.134  1.00  0.00     0.135 A 
ATOM     77  F   UNL A   1      42.145  31.742  34.095  1.00  0.00    -0.206 F 
ATOM     78  C   UNL A   1      39.831  31.794  33.708  1.00  0.00     0.059 A 
ATOM     79  C   UNL A   1      38.672  29.774  33.072  1.00  0.00     0.059 A 
ATOM     80  F   UNL A   1      39.876  27.775  32.806  1.00  0.00    -0.206 F 
ATOM     81  C   UNL A   1      38.687  31.154  33.248  1.00  0.00     0.060 A 
BRANCH  81  82
ATOM     82  S   UNL A   1      37.308  32.181  32.689  1.00  0.00     0.124 S 
ATOM     83  O   UNL A   1      36.429  31.206  32.052  1.00  0.00    -0.237 OA
ATOM     84  O   UNL A   1      36.826  32.727  33.956  1.00  0.00    -0.237 OA
ATOM     85  O   UNL A   1      37.946  33.136  31.791  1.00  0.00    -0.744 OA
ENDBRANCH  81  82
ENDBRANCH  49  74
BRANCH  61  86
ATOM     86  C   UNL A   1      44.952  23.762  33.629  1.00  0.00     0.058 A 
ATOM     87  C   UNL A   1      44.094  22.708  33.994  1.00  0.00     0.135 A 
ATOM     88  C   UNL A   1      46.305  23.610  34.007  1.00  0.00     0.135 A 
ATOM     89  F   UNL A   1      42.818  22.672  33.584  1.00  0.00    -0.206 F 
ATOM     90  C   UNL A   1      44.521  21.626  34.760  1.00  0.00     0.059 A 
ATOM     91  C   UNL A   1      46.765  22.508  34.724  1.00  0.00     0.059 A 
ATOM     92  F   UNL A   1      47.227  24.526  33.677  1.00  0.00    -0.206 F 
ATOM     93  C   UNL A   1      45.858  21.535  35.125  1.00  0.00     0.060 A 
BRANCH  93  94
ATOM     94  S   UNL A   1      46.428  20.110  36.070  1.00  0.00     0.124 S 
ATOM     95  O   UNL A   1      46.029  19.008  35.201  1.00  0.00    -0.237 OA
ATOM     96  O   UNL A   1      47.866  20.341  36.171  1.00  0.00    -0.237 OA
ATOM     97  O   UNL A   1      45.693  20.229  37.324  1.00  0.00    -0.744 OA
ENDBRANCH  93  94
ENDBRANCH  61  86
ENDBRANCH  35  36
ENDBRANCH  27  30
ENDBRANCH  25  26
ENDBRANCH   1  25
TORSDOF 16
ENDMDL
MODEL 2
REMARK VINA RESULT:     -13.8      4.813     11.455
REMARK SMILES Cc1ccc(C(=O)c2cccc(C)c2C(=O)NCCCCNC(=O)c2ccc(-c3c4nc(c(-c5c(F)cc(S(=O)(=O)[O-])cc5F)c5ccc([nH]5)c(-c5c(F)cc(S(=O)(=O)[O-])cc5F)c5nc(c(-c6c(F)cc(S(=O)(=O)[O-])cc6F)c6ccc3[nH]6)C=C5)C=C4)cc2)c(C)c1
REMARK SMILES IDX 20 1 19 2 18 3 17 4 15 5 16 6 14 8 8 9 9 10 10 11 12 12
REMARK SMILES IDX 11 13 13 14 6 15 7 16 5 17 1 18 2 19 3 20 93 21 4 22 91 23
REMARK SMILES IDX 92 24 21 25 22 26 23 27 24 29 25 30 26 31 90 32 27 33 89 34
REMARK SMILES IDX 28 35 29 36 30 37 83 38 31 39 88 40 82 41 84 42 32 43 87 44
REMARK SMILES IDX 81 45 80 46 33 48 67 49 46 50 66 51 47 52 50 53 65 54 85 55
REMARK SMILES IDX 48 56 49 57 64 59 86 60 51 61 34 62 35 63 44 64 36 65 37 66
REMARK SMILES IDX 43 67 45 68 38 69 39 70 40 71 41 72 42 73 68 74 69 75 78 76
REMARK SMILES IDX 70 77 71 78 77 79 79 80 72 81 73 82 74 83 75 84 76 85 52 86
REMARK SMILES IDX 53 87 62 88 54 89 55 90 61 91 63 92 56 93 57 94 58 95 59 96
REMARK SMILES IDX 60 97
REMARK H PARENT 17 7 22 28 84 47 50 58
REMARK Flexibility Score: inf
ROOT
ATOM      1  C   UNL A   1      38.076  21.822  25.651  1.00  0.00     0.023 C 
ENDROOT
BRANCH   1   2
ATOM      2  C   UNL A   1      36.878  21.896  24.707  1.00  0.00     0.023 C 
BRANCH   2   3
ATOM      3  C   UNL A   1      36.011  23.153  24.814  1.00  0.00     0.116 C 
BRANCH   3   4
ATOM      4  N   UNL A   1      35.263  23.509  23.622  1.00  0.00    -0.352 N 
ATOM      5  C   UNL A   1      33.960  23.920  23.419  1.00  0.00     0.252 C 
ATOM      6  O   UNL A   1      33.684  24.297  22.279  1.00  0.00    -0.269 OA
ATOM      7  H   UNL A   1      35.789  23.446  22.793  1.00  0.00     0.163 HD
BRANCH   5   8
ATOM      8  C   UNL A   1      32.868  23.821  24.452  1.00  0.00     0.053 A 
ATOM      9  C   UNL A   1      32.493  24.891  25.286  1.00  0.00     0.036 A 
ATOM     10  C   UNL A   1      31.502  24.738  26.276  1.00  0.00     0.013 A 
ATOM     11  C   UNL A   1      30.849  23.526  26.434  1.00  0.00     0.001 A 
ATOM     12  C   UNL A   1      32.101  22.628  24.542  1.00  0.00    -0.038 A 
ATOM     13  C   UNL A   1      31.121  22.491  25.548  1.00  0.00     0.004 A 
ATOM     14  C   UNL A   1      32.199  21.515  23.527  1.00  0.00     0.045 C 
BRANCH   9  15
ATOM     15  C   UNL A   1      32.855  26.272  24.938  1.00  0.00     0.194 C 
ATOM     16  O   UNL A   1      34.025  26.559  25.163  1.00  0.00    -0.289 OA
BRANCH  15  17
ATOM     17  C   UNL A   1      31.900  27.218  24.262  1.00  0.00     0.025 A 
ATOM     18  C   UNL A   1      29.364  30.087  22.248  1.00  0.00     0.044 C 
ATOM     19  C   UNL A   1      30.249  29.075  22.915  1.00  0.00    -0.051 A 
ATOM     20  C   UNL A   1      30.562  27.860  22.316  1.00  0.00     0.004 A 
ATOM     21  C   UNL A   1      30.723  29.326  24.204  1.00  0.00     0.007 A 
ATOM     22  C   UNL A   1      31.396  26.949  22.975  1.00  0.00     0.013 A 
ATOM     23  C   UNL A   1      31.474  28.380  24.921  1.00  0.00    -0.040 A 
ATOM     24  C   UNL A   1      31.752  28.668  26.370  1.00  0.00     0.045 C 
ENDBRANCH  15  17
ENDBRANCH   9  15
ENDBRANCH   5   8
ENDBRANCH   3   4
ENDBRANCH   2   3
ENDBRANCH   1   2
BRANCH   1  25
ATOM     25  C   UNL A   1      38.567  23.176  26.167  1.00  0.00     0.116 C 
BRANCH  25  26
ATOM     26  N   UNL A   1      39.781  23.025  26.972  1.00  0.00    -0.352 N 
ATOM     27  C   UNL A   1      40.533  23.978  27.627  1.00  0.00     0.251 C 
ATOM     28  H   UNL A   1      40.110  22.101  27.060  1.00  0.00     0.163 HD
ATOM     29  O   UNL A   1      41.611  23.700  28.152  1.00  0.00    -0.269 OA
BRANCH  27  30
ATOM     30  C   UNL A   1      39.975  25.333  27.751  1.00  0.00     0.039 A 
ATOM     31  C   UNL A   1      40.418  26.303  26.847  1.00  0.00     0.014 A 
ATOM     32  C   UNL A   1      39.270  25.680  28.899  1.00  0.00     0.014 A 
ATOM     33  C   UNL A   1      40.353  27.643  27.209  1.00  0.00     0.010 A 
ATOM     34  C   UNL A   1      39.300  27.001  29.300  1.00  0.00     0.010 A 
ATOM     35  C   UNL A   1      39.905  27.971  28.485  1.00  0.00    -0.014 A 
BRANCH  35  36
ATOM     36  C   UNL A   1      40.138  29.271  29.108  1.00  0.00     0.031 A 
ATOM     37  C   UNL A   1      39.067  30.294  29.107  1.00  0.00     0.074 A 
ATOM     38  C   UNL A   1      41.274  29.459  29.816  1.00  0.00     0.049 A 
ATOM     39  N   UNL A   1      39.205  31.524  29.470  1.00  0.00    -0.248 NA
ATOM     40  C   UNL A   1      37.727  29.991  28.617  1.00  0.00     0.031 C 
ATOM     41  C   UNL A   1      41.506  30.448  30.863  1.00  0.00     0.029 A 
ATOM     42  N   UNL A   1      42.536  28.890  29.585  1.00  0.00    -0.354 N 
ATOM     43  C   UNL A   1      37.953  32.103  29.504  1.00  0.00     0.074 A 
ATOM     44  C   UNL A   1      37.075  31.116  28.921  1.00  0.00     0.031 C 
ATOM     45  C   UNL A   1      42.829  30.592  31.040  1.00  0.00     0.029 A 
ATOM     46  C   UNL A   1      43.485  29.856  29.969  1.00  0.00     0.049 A 
ATOM     47  H   UNL A   1      42.722  27.992  29.226  1.00  0.00     0.167 HD
ATOM     48  C   UNL A   1      37.785  33.304  30.132  1.00  0.00     0.037 A 
ATOM     49  C   UNL A   1      44.338  30.434  29.072  1.00  0.00     0.037 A 
ATOM     50  C   UNL A   1      39.076  33.869  30.526  1.00  0.00     0.049 A 
ATOM     51  C   UNL A   1      44.214  31.930  28.994  1.00  0.00     0.074 A 
ATOM     52  C   UNL A   1      39.789  33.829  31.714  1.00  0.00     0.029 A 
ATOM     53  N   UNL A   1      39.964  34.310  29.548  1.00  0.00    -0.354 N 
ATOM     54  N   UNL A   1      43.132  32.589  29.304  1.00  0.00    -0.248 NA
ATOM     55  C   UNL A   1      45.304  32.796  28.559  1.00  0.00     0.031 C 
ATOM     56  C   UNL A   1      41.134  34.171  31.429  1.00  0.00     0.029 A 
ATOM     57  C   UNL A   1      41.236  34.447  30.075  1.00  0.00     0.049 A 
ATOM     58  H   UNL A   1      39.722  34.498  28.613  1.00  0.00     0.167 HD
ATOM     59  C   UNL A   1      43.342  33.922  29.080  1.00  0.00     0.074 A 
ATOM     60  C   UNL A   1      44.723  34.004  28.641  1.00  0.00     0.031 C 
ATOM     61  C   UNL A   1      42.362  34.856  29.248  1.00  0.00     0.037 A 
BRANCH  48  62
ATOM     62  C   UNL A   1      36.444  33.799  30.660  1.00  0.00     0.058 A 
ATOM     63  C   UNL A   1      35.437  34.238  29.770  1.00  0.00     0.135 A 
ATOM     64  C   UNL A   1      36.114  33.949  32.021  1.00  0.00     0.135 A 
ATOM     65  F   UNL A   1      35.546  34.063  28.446  1.00  0.00    -0.206 F 
ATOM     66  C   UNL A   1      34.270  34.886  30.192  1.00  0.00     0.059 A 
ATOM     67  C   UNL A   1      34.985  34.647  32.469  1.00  0.00     0.059 A 
ATOM     68  F   UNL A   1      36.839  33.367  32.983  1.00  0.00    -0.206 F 
ATOM     69  C   UNL A   1      34.071  35.125  31.544  1.00  0.00     0.060 A 
BRANCH  69  70
ATOM     70  S   UNL A   1      32.608  36.040  32.068  1.00  0.00     0.124 S 
ATOM     71  O   UNL A   1      33.140  36.900  33.120  1.00  0.00    -0.237 OA
ATOM     72  O   UNL A   1      32.212  36.712  30.837  1.00  0.00    -0.237 OA
ATOM     73  O   UNL A   1      31.699  34.992  32.528  1.00  0.00    -0.744 OA
ENDBRANCH  69  70
ENDBRANCH  48  62
BRANCH  49  74
ATOM     74  C   UNL A   1      44.750  29.571  27.929  1.00  0.00     0.058 A 
ATOM     75  C   UNL A   1      45.855  28.727  28.097  1.00  0.00     0.135 A 
ATOM     76  C   UNL A   1      43.841  29.246  26.912  1.00  0.00     0.135 A 
ATOM     77  F   UNL A   1      46.805  29.035  28.995  1.00  0.00    -0.206 F 
ATOM     78  C   UNL A   1      45.920  27.488  27.468  1.00  0.00     0.059 A 
ATOM     79  C   UNL A   1      43.894  28.011  26.263  1.00  0.00     0.059 A 
ATOM     80  F   UNL A   1      42.800  30.051  26.656  1.00  0.00    -0.206 F 
ATOM     81  C   UNL A   1      44.875  27.099  26.639  1.00  0.00     0.060 A 
BRANCH  81  82
ATOM     82  S   UNL A   1      44.715  25.341  26.246  1.00  0.00     0.124 S 
ATOM     83  O   UNL A   1      44.585  24.735  27.568  1.00  0.00    -0.237 OA
ATOM     84  O   UNL A   1      43.501  25.339  25.432  1.00  0.00    -0.237 OA
ATOM     85  O   UNL A   1      45.954  25.045  25.536  1.00  0.00    -0.744 OA
ENDBRANCH  81  82
ENDBRANCH  49  74
BRANCH  61  86
ATOM     86  C   UNL A   1      42.448  36.264  28.723  1.00  0.00     0.058 A 
ATOM     87  C   UNL A   1      43.116  37.299  29.403  1.00  0.00     0.135 A 
ATOM     88  C   UNL A   1      41.969  36.587  27.433  1.00  0.00     0.135 A 
ATOM     89  F   UNL A   1      43.727  37.082  30.577  1.00  0.00    -0.206 F 
ATOM     90  C   UNL A   1      43.223  38.588  28.887  1.00  0.00     0.059 A 
ATOM     91  C   UNL A   1      42.116  37.855  26.874  1.00  0.00     0.059 A 
ATOM     92  F   UNL A   1      41.356  35.672  26.669  1.00  0.00    -0.206 F 
ATOM     93  C   UNL A   1      42.716  38.860  27.622  1.00  0.00     0.060 A 
BRANCH  93  94
ATOM     94  S   UNL A   1      42.899  40.512  26.926  1.00  0.00     0.124 S 
ATOM     95  O   UNL A   1      43.488  41.236  28.048  1.00  0.00    -0.237 OA
ATOM     96  O   UNL A   1      43.786  40.289  25.788  1.00  0.00    -0.237 OA
ATOM     97  O   UNL A   1      41.530  40.879  26.581  1.00  0.00    -0.744 OA
ENDBRANCH  93  94
ENDBRANCH  61  86
ENDBRANCH  35  36
ENDBRANCH  27  30
ENDBRANCH  25  26
ENDBRANCH   1  25
TORSDOF 16
ENDMDL
MODEL 3
REMARK VINA RESULT:     -13.7      1.258      3.056
REMARK SMILES Cc1ccc(C(=O)c2cccc(C)c2C(=O)NCCCCNC(=O)c2ccc(-c3c4nc(c(-c5c(F)cc(S(=O)(=O)[O-])cc5F)c5ccc([nH]5)c(-c5c(F)cc(S(=O)(=O)[O-])cc5F)c5nc(c(-c6c(F)cc(S(=O)(=O)[O-])cc6F)c6ccc3[nH]6)C=C5)C=C4)cc2)c(C)c1
REMARK SMILES IDX 20 1 19 2 18 3 17 4 15 5 16 6 14 8 8 9 9 10 10 11 12 12
REMARK SMILES IDX 11 13 13 14 6 15 7 16 5 17 1 18 2 19 3 20 93 21 4 22 91 23
REMARK SMILES IDX 92 24 21 25 22 26 23 27 24 29 25 30 26 31 90 32 27 33 89 34
REMARK SMILES IDX 28 35 29 36 30 37 83 38 31 39 88 40 82 41 84 42 32 43 87 44
REMARK SMILES IDX 81 45 80 46 33 48 67 49 46 50 66 51 47 52 50 53 65 54 85 55
REMARK SMILES IDX 48 56 49 57 64 59 86 60 51 61 34 62 35 63 44 64 36 65 37 66
REMARK SMILES IDX 43 67 45 68 38 69 39 70 40 71 41 72 42 73 68 74 69 75 78 76
REMARK SMILES IDX 70 77 71 78 77 79 79 80 72 81 73 82 74 83 75 84 76 85 52 86
REMARK SMILES IDX 53 87 62 88 54 89 55 90 61 91 63 92 56 93 57 94 58 95 59 96
REMARK SMILES IDX 60 97
REMARK H PARENT 17 7 22 28 84 47 50 58
REMARK Flexibility Score: inf
ROOT
ATOM      1  C   UNL A   1      32.929  30.410  27.324  1.00  0.00     0.023 C 
ENDROOT
BRANCH   1   2
ATOM      2  C   UNL A   1      32.056  29.158  27.272  1.00  0.00     0.023 C 
BRANCH   2   3
ATOM      3  C   UNL A   1      32.693  27.918  26.640  1.00  0.00     0.116 C 
BRANCH   3   4
ATOM      4  N   UNL A   1      32.045  26.652  26.939  1.00  0.00    -0.352 N 
ATOM      5  C   UNL A   1      31.856  25.498  26.206  1.00  0.00     0.252 C 
ATOM      6  O   UNL A   1      31.392  24.537  26.821  1.00  0.00    -0.269 OA
ATOM      7  H   UNL A   1      31.666  26.609  27.846  1.00  0.00     0.163 HD
BRANCH   5   8
ATOM      8  C   UNL A   1      32.066  25.394  24.718  1.00  0.00     0.053 A 
ATOM      9  C   UNL A   1      31.063  25.679  23.772  1.00  0.00     0.036 A 
ATOM     10  C   UNL A   1      31.288  25.516  22.391  1.00  0.00     0.013 A 
ATOM     11  C   UNL A   1      32.523  25.094  21.926  1.00  0.00     0.001 A 
ATOM     12  C   UNL A   1      33.361  25.087  24.217  1.00  0.00    -0.038 A 
ATOM     13  C   UNL A   1      33.562  24.918  22.832  1.00  0.00     0.004 A 
ATOM     14  C   UNL A   1      34.588  25.043  25.097  1.00  0.00     0.045 C 
BRANCH   9  15
ATOM     15  C   UNL A   1      29.886  26.473  24.149  1.00  0.00     0.194 C 
ATOM     16  O   UNL A   1      29.302  26.067  25.148  1.00  0.00    -0.289 OA
BRANCH  15  17
ATOM     17  C   UNL A   1      29.494  27.738  23.435  1.00  0.00     0.025 A 
ATOM     18  C   UNL A   1      28.423  31.255  21.154  1.00  0.00     0.044 C 
ATOM     19  C   UNL A   1      28.761  30.023  21.940  1.00  0.00    -0.051 A 
ATOM     20  C   UNL A   1      27.779  29.176  22.444  1.00  0.00     0.004 A 
ATOM     21  C   UNL A   1      30.097  29.745  22.235  1.00  0.00     0.007 A 
ATOM     22  C   UNL A   1      28.143  28.035  23.167  1.00  0.00     0.013 A 
ATOM     23  C   UNL A   1      30.474  28.662  23.047  1.00  0.00    -0.040 A 
ATOM     24  C   UNL A   1      31.914  28.580  23.470  1.00  0.00     0.045 C 
ENDBRANCH  15  17
ENDBRANCH   9  15
ENDBRANCH   5   8
ENDBRANCH   3   4
ENDBRANCH   2   3
ENDBRANCH   1   2
BRANCH   1  25
ATOM     25  C   UNL A   1      34.430  30.148  27.178  1.00  0.00     0.116 C 
BRANCH  25  26
ATOM     26  N   UNL A   1      35.215  31.229  27.777  1.00  0.00    -0.352 N 
ATOM     27  C   UNL A   1      36.420  31.183  28.447  1.00  0.00     0.251 C 
ATOM     28  H   UNL A   1      34.822  32.128  27.688  1.00  0.00     0.163 HD
ATOM     29  O   UNL A   1      36.883  32.173  29.013  1.00  0.00    -0.269 OA
BRANCH  27  30
ATOM     30  C   UNL A   1      37.185  29.927  28.406  1.00  0.00     0.039 A 
ATOM     31  C   UNL A   1      37.192  29.132  29.556  1.00  0.00     0.014 A 
ATOM     32  C   UNL A   1      38.086  29.709  27.368  1.00  0.00     0.014 A 
ATOM     33  C   UNL A   1      38.254  28.261  29.767  1.00  0.00     0.010 A 
ATOM     34  C   UNL A   1      39.190  28.920  27.626  1.00  0.00     0.010 A 
ATOM     35  C   UNL A   1      39.305  28.252  28.856  1.00  0.00    -0.014 A 
BRANCH  35  36
ATOM     36  C   UNL A   1      40.617  27.681  29.149  1.00  0.00     0.031 A 
ATOM     37  C   UNL A   1      40.943  26.309  28.696  1.00  0.00     0.074 A 
ATOM     38  C   UNL A   1      41.567  28.475  29.690  1.00  0.00     0.049 A 
ATOM     39  N   UNL A   1      41.991  25.637  29.035  1.00  0.00    -0.248 NA
ATOM     40  C   UNL A   1      40.034  25.555  27.840  1.00  0.00     0.031 C 
ATOM     41  C   UNL A   1      43.012  28.280  29.640  1.00  0.00     0.029 A 
ATOM     42  N   UNL A   1      41.389  29.551  30.575  1.00  0.00    -0.354 N 
ATOM     43  C   UNL A   1      42.029  24.490  28.269  1.00  0.00     0.074 A 
ATOM     44  C   UNL A   1      40.763  24.468  27.575  1.00  0.00     0.031 C 
ATOM     45  C   UNL A   1      43.585  29.025  30.598  1.00  0.00     0.029 A 
ATOM     46  C   UNL A   1      42.511  29.557  31.424  1.00  0.00     0.049 A 
ATOM     47  H   UNL A   1      40.630  30.178  30.596  1.00  0.00     0.167 HD
ATOM     48  C   UNL A   1      43.178  23.753  28.220  1.00  0.00     0.037 A 
ATOM     49  C   UNL A   1      42.408  29.324  32.767  1.00  0.00     0.037 A 
ATOM     50  C   UNL A   1      44.158  24.255  29.183  1.00  0.00     0.049 A 
ATOM     51  C   UNL A   1      43.212  28.147  33.241  1.00  0.00     0.074 A 
ATOM     52  C   UNL A   1      45.221  25.136  29.060  1.00  0.00     0.029 A 
ATOM     53  N   UNL A   1      43.922  24.112  30.548  1.00  0.00    -0.354 N 
ATOM     54  N   UNL A   1      43.552  27.142  32.481  1.00  0.00    -0.248 NA
ATOM     55  C   UNL A   1      43.694  28.013  34.611  1.00  0.00     0.031 C 
ATOM     56  C   UNL A   1      45.570  25.585  30.357  1.00  0.00     0.029 A 
ATOM     57  C   UNL A   1      44.741  24.958  31.273  1.00  0.00     0.049 A 
ATOM     58  H   UNL A   1      43.264  23.495  30.942  1.00  0.00     0.167 HD
ATOM     59  C   UNL A   1      44.237  26.227  33.232  1.00  0.00     0.074 A 
ATOM     60  C   UNL A   1      44.324  26.829  34.551  1.00  0.00     0.031 C 
ATOM     61  C   UNL A   1      44.662  25.034  32.724  1.00  0.00     0.037 A 
BRANCH  48  62
ATOM     62  C   UNL A   1      43.515  22.791  27.087  1.00  0.00     0.058 A 
ATOM     63  C   UNL A   1      42.846  21.552  26.970  1.00  0.00     0.135 A 
ATOM     64  C   UNL A   1      44.537  22.984  26.136  1.00  0.00     0.135 A 
ATOM     65  F   UNL A   1      41.777  21.258  27.725  1.00  0.00    -0.206 F 
ATOM     66  C   UNL A   1      43.242  20.546  26.081  1.00  0.00     0.059 A 
ATOM     67  C   UNL A   1      44.993  21.975  25.279  1.00  0.00     0.059 A 
ATOM     68  F   UNL A   1      45.098  24.185  25.950  1.00  0.00    -0.206 F 
ATOM     69  C   UNL A   1      44.346  20.750  25.266  1.00  0.00     0.060 A 
BRANCH  69  70
ATOM     70  S   UNL A   1      44.903  19.415  24.189  1.00  0.00     0.124 S 
ATOM     71  O   UNL A   1      44.478  19.881  22.873  1.00  0.00    -0.237 OA
ATOM     72  O   UNL A   1      46.341  19.411  24.428  1.00  0.00    -0.237 OA
ATOM     73  O   UNL A   1      44.182  18.249  24.694  1.00  0.00    -0.744 OA
ENDBRANCH  69  70
ENDBRANCH  48  62
BRANCH  49  74
ATOM     74  C   UNL A   1      41.139  29.777  33.402  1.00  0.00     0.058 A 
ATOM     75  C   UNL A   1      41.050  31.103  33.842  1.00  0.00     0.135 A 
ATOM     76  C   UNL A   1      39.935  29.097  33.163  1.00  0.00     0.135 A 
ATOM     77  F   UNL A   1      42.165  31.777  34.171  1.00  0.00    -0.206 F 
ATOM     78  C   UNL A   1      39.848  31.801  33.797  1.00  0.00     0.059 A 
ATOM     79  C   UNL A   1      38.716  29.778  33.123  1.00  0.00     0.059 A 
ATOM     80  F   UNL A   1      39.950  27.804  32.807  1.00  0.00    -0.206 F 
ATOM     81  C   UNL A   1      38.711  31.153  33.329  1.00  0.00     0.060 A 
BRANCH  81  82
ATOM     82  S   UNL A   1      37.313  32.171  32.801  1.00  0.00     0.124 S 
ATOM     83  O   UNL A   1      37.952  33.151  31.929  1.00  0.00    -0.237 OA
ATOM     84  O   UNL A   1      36.477  31.180  32.126  1.00  0.00    -0.237 OA
ATOM     85  O   UNL A   1      36.788  32.693  34.057  1.00  0.00    -0.744 OA
ENDBRANCH  81  82
ENDBRANCH  49  74
BRANCH  61  86
ATOM     86  C   UNL A   1      45.133  23.882  33.573  1.00  0.00     0.058 A 
ATOM     87  C   UNL A   1      46.364  23.881  34.253  1.00  0.00     0.135 A 
ATOM     88  C   UNL A   1      44.283  22.785  33.840  1.00  0.00     0.135 A 
ATOM     89  F   UNL A   1      47.201  24.927  34.183  1.00  0.00    -0.206 F 
ATOM     90  C   UNL A   1      46.770  22.826  35.067  1.00  0.00     0.059 A 
ATOM     91  C   UNL A   1      44.646  21.747  34.696  1.00  0.00     0.059 A 
ATOM     92  F   UNL A   1      43.065  22.696  33.287  1.00  0.00    -0.206 F 
ATOM     93  C   UNL A   1      45.906  21.759  35.280  1.00  0.00     0.060 A 
BRANCH  93  94
ATOM     94  S   UNL A   1      46.403  20.417  36.375  1.00  0.00     0.124 S 
ATOM     95  O   UNL A   1      47.797  20.227  35.987  1.00  0.00    -0.237 OA
ATOM     96  O   UNL A   1      46.193  20.986  37.704  1.00  0.00    -0.237 OA
ATOM     97  O   UNL A   1      45.489  19.339  36.013  1.00  0.00    -0.744 OA
ENDBRANCH  93  94
ENDBRANCH  61  86
ENDBRANCH  35  36
ENDBRANCH  27  30
ENDBRANCH  25  26
ENDBRANCH   1  25
TORSDOF 16
ENDMDL
