MODEL 1
REMARK VINA RESULT:     -10.4      0.000      0.000
REMARK SMILES [NH3+][C@@H](C(=O)NCCCCNC(=O)c1ccc(-c2c3nc(c(-c4c(F)cc(S(=O)(=O)[O-])cc4F)c4ccc([nH]4)c(-c4c(F)cc(S(=O)(=O)[O-])cc4F)c4nc(c(-c5c(F)cc(S(=O)(=O)[O-])cc5F)c5ccc2[nH]5)C=C4)C=C3)cc1)[C@@H](O)c1cccs1
REMARK SMILES IDX 8 1 7 2 6 3 5 4 3 5 4 6 2 8 1 9 79 13 80 14 81 16 82 17
REMARK SMILES IDX 85 18 83 19 84 20 9 21 10 22 11 23 12 25 13 26 14 27 78 28
REMARK SMILES IDX 15 29 77 30 16 31 17 32 18 33 71 34 19 35 76 36 70 37 72 38
REMARK SMILES IDX 20 39 75 40 69 41 68 42 21 44 55 45 34 46 54 47 35 48 38 49
REMARK SMILES IDX 53 50 73 51 36 52 37 53 52 55 74 56 39 57 22 58 23 59 32 60
REMARK SMILES IDX 24 61 25 62 31 63 33 64 26 65 27 66 28 67 29 68 30 69 56 70
REMARK SMILES IDX 57 71 66 72 58 73 59 74 65 75 67 76 60 77 61 78 62 79 63 80
REMARK SMILES IDX 64 81 40 82 41 83 50 84 42 85 43 86 49 87 51 88 44 89 45 90
REMARK SMILES IDX 46 91 47 92 48 93
REMARK H PARENT 5 7 1 10 1 11 1 12 80 15 10 24 72 43 38 54
REMARK Flexibility Score: inf
ROOT
ATOM      1  C   UNL A   1      40.764  21.141  27.457  1.00  0.00     0.023 C 
ENDROOT
BRANCH   1   2
ATOM      2  C   UNL A   1      41.721  19.945  27.481  1.00  0.00     0.023 C 
BRANCH   2   3
ATOM      3  C   UNL A   1      42.208  19.491  26.103  1.00  0.00     0.116 C 
BRANCH   3   4
ATOM      4  N   UNL A   1      43.373  18.633  26.219  1.00  0.00    -0.351 N 
ATOM      5  C   UNL A   1      44.541  18.649  25.510  1.00  0.00     0.281 C 
ATOM      6  O   UNL A   1      45.320  17.706  25.649  1.00  0.00    -0.268 OA
ATOM      7  H   UNL A   1      43.313  17.937  26.912  1.00  0.00     0.163 HD
BRANCH   5   8
ATOM      8  C   UNL A   1      44.805  19.793  24.520  1.00  0.00     0.305 C 
BRANCH   8   9
ATOM      9  N   UNL A   1      45.544  19.263  23.326  1.00  0.00    -0.345 N 
ATOM     10  H   UNL A   1      46.096  20.011  22.907  1.00  0.00     0.345 HD
ATOM     11  H   UNL A   1      44.875  18.909  22.641  1.00  0.00     0.345 HD
ATOM     12  H   UNL A   1      46.163  18.506  23.618  1.00  0.00     0.345 HD
ENDBRANCH   8   9
BRANCH   8  13
ATOM     13  C   UNL A   1      45.650  20.912  25.176  1.00  0.00     0.222 C 
BRANCH  13  14
ATOM     14  O   UNL A   1      46.720  21.267  24.284  1.00  0.00    -0.381 OA
ATOM     15  H   UNL A   1      46.526  20.932  23.395  1.00  0.00     0.211 HD
ENDBRANCH  13  14
BRANCH  13  16
ATOM     16  C   UNL A   1      44.930  22.191  25.512  1.00  0.00     0.040 A 
ATOM     17  C   UNL A   1      44.675  22.679  26.781  1.00  0.00     0.018 A 
ATOM     18  S   UNL A   1      44.303  23.248  24.314  1.00  0.00    -0.146 S 
ATOM     19  C   UNL A   1      43.918  23.885  26.768  1.00  0.00     0.012 A 
ATOM     20  C   UNL A   1      43.630  24.293  25.487  1.00  0.00     0.065 A 
ENDBRANCH  13  16
ENDBRANCH   8  13
ENDBRANCH   5   8
ENDBRANCH   3   4
ENDBRANCH   2   3
ENDBRANCH   1   2
BRANCH   1  21
ATOM     21  C   UNL A   1      40.796  21.972  26.178  1.00  0.00     0.116 C 
BRANCH  21  22
ATOM     22  N   UNL A   1      39.467  22.328  25.704  1.00  0.00    -0.352 N 
ATOM     23  C   UNL A   1      38.721  23.443  26.007  1.00  0.00     0.251 C 
ATOM     24  H   UNL A   1      39.048  21.688  25.086  1.00  0.00     0.163 HD
ATOM     25  O   UNL A   1      37.557  23.529  25.629  1.00  0.00    -0.269 OA
BRANCH  23  26
ATOM     26  C   UNL A   1      39.325  24.518  26.821  1.00  0.00     0.039 A 
ATOM     27  C   UNL A   1      40.150  25.460  26.200  1.00  0.00     0.014 A 
ATOM     28  C   UNL A   1      39.041  24.617  28.185  1.00  0.00     0.014 A 
ATOM     29  C   UNL A   1      40.630  26.548  26.934  1.00  0.00     0.010 A 
ATOM     30  C   UNL A   1      39.470  25.732  28.898  1.00  0.00     0.010 A 
ATOM     31  C   UNL A   1      40.260  26.713  28.278  1.00  0.00    -0.014 A 
BRANCH  31  32
ATOM     32  C   UNL A   1      40.666  27.908  29.060  1.00  0.00     0.031 A 
ATOM     33  C   UNL A   1      41.945  27.888  29.849  1.00  0.00     0.074 A 
ATOM     34  C   UNL A   1      39.828  28.959  29.155  1.00  0.00     0.049 A 
ATOM     35  N   UNL A   1      42.396  28.757  30.714  1.00  0.00    -0.248 NA
ATOM     36  C   UNL A   1      42.814  26.715  29.662  1.00  0.00     0.031 C 
ATOM     37  C   UNL A   1      38.534  29.073  28.480  1.00  0.00     0.029 A 
ATOM     38  N   UNL A   1      39.925  30.117  29.886  1.00  0.00    -0.354 N 
ATOM     39  C   UNL A   1      43.582  28.223  31.202  1.00  0.00     0.074 A 
ATOM     40  C   UNL A   1      43.762  26.939  30.560  1.00  0.00     0.031 C 
ATOM     41  C   UNL A   1      37.955  30.231  28.834  1.00  0.00     0.029 A 
ATOM     42  C   UNL A   1      38.816  30.924  29.789  1.00  0.00     0.049 A 
ATOM     43  H   UNL A   1      40.714  30.347  30.429  1.00  0.00     0.167 HD
ATOM     44  C   UNL A   1      44.447  28.761  32.096  1.00  0.00     0.037 A 
ATOM     45  C   UNL A   1      38.513  32.078  30.415  1.00  0.00     0.037 A 
ATOM     46  C   UNL A   1      44.277  30.054  32.704  1.00  0.00     0.049 A 
ATOM     47  C   UNL A   1      39.500  32.675  31.380  1.00  0.00     0.074 A 
ATOM     48  C   UNL A   1      45.138  30.724  33.554  1.00  0.00     0.029 A 
ATOM     49  N   UNL A   1      43.169  30.870  32.529  1.00  0.00    -0.354 N 
ATOM     50  N   UNL A   1      40.656  32.193  31.773  1.00  0.00    -0.248 NA
ATOM     51  C   UNL A   1      39.151  33.968  31.981  1.00  0.00     0.031 C 
ATOM     52  C   UNL A   1      44.534  31.931  33.924  1.00  0.00     0.029 A 
ATOM     53  C   UNL A   1      43.315  32.030  33.272  1.00  0.00     0.049 A 
ATOM     54  H   UNL A   1      42.394  30.658  31.962  1.00  0.00     0.167 HD
ATOM     55  C   UNL A   1      41.181  33.134  32.652  1.00  0.00     0.074 A 
ATOM     56  C   UNL A   1      40.219  34.217  32.728  1.00  0.00     0.031 C 
ATOM     57  C   UNL A   1      42.354  33.104  33.329  1.00  0.00     0.037 A 
BRANCH  44  58
ATOM     58  C   UNL A   1      45.648  27.940  32.473  1.00  0.00     0.058 A 
ATOM     59  C   UNL A   1      46.858  28.032  31.765  1.00  0.00     0.135 A 
ATOM     60  C   UNL A   1      45.590  27.050  33.557  1.00  0.00     0.135 A 
ATOM     61  F   UNL A   1      46.964  28.858  30.712  1.00  0.00    -0.206 F 
ATOM     62  C   UNL A   1      47.951  27.237  32.088  1.00  0.00     0.059 A 
ATOM     63  C   UNL A   1      46.681  26.265  33.916  1.00  0.00     0.059 A 
ATOM     64  F   UNL A   1      44.460  26.925  34.270  1.00  0.00    -0.206 F 
ATOM     65  C   UNL A   1      47.851  26.349  33.160  1.00  0.00     0.060 A 
BRANCH  65  66
ATOM     66  S   UNL A   1      49.266  25.298  33.551  1.00  0.00     0.124 S 
ATOM     67  O   UNL A   1      48.627  24.221  34.299  1.00  0.00    -0.237 OA
ATOM     68  O   UNL A   1      49.767  24.939  32.228  1.00  0.00    -0.237 OA
ATOM     69  O   UNL A   1      50.134  26.176  34.330  1.00  0.00    -0.744 OA
ENDBRANCH  65  66
ENDBRANCH  44  58
BRANCH  45  70
ATOM     70  C   UNL A   1      37.215  32.742  30.132  1.00  0.00     0.058 A 
ATOM     71  C   UNL A   1      36.093  32.508  30.940  1.00  0.00     0.135 A 
ATOM     72  C   UNL A   1      37.088  33.671  29.087  1.00  0.00     0.135 A 
ATOM     73  F   UNL A   1      36.165  31.624  31.946  1.00  0.00    -0.206 F 
ATOM     74  C   UNL A   1      34.890  33.171  30.724  1.00  0.00     0.059 A 
ATOM     75  C   UNL A   1      35.900  34.361  28.864  1.00  0.00     0.059 A 
ATOM     76  F   UNL A   1      38.138  33.942  28.297  1.00  0.00    -0.206 F 
ATOM     77  C   UNL A   1      34.805  34.103  29.688  1.00  0.00     0.060 A 
BRANCH  77  78
ATOM     78  S   UNL A   1      33.267  35.025  29.474  1.00  0.00     0.124 S 
ATOM     79  O   UNL A   1      32.596  34.241  28.443  1.00  0.00    -0.237 OA
ATOM     80  O   UNL A   1      32.682  34.961  30.808  1.00  0.00    -0.237 OA
ATOM     81  O   UNL A   1      33.726  36.349  29.063  1.00  0.00    -0.744 OA
ENDBRANCH  77  78
ENDBRANCH  45  70
BRANCH  57  82
ATOM     82  C   UNL A   1      42.691  34.284  34.196  1.00  0.00     0.058 A 
ATOM     83  C   UNL A   1      42.436  34.279  35.575  1.00  0.00     0.135 A 
ATOM     84  C   UNL A   1      43.364  35.391  33.654  1.00  0.00     0.135 A 
ATOM     85  F   UNL A   1      41.788  33.248  36.139  1.00  0.00    -0.206 F 
ATOM     86  C   UNL A   1      42.838  35.334  36.390  1.00  0.00     0.059 A 
ATOM     87  C   UNL A   1      43.793  36.446  34.453  1.00  0.00     0.059 A 
ATOM     88  F   UNL A   1      43.637  35.439  32.340  1.00  0.00    -0.206 F 
ATOM     89  C   UNL A   1      43.524  36.409  35.821  1.00  0.00     0.060 A 
BRANCH  89  90
ATOM     90  S   UNL A   1      44.106  37.735  36.898  1.00  0.00     0.124 S 
ATOM     91  O   UNL A   1      44.153  38.864  35.977  1.00  0.00    -0.237 OA
ATOM     92  O   UNL A   1      43.063  37.791  37.918  1.00  0.00    -0.237 OA
ATOM     93  O   UNL A   1      45.401  37.249  37.364  1.00  0.00    -0.744 OA
ENDBRANCH  89  90
ENDBRANCH  57  82
ENDBRANCH  31  32
ENDBRANCH  23  26
ENDBRANCH  21  22
ENDBRANCH   1  21
TORSDOF 18
ENDMDL
MODEL 2
REMARK VINA RESULT:     -10.2      4.985     11.904
REMARK SMILES [NH3+][C@@H](C(=O)NCCCCNC(=O)c1ccc(-c2c3nc(c(-c4c(F)cc(S(=O)(=O)[O-])cc4F)c4ccc([nH]4)c(-c4c(F)cc(S(=O)(=O)[O-])cc4F)c4nc(c(-c5c(F)cc(S(=O)(=O)[O-])cc5F)c5ccc2[nH]5)C=C4)C=C3)cc1)[C@@H](O)c1cccs1
REMARK SMILES IDX 8 1 7 2 6 3 5 4 3 5 4 6 2 8 1 9 79 13 80 14 81 16 82 17
REMARK SMILES IDX 85 18 83 19 84 20 9 21 10 22 11 23 12 25 13 26 14 27 78 28
REMARK SMILES IDX 15 29 77 30 16 31 17 32 18 33 71 34 19 35 76 36 70 37 72 38
REMARK SMILES IDX 20 39 75 40 69 41 68 42 21 44 55 45 34 46 54 47 35 48 38 49
REMARK SMILES IDX 53 50 73 51 36 52 37 53 52 55 74 56 39 57 22 58 23 59 32 60
REMARK SMILES IDX 24 61 25 62 31 63 33 64 26 65 27 66 28 67 29 68 30 69 56 70
REMARK SMILES IDX 57 71 66 72 58 73 59 74 65 75 67 76 60 77 61 78 62 79 63 80
REMARK SMILES IDX 64 81 40 82 41 83 50 84 42 85 43 86 49 87 51 88 44 89 45 90
REMARK SMILES IDX 46 91 47 92 48 93
REMARK H PARENT 5 7 1 10 1 11 1 12 80 15 10 24 72 43 38 54
REMARK Flexibility Score: inf
ROOT
ATOM      1  C   UNL A   1      33.182  28.006  26.208  1.00  0.00     0.023 C 
ENDROOT
BRANCH   1   2
ATOM      2  C   UNL A   1      31.696  28.052  25.840  1.00  0.00     0.023 C 
BRANCH   2   3
ATOM      3  C   UNL A   1      31.320  29.152  24.845  1.00  0.00     0.116 C 
BRANCH   3   4
ATOM      4  N   UNL A   1      31.274  28.635  23.490  1.00  0.00    -0.351 N 
ATOM      5  C   UNL A   1      30.241  28.049  22.815  1.00  0.00     0.281 C 
ATOM      6  O   UNL A   1      30.481  27.512  21.733  1.00  0.00    -0.268 OA
ATOM      7  H   UNL A   1      32.113  28.719  22.981  1.00  0.00     0.163 HD
BRANCH   5   8
ATOM      8  C   UNL A   1      28.846  28.016  23.456  1.00  0.00     0.305 C 
BRANCH   8   9
ATOM      9  N   UNL A   1      28.376  26.594  23.563  1.00  0.00    -0.345 N 
ATOM     10  H   UNL A   1      28.949  26.000  22.964  1.00  0.00     0.345 HD
ATOM     11  H   UNL A   1      27.401  26.536  23.268  1.00  0.00     0.345 HD
ATOM     12  H   UNL A   1      28.458  26.281  24.530  1.00  0.00     0.345 HD
ENDBRANCH   8   9
BRANCH   8  13
ATOM     13  C   UNL A   1      27.827  28.818  22.611  1.00  0.00     0.222 C 
BRANCH  13  14
ATOM     14  O   UNL A   1      26.519  28.654  23.184  1.00  0.00    -0.381 OA
ATOM     15  H   UNL A   1      25.975  28.103  22.599  1.00  0.00     0.211 HD
ENDBRANCH  13  14
BRANCH  13  16
ATOM     16  C   UNL A   1      28.063  30.301  22.499  1.00  0.00     0.040 A 
ATOM     17  C   UNL A   1      28.299  31.175  23.545  1.00  0.00     0.018 A 
ATOM     18  S   UNL A   1      28.060  31.133  20.997  1.00  0.00    -0.146 S 
ATOM     19  C   UNL A   1      28.420  32.527  23.119  1.00  0.00     0.012 A 
ATOM     20  C   UNL A   1      28.289  32.647  21.756  1.00  0.00     0.065 A 
ENDBRANCH  13  16
ENDBRANCH   8  13
ENDBRANCH   5   8
ENDBRANCH   3   4
ENDBRANCH   2   3
ENDBRANCH   1   2
BRANCH   1  21
ATOM     21  C   UNL A   1      33.515  28.477  27.621  1.00  0.00     0.116 C 
BRANCH  21  22
ATOM     22  N   UNL A   1      33.521  29.927  27.744  1.00  0.00    -0.352 N 
ATOM     23  C   UNL A   1      34.554  30.749  28.131  1.00  0.00     0.251 C 
ATOM     24  H   UNL A   1      32.676  30.379  27.521  1.00  0.00     0.163 HD
ATOM     25  O   UNL A   1      34.355  31.945  28.315  1.00  0.00    -0.269 OA
BRANCH  23  26
ATOM     26  C   UNL A   1      35.894  30.169  28.357  1.00  0.00     0.039 A 
ATOM     27  C   UNL A   1      36.807  30.134  27.300  1.00  0.00     0.014 A 
ATOM     28  C   UNL A   1      36.258  29.701  29.622  1.00  0.00     0.014 A 
ATOM     29  C   UNL A   1      38.114  29.699  27.530  1.00  0.00     0.010 A 
ATOM     30  C   UNL A   1      37.576  29.326  29.863  1.00  0.00     0.010 A 
ATOM     31  C   UNL A   1      38.519  29.329  28.822  1.00  0.00    -0.014 A 
BRANCH  31  32
ATOM     32  C   UNL A   1      39.925  28.960  29.126  1.00  0.00     0.031 A 
ATOM     33  C   UNL A   1      40.879  30.003  29.635  1.00  0.00     0.074 A 
ATOM     34  C   UNL A   1      40.369  27.722  28.832  1.00  0.00     0.049 A 
ATOM     35  N   UNL A   1      42.172  29.925  29.808  1.00  0.00    -0.248 NA
ATOM     36  C   UNL A   1      40.304  31.318  29.960  1.00  0.00     0.031 C 
ATOM     37  C   UNL A   1      39.551  26.639  28.281  1.00  0.00     0.029 A 
ATOM     38  N   UNL A   1      41.626  27.177  28.920  1.00  0.00    -0.354 N 
ATOM     39  C   UNL A   1      42.573  31.188  30.228  1.00  0.00     0.074 A 
ATOM     40  C   UNL A   1      41.389  32.020  30.251  1.00  0.00     0.031 C 
ATOM     41  C   UNL A   1      40.328  25.564  28.075  1.00  0.00     0.029 A 
ATOM     42  C   UNL A   1      41.703  25.891  28.440  1.00  0.00     0.049 A 
ATOM     43  H   UNL A   1      42.398  27.662  29.291  1.00  0.00     0.167 HD
ATOM     44  C   UNL A   1      43.813  31.610  30.574  1.00  0.00     0.037 A 
ATOM     45  C   UNL A   1      42.764  25.075  28.287  1.00  0.00     0.037 A 
ATOM     46  C   UNL A   1      44.979  30.766  30.580  1.00  0.00     0.049 A 
ATOM     47  C   UNL A   1      44.128  25.551  28.706  1.00  0.00     0.074 A 
ATOM     48  C   UNL A   1      46.262  31.076  30.996  1.00  0.00     0.029 A 
ATOM     49  N   UNL A   1      45.004  29.449  30.148  1.00  0.00    -0.354 N 
ATOM     50  N   UNL A   1      44.478  26.726  29.174  1.00  0.00    -0.248 NA
ATOM     51  C   UNL A   1      45.237  24.597  28.583  1.00  0.00     0.031 C 
ATOM     52  C   UNL A   1      47.072  29.956  30.779  1.00  0.00     0.029 A 
ATOM     53  C   UNL A   1      46.285  28.936  30.267  1.00  0.00     0.049 A 
ATOM     54  H   UNL A   1      44.226  28.951  29.807  1.00  0.00     0.167 HD
ATOM     55  C   UNL A   1      45.844  26.645  29.421  1.00  0.00     0.074 A 
ATOM     56  C   UNL A   1      46.256  25.304  29.056  1.00  0.00     0.031 C 
ATOM     57  C   UNL A   1      46.678  27.595  29.910  1.00  0.00     0.037 A 
BRANCH  44  58
ATOM     58  C   UNL A   1      43.967  33.054  30.962  1.00  0.00     0.058 A 
ATOM     59  C   UNL A   1      43.856  33.477  32.296  1.00  0.00     0.135 A 
ATOM     60  C   UNL A   1      44.230  34.029  29.986  1.00  0.00     0.135 A 
ATOM     61  F   UNL A   1      43.593  32.587  33.267  1.00  0.00    -0.206 F 
ATOM     62  C   UNL A   1      43.953  34.819  32.644  1.00  0.00     0.059 A 
ATOM     63  C   UNL A   1      44.358  35.375  30.315  1.00  0.00     0.059 A 
ATOM     64  F   UNL A   1      44.349  33.680  28.695  1.00  0.00    -0.206 F 
ATOM     65  C   UNL A   1      44.195  35.763  31.645  1.00  0.00     0.060 A 
BRANCH  65  66
ATOM     66  S   UNL A   1      44.286  37.506  32.104  1.00  0.00     0.124 S 
ATOM     67  O   UNL A   1      43.916  38.154  30.850  1.00  0.00    -0.237 OA
ATOM     68  O   UNL A   1      43.304  37.601  33.179  1.00  0.00    -0.237 OA
ATOM     69  O   UNL A   1      45.677  37.676  32.512  1.00  0.00    -0.744 OA
ENDBRANCH  65  66
ENDBRANCH  44  58
BRANCH  45  70
ATOM     70  C   UNL A   1      42.564  23.718  27.717  1.00  0.00     0.058 A 
ATOM     71  C   UNL A   1      42.606  23.503  26.332  1.00  0.00     0.135 A 
ATOM     72  C   UNL A   1      42.388  22.600  28.549  1.00  0.00     0.135 A 
ATOM     73  F   UNL A   1      42.766  24.541  25.498  1.00  0.00    -0.206 F 
ATOM     74  C   UNL A   1      42.483  22.228  25.790  1.00  0.00     0.059 A 
ATOM     75  C   UNL A   1      42.283  21.313  28.030  1.00  0.00     0.059 A 
ATOM     76  F   UNL A   1      42.359  22.752  29.882  1.00  0.00    -0.206 F 
ATOM     77  C   UNL A   1      42.330  21.138  26.648  1.00  0.00     0.060 A 
BRANCH  77  78
ATOM     78  S   UNL A   1      42.263  19.478  25.938  1.00  0.00     0.124 S 
ATOM     79  O   UNL A   1      42.715  18.661  27.059  1.00  0.00    -0.237 OA
ATOM     80  O   UNL A   1      40.854  19.352  25.582  1.00  0.00    -0.237 OA
ATOM     81  O   UNL A   1      43.181  19.561  24.806  1.00  0.00    -0.744 OA
ENDBRANCH  77  78
ENDBRANCH  45  70
BRANCH  57  82
ATOM     82  C   UNL A   1      48.119  27.224  30.110  1.00  0.00     0.058 A 
ATOM     83  C   UNL A   1      49.107  27.588  29.184  1.00  0.00     0.135 A 
ATOM     84  C   UNL A   1      48.527  26.580  31.290  1.00  0.00     0.135 A 
ATOM     85  F   UNL A   1      48.767  28.197  28.037  1.00  0.00    -0.206 F 
ATOM     86  C   UNL A   1      50.454  27.327  29.421  1.00  0.00     0.059 A 
ATOM     87  C   UNL A   1      49.869  26.328  31.557  1.00  0.00     0.059 A 
ATOM     88  F   UNL A   1      47.619  26.218  32.210  1.00  0.00    -0.206 F 
ATOM     89  C   UNL A   1      50.826  26.705  30.614  1.00  0.00     0.060 A 
BRANCH  89  90
ATOM     90  S   UNL A   1      52.580  26.439  30.944  1.00  0.00     0.124 S 
ATOM     91  O   UNL A   1      52.982  27.739  31.470  1.00  0.00    -0.237 OA
ATOM     92  O   UNL A   1      52.556  25.344  31.909  1.00  0.00    -0.237 OA
ATOM     93  O   UNL A   1      53.124  26.096  29.633  1.00  0.00    -0.744 OA
ENDBRANCH  89  90
ENDBRANCH  57  82
ENDBRANCH  31  32
ENDBRANCH  23  26
ENDBRANCH  21  22
ENDBRANCH   1  21
TORSDOF 18
ENDMDL
MODEL 3
REMARK VINA RESULT:     -10.1      2.363      3.312
REMARK SMILES [NH3+][C@@H](C(=O)NCCCCNC(=O)c1ccc(-c2c3nc(c(-c4c(F)cc(S(=O)(=O)[O-])cc4F)c4ccc([nH]4)c(-c4c(F)cc(S(=O)(=O)[O-])cc4F)c4nc(c(-c5c(F)cc(S(=O)(=O)[O-])cc5F)c5ccc2[nH]5)C=C4)C=C3)cc1)[C@@H](O)c1cccs1
REMARK SMILES IDX 8 1 7 2 6 3 5 4 3 5 4 6 2 8 1 9 79 13 80 14 81 16 82 17
REMARK SMILES IDX 85 18 83 19 84 20 9 21 10 22 11 23 12 25 13 26 14 27 78 28
REMARK SMILES IDX 15 29 77 30 16 31 17 32 18 33 71 34 19 35 76 36 70 37 72 38
REMARK SMILES IDX 20 39 75 40 69 41 68 42 21 44 55 45 34 46 54 47 35 48 38 49
REMARK SMILES IDX 53 50 73 51 36 52 37 53 52 55 74 56 39 57 22 58 23 59 32 60
REMARK SMILES IDX 24 61 25 62 31 63 33 64 26 65 27 66 28 67 29 68 30 69 56 70
REMARK SMILES IDX 57 71 66 72 58 73 59 74 65 75 67 76 60 77 61 78 62 79 63 80
REMARK SMILES IDX 64 81 40 82 41 83 50 84 42 85 43 86 49 87 51 88 44 89 45 90
REMARK SMILES IDX 46 91 47 92 48 93
REMARK H PARENT 5 7 1 10 1 11 1 12 80 15 10 24 72 43 38 54
REMARK Flexibility Score: inf
ROOT
ATOM      1  C   UNL A   1      44.251  24.452  25.180  1.00  0.00     0.023 C 
ENDROOT
BRANCH   1   2
ATOM      2  C   UNL A   1      43.974  23.105  24.506  1.00  0.00     0.023 C 
BRANCH   2   3
ATOM      3  C   UNL A   1      45.136  22.111  24.565  1.00  0.00     0.116 C 
BRANCH   3   4
ATOM      4  N   UNL A   1      44.910  20.991  23.669  1.00  0.00    -0.351 N 
ATOM      5  C   UNL A   1      44.867  19.653  23.941  1.00  0.00     0.281 C 
ATOM      6  O   UNL A   1      44.849  18.866  22.994  1.00  0.00    -0.268 OA
ATOM      7  H   UNL A   1      44.767  21.233  22.726  1.00  0.00     0.163 HD
BRANCH   5   8
ATOM      8  C   UNL A   1      44.915  19.180  25.401  1.00  0.00     0.305 C 
BRANCH   8   9
ATOM      9  N   UNL A   1      45.952  18.104  25.546  1.00  0.00    -0.345 N 
ATOM     10  H   UNL A   1      46.473  18.014  24.674  1.00  0.00     0.345 HD
ATOM     11  H   UNL A   1      45.494  17.217  25.761  1.00  0.00     0.345 HD
ATOM     12  H   UNL A   1      46.591  18.347  26.302  1.00  0.00     0.345 HD
ENDBRANCH   8   9
BRANCH   8  13
ATOM     13  C   UNL A   1      43.544  18.618  25.848  1.00  0.00     0.222 C 
BRANCH  13  14
ATOM     14  O   UNL A   1      43.757  17.650  26.889  1.00  0.00    -0.381 OA
ATOM     15  H   UNL A   1      43.568  18.054  27.751  1.00  0.00     0.211 HD
ENDBRANCH  13  14
BRANCH  13  16
ATOM     16  C   UNL A   1      42.550  19.612  26.386  1.00  0.00     0.040 A 
ATOM     17  C   UNL A   1      42.837  20.718  27.167  1.00  0.00     0.018 A 
ATOM     18  S   UNL A   1      40.862  19.493  26.094  1.00  0.00    -0.146 S 
ATOM     19  C   UNL A   1      41.671  21.428  27.569  1.00  0.00     0.012 A 
ATOM     20  C   UNL A   1      40.526  20.855  27.070  1.00  0.00     0.065 A 
ENDBRANCH  13  16
ENDBRANCH   8  13
ENDBRANCH   5   8
ENDBRANCH   3   4
ENDBRANCH   2   3
ENDBRANCH   1   2
BRANCH   1  21
ATOM     21  C   UNL A   1      43.103  25.006  26.018  1.00  0.00     0.116 C 
BRANCH  21  22
ATOM     22  N   UNL A   1      41.826  24.382  25.706  1.00  0.00    -0.352 N 
ATOM     23  C   UNL A   1      40.590  24.642  26.252  1.00  0.00     0.251 C 
ATOM     24  H   UNL A   1      41.849  23.683  25.014  1.00  0.00     0.163 HD
ATOM     25  O   UNL A   1      39.631  23.930  25.975  1.00  0.00    -0.269 OA
BRANCH  23  26
ATOM     26  C   UNL A   1      40.440  25.765  27.201  1.00  0.00     0.039 A 
ATOM     27  C   UNL A   1      39.640  25.595  28.334  1.00  0.00     0.014 A 
ATOM     28  C   UNL A   1      41.122  26.965  26.991  1.00  0.00     0.014 A 
ATOM     29  C   UNL A   1      39.585  26.604  29.298  1.00  0.00     0.010 A 
ATOM     30  C   UNL A   1      41.114  27.943  27.980  1.00  0.00     0.010 A 
ATOM     31  C   UNL A   1      40.353  27.769  29.147  1.00  0.00    -0.014 A 
BRANCH  31  32
ATOM     32  C   UNL A   1      40.400  28.818  30.197  1.00  0.00     0.031 A 
ATOM     33  C   UNL A   1      41.335  28.667  31.364  1.00  0.00     0.074 A 
ATOM     34  C   UNL A   1      39.520  29.838  30.163  1.00  0.00     0.049 A 
ATOM     35  N   UNL A   1      41.416  29.380  32.456  1.00  0.00    -0.248 NA
ATOM     36  C   UNL A   1      42.282  27.542  31.306  1.00  0.00     0.031 C 
ATOM     37  C   UNL A   1      38.526  30.062  29.111  1.00  0.00     0.029 A 
ATOM     38  N   UNL A   1      39.297  30.858  31.054  1.00  0.00    -0.354 N 
ATOM     39  C   UNL A   1      42.395  28.773  33.232  1.00  0.00     0.074 A 
ATOM     40  C   UNL A   1      42.856  27.613  32.498  1.00  0.00     0.031 C 
ATOM     41  C   UNL A   1      37.796  31.145  29.421  1.00  0.00     0.029 A 
ATOM     42  C   UNL A   1      38.242  31.669  30.709  1.00  0.00     0.049 A 
ATOM     43  H   UNL A   1      39.841  30.995  31.863  1.00  0.00     0.167 HD
ATOM     44  C   UNL A   1      42.874  29.154  34.441  1.00  0.00     0.037 A 
ATOM     45  C   UNL A   1      37.679  32.703  31.365  1.00  0.00     0.037 A 
ATOM     46  C   UNL A   1      42.434  30.328  35.147  1.00  0.00     0.049 A 
ATOM     47  C   UNL A   1      38.245  33.131  32.691  1.00  0.00     0.074 A 
ATOM     48  C   UNL A   1      42.917  30.848  36.335  1.00  0.00     0.029 A 
ATOM     49  N   UNL A   1      41.406  31.162  34.733  1.00  0.00    -0.354 N 
ATOM     50  N   UNL A   1      39.225  32.591  33.376  1.00  0.00    -0.248 NA
ATOM     51  C   UNL A   1      37.639  34.306  33.329  1.00  0.00     0.031 C 
ATOM     52  C   UNL A   1      42.154  31.975  36.659  1.00  0.00     0.029 A 
ATOM     53  C   UNL A   1      41.225  32.181  35.652  1.00  0.00     0.049 A 
ATOM     54  H   UNL A   1      40.882  31.046  33.908  1.00  0.00     0.167 HD
ATOM     55  C   UNL A   1      39.366  33.373  34.518  1.00  0.00     0.074 A 
ATOM     56  C   UNL A   1      38.375  34.427  34.427  1.00  0.00     0.031 C 
ATOM     57  C   UNL A   1      40.240  33.231  35.543  1.00  0.00     0.037 A 
BRANCH  44  58
ATOM     58  C   UNL A   1      43.922  28.283  35.074  1.00  0.00     0.058 A 
ATOM     59  C   UNL A   1      45.290  28.456  34.804  1.00  0.00     0.135 A 
ATOM     60  C   UNL A   1      43.555  27.261  35.963  1.00  0.00     0.135 A 
ATOM     61  F   UNL A   1      45.695  29.411  33.951  1.00  0.00    -0.206 F 
ATOM     62  C   UNL A   1      46.251  27.618  35.356  1.00  0.00     0.059 A 
ATOM     63  C   UNL A   1      44.503  26.428  36.549  1.00  0.00     0.059 A 
ATOM     64  F   UNL A   1      42.262  27.053  36.259  1.00  0.00    -0.206 F 
ATOM     65  C   UNL A   1      45.848  26.600  36.221  1.00  0.00     0.060 A 
BRANCH  65  66
ATOM     66  S   UNL A   1      47.103  25.497  36.906  1.00  0.00     0.124 S 
ATOM     67  O   UNL A   1      46.648  24.201  36.411  1.00  0.00    -0.237 OA
ATOM     68  O   UNL A   1      48.331  26.007  36.307  1.00  0.00    -0.237 OA
ATOM     69  O   UNL A   1      46.979  25.698  38.346  1.00  0.00    -0.744 OA
ENDBRANCH  65  66
ENDBRANCH  44  58
BRANCH  45  70
ATOM     70  C   UNL A   1      36.517  33.404  30.761  1.00  0.00     0.058 A 
ATOM     71  C   UNL A   1      35.235  33.290  31.319  1.00  0.00     0.135 A 
ATOM     72  C   UNL A   1      36.677  34.250  29.652  1.00  0.00     0.135 A 
ATOM     73  F   UNL A   1      35.034  32.489  32.375  1.00  0.00    -0.206 F 
ATOM     74  C   UNL A   1      34.152  33.992  30.801  1.00  0.00     0.059 A 
ATOM     75  C   UNL A   1      35.612  34.977  29.129  1.00  0.00     0.059 A 
ATOM     76  F   UNL A   1      37.887  34.406  29.094  1.00  0.00    -0.206 F 
ATOM     77  C   UNL A   1      34.352  34.840  29.710  1.00  0.00     0.060 A 
BRANCH  77  78
ATOM     78  S   UNL A   1      32.958  35.815  29.103  1.00  0.00     0.124 S 
ATOM     79  O   UNL A   1      32.216  36.064  30.334  1.00  0.00    -0.237 OA
ATOM     80  O   UNL A   1      33.626  36.971  28.514  1.00  0.00    -0.237 OA
ATOM     81  O   UNL A   1      32.314  34.920  28.147  1.00  0.00    -0.744 OA
ENDBRANCH  77  78
ENDBRANCH  45  70
BRANCH  57  82
ATOM     82  C   UNL A   1      40.196  34.249  36.646  1.00  0.00     0.058 A 
ATOM     83  C   UNL A   1      40.973  35.416  36.600  1.00  0.00     0.135 A 
ATOM     84  C   UNL A   1      39.293  34.101  37.712  1.00  0.00     0.135 A 
ATOM     85  F   UNL A   1      41.857  35.601  35.608  1.00  0.00    -0.206 F 
ATOM     86  C   UNL A   1      40.857  36.403  37.576  1.00  0.00     0.059 A 
ATOM     87  C   UNL A   1      39.145  35.083  38.685  1.00  0.00     0.059 A 
ATOM     88  F   UNL A   1      38.522  33.004  37.795  1.00  0.00    -0.206 F 
ATOM     89  C   UNL A   1      39.934  36.231  38.609  1.00  0.00     0.060 A 
BRANCH  89  90
ATOM     90  S   UNL A   1      39.739  37.550  39.826  1.00  0.00     0.124 S 
ATOM     91  O   UNL A   1      38.496  38.175  39.387  1.00  0.00    -0.237 OA
ATOM     92  O   UNL A   1      39.668  36.810  41.082  1.00  0.00    -0.237 OA
ATOM     93  O   UNL A   1      40.944  38.356  39.649  1.00  0.00    -0.744 OA
ENDBRANCH  89  90
ENDBRANCH  57  82
ENDBRANCH  31  32
ENDBRANCH  23  26
ENDBRANCH  21  22
ENDBRANCH   1  21
TORSDOF 18
ENDMDL
