MODEL 1
REMARK VINA RESULT:     -12.3      0.000      0.000
REMARK SMILES Cc1nc(Oc2ccc(F)cc2)c(C(=O)NCCCCNC(=O)c2ccc(-c3c4nc(c(-c5c(F)cc(S(=O)(=O)[O-])cc5F)c5ccc([nH]5)c(-c5c(F)cc(S(=O)(=O)[O-])cc5F)c5nc(c(-c6c(F)cc(S(=O)(=O)[O-])cc6F)c6ccc3[nH]6)C=C5)C=C4)cc2)c(C)c1Cl
REMARK SMILES IDX 19 1 18 2 17 3 16 4 14 5 15 6 13 8 1 9 2 10 3 11 92 12 4 13
REMARK SMILES IDX 90 14 93 15 91 16 5 17 6 18 7 19 12 20 8 21 11 22 9 23 10 24
REMARK SMILES IDX 20 25 21 26 22 27 23 29 24 30 25 31 89 32 26 33 88 34 27 35
REMARK SMILES IDX 28 36 29 37 82 38 30 39 87 40 81 41 83 42 31 43 86 44 80 45
REMARK SMILES IDX 79 46 32 48 66 49 45 50 65 51 46 52 49 53 64 54 84 55 47 56
REMARK SMILES IDX 48 57 63 59 85 60 50 61 33 62 34 63 43 64 35 65 36 66 42 67
REMARK SMILES IDX 44 68 37 69 38 70 39 71 40 72 41 73 67 74 68 75 77 76 69 77
REMARK SMILES IDX 70 78 76 79 78 80 71 81 72 82 73 83 74 84 75 85 51 86 52 87
REMARK SMILES IDX 61 88 53 89 54 90 60 91 62 92 55 93 56 94 57 95 58 96 59 97
REMARK H PARENT 16 7 21 28 83 47 49 58
REMARK Flexibility Score: inf
ROOT
ATOM      1  C   UNL A   1      38.180  21.612  25.582  1.00  0.00     0.023 C 
ENDROOT
BRANCH   1   2
ATOM      2  C   UNL A   1      37.686  20.381  24.845  1.00  0.00     0.023 C 
BRANCH   2   3
ATOM      3  C   UNL A   1      36.184  20.134  25.008  1.00  0.00     0.116 C 
BRANCH   3   4
ATOM      4  N   UNL A   1      35.503  21.404  24.948  1.00  0.00    -0.352 N 
ATOM      5  C   UNL A   1      34.625  21.819  25.913  1.00  0.00     0.257 C 
ATOM      6  O   UNL A   1      34.606  21.443  27.075  1.00  0.00    -0.269 OA
ATOM      7  H   UNL A   1      35.677  21.997  24.181  1.00  0.00     0.163 HD
BRANCH   5   8
ATOM      8  C   UNL A   1      33.479  22.554  25.360  1.00  0.00     0.106 A 
ATOM      9  C   UNL A   1      30.426  24.633  23.292  1.00  0.00     0.068 C 
ATOM     10  C   UNL A   1      31.513  23.978  24.095  1.00  0.00     0.060 A 
ATOM     11  N   UNL A   1      31.256  22.706  24.500  1.00  0.00    -0.216 NA
ATOM     12  C   UNL A   1      32.724  24.624  24.349  1.00  0.00     0.066 A 
ATOM     13  C   UNL A   1      32.225  21.995  25.133  1.00  0.00     0.232 A 
ATOM     14  C   UNL A   1      33.742  23.904  24.984  1.00  0.00    -0.012 A 
ATOM     15  Cl  UNL A   1      32.948  26.270  23.859  1.00  0.00    -0.082 Cl
ATOM     16  C   UNL A   1      35.083  24.534  25.294  1.00  0.00     0.047 C 
BRANCH  13  17
ATOM     17  O   UNL A   1      31.794  20.718  25.381  1.00  0.00    -0.438 OA
BRANCH  17  18
ATOM     18  C   UNL A   1      32.393  19.634  24.804  1.00  0.00     0.129 A 
ATOM     19  C   UNL A   1      32.325  19.542  23.412  1.00  0.00     0.050 A 
ATOM     20  C   UNL A   1      32.918  18.581  25.560  1.00  0.00     0.050 A 
ATOM     21  C   UNL A   1      32.847  18.426  22.763  1.00  0.00     0.043 A 
ATOM     22  C   UNL A   1      33.453  17.468  24.903  1.00  0.00     0.043 A 
ATOM     23  C   UNL A   1      33.417  17.406  23.513  1.00  0.00     0.123 A 
ATOM     24  F   UNL A   1      33.923  16.335  22.887  1.00  0.00    -0.207 F 
ENDBRANCH  17  18
ENDBRANCH  13  17
ENDBRANCH   5   8
ENDBRANCH   3   4
ENDBRANCH   2   3
ENDBRANCH   1   2
BRANCH   1  25
ATOM     25  C   UNL A   1      39.552  21.463  26.207  1.00  0.00     0.116 C 
BRANCH  25  26
ATOM     26  N   UNL A   1      40.149  20.149  26.012  1.00  0.00    -0.352 N 
ATOM     27  C   UNL A   1      41.491  19.844  26.131  1.00  0.00     0.251 C 
ATOM     28  H   UNL A   1      39.542  19.412  25.774  1.00  0.00     0.163 HD
ATOM     29  O   UNL A   1      41.922  18.722  25.940  1.00  0.00    -0.269 OA
BRANCH  27  30
ATOM     30  C   UNL A   1      42.387  20.973  26.450  1.00  0.00     0.039 A 
ATOM     31  C   UNL A   1      42.757  21.835  25.416  1.00  0.00     0.014 A 
ATOM     32  C   UNL A   1      42.606  21.306  27.791  1.00  0.00     0.014 A 
ATOM     33  C   UNL A   1      43.285  23.084  25.736  1.00  0.00     0.010 A 
ATOM     34  C   UNL A   1      43.069  22.579  28.104  1.00  0.00     0.010 A 
ATOM     35  C   UNL A   1      43.403  23.480  27.080  1.00  0.00    -0.014 A 
BRANCH  35  36
ATOM     36  C   UNL A   1      43.882  24.841  27.416  1.00  0.00     0.031 A 
ATOM     37  C   UNL A   1      45.330  25.180  27.223  1.00  0.00     0.074 A 
ATOM     38  C   UNL A   1      43.022  25.760  27.900  1.00  0.00     0.049 A 
ATOM     39  N   UNL A   1      45.933  26.327  27.386  1.00  0.00    -0.248 NA
ATOM     40  C   UNL A   1      46.221  24.083  26.809  1.00  0.00     0.031 C 
ATOM     41  C   UNL A   1      41.604  25.527  28.185  1.00  0.00     0.029 A 
ATOM     42  N   UNL A   1      43.211  27.079  28.228  1.00  0.00    -0.354 N 
ATOM     43  C   UNL A   1      47.266  26.094  27.077  1.00  0.00     0.074 A 
ATOM     44  C   UNL A   1      47.401  24.683  26.794  1.00  0.00     0.031 C 
ATOM     45  C   UNL A   1      41.045  26.674  28.608  1.00  0.00     0.029 A 
ATOM     46  C   UNL A   1      42.064  27.720  28.635  1.00  0.00     0.049 A 
ATOM     47  H   UNL A   1      44.088  27.525  28.177  1.00  0.00     0.167 HD
ATOM     48  C   UNL A   1      48.279  26.986  26.992  1.00  0.00     0.037 A 
ATOM     49  C   UNL A   1      41.857  29.010  28.969  1.00  0.00     0.037 A 
ATOM     50  C   UNL A   1      48.137  28.389  27.258  1.00  0.00     0.049 A 
ATOM     51  C   UNL A   1      43.003  29.982  28.884  1.00  0.00     0.074 A 
ATOM     52  C   UNL A   1      49.093  29.383  27.160  1.00  0.00     0.029 A 
ATOM     53  N   UNL A   1      46.961  28.997  27.672  1.00  0.00    -0.354 N 
ATOM     54  N   UNL A   1      44.241  29.761  28.509  1.00  0.00    -0.248 NA
ATOM     55  C   UNL A   1      42.727  31.378  29.257  1.00  0.00     0.031 C 
ATOM     56  C   UNL A   1      48.502  30.591  27.545  1.00  0.00     0.029 A 
ATOM     57  C   UNL A   1      47.171  30.353  27.849  1.00  0.00     0.049 A 
ATOM     58  H   UNL A   1      46.106  28.533  27.818  1.00  0.00     0.167 HD
ATOM     59  C   UNL A   1      44.882  30.993  28.572  1.00  0.00     0.074 A 
ATOM     60  C   UNL A   1      43.899  31.955  29.022  1.00  0.00     0.031 C 
ATOM     61  C   UNL A   1      46.170  31.297  28.277  1.00  0.00     0.037 A 
BRANCH  48  62
ATOM     62  C   UNL A   1      49.617  26.464  26.561  1.00  0.00     0.058 A 
ATOM     63  C   UNL A   1      49.998  26.479  25.208  1.00  0.00     0.135 A 
ATOM     64  C   UNL A   1      50.534  25.964  27.497  1.00  0.00     0.135 A 
ATOM     65  F   UNL A   1      49.147  26.929  24.272  1.00  0.00    -0.206 F 
ATOM     66  C   UNL A   1      51.232  25.994  24.796  1.00  0.00     0.059 A 
ATOM     67  C   UNL A   1      51.785  25.493  27.110  1.00  0.00     0.059 A 
ATOM     68  F   UNL A   1      50.215  25.922  28.801  1.00  0.00    -0.206 F 
ATOM     69  C   UNL A   1      52.119  25.500  25.755  1.00  0.00     0.060 A 
BRANCH  69  70
ATOM     70  S   UNL A   1      53.719  24.875  25.202  1.00  0.00     0.124 S 
ATOM     71  O   UNL A   1      53.890  25.590  23.940  1.00  0.00    -0.237 OA
ATOM     72  O   UNL A   1      54.606  25.284  26.287  1.00  0.00    -0.237 OA
ATOM     73  O   UNL A   1      53.500  23.437  25.084  1.00  0.00    -0.744 OA
ENDBRANCH  69  70
ENDBRANCH  48  62
BRANCH  49  74
ATOM     74  C   UNL A   1      40.494  29.469  29.347  1.00  0.00     0.058 A 
ATOM     75  C   UNL A   1      40.175  29.736  30.687  1.00  0.00     0.135 A 
ATOM     76  C   UNL A   1      39.494  29.671  28.384  1.00  0.00     0.135 A 
ATOM     77  F   UNL A   1      41.096  29.553  31.645  1.00  0.00    -0.206 F 
ATOM     78  C   UNL A   1      38.910  30.180  31.061  1.00  0.00     0.059 A 
ATOM     79  C   UNL A   1      38.227  30.130  28.731  1.00  0.00     0.059 A 
ATOM     80  F   UNL A   1      39.754  29.442  27.087  1.00  0.00    -0.206 F 
ATOM     81  C   UNL A   1      37.943  30.378  30.075  1.00  0.00     0.060 A 
BRANCH  81  82
ATOM     82  S   UNL A   1      36.324  31.011  30.566  1.00  0.00     0.124 S 
ATOM     83  O   UNL A   1      35.940  30.064  31.606  1.00  0.00    -0.237 OA
ATOM     84  O   UNL A   1      36.647  32.360  31.017  1.00  0.00    -0.237 OA
ATOM     85  O   UNL A   1      35.548  30.941  29.332  1.00  0.00    -0.744 OA
ENDBRANCH  81  82
ENDBRANCH  49  74
BRANCH  61  86
ATOM     86  C   UNL A   1      46.605  32.727  28.404  1.00  0.00     0.058 A 
ATOM     87  C   UNL A   1      47.210  33.201  29.577  1.00  0.00     0.135 A 
ATOM     88  C   UNL A   1      46.552  33.584  27.293  1.00  0.00     0.135 A 
ATOM     89  F   UNL A   1      47.277  32.419  30.666  1.00  0.00    -0.206 F 
ATOM     90  C   UNL A   1      47.766  34.474  29.638  1.00  0.00     0.059 A 
ATOM     91  C   UNL A   1      47.117  34.854  27.327  1.00  0.00     0.059 A 
ATOM     92  F   UNL A   1      45.989  33.169  26.147  1.00  0.00    -0.206 F 
ATOM     93  C   UNL A   1      47.728  35.287  28.503  1.00  0.00     0.060 A 
BRANCH  93  94
ATOM     94  S   UNL A   1      48.552  36.893  28.564  1.00  0.00     0.124 S 
ATOM     95  O   UNL A   1      49.610  36.720  27.574  1.00  0.00    -0.237 OA
ATOM     96  O   UNL A   1      47.478  37.809  28.191  1.00  0.00    -0.237 OA
ATOM     97  O   UNL A   1      49.000  36.993  29.950  1.00  0.00    -0.744 OA
ENDBRANCH  93  94
ENDBRANCH  61  86
ENDBRANCH  35  36
ENDBRANCH  27  30
ENDBRANCH  25  26
ENDBRANCH   1  25
TORSDOF 16
ENDMDL
MODEL 2
REMARK VINA RESULT:     -12.1      4.028      9.414
REMARK SMILES Cc1nc(Oc2ccc(F)cc2)c(C(=O)NCCCCNC(=O)c2ccc(-c3c4nc(c(-c5c(F)cc(S(=O)(=O)[O-])cc5F)c5ccc([nH]5)c(-c5c(F)cc(S(=O)(=O)[O-])cc5F)c5nc(c(-c6c(F)cc(S(=O)(=O)[O-])cc6F)c6ccc3[nH]6)C=C5)C=C4)cc2)c(C)c1Cl
REMARK SMILES IDX 19 1 18 2 17 3 16 4 14 5 15 6 13 8 1 9 2 10 3 11 92 12 4 13
REMARK SMILES IDX 90 14 93 15 91 16 5 17 6 18 7 19 12 20 8 21 11 22 9 23 10 24
REMARK SMILES IDX 20 25 21 26 22 27 23 29 24 30 25 31 89 32 26 33 88 34 27 35
REMARK SMILES IDX 28 36 29 37 82 38 30 39 87 40 81 41 83 42 31 43 86 44 80 45
REMARK SMILES IDX 79 46 32 48 66 49 45 50 65 51 46 52 49 53 64 54 84 55 47 56
REMARK SMILES IDX 48 57 63 59 85 60 50 61 33 62 34 63 43 64 35 65 36 66 42 67
REMARK SMILES IDX 44 68 37 69 38 70 39 71 40 72 41 73 67 74 68 75 77 76 69 77
REMARK SMILES IDX 70 78 76 79 78 80 71 81 72 82 73 83 74 84 75 85 51 86 52 87
REMARK SMILES IDX 61 88 53 89 54 90 60 91 62 92 55 93 56 94 57 95 58 96 59 97
REMARK H PARENT 16 7 21 28 83 47 49 58
REMARK Flexibility Score: inf
ROOT
ATOM      1  C   UNL A   1      32.075  28.258  27.150  1.00  0.00     0.023 C 
ENDROOT
BRANCH   1   2
ATOM      2  C   UNL A   1      32.047  26.884  26.507  1.00  0.00     0.023 C 
BRANCH   2   3
ATOM      3  C   UNL A   1      33.431  26.371  26.101  1.00  0.00     0.116 C 
BRANCH   3   4
ATOM      4  N   UNL A   1      33.320  24.972  25.767  1.00  0.00    -0.352 N 
ATOM      5  C   UNL A   1      34.297  24.293  25.091  1.00  0.00     0.257 C 
ATOM      6  O   UNL A   1      35.482  24.590  25.053  1.00  0.00    -0.269 OA
ATOM      7  H   UNL A   1      32.507  24.486  26.038  1.00  0.00     0.163 HD
BRANCH   5   8
ATOM      8  C   UNL A   1      33.755  23.313  24.140  1.00  0.00     0.106 A 
ATOM      9  C   UNL A   1      31.719  20.562  21.649  1.00  0.00     0.068 C 
ATOM     10  C   UNL A   1      32.514  21.462  22.551  1.00  0.00     0.060 A 
ATOM     11  N   UNL A   1      32.856  22.667  22.024  1.00  0.00    -0.216 NA
ATOM     12  C   UNL A   1      32.822  21.093  23.861  1.00  0.00     0.066 A 
ATOM     13  C   UNL A   1      33.477  23.589  22.805  1.00  0.00     0.232 A 
ATOM     14  C   UNL A   1      33.445  22.034  24.689  1.00  0.00    -0.012 A 
ATOM     15  Cl  UNL A   1      32.411  19.512  24.437  1.00  0.00    -0.082 Cl
ATOM     16  C   UNL A   1      33.812  21.710  26.121  1.00  0.00     0.047 C 
BRANCH  13  17
ATOM     17  O   UNL A   1      33.658  24.757  22.111  1.00  0.00    -0.438 OA
BRANCH  17  18
ATOM     18  C   UNL A   1      32.891  25.861  22.353  1.00  0.00     0.129 A 
ATOM     19  C   UNL A   1      33.564  27.075  22.505  1.00  0.00     0.050 A 
ATOM     20  C   UNL A   1      31.516  25.777  22.596  1.00  0.00     0.050 A 
ATOM     21  C   UNL A   1      32.853  28.229  22.830  1.00  0.00     0.043 A 
ATOM     22  C   UNL A   1      30.804  26.939  22.909  1.00  0.00     0.043 A 
ATOM     23  C   UNL A   1      31.479  28.152  23.017  1.00  0.00     0.123 A 
ATOM     24  F   UNL A   1      30.796  29.262  23.326  1.00  0.00    -0.207 F 
ENDBRANCH  17  18
ENDBRANCH  13  17
ENDBRANCH   5   8
ENDBRANCH   3   4
ENDBRANCH   2   3
ENDBRANCH   1   2
BRANCH   1  25
ATOM     25  C   UNL A   1      33.461  28.841  27.329  1.00  0.00     0.116 C 
BRANCH  25  26
ATOM     26  N   UNL A   1      33.466  30.220  27.796  1.00  0.00    -0.352 N 
ATOM     27  C   UNL A   1      34.554  30.897  28.311  1.00  0.00     0.251 C 
ATOM     28  H   UNL A   1      32.617  30.714  27.739  1.00  0.00     0.163 HD
ATOM     29  O   UNL A   1      34.481  32.050  28.695  1.00  0.00    -0.269 OA
BRANCH  27  30
ATOM     30  C   UNL A   1      35.806  30.122  28.422  1.00  0.00     0.039 A 
ATOM     31  C   UNL A   1      36.691  30.140  27.343  1.00  0.00     0.014 A 
ATOM     32  C   UNL A   1      36.192  29.637  29.676  1.00  0.00     0.014 A 
ATOM     33  C   UNL A   1      38.009  29.736  27.547  1.00  0.00     0.010 A 
ATOM     34  C   UNL A   1      37.524  29.300  29.888  1.00  0.00     0.010 A 
ATOM     35  C   UNL A   1      38.444  29.356  28.828  1.00  0.00    -0.014 A 
BRANCH  35  36
ATOM     36  C   UNL A   1      39.866  29.011  29.061  1.00  0.00     0.031 A 
ATOM     37  C   UNL A   1      40.764  30.007  29.733  1.00  0.00     0.074 A 
ATOM     38  C   UNL A   1      40.346  27.816  28.661  1.00  0.00     0.049 A 
ATOM     39  N   UNL A   1      42.013  29.873  30.093  1.00  0.00    -0.248 NA
ATOM     40  C   UNL A   1      40.190  31.331  30.024  1.00  0.00     0.031 C 
ATOM     41  C   UNL A   1      39.582  26.792  27.944  1.00  0.00     0.029 A 
ATOM     42  N   UNL A   1      41.590  27.255  28.809  1.00  0.00    -0.354 N 
ATOM     43  C   UNL A   1      42.365  31.086  30.668  1.00  0.00     0.074 A 
ATOM     44  C   UNL A   1      41.229  31.969  30.539  1.00  0.00     0.031 C 
ATOM     45  C   UNL A   1      40.362  25.714  27.751  1.00  0.00     0.029 A 
ATOM     46  C   UNL A   1      41.683  25.973  28.318  1.00  0.00     0.049 A 
ATOM     47  H   UNL A   1      42.346  27.726  29.229  1.00  0.00     0.167 HD
ATOM     48  C   UNL A   1      43.520  31.419  31.289  1.00  0.00     0.037 A 
ATOM     49  C   UNL A   1      42.710  25.101  28.345  1.00  0.00     0.037 A 
ATOM     50  C   UNL A   1      44.640  30.533  31.430  1.00  0.00     0.049 A 
ATOM     51  C   UNL A   1      43.992  25.499  29.026  1.00  0.00     0.074 A 
ATOM     52  C   UNL A   1      45.840  30.761  32.078  1.00  0.00     0.029 A 
ATOM     53  N   UNL A   1      44.696  29.247  30.914  1.00  0.00    -0.354 N 
ATOM     54  N   UNL A   1      44.281  26.622  29.639  1.00  0.00    -0.248 NA
ATOM     55  C   UNL A   1      45.084  24.513  29.030  1.00  0.00     0.031 C 
ATOM     56  C   UNL A   1      46.636  29.621  31.929  1.00  0.00     0.029 A 
ATOM     57  C   UNL A   1      45.918  28.673  31.217  1.00  0.00     0.049 A 
ATOM     58  H   UNL A   1      43.975  28.808  30.409  1.00  0.00     0.167 HD
ATOM     59  C   UNL A   1      45.574  26.467  30.127  1.00  0.00     0.074 A 
ATOM     60  C   UNL A   1      46.013  25.144  29.737  1.00  0.00     0.031 C 
ATOM     61  C   UNL A   1      46.325  27.343  30.837  1.00  0.00     0.037 A 
BRANCH  48  62
ATOM     62  C   UNL A   1      43.604  32.790  31.891  1.00  0.00     0.058 A 
ATOM     63  C   UNL A   1      43.259  33.013  33.235  1.00  0.00     0.135 A 
ATOM     64  C   UNL A   1      44.045  33.885  31.134  1.00  0.00     0.135 A 
ATOM     65  F   UNL A   1      42.811  32.000  33.994  1.00  0.00    -0.206 F 
ATOM     66  C   UNL A   1      43.328  34.279  33.801  1.00  0.00     0.059 A 
ATOM     67  C   UNL A   1      44.144  35.159  31.687  1.00  0.00     0.059 A 
ATOM     68  F   UNL A   1      44.380  33.726  29.844  1.00  0.00    -0.206 F 
ATOM     69  C   UNL A   1      43.769  35.347  33.018  1.00  0.00     0.060 A 
BRANCH  69  70
ATOM     70  S   UNL A   1      43.853  36.985  33.770  1.00  0.00     0.124 S 
ATOM     71  O   UNL A   1      44.036  37.835  32.597  1.00  0.00    -0.237 OA
ATOM     72  O   UNL A   1      42.556  37.092  34.433  1.00  0.00    -0.237 OA
ATOM     73  O   UNL A   1      45.004  36.892  34.663  1.00  0.00    -0.744 OA
ENDBRANCH  69  70
ENDBRANCH  48  62
BRANCH  49  74
ATOM     74  C   UNL A   1      42.545  23.741  27.766  1.00  0.00     0.058 A 
ATOM     75  C   UNL A   1      42.348  22.628  28.597  1.00  0.00     0.135 A 
ATOM     76  C   UNL A   1      42.560  23.527  26.380  1.00  0.00     0.135 A 
ATOM     77  F   UNL A   1      42.332  22.781  29.930  1.00  0.00    -0.206 F 
ATOM     78  C   UNL A   1      42.177  21.349  28.076  1.00  0.00     0.059 A 
ATOM     79  C   UNL A   1      42.375  22.260  25.833  1.00  0.00     0.059 A 
ATOM     80  F   UNL A   1      42.732  24.561  25.542  1.00  0.00    -0.206 F 
ATOM     81  C   UNL A   1      42.189  21.175  26.691  1.00  0.00     0.060 A 
BRANCH  81  82
ATOM     82  S   UNL A   1      41.908  19.520  26.025  1.00  0.00     0.124 S 
ATOM     83  O   UNL A   1      40.471  19.542  25.777  1.00  0.00    -0.237 OA
ATOM     84  O   UNL A   1      42.760  19.518  24.841  1.00  0.00    -0.237 OA
ATOM     85  O   UNL A   1      42.349  18.644  27.106  1.00  0.00    -0.744 OA
ENDBRANCH  81  82
ENDBRANCH  49  74
BRANCH  61  86
ATOM     86  C   UNL A   1      47.695  26.911  31.270  1.00  0.00     0.058 A 
ATOM     87  C   UNL A   1      47.889  26.192  32.458  1.00  0.00     0.135 A 
ATOM     88  C   UNL A   1      48.795  27.086  30.415  1.00  0.00     0.135 A 
ATOM     89  F   UNL A   1      46.867  26.005  33.308  1.00  0.00    -0.206 F 
ATOM     90  C   UNL A   1      49.126  25.644  32.777  1.00  0.00     0.059 A 
ATOM     91  C   UNL A   1      50.037  26.533  30.705  1.00  0.00     0.059 A 
ATOM     92  F   UNL A   1      48.654  27.761  29.263  1.00  0.00    -0.206 F 
ATOM     93  C   UNL A   1      50.191  25.807  31.886  1.00  0.00     0.060 A 
BRANCH  93  94
ATOM     94  S   UNL A   1      51.760  24.996  32.261  1.00  0.00     0.124 S 
ATOM     95  O   UNL A   1      51.998  25.434  33.632  1.00  0.00    -0.237 OA
ATOM     96  O   UNL A   1      51.429  23.584  32.095  1.00  0.00    -0.237 OA
ATOM     97  O   UNL A   1      52.673  25.541  31.260  1.00  0.00    -0.744 OA
ENDBRANCH  93  94
ENDBRANCH  61  86
ENDBRANCH  35  36
ENDBRANCH  27  30
ENDBRANCH  25  26
ENDBRANCH   1  25
TORSDOF 16
ENDMDL
MODEL 3
REMARK VINA RESULT:     -12.0      0.604      8.199
REMARK SMILES Cc1nc(Oc2ccc(F)cc2)c(C(=O)NCCCCNC(=O)c2ccc(-c3c4nc(c(-c5c(F)cc(S(=O)(=O)[O-])cc5F)c5ccc([nH]5)c(-c5c(F)cc(S(=O)(=O)[O-])cc5F)c5nc(c(-c6c(F)cc(S(=O)(=O)[O-])cc6F)c6ccc3[nH]6)C=C5)C=C4)cc2)c(C)c1Cl
REMARK SMILES IDX 19 1 18 2 17 3 16 4 14 5 15 6 13 8 1 9 2 10 3 11 92 12 4 13
REMARK SMILES IDX 90 14 93 15 91 16 5 17 6 18 7 19 12 20 8 21 11 22 9 23 10 24
REMARK SMILES IDX 20 25 21 26 22 27 23 29 24 30 25 31 89 32 26 33 88 34 27 35
REMARK SMILES IDX 28 36 29 37 82 38 30 39 87 40 81 41 83 42 31 43 86 44 80 45
REMARK SMILES IDX 79 46 32 48 66 49 45 50 65 51 46 52 49 53 64 54 84 55 47 56
REMARK SMILES IDX 48 57 63 59 85 60 50 61 33 62 34 63 43 64 35 65 36 66 42 67
REMARK SMILES IDX 44 68 37 69 38 70 39 71 40 72 41 73 67 74 68 75 77 76 69 77
REMARK SMILES IDX 70 78 76 79 78 80 71 81 72 82 73 83 74 84 75 85 51 86 52 87
REMARK SMILES IDX 61 88 53 89 54 90 60 91 62 92 55 93 56 94 57 95 58 96 59 97
REMARK H PARENT 16 7 21 28 83 47 49 58
REMARK Flexibility Score: inf
ROOT
ATOM      1  C   UNL A   1      38.261  21.444  25.504  1.00  0.00     0.023 C 
ENDROOT
BRANCH   1   2
ATOM      2  C   UNL A   1      37.751  20.169  24.859  1.00  0.00     0.023 C 
BRANCH   2   3
ATOM      3  C   UNL A   1      36.240  19.974  25.002  1.00  0.00     0.116 C 
BRANCH   3   4
ATOM      4  N   UNL A   1      35.600  21.261  24.886  1.00  0.00    -0.352 N 
ATOM      5  C   UNL A   1      34.750  21.754  25.839  1.00  0.00     0.257 C 
ATOM      6  O   UNL A   1      34.736  21.439  27.019  1.00  0.00    -0.269 OA
ATOM      7  H   UNL A   1      35.782  21.808  24.087  1.00  0.00     0.163 HD
BRANCH   5   8
ATOM      8  C   UNL A   1      33.621  22.498  25.264  1.00  0.00     0.106 A 
ATOM      9  C   UNL A   1      30.615  24.581  23.133  1.00  0.00     0.068 C 
ATOM     10  C   UNL A   1      31.687  23.926  23.955  1.00  0.00     0.060 A 
ATOM     11  N   UNL A   1      31.400  22.676  24.404  1.00  0.00    -0.216 NA
ATOM     12  C   UNL A   1      32.914  24.550  24.185  1.00  0.00     0.066 A 
ATOM     13  C   UNL A   1      32.353  21.963  25.058  1.00  0.00     0.232 A 
ATOM     14  C   UNL A   1      33.916  23.828  24.842  1.00  0.00    -0.012 A 
ATOM     15  Cl  UNL A   1      33.177  26.173  23.639  1.00  0.00    -0.082 Cl
ATOM     16  C   UNL A   1      35.273  24.435  25.129  1.00  0.00     0.047 C 
BRANCH  13  17
ATOM     17  O   UNL A   1      31.891  20.706  25.350  1.00  0.00    -0.438 OA
BRANCH  17  18
ATOM     18  C   UNL A   1      32.470  19.588  24.818  1.00  0.00     0.129 A 
ATOM     19  C   UNL A   1      32.446  19.466  23.427  1.00  0.00     0.050 A 
ATOM     20  C   UNL A   1      32.930  18.535  25.615  1.00  0.00     0.050 A 
ATOM     21  C   UNL A   1      32.950  18.318  22.821  1.00  0.00     0.043 A 
ATOM     22  C   UNL A   1      33.447  17.389  25.002  1.00  0.00     0.043 A 
ATOM     23  C   UNL A   1      33.456  17.295  23.613  1.00  0.00     0.123 A 
ATOM     24  F   UNL A   1      33.943  16.193  23.029  1.00  0.00    -0.207 F 
ENDBRANCH  17  18
ENDBRANCH  13  17
ENDBRANCH   5   8
ENDBRANCH   3   4
ENDBRANCH   2   3
ENDBRANCH   1   2
BRANCH   1  25
ATOM     25  C   UNL A   1      39.624  21.319  26.153  1.00  0.00     0.116 C 
BRANCH  25  26
ATOM     26  N   UNL A   1      40.199  19.985  26.064  1.00  0.00    -0.352 N 
ATOM     27  C   UNL A   1      41.539  19.670  26.187  1.00  0.00     0.251 C 
ATOM     28  H   UNL A   1      39.578  19.239  25.903  1.00  0.00     0.163 HD
ATOM     29  O   UNL A   1      41.951  18.529  26.088  1.00  0.00    -0.269 OA
BRANCH  27  30
ATOM     30  C   UNL A   1      42.456  20.809  26.388  1.00  0.00     0.039 A 
ATOM     31  C   UNL A   1      42.937  21.476  25.261  1.00  0.00     0.014 A 
ATOM     32  C   UNL A   1      42.590  21.352  27.671  1.00  0.00     0.014 A 
ATOM     33  C   UNL A   1      43.493  22.745  25.415  1.00  0.00     0.010 A 
ATOM     34  C   UNL A   1      43.083  22.644  27.809  1.00  0.00     0.010 A 
ATOM     35  C   UNL A   1      43.529  23.354  26.682  1.00  0.00    -0.014 A 
BRANCH  35  36
ATOM     36  C   UNL A   1      44.039  24.737  26.830  1.00  0.00     0.031 A 
ATOM     37  C   UNL A   1      43.097  25.828  27.244  1.00  0.00     0.074 A 
ATOM     38  C   UNL A   1      45.337  25.009  26.583  1.00  0.00     0.049 A 
ATOM     39  N   UNL A   1      43.357  27.083  27.499  1.00  0.00    -0.248 NA
ATOM     40  C   UNL A   1      41.675  25.468  27.371  1.00  0.00     0.031 C 
ATOM     41  C   UNL A   1      46.332  24.040  26.116  1.00  0.00     0.029 A 
ATOM     42  N   UNL A   1      46.045  26.179  26.700  1.00  0.00    -0.354 N 
ATOM     43  C   UNL A   1      42.137  27.653  27.836  1.00  0.00     0.074 A 
ATOM     44  C   UNL A   1      41.126  26.633  27.676  1.00  0.00     0.031 C 
ATOM     45  C   UNL A   1      47.528  24.647  26.025  1.00  0.00     0.029 A 
ATOM     46  C   UNL A   1      47.384  26.048  26.414  1.00  0.00     0.049 A 
ATOM     47  H   UNL A   1      45.632  27.033  26.964  1.00  0.00     0.167 HD
ATOM     48  C   UNL A   1      41.888  28.906  28.282  1.00  0.00     0.037 A 
ATOM     49  C   UNL A   1      48.383  26.950  26.482  1.00  0.00     0.037 A 
ATOM     50  C   UNL A   1      42.897  29.911  28.455  1.00  0.00     0.049 A 
ATOM     51  C   UNL A   1      48.080  28.344  26.965  1.00  0.00     0.074 A 
ATOM     52  C   UNL A   1      42.754  31.198  28.941  1.00  0.00     0.029 A 
ATOM     53  N   UNL A   1      44.239  29.740  28.150  1.00  0.00    -0.354 N 
ATOM     54  N   UNL A   1      46.933  28.844  27.359  1.00  0.00    -0.248 NA
ATOM     55  C   UNL A   1      49.203  29.292  27.023  1.00  0.00     0.031 C 
ATOM     56  C   UNL A   1      44.007  31.817  28.901  1.00  0.00     0.029 A 
ATOM     57  C   UNL A   1      44.935  30.905  28.423  1.00  0.00     0.049 A 
ATOM     58  H   UNL A   1      44.637  28.914  27.793  1.00  0.00     0.167 HD
ATOM     59  C   UNL A   1      47.202  30.155  27.740  1.00  0.00     0.074 A 
ATOM     60  C   UNL A   1      48.617  30.371  27.528  1.00  0.00     0.031 C 
ATOM     61  C   UNL A   1      46.350  31.090  28.225  1.00  0.00     0.037 A 
BRANCH  48  62
ATOM     62  C   UNL A   1      40.471  29.235  28.645  1.00  0.00     0.058 A 
ATOM     63  C   UNL A   1      40.077  29.359  29.988  1.00  0.00     0.135 A 
ATOM     64  C   UNL A   1      39.502  29.447  27.653  1.00  0.00     0.135 A 
ATOM     65  F   UNL A   1      40.964  29.144  30.974  1.00  0.00    -0.206 F 
ATOM     66  C   UNL A   1      38.767  29.658  30.336  1.00  0.00     0.059 A 
ATOM     67  C   UNL A   1      38.188  29.771  27.978  1.00  0.00     0.059 A 
ATOM     68  F   UNL A   1      39.826  29.335  26.355  1.00  0.00    -0.206 F 
ATOM     69  C   UNL A   1      37.828  29.860  29.323  1.00  0.00     0.060 A 
BRANCH  69  70
ATOM     70  S   UNL A   1      36.130  30.249  29.793  1.00  0.00     0.124 S 
ATOM     71  O   UNL A   1      36.157  31.709  29.796  1.00  0.00    -0.237 OA
ATOM     72  O   UNL A   1      35.359  29.633  28.717  1.00  0.00    -0.237 OA
ATOM     73  O   UNL A   1      35.986  29.622  31.102  1.00  0.00    -0.744 OA
ENDBRANCH  69  70
ENDBRANCH  48  62
BRANCH  49  74
ATOM     74  C   UNL A   1      49.774  26.545  26.148  1.00  0.00     0.058 A 
ATOM     75  C   UNL A   1      50.594  25.936  27.111  1.00  0.00     0.135 A 
ATOM     76  C   UNL A   1      50.306  26.736  24.864  1.00  0.00     0.135 A 
ATOM     77  F   UNL A   1      50.133  25.737  28.355  1.00  0.00    -0.206 F 
ATOM     78  C   UNL A   1      51.894  25.537  26.815  1.00  0.00     0.059 A 
ATOM     79  C   UNL A   1      51.597  26.330  24.539  1.00  0.00     0.059 A 
ATOM     80  F   UNL A   1      49.557  27.301  23.904  1.00  0.00    -0.206 F 
ATOM     81  C   UNL A   1      52.386  25.735  25.525  1.00  0.00     0.060 A 
BRANCH  81  82
ATOM     82  S   UNL A   1      54.053  25.159  25.137  1.00  0.00     0.124 S 
ATOM     83  O   UNL A   1      54.795  25.588  26.316  1.00  0.00    -0.237 OA
ATOM     84  O   UNL A   1      53.855  23.720  24.996  1.00  0.00    -0.237 OA
ATOM     85  O   UNL A   1      54.372  25.863  23.899  1.00  0.00    -0.744 OA
ENDBRANCH  81  82
ENDBRANCH  49  74
BRANCH  61  86
ATOM     86  C   UNL A   1      46.909  32.434  28.588  1.00  0.00     0.058 A 
ATOM     87  C   UNL A   1      47.469  32.671  29.852  1.00  0.00     0.135 A 
ATOM     88  C   UNL A   1      47.021  33.441  27.615  1.00  0.00     0.135 A 
ATOM     89  F   UNL A   1      47.381  31.739  30.815  1.00  0.00    -0.206 F 
ATOM     90  C   UNL A   1      48.139  33.856  30.135  1.00  0.00     0.059 A 
ATOM     91  C   UNL A   1      47.700  34.626  27.871  1.00  0.00     0.059 A 
ATOM     92  F   UNL A   1      46.506  33.254  26.389  1.00  0.00    -0.206 F 
ATOM     93  C   UNL A   1      48.262  34.822  29.132  1.00  0.00     0.060 A 
BRANCH  93  94
ATOM     94  S   UNL A   1      49.229  36.307  29.480  1.00  0.00     0.124 S 
ATOM     95  O   UNL A   1      48.321  37.054  30.344  1.00  0.00    -0.237 OA
ATOM     96  O   UNL A   1      50.417  35.760  30.129  1.00  0.00    -0.237 OA
ATOM     97  O   UNL A   1      49.455  36.884  28.158  1.00  0.00    -0.744 OA
ENDBRANCH  93  94
ENDBRANCH  61  86
ENDBRANCH  35  36
ENDBRANCH  27  30
ENDBRANCH  25  26
ENDBRANCH   1  25
TORSDOF 16
ENDMDL
