MODEL 1
REMARK VINA RESULT:     -12.7      0.000      0.000
REMARK SMILES COc1cccc([C@@H]2C[N@@H+](Cc3nccn3C)C[C@H]2C(=O)NCCCCNC(=O)c2ccc(-c3c4nc(c(-c5c(F)cc(S(=O)(=O)[O-])cc5F)c5ccc([nH]5)c(-c5c(F)cc(S(=O)(=O)[O-])cc5F)c5nc(c(-c6c(F)cc(S(=O)(=O)[O-])cc6F)c6ccc3[nH]6)C=C5)C=C4)cc2)c1
REMARK SMILES IDX 25 1 24 2 23 3 22 4 20 5 21 6 19 8 8 9 9 10 10 11 18 12 7 14
REMARK SMILES IDX 3 15 4 16 96 17 5 18 6 19 2 20 1 21 11 22 12 23 13 24 16 25
REMARK SMILES IDX 14 26 15 27 17 28 26 29 27 30 28 31 29 33 30 34 31 35 95 36
REMARK SMILES IDX 32 37 94 38 33 39 34 40 35 41 88 42 36 43 93 44 87 45 89 46
REMARK SMILES IDX 37 47 92 48 86 49 85 50 38 52 72 53 51 54 71 55 52 56 55 57
REMARK SMILES IDX 70 58 90 59 53 60 54 61 69 63 91 64 56 65 39 66 40 67 49 68
REMARK SMILES IDX 41 69 42 70 48 71 50 72 43 73 44 74 45 75 46 76 47 77 73 78
REMARK SMILES IDX 74 79 83 80 75 81 76 82 82 83 84 84 77 85 78 86 79 87 80 88
REMARK SMILES IDX 81 89 57 90 58 91 67 92 59 93 60 94 66 95 68 96 61 97 62 98
REMARK SMILES IDX 63 99 64 100 65 101
REMARK H PARENT 22 7 10 13 27 32 89 51 55 62
REMARK Flexibility Score: inf
ROOT
ATOM      1  C   UNL A   1      34.329  31.212  27.368  1.00  0.00     0.023 C 
ENDROOT
BRANCH   1   2
ATOM      2  C   UNL A   1      33.334  30.052  27.536  1.00  0.00     0.023 C 
BRANCH   2   3
ATOM      3  C   UNL A   1      32.342  29.788  26.395  1.00  0.00     0.116 C 
BRANCH   3   4
ATOM      4  N   UNL A   1      32.678  28.555  25.668  1.00  0.00    -0.356 N 
ATOM      5  C   UNL A   1      32.611  28.381  24.313  1.00  0.00     0.229 C 
ATOM      6  O   UNL A   1      33.650  28.558  23.668  1.00  0.00    -0.275 OA
ATOM      7  H   UNL A   1      32.976  27.786  26.204  1.00  0.00     0.163 HD
BRANCH   5   8
ATOM      8  C   UNL A   1      31.366  27.851  23.596  1.00  0.00     0.146 C 
ATOM      9  C   UNL A   1      30.272  27.130  24.376  1.00  0.00     0.092 C 
ATOM     10  C   UNL A   1      29.063  27.214  23.418  1.00  0.00     0.271 C 
ATOM     11  N   UNL A   1      29.233  28.433  22.611  1.00  0.00    -0.327 N 
ATOM     12  C   UNL A   1      30.633  28.864  22.723  1.00  0.00     0.277 C 
ATOM     13  H   UNL A   1      29.057  28.231  21.626  1.00  0.00     0.348 HD
BRANCH   9  14
ATOM     14  C   UNL A   1      30.615  25.684  24.696  1.00  0.00    -0.035 A 
ATOM     15  C   UNL A   1      31.260  23.975  26.327  1.00  0.00     0.119 A 
ATOM     16  C   UNL A   1      31.299  23.032  25.304  1.00  0.00     0.046 A 
ATOM     17  C   UNL A   1      30.923  25.290  26.016  1.00  0.00     0.050 A 
ATOM     18  C   UNL A   1      30.989  23.397  23.991  1.00  0.00     0.004 A 
ATOM     19  C   UNL A   1      30.649  24.716  23.686  1.00  0.00     0.004 A 
BRANCH  15  20
ATOM     20  O   UNL A   1      31.583  23.513  27.574  1.00  0.00    -0.497 OA
ATOM     21  C   UNL A   1      32.723  22.663  27.658  1.00  0.00     0.278 C 
ENDBRANCH  15  20
ENDBRANCH   9  14
BRANCH  11  22
ATOM     22  C   UNL A   1      28.210  29.459  22.868  1.00  0.00     0.339 C 
BRANCH  22  23
ATOM     23  C   UNL A   1      28.295  30.633  21.944  1.00  0.00     0.164 A 
ATOM     24  N   UNL A   1      28.059  30.583  20.642  1.00  0.00    -0.236 NA
ATOM     25  N   UNL A   1      28.466  31.934  22.344  1.00  0.00    -0.333 N 
ATOM     26  C   UNL A   1      27.861  31.871  20.248  1.00  0.00     0.131 A 
ATOM     27  C   UNL A   1      28.044  32.716  21.309  1.00  0.00     0.107 A 
ATOM     28  C   UNL A   1      28.967  32.412  23.610  1.00  0.00     0.151 C 
ENDBRANCH  22  23
ENDBRANCH  11  22
ENDBRANCH   5   8
ENDBRANCH   3   4
ENDBRANCH   2   3
ENDBRANCH   1   2
BRANCH   1  29
ATOM     29  C   UNL A   1      35.591  31.262  28.227  1.00  0.00     0.116 C 
BRANCH  29  30
ATOM     30  N   UNL A   1      35.520  30.557  29.499  1.00  0.00    -0.352 N 
ATOM     31  C   UNL A   1      36.524  30.031  30.294  1.00  0.00     0.251 C 
ATOM     32  H   UNL A   1      34.609  30.432  29.851  1.00  0.00     0.163 HD
ATOM     33  O   UNL A   1      36.262  29.487  31.346  1.00  0.00    -0.269 OA
BRANCH  31  34
ATOM     34  C   UNL A   1      37.913  30.090  29.798  1.00  0.00     0.039 A 
ATOM     35  C   UNL A   1      38.945  30.283  30.719  1.00  0.00     0.014 A 
ATOM     36  C   UNL A   1      38.188  29.792  28.467  1.00  0.00     0.014 A 
ATOM     37  C   UNL A   1      40.262  30.034  30.328  1.00  0.00     0.010 A 
ATOM     38  C   UNL A   1      39.483  29.437  28.112  1.00  0.00     0.010 A 
ATOM     39  C   UNL A   1      40.532  29.532  29.043  1.00  0.00    -0.014 A 
BRANCH  39  40
ATOM     40  C   UNL A   1      41.892  29.070  28.655  1.00  0.00     0.031 A 
ATOM     41  C   UNL A   1      43.024  30.060  28.583  1.00  0.00     0.074 A 
ATOM     42  C   UNL A   1      42.088  27.792  28.263  1.00  0.00     0.049 A 
ATOM     43  N   UNL A   1      44.240  29.894  28.132  1.00  0.00    -0.248 NA
ATOM     44  C   UNL A   1      42.731  31.433  29.026  1.00  0.00     0.031 C 
ATOM     45  C   UNL A   1      41.058  26.751  28.200  1.00  0.00     0.029 A 
ATOM     46  N   UNL A   1      43.223  27.152  27.831  1.00  0.00    -0.354 N 
ATOM     47  C   UNL A   1      44.839  31.147  28.195  1.00  0.00     0.074 A 
ATOM     48  C   UNL A   1      43.832  32.073  28.662  1.00  0.00     0.031 C 
ATOM     49  C   UNL A   1      41.617  25.597  27.798  1.00  0.00     0.029 A 
ATOM     50  C   UNL A   1      43.034  25.820  27.538  1.00  0.00     0.049 A 
ATOM     51  H   UNL A   1      44.094  27.604  27.740  1.00  0.00     0.167 HD
ATOM     52  C   UNL A   1      46.121  31.491  27.928  1.00  0.00     0.037 A 
ATOM     53  C   UNL A   1      43.907  24.885  27.113  1.00  0.00     0.037 A 
ATOM     54  C   UNL A   1      47.138  30.553  27.541  1.00  0.00     0.049 A 
ATOM     55  C   UNL A   1      45.346  25.272  26.900  1.00  0.00     0.074 A 
ATOM     56  C   UNL A   1      48.485  30.780  27.329  1.00  0.00     0.029 A 
ATOM     57  N   UNL A   1      46.921  29.198  27.330  1.00  0.00    -0.354 N 
ATOM     58  N   UNL A   1      45.909  26.450  27.026  1.00  0.00    -0.248 NA
ATOM     59  C   UNL A   1      46.271  24.204  26.497  1.00  0.00     0.031 C 
ATOM     60  C   UNL A   1      49.082  29.567  26.973  1.00  0.00     0.029 A 
ATOM     61  C   UNL A   1      48.111  28.577  26.993  1.00  0.00     0.049 A 
ATOM     62  H   UNL A   1      46.050  28.746  27.408  1.00  0.00     0.167 HD
ATOM     63  C   UNL A   1      47.257  26.260  26.744  1.00  0.00     0.074 A 
ATOM     64  C   UNL A   1      47.428  24.852  26.453  1.00  0.00     0.031 C 
ATOM     65  C   UNL A   1      48.263  27.169  26.727  1.00  0.00     0.037 A 
BRANCH  52  66
ATOM     66  C   UNL A   1      46.491  32.940  28.078  1.00  0.00     0.058 A 
ATOM     67  C   UNL A   1      46.989  33.449  29.290  1.00  0.00     0.135 A 
ATOM     68  C   UNL A   1      46.344  33.834  27.006  1.00  0.00     0.135 A 
ATOM     69  F   UNL A   1      47.132  32.640  30.353  1.00  0.00    -0.206 F 
ATOM     70  C   UNL A   1      47.280  34.798  29.448  1.00  0.00     0.059 A 
ATOM     71  C   UNL A   1      46.661  35.184  27.132  1.00  0.00     0.059 A 
ATOM     72  F   UNL A   1      45.876  33.402  25.825  1.00  0.00    -0.206 F 
ATOM     73  C   UNL A   1      47.107  35.659  28.365  1.00  0.00     0.060 A 
BRANCH  73  74
ATOM     74  S   UNL A   1      47.470  37.413  28.592  1.00  0.00     0.124 S 
ATOM     75  O   UNL A   1      48.377  37.666  27.477  1.00  0.00    -0.237 OA
ATOM     76  O   UNL A   1      46.149  38.023  28.484  1.00  0.00    -0.237 OA
ATOM     77  O   UNL A   1      48.075  37.465  29.919  1.00  0.00    -0.744 OA
ENDBRANCH  73  74
ENDBRANCH  52  66
BRANCH  53  78
ATOM     78  C   UNL A   1      43.461  23.479  26.912  1.00  0.00     0.058 A 
ATOM     79  C   UNL A   1      43.310  22.954  25.619  1.00  0.00     0.135 A 
ATOM     80  C   UNL A   1      43.181  22.634  27.996  1.00  0.00     0.135 A 
ATOM     81  F   UNL A   1      43.560  23.726  24.550  1.00  0.00    -0.206 F 
ATOM     82  C   UNL A   1      42.880  21.649  25.405  1.00  0.00     0.059 A 
ATOM     83  C   UNL A   1      42.770  21.316  27.808  1.00  0.00     0.059 A 
ATOM     84  F   UNL A   1      43.327  23.080  29.252  1.00  0.00    -0.206 F 
ATOM     85  C   UNL A   1      42.612  20.836  26.508  1.00  0.00     0.060 A 
BRANCH  85  86
ATOM     86  S   UNL A   1      42.098  19.128  26.220  1.00  0.00     0.124 S 
ATOM     87  O   UNL A   1      42.367  18.518  27.517  1.00  0.00    -0.237 OA
ATOM     88  O   UNL A   1      40.690  19.285  25.868  1.00  0.00    -0.237 OA
ATOM     89  O   UNL A   1      42.964  18.699  25.127  1.00  0.00    -0.744 OA
ENDBRANCH  85  86
ENDBRANCH  53  78
BRANCH  65  90
ATOM     90  C   UNL A   1      49.644  26.667  26.421  1.00  0.00     0.058 A 
ATOM     91  C   UNL A   1      50.449  26.082  27.410  1.00  0.00     0.135 A 
ATOM     92  C   UNL A   1      50.140  26.712  25.108  1.00  0.00     0.135 A 
ATOM     93  F   UNL A   1      50.021  26.020  28.681  1.00  0.00    -0.206 F 
ATOM     94  C   UNL A   1      51.707  25.571  27.110  1.00  0.00     0.059 A 
ATOM     95  C   UNL A   1      51.385  26.186  24.782  1.00  0.00     0.059 A 
ATOM     96  F   UNL A   1      49.402  27.253  24.126  1.00  0.00    -0.206 F 
ATOM     97  C   UNL A   1      52.165  25.626  25.792  1.00  0.00     0.060 A 
BRANCH  97  98
ATOM     98  S   UNL A   1      53.780  24.917  25.405  1.00  0.00     0.124 S 
ATOM     99  O   UNL A   1      54.198  25.740  24.275  1.00  0.00    -0.237 OA
ATOM    100  O   UNL A   1      54.518  25.123  26.647  1.00  0.00    -0.237 OA
ATOM    101  O   UNL A   1      53.472  23.524  25.090  1.00  0.00    -0.744 OA
ENDBRANCH  97  98
ENDBRANCH  65  90
ENDBRANCH  39  40
ENDBRANCH  31  34
ENDBRANCH  29  30
ENDBRANCH   1  29
TORSDOF 18
ENDMDL
MODEL 2
REMARK VINA RESULT:     -12.6      2.816      4.871
REMARK SMILES COc1cccc([C@@H]2C[N@@H+](Cc3nccn3C)C[C@H]2C(=O)NCCCCNC(=O)c2ccc(-c3c4nc(c(-c5c(F)cc(S(=O)(=O)[O-])cc5F)c5ccc([nH]5)c(-c5c(F)cc(S(=O)(=O)[O-])cc5F)c5nc(c(-c6c(F)cc(S(=O)(=O)[O-])cc6F)c6ccc3[nH]6)C=C5)C=C4)cc2)c1
REMARK SMILES IDX 25 1 24 2 23 3 22 4 20 5 21 6 19 8 8 9 9 10 10 11 18 12 7 14
REMARK SMILES IDX 3 15 4 16 96 17 5 18 6 19 2 20 1 21 11 22 12 23 13 24 16 25
REMARK SMILES IDX 14 26 15 27 17 28 26 29 27 30 28 31 29 33 30 34 31 35 95 36
REMARK SMILES IDX 32 37 94 38 33 39 34 40 35 41 88 42 36 43 93 44 87 45 89 46
REMARK SMILES IDX 37 47 92 48 86 49 85 50 38 52 72 53 51 54 71 55 52 56 55 57
REMARK SMILES IDX 70 58 90 59 53 60 54 61 69 63 91 64 56 65 39 66 40 67 49 68
REMARK SMILES IDX 41 69 42 70 48 71 50 72 43 73 44 74 45 75 46 76 47 77 73 78
REMARK SMILES IDX 74 79 83 80 75 81 76 82 82 83 84 84 77 85 78 86 79 87 80 88
REMARK SMILES IDX 81 89 57 90 58 91 67 92 59 93 60 94 66 95 68 96 61 97 62 98
REMARK SMILES IDX 63 99 64 100 65 101
REMARK H PARENT 22 7 10 13 27 32 89 51 55 62
REMARK Flexibility Score: inf
ROOT
ATOM      1  C   UNL A   1      32.683  29.765  25.938  1.00  0.00     0.023 C 
ENDROOT
BRANCH   1   2
ATOM      2  C   UNL A   1      31.507  28.775  25.936  1.00  0.00     0.023 C 
BRANCH   2   3
ATOM      3  C   UNL A   1      31.265  27.946  27.205  1.00  0.00     0.116 C 
BRANCH   3   4
ATOM      4  N   UNL A   1      31.871  26.611  27.098  1.00  0.00    -0.356 N 
ATOM      5  C   UNL A   1      32.303  26.018  25.944  1.00  0.00     0.229 C 
ATOM      6  O   UNL A   1      33.499  26.135  25.660  1.00  0.00    -0.275 OA
ATOM      7  H   UNL A   1      31.975  26.099  27.932  1.00  0.00     0.163 HD
BRANCH   5   8
ATOM      8  C   UNL A   1      31.415  25.116  25.082  1.00  0.00     0.146 C 
ATOM      9  C   UNL A   1      31.195  25.430  23.606  1.00  0.00     0.092 C 
ATOM     10  C   UNL A   1      30.689  24.081  23.047  1.00  0.00     0.271 C 
ATOM     11  N   UNL A   1      31.271  23.019  23.881  1.00  0.00    -0.327 N 
ATOM     12  C   UNL A   1      31.751  23.629  25.129  1.00  0.00     0.277 C 
ATOM     13  H   UNL A   1      30.555  22.337  24.135  1.00  0.00     0.348 HD
BRANCH   9  14
ATOM     14  C   UNL A   1      30.178  26.534  23.371  1.00  0.00    -0.035 A 
ATOM     15  C   UNL A   1      29.601  28.704  22.394  1.00  0.00     0.119 A 
ATOM     16  C   UNL A   1      28.334  28.609  22.964  1.00  0.00     0.046 A 
ATOM     17  C   UNL A   1      30.511  27.672  22.605  1.00  0.00     0.050 A 
ATOM     18  C   UNL A   1      27.979  27.488  23.719  1.00  0.00     0.004 A 
ATOM     19  C   UNL A   1      28.895  26.455  23.923  1.00  0.00     0.004 A 
BRANCH  15  20
ATOM     20  O   UNL A   1      29.846  29.844  21.678  1.00  0.00    -0.497 OA
ATOM     21  C   UNL A   1      28.705  30.592  21.269  1.00  0.00     0.278 C 
ENDBRANCH  15  20
ENDBRANCH   9  14
BRANCH  11  22
ATOM     22  C   UNL A   1      32.227  22.159  23.164  1.00  0.00     0.339 C 
BRANCH  22  23
ATOM     23  C   UNL A   1      33.657  22.517  23.416  1.00  0.00     0.164 A 
ATOM     24  N   UNL A   1      34.272  23.569  22.898  1.00  0.00    -0.236 NA
ATOM     25  N   UNL A   1      34.467  21.903  24.339  1.00  0.00    -0.333 N 
ATOM     26  C   UNL A   1      35.392  23.756  23.650  1.00  0.00     0.131 A 
ATOM     27  C   UNL A   1      35.490  22.768  24.592  1.00  0.00     0.107 A 
ATOM     28  C   UNL A   1      34.285  20.611  24.954  1.00  0.00     0.151 C 
ENDBRANCH  22  23
ENDBRANCH  11  22
ENDBRANCH   5   8
ENDBRANCH   3   4
ENDBRANCH   2   3
ENDBRANCH   1   2
BRANCH   1  29
ATOM     29  C   UNL A   1      33.796  29.622  26.973  1.00  0.00     0.116 C 
BRANCH  29  30
ATOM     30  N   UNL A   1      33.890  30.694  27.956  1.00  0.00    -0.352 N 
ATOM     31  C   UNL A   1      34.937  31.073  28.777  1.00  0.00     0.251 C 
ATOM     32  H   UNL A   1      33.073  31.236  28.052  1.00  0.00     0.163 HD
ATOM     33  O   UNL A   1      34.826  32.019  29.527  1.00  0.00    -0.269 OA
BRANCH  31  34
ATOM     34  C   UNL A   1      36.167  30.256  28.766  1.00  0.00     0.039 A 
ATOM     35  C   UNL A   1      36.986  30.294  27.635  1.00  0.00     0.014 A 
ATOM     36  C   UNL A   1      36.574  29.599  29.924  1.00  0.00     0.014 A 
ATOM     37  C   UNL A   1      38.284  29.790  27.719  1.00  0.00     0.010 A 
ATOM     38  C   UNL A   1      37.900  29.201  30.037  1.00  0.00     0.010 A 
ATOM     39  C   UNL A   1      38.777  29.312  28.945  1.00  0.00    -0.014 A 
BRANCH  39  40
ATOM     40  C   UNL A   1      40.210  28.950  29.124  1.00  0.00     0.031 A 
ATOM     41  C   UNL A   1      41.177  29.974  29.657  1.00  0.00     0.074 A 
ATOM     42  C   UNL A   1      40.663  27.748  28.707  1.00  0.00     0.049 A 
ATOM     43  N   UNL A   1      42.479  29.910  29.751  1.00  0.00    -0.248 NA
ATOM     44  C   UNL A   1      40.607  31.261  30.088  1.00  0.00     0.031 C 
ATOM     45  C   UNL A   1      39.849  26.696  28.090  1.00  0.00     0.029 A 
ATOM     46  N   UNL A   1      41.926  27.209  28.730  1.00  0.00    -0.354 N 
ATOM     47  C   UNL A   1      42.884  31.159  30.209  1.00  0.00     0.074 A 
ATOM     48  C   UNL A   1      41.698  31.979  30.306  1.00  0.00     0.031 C 
ATOM     49  C   UNL A   1      40.623  25.628  27.834  1.00  0.00     0.029 A 
ATOM     50  C   UNL A   1      41.994  25.928  28.232  1.00  0.00     0.049 A 
ATOM     51  H   UNL A   1      42.711  27.696  29.072  1.00  0.00     0.167 HD
ATOM     52  C   UNL A   1      44.125  31.576  30.555  1.00  0.00     0.037 A 
ATOM     53  C   UNL A   1      43.042  25.089  28.114  1.00  0.00     0.037 A 
ATOM     54  C   UNL A   1      45.289  30.732  30.533  1.00  0.00     0.049 A 
ATOM     55  C   UNL A   1      44.398  25.545  28.581  1.00  0.00     0.074 A 
ATOM     56  C   UNL A   1      46.576  31.028  30.944  1.00  0.00     0.029 A 
ATOM     57  N   UNL A   1      45.300  29.416  30.094  1.00  0.00    -0.354 N 
ATOM     58  N   UNL A   1      44.752  26.710  29.071  1.00  0.00    -0.248 NA
ATOM     59  C   UNL A   1      45.497  24.574  28.491  1.00  0.00     0.031 C 
ATOM     60  C   UNL A   1      47.371  29.896  30.738  1.00  0.00     0.029 A 
ATOM     61  C   UNL A   1      46.571  28.885  30.227  1.00  0.00     0.049 A 
ATOM     62  H   UNL A   1      44.519  28.931  29.741  1.00  0.00     0.167 HD
ATOM     63  C   UNL A   1      46.105  26.603  29.371  1.00  0.00     0.074 A 
ATOM     64  C   UNL A   1      46.505  25.255  29.019  1.00  0.00     0.031 C 
ATOM     65  C   UNL A   1      46.942  27.534  29.890  1.00  0.00     0.037 A 
BRANCH  52  66
ATOM     66  C   UNL A   1      44.270  32.999  31.016  1.00  0.00     0.058 A 
ATOM     67  C   UNL A   1      44.068  33.360  32.359  1.00  0.00     0.135 A 
ATOM     68  C   UNL A   1      44.610  34.016  30.110  1.00  0.00     0.135 A 
ATOM     69  F   UNL A   1      43.723  32.429  33.264  1.00  0.00    -0.206 F 
ATOM     70  C   UNL A   1      44.147  34.683  32.777  1.00  0.00     0.059 A 
ATOM     71  C   UNL A   1      44.729  35.343  30.514  1.00  0.00     0.059 A 
ATOM     72  F   UNL A   1      44.819  33.728  28.816  1.00  0.00    -0.206 F 
ATOM     73  C   UNL A   1      44.473  35.669  31.846  1.00  0.00     0.060 A 
BRANCH  73  74
ATOM     74  S   UNL A   1      44.552  37.385  32.400  1.00  0.00     0.124 S 
ATOM     75  O   UNL A   1      43.691  38.043  31.423  1.00  0.00    -0.237 OA
ATOM     76  O   UNL A   1      44.022  37.302  33.756  1.00  0.00    -0.237 OA
ATOM     77  O   UNL A   1      45.973  37.706  32.303  1.00  0.00    -0.744 OA
ENDBRANCH  73  74
ENDBRANCH  52  66
BRANCH  53  78
ATOM     78  C   UNL A   1      42.846  23.714  27.580  1.00  0.00     0.058 A 
ATOM     79  C   UNL A   1      42.510  22.655  28.439  1.00  0.00     0.135 A 
ATOM     80  C   UNL A   1      42.985  23.427  26.214  1.00  0.00     0.135 A 
ATOM     81  F   UNL A   1      42.372  22.878  29.755  1.00  0.00    -0.206 F 
ATOM     82  C   UNL A   1      42.337  21.358  27.967  1.00  0.00     0.059 A 
ATOM     83  C   UNL A   1      42.795  22.140  25.714  1.00  0.00     0.059 A 
ATOM     84  F   UNL A   1      43.287  24.407  25.349  1.00  0.00    -0.206 F 
ATOM     85  C   UNL A   1      42.482  21.110  26.601  1.00  0.00     0.060 A 
BRANCH  85  86
ATOM     86  S   UNL A   1      42.210  19.431  25.991  1.00  0.00     0.124 S 
ATOM     87  O   UNL A   1      42.612  18.632  27.141  1.00  0.00    -0.237 OA
ATOM     88  O   UNL A   1      40.782  19.442  25.687  1.00  0.00    -0.237 OA
ATOM     89  O   UNL A   1      43.088  19.353  24.827  1.00  0.00    -0.744 OA
ENDBRANCH  85  86
ENDBRANCH  53  78
BRANCH  65  90
ATOM     90  C   UNL A   1      48.362  27.122  30.146  1.00  0.00     0.058 A 
ATOM     91  C   UNL A   1      49.374  27.341  29.199  1.00  0.00     0.135 A 
ATOM     92  C   UNL A   1      48.727  26.564  31.382  1.00  0.00     0.135 A 
ATOM     93  F   UNL A   1      49.074  27.867  28.000  1.00  0.00    -0.206 F 
ATOM     94  C   UNL A   1      50.697  27.005  29.462  1.00  0.00     0.059 A 
ATOM     95  C   UNL A   1      50.047  26.242  31.675  1.00  0.00     0.059 A 
ATOM     96  F   UNL A   1      47.796  26.346  32.325  1.00  0.00    -0.206 F 
ATOM     97  C   UNL A   1      51.024  26.459  30.705  1.00  0.00     0.060 A 
BRANCH  97  98
ATOM     98  S   UNL A   1      52.753  26.071  31.053  1.00  0.00     0.124 S 
ATOM     99  O   UNL A   1      52.630  24.802  31.763  1.00  0.00    -0.237 OA
ATOM    100  O   UNL A   1      53.333  25.996  29.717  1.00  0.00    -0.237 OA
ATOM    101  O   UNL A   1      53.198  27.204  31.860  1.00  0.00    -0.744 OA
ENDBRANCH  97  98
ENDBRANCH  65  90
ENDBRANCH  39  40
ENDBRANCH  31  34
ENDBRANCH  29  30
ENDBRANCH   1  29
TORSDOF 18
ENDMDL
MODEL 3
REMARK VINA RESULT:     -12.5      1.525      3.905
REMARK SMILES COc1cccc([C@@H]2C[N@@H+](Cc3nccn3C)C[C@H]2C(=O)NCCCCNC(=O)c2ccc(-c3c4nc(c(-c5c(F)cc(S(=O)(=O)[O-])cc5F)c5ccc([nH]5)c(-c5c(F)cc(S(=O)(=O)[O-])cc5F)c5nc(c(-c6c(F)cc(S(=O)(=O)[O-])cc6F)c6ccc3[nH]6)C=C5)C=C4)cc2)c1
REMARK SMILES IDX 25 1 24 2 23 3 22 4 20 5 21 6 19 8 8 9 9 10 10 11 18 12 7 14
REMARK SMILES IDX 3 15 4 16 96 17 5 18 6 19 2 20 1 21 11 22 12 23 13 24 16 25
REMARK SMILES IDX 14 26 15 27 17 28 26 29 27 30 28 31 29 33 30 34 31 35 95 36
REMARK SMILES IDX 32 37 94 38 33 39 34 40 35 41 88 42 36 43 93 44 87 45 89 46
REMARK SMILES IDX 37 47 92 48 86 49 85 50 38 52 72 53 51 54 71 55 52 56 55 57
REMARK SMILES IDX 70 58 90 59 53 60 54 61 69 63 91 64 56 65 39 66 40 67 49 68
REMARK SMILES IDX 41 69 42 70 48 71 50 72 43 73 44 74 45 75 46 76 47 77 73 78
REMARK SMILES IDX 74 79 83 80 75 81 76 82 82 83 84 84 77 85 78 86 79 87 80 88
REMARK SMILES IDX 81 89 57 90 58 91 67 92 59 93 60 94 66 95 68 96 61 97 62 98
REMARK SMILES IDX 63 99 64 100 65 101
REMARK H PARENT 22 7 10 13 27 32 89 51 55 62
REMARK Flexibility Score: inf
ROOT
ATOM      1  C   UNL A   1      34.688  28.986  27.112  1.00  0.00     0.023 C 
ENDROOT
BRANCH   1   2
ATOM      2  C   UNL A   1      33.477  29.920  26.953  1.00  0.00     0.023 C 
BRANCH   2   3
ATOM      3  C   UNL A   1      32.613  29.766  25.694  1.00  0.00     0.116 C 
BRANCH   3   4
ATOM      4  N   UNL A   1      31.447  28.907  25.946  1.00  0.00    -0.356 N 
ATOM      5  C   UNL A   1      31.424  27.542  25.865  1.00  0.00     0.229 C 
ATOM      6  O   UNL A   1      31.602  26.910  26.912  1.00  0.00    -0.275 OA
ATOM      7  H   UNL A   1      30.607  29.355  26.194  1.00  0.00     0.163 HD
BRANCH   5   8
ATOM      8  C   UNL A   1      31.057  26.783  24.587  1.00  0.00     0.146 C 
ATOM      9  C   UNL A   1      31.099  27.484  23.232  1.00  0.00     0.092 C 
ATOM     10  C   UNL A   1      31.147  26.299  22.242  1.00  0.00     0.271 C 
ATOM     11  N   UNL A   1      31.805  25.180  22.934  1.00  0.00    -0.327 N 
ATOM     12  C   UNL A   1      31.790  25.463  24.376  1.00  0.00     0.277 C 
ATOM     13  H   UNL A   1      31.280  24.318  22.790  1.00  0.00     0.348 HD
BRANCH   9  14
ATOM     14  C   UNL A   1      29.887  28.364  22.973  1.00  0.00    -0.035 A 
ATOM     15  C   UNL A   1      28.944  30.495  22.221  1.00  0.00     0.119 A 
ATOM     16  C   UNL A   1      27.670  30.025  22.530  1.00  0.00     0.046 A 
ATOM     17  C   UNL A   1      30.039  29.665  22.448  1.00  0.00     0.050 A 
ATOM     18  C   UNL A   1      27.495  28.736  23.043  1.00  0.00     0.004 A 
ATOM     19  C   UNL A   1      28.597  27.908  23.264  1.00  0.00     0.004 A 
BRANCH  15  20
ATOM     20  O   UNL A   1      29.003  31.770  21.729  1.00  0.00    -0.497 OA
ATOM     21  C   UNL A   1      28.720  32.818  22.650  1.00  0.00     0.278 C 
ENDBRANCH  15  20
ENDBRANCH   9  14
BRANCH  11  22
ATOM     22  C   UNL A   1      33.107  24.809  22.355  1.00  0.00     0.339 C 
BRANCH  22  23
ATOM     23  C   UNL A   1      33.824  23.748  23.128  1.00  0.00     0.164 A 
ATOM     24  N   UNL A   1      34.936  23.944  23.821  1.00  0.00    -0.236 NA
ATOM     25  N   UNL A   1      33.341  22.484  23.355  1.00  0.00    -0.333 N 
ATOM     26  C   UNL A   1      35.043  22.879  24.662  1.00  0.00     0.131 A 
ATOM     27  C   UNL A   1      34.023  21.997  24.431  1.00  0.00     0.107 A 
ATOM     28  C   UNL A   1      32.303  21.790  22.632  1.00  0.00     0.151 C 
ENDBRANCH  22  23
ENDBRANCH  11  22
ENDBRANCH   5   8
ENDBRANCH   3   4
ENDBRANCH   2   3
ENDBRANCH   1   2
BRANCH   1  29
ATOM     29  C   UNL A   1      35.872  29.415  27.974  1.00  0.00     0.116 C 
BRANCH  29  30
ATOM     30  N   UNL A   1      35.583  29.630  29.386  1.00  0.00    -0.352 N 
ATOM     31  C   UNL A   1      36.425  29.935  30.441  1.00  0.00     0.251 C 
ATOM     32  H   UNL A   1      34.633  29.544  29.630  1.00  0.00     0.163 HD
ATOM     33  O   UNL A   1      35.985  30.098  31.559  1.00  0.00    -0.269 OA
BRANCH  31  34
ATOM     34  C   UNL A   1      37.878  29.991  30.184  1.00  0.00     0.039 A 
ATOM     35  C   UNL A   1      38.749  29.492  31.155  1.00  0.00     0.014 A 
ATOM     36  C   UNL A   1      38.347  30.379  28.932  1.00  0.00     0.014 A 
ATOM     37  C   UNL A   1      40.081  29.248  30.814  1.00  0.00     0.010 A 
ATOM     38  C   UNL A   1      39.640  30.031  28.564  1.00  0.00     0.010 A 
ATOM     39  C   UNL A   1      40.516  29.441  29.492  1.00  0.00    -0.014 A 
BRANCH  39  40
ATOM     40  C   UNL A   1      41.868  29.010  29.043  1.00  0.00     0.031 A 
ATOM     41  C   UNL A   1      42.994  30.008  29.001  1.00  0.00     0.074 A 
ATOM     42  C   UNL A   1      42.058  27.759  28.572  1.00  0.00     0.049 A 
ATOM     43  N   UNL A   1      44.199  29.876  28.511  1.00  0.00    -0.248 NA
ATOM     44  C   UNL A   1      42.708  31.352  29.531  1.00  0.00     0.031 C 
ATOM     45  C   UNL A   1      41.031  26.718  28.473  1.00  0.00     0.029 A 
ATOM     46  N   UNL A   1      43.185  27.150  28.075  1.00  0.00    -0.354 N 
ATOM     47  C   UNL A   1      44.794  31.125  28.633  1.00  0.00     0.074 A 
ATOM     48  C   UNL A   1      43.796  32.018  29.179  1.00  0.00     0.031 C 
ATOM     49  C   UNL A   1      41.584  25.592  27.990  1.00  0.00     0.029 A 
ATOM     50  C   UNL A   1      42.993  25.838  27.708  1.00  0.00     0.049 A 
ATOM     51  H   UNL A   1      44.051  27.612  27.989  1.00  0.00     0.167 HD
ATOM     52  C   UNL A   1      46.068  31.492  28.354  1.00  0.00     0.037 A 
ATOM     53  C   UNL A   1      43.858  24.933  27.207  1.00  0.00     0.037 A 
ATOM     54  C   UNL A   1      47.078  30.583  27.887  1.00  0.00     0.049 A 
ATOM     55  C   UNL A   1      45.290  25.340  26.982  1.00  0.00     0.074 A 
ATOM     56  C   UNL A   1      48.419  30.829  27.655  1.00  0.00     0.029 A 
ATOM     57  N   UNL A   1      46.861  29.242  27.602  1.00  0.00    -0.354 N 
ATOM     58  N   UNL A   1      45.851  26.511  27.162  1.00  0.00    -0.248 NA
ATOM     59  C   UNL A   1      46.209  24.302  26.493  1.00  0.00     0.031 C 
ATOM     60  C   UNL A   1      49.011  29.642  27.213  1.00  0.00     0.029 A 
ATOM     61  C   UNL A   1      48.045  28.648  27.199  1.00  0.00     0.049 A 
ATOM     62  H   UNL A   1      45.994  28.781  27.675  1.00  0.00     0.167 HD
ATOM     63  C   UNL A   1      47.193  26.345  26.836  1.00  0.00     0.074 A 
ATOM     64  C   UNL A   1      47.361  24.957  26.458  1.00  0.00     0.031 C 
ATOM     65  C   UNL A   1      48.194  27.258  26.847  1.00  0.00     0.037 A 
BRANCH  52  66
ATOM     66  C   UNL A   1      46.436  32.931  28.580  1.00  0.00     0.058 A 
ATOM     67  C   UNL A   1      46.893  33.384  29.830  1.00  0.00     0.135 A 
ATOM     68  C   UNL A   1      46.329  33.871  27.543  1.00  0.00     0.135 A 
ATOM     69  F   UNL A   1      46.997  32.530  30.861  1.00  0.00    -0.206 F 
ATOM     70  C   UNL A   1      47.182  34.724  30.056  1.00  0.00     0.059 A 
ATOM     71  C   UNL A   1      46.645  35.213  27.739  1.00  0.00     0.059 A 
ATOM     72  F   UNL A   1      45.901  33.494  26.329  1.00  0.00    -0.206 F 
ATOM     73  C   UNL A   1      47.050  35.633  29.007  1.00  0.00     0.060 A 
BRANCH  73  74
ATOM     74  S   UNL A   1      47.409  37.373  29.322  1.00  0.00     0.124 S 
ATOM     75  O   UNL A   1      47.662  37.359  30.759  1.00  0.00    -0.237 OA
ATOM     76  O   UNL A   1      48.574  37.611  28.477  1.00  0.00    -0.237 OA
ATOM     77  O   UNL A   1      46.186  38.052  28.905  1.00  0.00    -0.744 OA
ENDBRANCH  73  74
ENDBRANCH  52  66
BRANCH  53  78
ATOM     78  C   UNL A   1      43.412  23.540  26.935  1.00  0.00     0.058 A 
ATOM     79  C   UNL A   1      43.176  22.645  27.991  1.00  0.00     0.135 A 
ATOM     80  C   UNL A   1      43.211  23.073  25.628  1.00  0.00     0.135 A 
ATOM     81  F   UNL A   1      43.361  23.042  29.259  1.00  0.00    -0.206 F 
ATOM     82  C   UNL A   1      42.775  21.333  27.762  1.00  0.00     0.059 A 
ATOM     83  C   UNL A   1      42.787  21.770  25.373  1.00  0.00     0.059 A 
ATOM     84  F   UNL A   1      43.404  23.893  24.584  1.00  0.00    -0.206 F 
ATOM     85  C   UNL A   1      42.583  20.904  26.447  1.00  0.00     0.060 A 
BRANCH  85  86
ATOM     86  S   UNL A   1      42.016  19.213  26.162  1.00  0.00     0.124 S 
ATOM     87  O   UNL A   1      42.786  18.841  24.981  1.00  0.00    -0.237 OA
ATOM     88  O   UNL A   1      42.393  18.548  27.406  1.00  0.00    -0.237 OA
ATOM     89  O   UNL A   1      40.580  19.372  25.957  1.00  0.00    -0.744 OA
ENDBRANCH  85  86
ENDBRANCH  53  78
BRANCH  65  90
ATOM     90  C   UNL A   1      49.569  26.782  26.478  1.00  0.00     0.058 A 
ATOM     91  C   UNL A   1      50.440  26.237  27.434  1.00  0.00     0.135 A 
ATOM     92  C   UNL A   1      49.993  26.811  25.139  1.00  0.00     0.135 A 
ATOM     93  F   UNL A   1      50.082  26.193  28.727  1.00  0.00    -0.206 F 
ATOM     94  C   UNL A   1      51.692  25.749  27.077  1.00  0.00     0.059 A 
ATOM     95  C   UNL A   1      51.232  26.307  24.757  1.00  0.00     0.059 A 
ATOM     96  F   UNL A   1      49.191  27.313  24.188  1.00  0.00    -0.206 F 
ATOM     97  C   UNL A   1      52.078  25.787  25.735  1.00  0.00     0.060 A 
BRANCH  97  98
ATOM     98  S   UNL A   1      53.687  25.108  25.277  1.00  0.00     0.124 S 
ATOM     99  O   UNL A   1      53.909  25.733  23.977  1.00  0.00    -0.237 OA
ATOM    100  O   UNL A   1      54.545  25.576  26.360  1.00  0.00    -0.237 OA
ATOM    101  O   UNL A   1      53.451  23.667  25.251  1.00  0.00    -0.744 OA
ENDBRANCH  97  98
ENDBRANCH  65  90
ENDBRANCH  39  40
ENDBRANCH  31  34
ENDBRANCH  29  30
ENDBRANCH   1  29
TORSDOF 18
ENDMDL
