MODEL 1
REMARK VINA RESULT:     -12.7      0.000      0.000
REMARK SMILES Cc1c(CC(=O)N[C@H](CO)C(=O)NCCCCNC(=O)c2ccc(-c3c4nc(c(-c5c(F)cc(S(=O)(=O)[O-])cc5F)c5ccc([nH]5)c(-c5c(F)cc(S(=O)(=O)[O-])cc5F)c5nc(c(-c6c(F)cc(S(=O)(=O)[O-])cc6F)c6ccc3[nH]6)C=C5)C=C4)cc2)cc(-c2ccc(S(C)(=O)=O)cc2)n1-c1ccc(F)cc1
REMARK SMILES IDX 14 1 13 2 11 3 12 4 8 6 7 7 5 8 6 9 4 11 3 12 1 13 2 14
REMARK SMILES IDX 99 15 87 16 88 17 100 18 101 19 106 20 102 21 105 22 103 23
REMARK SMILES IDX 104 24 89 25 90 26 98 27 91 28 97 29 92 30 93 31 94 32 95 33
REMARK SMILES IDX 96 34 9 35 10 36 15 38 16 39 17 40 18 41 19 42 20 44 21 45
REMARK SMILES IDX 22 46 86 47 23 48 85 49 24 50 25 51 26 52 79 53 27 54 84 55
REMARK SMILES IDX 78 56 80 57 28 58 83 59 77 60 76 61 29 63 63 64 42 65 62 66
REMARK SMILES IDX 43 67 46 68 61 69 81 70 44 71 45 72 60 74 82 75 47 76 30 77
REMARK SMILES IDX 31 78 40 79 32 80 33 81 39 82 41 83 34 84 35 85 36 86 37 87
REMARK SMILES IDX 38 88 64 89 65 90 74 91 66 92 67 93 73 94 75 95 68 96 69 97
REMARK SMILES IDX 70 98 71 99 72 100 48 101 49 102 58 103 50 104 51 105 57 106
REMARK SMILES IDX 59 107 52 108 53 109 54 110 55 111 56 112
REMARK H PARENT 13 5 7 10 10 37 18 43 80 62 46 73
REMARK Flexibility Score: inf
ROOT
ATOM      1  C   UNL A   1      33.418  25.661  24.908  1.00  0.00     0.116 C 
ENDROOT
BRANCH   1   2
ATOM      2  N   UNL A   1      32.641  24.528  25.392  1.00  0.00    -0.354 N 
ATOM      3  C   UNL A   1      32.906  23.349  26.020  1.00  0.00     0.244 C 
ATOM      4  O   UNL A   1      31.997  22.505  26.008  1.00  0.00    -0.273 OA
ATOM      5  H   UNL A   1      31.679  24.645  25.223  1.00  0.00     0.163 HD
BRANCH   3   6
ATOM      6  C   UNL A   1      34.264  22.921  26.599  1.00  0.00     0.197 C 
BRANCH   6   7
ATOM      7  N   UNL A   1      35.230  22.553  25.586  1.00  0.00    -0.342 N 
ATOM      8  C   UNL A   1      36.508  23.010  25.435  1.00  0.00     0.225 C 
ATOM      9  O   UNL A   1      37.093  22.640  24.412  1.00  0.00    -0.275 OA
ATOM     10  H   UNL A   1      34.928  21.889  24.923  1.00  0.00     0.164 HD
BRANCH   8  11
ATOM     11  C   UNL A   1      37.233  23.844  26.498  1.00  0.00     0.137 C 
BRANCH  11  12
ATOM     12  C   UNL A   1      38.731  23.693  26.607  1.00  0.00    -0.017 A 
ATOM     13  C   UNL A   1      39.378  25.843  27.851  1.00  0.00     0.065 C 
ATOM     14  C   UNL A   1      39.661  24.517  27.245  1.00  0.00     0.024 A 
ATOM     15  N   UNL A   1      40.893  23.843  27.275  1.00  0.00    -0.314 N 
ATOM     16  C   UNL A   1      39.498  22.704  25.938  1.00  0.00     0.033 A 
ATOM     17  C   UNL A   1      40.804  22.780  26.382  1.00  0.00     0.053 A 
BRANCH  15  18
ATOM     18  C   UNL A   1      42.005  24.050  28.157  1.00  0.00     0.046 A 
ATOM     19  C   UNL A   1      42.821  25.176  28.055  1.00  0.00     0.029 A 
ATOM     20  C   UNL A   1      42.360  23.036  29.073  1.00  0.00     0.029 A 
ATOM     21  C   UNL A   1      43.940  25.297  28.900  1.00  0.00     0.041 A 
ATOM     22  C   UNL A   1      43.434  23.188  29.953  1.00  0.00     0.041 A 
ATOM     23  C   UNL A   1      44.217  24.322  29.857  1.00  0.00     0.123 A 
ATOM     24  F   UNL A   1      45.260  24.466  30.686  1.00  0.00    -0.207 F 
ENDBRANCH  15  18
BRANCH  17  25
ATOM     25  C   UNL A   1      41.912  21.891  26.047  1.00  0.00    -0.001 A 
ATOM     26  C   UNL A   1      43.062  22.420  25.450  1.00  0.00     0.011 A 
ATOM     27  C   UNL A   1      41.854  20.523  26.329  1.00  0.00     0.011 A 
ATOM     28  C   UNL A   1      44.114  21.604  25.068  1.00  0.00     0.021 A 
ATOM     29  C   UNL A   1      42.926  19.695  25.987  1.00  0.00     0.021 A 
ATOM     30  C   UNL A   1      44.038  20.240  25.339  1.00  0.00     0.067 A 
BRANCH  30  31
ATOM     31  S   UNL A   1      45.426  19.241  24.884  1.00  0.00     0.175 S 
ATOM     32  C   UNL A   1      45.226  19.036  23.134  1.00  0.00     0.163 C 
ATOM     33  O   UNL A   1      46.616  20.025  25.118  1.00  0.00    -0.224 OA
ATOM     34  O   UNL A   1      45.258  17.932  25.510  1.00  0.00    -0.224 OA
ENDBRANCH  30  31
ENDBRANCH  17  25
ENDBRANCH  11  12
ENDBRANCH   8  11
ENDBRANCH   6   7
BRANCH   6  35
ATOM     35  C   UNL A   1      33.948  21.802  27.616  1.00  0.00     0.191 C 
BRANCH  35  36
ATOM     36  O   UNL A   1      33.667  20.557  26.963  1.00  0.00    -0.394 OA
ATOM     37  H   UNL A   1      34.252  20.454  26.197  1.00  0.00     0.210 HD
ENDBRANCH  35  36
ENDBRANCH   6  35
ENDBRANCH   3   6
ENDBRANCH   1   2
BRANCH   1  38
ATOM     38  C   UNL A   1      33.559  26.799  25.972  1.00  0.00     0.023 C 
BRANCH  38  39
ATOM     39  C   UNL A   1      33.484  28.368  25.699  1.00  0.00     0.023 C 
BRANCH  39  40
ATOM     40  C   UNL A   1      32.279  29.364  26.038  1.00  0.00     0.116 C 
BRANCH  40  41
ATOM     41  N   UNL A   1      32.669  30.674  26.702  1.00  0.00    -0.352 N 
ATOM     42  C   UNL A   1      33.676  31.422  27.359  1.00  0.00     0.251 C 
ATOM     43  H   UNL A   1      31.877  31.257  26.655  1.00  0.00     0.163 HD
ATOM     44  O   UNL A   1      33.241  32.556  27.645  1.00  0.00    -0.269 OA
BRANCH  42  45
ATOM     45  C   UNL A   1      35.163  31.205  27.833  1.00  0.00     0.039 A 
ATOM     46  C   UNL A   1      35.587  29.925  28.301  1.00  0.00     0.014 A 
ATOM     47  C   UNL A   1      36.167  32.112  28.096  1.00  0.00     0.014 A 
ATOM     48  C   UNL A   1      36.915  29.564  28.970  1.00  0.00     0.010 A 
ATOM     49  C   UNL A   1      37.487  31.734  28.792  1.00  0.00     0.010 A 
ATOM     50  C   UNL A   1      37.963  30.458  29.351  1.00  0.00    -0.014 A 
BRANCH  50  51
ATOM     51  C   UNL A   1      39.232  29.951  30.597  1.00  0.00     0.031 A 
ATOM     52  C   UNL A   1      38.346  29.820  31.884  1.00  0.00     0.074 A 
ATOM     53  C   UNL A   1      40.576  30.352  31.176  1.00  0.00     0.049 A 
ATOM     54  N   UNL A   1      38.381  30.763  32.769  1.00  0.00    -0.248 NA
ATOM     55  C   UNL A   1      36.990  29.261  31.895  1.00  0.00     0.031 C 
ATOM     56  C   UNL A   1      40.763  31.047  32.500  1.00  0.00     0.029 A 
ATOM     57  N   UNL A   1      41.984  29.761  31.202  1.00  0.00    -0.354 N 
ATOM     58  C   UNL A   1      37.261  31.457  32.476  1.00  0.00     0.074 A 
ATOM     59  C   UNL A   1      36.304  30.377  32.213  1.00  0.00     0.031 C 
ATOM     60  C   UNL A   1      41.859  30.781  33.225  1.00  0.00     0.029 A 
ATOM     61  C   UNL A   1      42.903  30.074  32.447  1.00  0.00     0.049 A 
ATOM     62  H   UNL A   1      42.310  29.201  30.461  1.00  0.00     0.167 HD
ATOM     63  C   UNL A   1      37.306  32.730  31.983  1.00  0.00     0.037 A 
ATOM     64  C   UNL A   1      44.129  30.806  32.561  1.00  0.00     0.037 A 
ATOM     65  C   UNL A   1      38.574  33.294  31.434  1.00  0.00     0.049 A 
ATOM     66  C   UNL A   1      43.808  32.198  32.139  1.00  0.00     0.074 A 
ATOM     67  C   UNL A   1      39.462  33.078  30.384  1.00  0.00     0.029 A 
ATOM     68  N   UNL A   1      39.191  34.379  32.045  1.00  0.00    -0.354 N 
ATOM     69  N   UNL A   1      43.498  33.237  32.858  1.00  0.00    -0.248 NA
ATOM     70  C   UNL A   1      43.691  32.330  30.696  1.00  0.00     0.031 C 
ATOM     71  C   UNL A   1      40.283  34.201  30.181  1.00  0.00     0.029 A 
ATOM     72  C   UNL A   1      40.466  34.547  31.493  1.00  0.00     0.049 A 
ATOM     73  H   UNL A   1      38.796  34.938  32.753  1.00  0.00     0.167 HD
ATOM     74  C   UNL A   1      42.770  34.009  31.960  1.00  0.00     0.074 A 
ATOM     75  C   UNL A   1      43.112  33.515  30.636  1.00  0.00     0.031 C 
ATOM     76  C   UNL A   1      41.627  34.650  32.342  1.00  0.00     0.037 A 
BRANCH  63  77
ATOM     77  C   UNL A   1      36.128  33.615  32.246  1.00  0.00     0.058 A 
ATOM     78  C   UNL A   1      36.113  34.612  33.242  1.00  0.00     0.135 A 
ATOM     79  C   UNL A   1      35.090  33.660  31.296  1.00  0.00     0.135 A 
ATOM     80  F   UNL A   1      37.031  34.670  34.217  1.00  0.00    -0.206 F 
ATOM     81  C   UNL A   1      35.179  35.631  33.243  1.00  0.00     0.059 A 
ATOM     82  C   UNL A   1      34.204  34.719  31.228  1.00  0.00     0.059 A 
ATOM     83  F   UNL A   1      34.944  32.695  30.373  1.00  0.00    -0.206 F 
ATOM     84  C   UNL A   1      34.256  35.698  32.210  1.00  0.00     0.060 A 
BRANCH  84  85
ATOM     85  S   UNL A   1      33.123  37.087  32.169  1.00  0.00     0.124 S 
ATOM     86  O   UNL A   1      33.981  38.155  32.677  1.00  0.00    -0.237 OA
ATOM     87  O   UNL A   1      32.781  37.171  30.755  1.00  0.00    -0.237 OA
ATOM     88  O   UNL A   1      32.050  36.669  33.064  1.00  0.00    -0.744 OA
ENDBRANCH  84  85
ENDBRANCH  63  77
BRANCH  64  89
ATOM     89  C   UNL A   1      45.687  30.638  32.789  1.00  0.00     0.058 A 
ATOM     90  C   UNL A   1      46.636  29.957  31.980  1.00  0.00     0.135 A 
ATOM     91  C   UNL A   1      46.248  30.987  34.057  1.00  0.00     0.135 A 
ATOM     92  F   UNL A   1      46.251  29.382  30.830  1.00  0.00    -0.206 F 
ATOM     93  C   UNL A   1      48.021  29.786  32.346  1.00  0.00     0.059 A 
ATOM     94  C   UNL A   1      47.591  30.822  34.444  1.00  0.00     0.059 A 
ATOM     95  F   UNL A   1      45.492  31.520  35.023  1.00  0.00    -0.206 F 
ATOM     96  C   UNL A   1      48.497  30.260  33.570  1.00  0.00     0.060 A 
BRANCH  96  97
ATOM     97  S   UNL A   1      50.272  30.308  34.004  1.00  0.00     0.124 S 
ATOM     98  O   UNL A   1      50.264  30.808  35.373  1.00  0.00    -0.237 OA
ATOM     99  O   UNL A   1      50.678  28.916  33.836  1.00  0.00    -0.237 OA
ATOM    100  O   UNL A   1      50.834  31.224  33.012  1.00  0.00    -0.744 OA
ENDBRANCH  96  97
ENDBRANCH  64  89
BRANCH  76 101
ATOM    101  C   UNL A   1      41.503  35.118  33.743  1.00  0.00     0.058 A 
ATOM    102  C   UNL A   1      40.895  34.266  34.664  1.00  0.00     0.135 A 
ATOM    103  C   UNL A   1      42.174  36.253  34.230  1.00  0.00     0.135 A 
ATOM    104  F   UNL A   1      40.240  33.171  34.247  1.00  0.00    -0.206 F 
ATOM    105  C   UNL A   1      41.036  34.479  36.027  1.00  0.00     0.059 A 
ATOM    106  C   UNL A   1      42.377  36.454  35.581  1.00  0.00     0.059 A 
ATOM    107  F   UNL A   1      42.772  37.119  33.400  1.00  0.00    -0.206 F 
ATOM    108  C   UNL A   1      41.818  35.550  36.471  1.00  0.00     0.060 A 
BRANCH 108 109
ATOM    109  S   UNL A   1      42.119  35.730  38.233  1.00  0.00     0.124 S 
ATOM    110  O   UNL A   1      42.708  37.063  38.304  1.00  0.00    -0.237 OA
ATOM    111  O   UNL A   1      40.770  35.604  38.773  1.00  0.00    -0.237 OA
ATOM    112  O   UNL A   1      43.032  34.632  38.533  1.00  0.00    -0.744 OA
ENDBRANCH 108 109
ENDBRANCH  76 101
ENDBRANCH  50  51
ENDBRANCH  42  45
ENDBRANCH  40  41
ENDBRANCH  39  40
ENDBRANCH  38  39
ENDBRANCH   1  38
TORSDOF 22
ENDMDL
MODEL 2
REMARK VINA RESULT:     -12.1      2.245      3.435
REMARK SMILES Cc1c(CC(=O)N[C@H](CO)C(=O)NCCCCNC(=O)c2ccc(-c3c4nc(c(-c5c(F)cc(S(=O)(=O)[O-])cc5F)c5ccc([nH]5)c(-c5c(F)cc(S(=O)(=O)[O-])cc5F)c5nc(c(-c6c(F)cc(S(=O)(=O)[O-])cc6F)c6ccc3[nH]6)C=C5)C=C4)cc2)cc(-c2ccc(S(C)(=O)=O)cc2)n1-c1ccc(F)cc1
REMARK SMILES IDX 14 1 13 2 11 3 12 4 8 6 7 7 5 8 6 9 4 11 3 12 1 13 2 14
REMARK SMILES IDX 99 15 87 16 88 17 100 18 101 19 106 20 102 21 105 22 103 23
REMARK SMILES IDX 104 24 89 25 90 26 98 27 91 28 97 29 92 30 93 31 94 32 95 33
REMARK SMILES IDX 96 34 9 35 10 36 15 38 16 39 17 40 18 41 19 42 20 44 21 45
REMARK SMILES IDX 22 46 86 47 23 48 85 49 24 50 25 51 26 52 79 53 27 54 84 55
REMARK SMILES IDX 78 56 80 57 28 58 83 59 77 60 76 61 29 63 63 64 42 65 62 66
REMARK SMILES IDX 43 67 46 68 61 69 81 70 44 71 45 72 60 74 82 75 47 76 30 77
REMARK SMILES IDX 31 78 40 79 32 80 33 81 39 82 41 83 34 84 35 85 36 86 37 87
REMARK SMILES IDX 38 88 64 89 65 90 74 91 66 92 67 93 73 94 75 95 68 96 69 97
REMARK SMILES IDX 70 98 71 99 72 100 48 101 49 102 58 103 50 104 51 105 57 106
REMARK SMILES IDX 59 107 52 108 53 109 54 110 55 111 56 112
REMARK H PARENT 13 5 7 10 10 37 18 43 80 62 46 73
REMARK Flexibility Score: inf
ROOT
ATOM      1  C   UNL A   1      33.803  25.443  25.266  1.00  0.00     0.116 C 
ENDROOT
BRANCH   1   2
ATOM      2  N   UNL A   1      32.884  24.330  25.073  1.00  0.00    -0.354 N 
ATOM      3  C   UNL A   1      32.988  22.979  24.942  1.00  0.00     0.244 C 
ATOM      4  O   UNL A   1      31.990  22.391  24.497  1.00  0.00    -0.273 OA
ATOM      5  H   UNL A   1      31.948  24.632  25.025  1.00  0.00     0.163 HD
BRANCH   3   6
ATOM      6  C   UNL A   1      34.265  22.149  25.148  1.00  0.00     0.197 C 
BRANCH   6   7
ATOM      7  N   UNL A   1      35.360  22.558  24.295  1.00  0.00    -0.342 N 
ATOM      8  C   UNL A   1      36.663  22.776  24.643  1.00  0.00     0.225 C 
ATOM      9  O   UNL A   1      37.383  23.246  23.757  1.00  0.00    -0.275 OA
ATOM     10  H   UNL A   1      35.139  22.696  23.345  1.00  0.00     0.164 HD
BRANCH   8  11
ATOM     11  C   UNL A   1      37.248  22.377  26.003  1.00  0.00     0.137 C 
BRANCH  11  12
ATOM     12  C   UNL A   1      38.590  22.953  26.386  1.00  0.00    -0.017 A 
ATOM     13  C   UNL A   1      40.086  20.868  26.313  1.00  0.00     0.065 C 
ATOM     14  C   UNL A   1      39.834  22.325  26.461  1.00  0.00     0.024 A 
ATOM     15  N   UNL A   1      40.815  23.317  26.631  1.00  0.00    -0.314 N 
ATOM     16  C   UNL A   1      38.798  24.266  26.881  1.00  0.00     0.033 A 
ATOM     17  C   UNL A   1      40.156  24.490  26.988  1.00  0.00     0.053 A 
BRANCH  15  18
ATOM     18  C   UNL A   1      42.217  23.249  26.337  1.00  0.00     0.046 A 
ATOM     19  C   UNL A   1      42.699  23.372  25.034  1.00  0.00     0.029 A 
ATOM     20  C   UNL A   1      43.126  22.931  27.369  1.00  0.00     0.029 A 
ATOM     21  C   UNL A   1      44.078  23.229  24.792  1.00  0.00     0.041 A 
ATOM     22  C   UNL A   1      44.500  22.851  27.136  1.00  0.00     0.041 A 
ATOM     23  C   UNL A   1      44.965  23.002  25.843  1.00  0.00     0.123 A 
ATOM     24  F   UNL A   1      46.281  22.909  25.609  1.00  0.00    -0.207 F 
ENDBRANCH  15  18
BRANCH  17  25
ATOM     25  C   UNL A   1      40.830  25.733  27.351  1.00  0.00    -0.001 A 
ATOM     26  C   UNL A   1      41.140  26.665  26.355  1.00  0.00     0.011 A 
ATOM     27  C   UNL A   1      41.153  26.019  28.681  1.00  0.00     0.011 A 
ATOM     28  C   UNL A   1      41.825  27.831  26.650  1.00  0.00     0.021 A 
ATOM     29  C   UNL A   1      41.808  27.212  28.998  1.00  0.00     0.021 A 
ATOM     30  C   UNL A   1      42.157  28.098  27.975  1.00  0.00     0.067 A 
BRANCH  30  31
ATOM     31  S   UNL A   1      42.985  29.625  28.316  1.00  0.00     0.175 S 
ATOM     32  C   UNL A   1      43.684  30.070  26.748  1.00  0.00     0.163 C 
ATOM     33  O   UNL A   1      41.972  30.597  28.656  1.00  0.00    -0.224 OA
ATOM     34  O   UNL A   1      44.086  29.341  29.233  1.00  0.00    -0.224 OA
ENDBRANCH  30  31
ENDBRANCH  17  25
ENDBRANCH  11  12
ENDBRANCH   8  11
ENDBRANCH   6   7
BRANCH   6  35
ATOM     35  C   UNL A   1      33.836  20.675  24.973  1.00  0.00     0.191 C 
BRANCH  35  36
ATOM     36  O   UNL A   1      33.076  20.208  26.096  1.00  0.00    -0.394 OA
ATOM     37  H   UNL A   1      32.494  19.486  25.814  1.00  0.00     0.210 HD
ENDBRANCH  35  36
ENDBRANCH   6  35
ENDBRANCH   3   6
ENDBRANCH   1   2
BRANCH   1  38
ATOM     38  C   UNL A   1      33.170  26.616  26.087  1.00  0.00     0.023 C 
BRANCH  38  39
ATOM     39  C   UNL A   1      33.811  28.055  26.335  1.00  0.00     0.023 C 
BRANCH  39  40
ATOM     40  C   UNL A   1      33.322  29.459  25.746  1.00  0.00     0.116 C 
BRANCH  40  41
ATOM     41  N   UNL A   1      33.572  30.671  26.628  1.00  0.00    -0.352 N 
ATOM     42  C   UNL A   1      34.470  31.358  27.480  1.00  0.00     0.251 C 
ATOM     43  H   UNL A   1      32.752  31.214  26.593  1.00  0.00     0.163 HD
ATOM     44  O   UNL A   1      33.943  32.413  27.887  1.00  0.00    -0.269 OA
BRANCH  42  45
ATOM     45  C   UNL A   1      35.922  31.145  28.055  1.00  0.00     0.039 A 
ATOM     46  C   UNL A   1      36.370  29.834  28.402  1.00  0.00     0.014 A 
ATOM     47  C   UNL A   1      36.854  32.051  28.512  1.00  0.00     0.014 A 
ATOM     48  C   UNL A   1      37.654  29.448  29.139  1.00  0.00     0.010 A 
ATOM     49  C   UNL A   1      38.129  31.644  29.272  1.00  0.00     0.010 A 
ATOM     50  C   UNL A   1      38.620  30.329  29.715  1.00  0.00    -0.014 A 
BRANCH  50  51
ATOM     51  C   UNL A   1      39.805  29.724  30.999  1.00  0.00     0.031 A 
ATOM     52  C   UNL A   1      38.825  29.416  32.183  1.00  0.00     0.074 A 
ATOM     53  C   UNL A   1      41.081  30.099  31.731  1.00  0.00     0.049 A 
ATOM     54  N   UNL A   1      38.749  30.252  33.169  1.00  0.00    -0.248 NA
ATOM     55  C   UNL A   1      37.497  28.815  32.017  1.00  0.00     0.031 C 
ATOM     56  C   UNL A   1      41.130  30.642  33.136  1.00  0.00     0.029 A 
ATOM     57  N   UNL A   1      42.505  29.556  31.810  1.00  0.00    -0.354 N 
ATOM     58  C   UNL A   1      37.628  30.938  32.862  1.00  0.00     0.074 A 
ATOM     59  C   UNL A   1      36.742  29.865  32.399  1.00  0.00     0.031 C 
ATOM     60  C   UNL A   1      42.175  30.331  33.917  1.00  0.00     0.029 A 
ATOM     61  C   UNL A   1      43.307  29.753  33.155  1.00  0.00     0.049 A 
ATOM     62  H   UNL A   1      42.913  29.095  31.041  1.00  0.00     0.167 HD
ATOM     63  C   UNL A   1      37.658  32.260  32.520  1.00  0.00     0.037 A 
ATOM     64  C   UNL A   1      44.488  30.506  33.454  1.00  0.00     0.037 A 
ATOM     65  C   UNL A   1      38.942  32.925  32.147  1.00  0.00     0.049 A 
ATOM     66  C   UNL A   1      44.143  31.927  33.165  1.00  0.00     0.074 A 
ATOM     67  C   UNL A   1      39.919  32.860  31.158  1.00  0.00     0.029 A 
ATOM     68  N   UNL A   1      39.461  33.951  32.926  1.00  0.00    -0.354 N 
ATOM     69  N   UNL A   1      43.733  32.865  33.967  1.00  0.00    -0.248 NA
ATOM     70  C   UNL A   1      44.138  32.220  31.741  1.00  0.00     0.031 C 
ATOM     71  C   UNL A   1      40.706  34.026  31.153  1.00  0.00     0.029 A 
ATOM     72  C   UNL A   1      40.768  34.224  32.506  1.00  0.00     0.049 A 
ATOM     73  H   UNL A   1      38.987  34.412  33.656  1.00  0.00     0.167 HD
ATOM     74  C   UNL A   1      43.047  33.712  33.103  1.00  0.00     0.074 A 
ATOM     75  C   UNL A   1      43.516  33.385  31.765  1.00  0.00     0.031 C 
ATOM     76  C   UNL A   1      41.852  34.266  33.456  1.00  0.00     0.037 A 
BRANCH  63  77
ATOM     77  C   UNL A   1      36.427  33.069  32.780  1.00  0.00     0.058 A 
ATOM     78  C   UNL A   1      36.342  34.051  33.787  1.00  0.00     0.135 A 
ATOM     79  C   UNL A   1      35.398  33.064  31.818  1.00  0.00     0.135 A 
ATOM     80  F   UNL A   1      37.244  34.152  34.774  1.00  0.00    -0.206 F 
ATOM     81  C   UNL A   1      35.348  35.012  33.790  1.00  0.00     0.059 A 
ATOM     82  C   UNL A   1      34.451  34.069  31.753  1.00  0.00     0.059 A 
ATOM     83  F   UNL A   1      35.320  32.104  30.883  1.00  0.00    -0.206 F 
ATOM     84  C   UNL A   1      34.434  35.037  32.747  1.00  0.00     0.060 A 
BRANCH  84  85
ATOM     85  S   UNL A   1      33.220  36.356  32.710  1.00  0.00     0.124 S 
ATOM     86  O   UNL A   1      31.979  35.586  32.676  1.00  0.00    -0.237 OA
ATOM     87  O   UNL A   1      33.490  37.064  33.955  1.00  0.00    -0.237 OA
ATOM     88  O   UNL A   1      33.543  37.073  31.483  1.00  0.00    -0.744 OA
ENDBRANCH  84  85
ENDBRANCH  63  77
BRANCH  64  89
ATOM     89  C   UNL A   1      46.029  30.365  33.793  1.00  0.00     0.058 A 
ATOM     90  C   UNL A   1      46.745  30.884  34.904  1.00  0.00     0.135 A 
ATOM     91  C   UNL A   1      46.920  29.866  32.792  1.00  0.00     0.135 A 
ATOM     92  F   UNL A   1      46.100  31.567  35.863  1.00  0.00    -0.206 F 
ATOM     93  C   UNL A   1      48.176  30.774  35.053  1.00  0.00     0.059 A 
ATOM     94  C   UNL A   1      48.318  29.757  32.907  1.00  0.00     0.059 A 
ATOM     95  F   UNL A   1      46.463  29.450  31.607  1.00  0.00    -0.206 F 
ATOM     96  C   UNL A   1      48.951  30.171  34.060  1.00  0.00     0.060 A 
BRANCH  96  97
ATOM     97  S   UNL A   1      50.721  29.768  34.276  1.00  0.00     0.124 S 
ATOM     98  O   UNL A   1      50.783  29.278  35.647  1.00  0.00    -0.237 OA
ATOM     99  O   UNL A   1      50.949  28.772  33.232  1.00  0.00    -0.237 OA
ATOM    100  O   UNL A   1      51.387  31.050  34.043  1.00  0.00    -0.744 OA
ENDBRANCH  96  97
ENDBRANCH  64  89
BRANCH  76 101
ATOM    101  C   UNL A   1      41.596  34.566  34.886  1.00  0.00     0.058 A 
ATOM    102  C   UNL A   1      41.749  35.885  35.314  1.00  0.00     0.135 A 
ATOM    103  C   UNL A   1      40.985  33.650  35.759  1.00  0.00     0.135 A 
ATOM    104  F   UNL A   1      42.330  36.795  34.516  1.00  0.00    -0.206 F 
ATOM    105  C   UNL A   1      41.220  36.301  36.525  1.00  0.00     0.059 A 
ATOM    106  C   UNL A   1      40.399  34.054  36.942  1.00  0.00     0.059 A 
ATOM    107  F   UNL A   1      40.815  32.366  35.415  1.00  0.00    -0.206 F 
ATOM    108  C   UNL A   1      40.507  35.388  37.308  1.00  0.00     0.060 A 
BRANCH 108 109
ATOM    109  S   UNL A   1      39.697  35.972  38.800  1.00  0.00     0.124 S 
ATOM    110  O   UNL A   1      38.615  35.006  38.955  1.00  0.00    -0.237 OA
ATOM    111  O   UNL A   1      40.777  35.874  39.775  1.00  0.00    -0.237 OA
ATOM    112  O   UNL A   1      39.275  37.323  38.449  1.00  0.00    -0.744 OA
ENDBRANCH 108 109
ENDBRANCH  76 101
ENDBRANCH  50  51
ENDBRANCH  42  45
ENDBRANCH  40  41
ENDBRANCH  39  40
ENDBRANCH  38  39
ENDBRANCH   1  38
TORSDOF 22
ENDMDL
MODEL 3
REMARK VINA RESULT:     -11.6      4.099     11.729
REMARK SMILES Cc1c(CC(=O)N[C@H](CO)C(=O)NCCCCNC(=O)c2ccc(-c3c4nc(c(-c5c(F)cc(S(=O)(=O)[O-])cc5F)c5ccc([nH]5)c(-c5c(F)cc(S(=O)(=O)[O-])cc5F)c5nc(c(-c6c(F)cc(S(=O)(=O)[O-])cc6F)c6ccc3[nH]6)C=C5)C=C4)cc2)cc(-c2ccc(S(C)(=O)=O)cc2)n1-c1ccc(F)cc1
REMARK SMILES IDX 14 1 13 2 11 3 12 4 8 6 7 7 5 8 6 9 4 11 3 12 1 13 2 14
REMARK SMILES IDX 99 15 87 16 88 17 100 18 101 19 106 20 102 21 105 22 103 23
REMARK SMILES IDX 104 24 89 25 90 26 98 27 91 28 97 29 92 30 93 31 94 32 95 33
REMARK SMILES IDX 96 34 9 35 10 36 15 38 16 39 17 40 18 41 19 42 20 44 21 45
REMARK SMILES IDX 22 46 86 47 23 48 85 49 24 50 25 51 26 52 79 53 27 54 84 55
REMARK SMILES IDX 78 56 80 57 28 58 83 59 77 60 76 61 29 63 63 64 42 65 62 66
REMARK SMILES IDX 43 67 46 68 61 69 81 70 44 71 45 72 60 74 82 75 47 76 30 77
REMARK SMILES IDX 31 78 40 79 32 80 33 81 39 82 41 83 34 84 35 85 36 86 37 87
REMARK SMILES IDX 38 88 64 89 65 90 74 91 66 92 67 93 73 94 75 95 68 96 69 97
REMARK SMILES IDX 70 98 71 99 72 100 48 101 49 102 58 103 50 104 51 105 57 106
REMARK SMILES IDX 59 107 52 108 53 109 54 110 55 111 56 112
REMARK H PARENT 13 5 7 10 10 37 18 43 80 62 46 73
REMARK Flexibility Score: inf
ROOT
ATOM      1  C   UNL A   1      44.412  25.748  25.701  1.00  0.00     0.116 C 
ENDROOT
BRANCH   1   2
ATOM      2  N   UNL A   1      45.286  26.385  24.725  1.00  0.00    -0.354 N 
ATOM      3  C   UNL A   1      46.598  26.745  24.665  1.00  0.00     0.244 C 
ATOM      4  O   UNL A   1      46.909  27.538  23.763  1.00  0.00    -0.273 OA
ATOM      5  H   UNL A   1      44.805  26.613  23.897  1.00  0.00     0.163 HD
BRANCH   3   6
ATOM      6  C   UNL A   1      47.680  26.381  25.694  1.00  0.00     0.197 C 
BRANCH   6   7
ATOM      7  N   UNL A   1      48.912  27.121  25.518  1.00  0.00    -0.342 N 
ATOM      8  C   UNL A   1      49.282  28.294  26.111  1.00  0.00     0.225 C 
ATOM      9  O   UNL A   1      50.332  28.796  25.699  1.00  0.00    -0.275 OA
ATOM     10  H   UNL A   1      49.565  26.729  24.893  1.00  0.00     0.164 HD
BRANCH   8  11
ATOM     11  C   UNL A   1      48.520  28.918  27.287  1.00  0.00     0.137 C 
BRANCH  11  12
ATOM     12  C   UNL A   1      48.027  30.336  27.129  1.00  0.00    -0.017 A 
ATOM     13  C   UNL A   1      45.673  29.961  26.178  1.00  0.00     0.065 C 
ATOM     14  C   UNL A   1      46.777  30.798  26.713  1.00  0.00     0.024 A 
ATOM     15  N   UNL A   1      46.721  32.182  26.953  1.00  0.00    -0.314 N 
ATOM     16  C   UNL A   1      48.833  31.496  27.266  1.00  0.00     0.033 A 
ATOM     17  C   UNL A   1      48.021  32.611  27.196  1.00  0.00     0.053 A 
BRANCH  15  18
ATOM     18  C   UNL A   1      45.564  33.017  27.107  1.00  0.00     0.046 A 
ATOM     19  C   UNL A   1      44.954  33.200  28.348  1.00  0.00     0.029 A 
ATOM     20  C   UNL A   1      44.953  33.572  25.963  1.00  0.00     0.029 A 
ATOM     21  C   UNL A   1      43.782  33.974  28.433  1.00  0.00     0.041 A 
ATOM     22  C   UNL A   1      43.826  34.391  26.058  1.00  0.00     0.041 A 
ATOM     23  C   UNL A   1      43.249  34.585  27.299  1.00  0.00     0.123 A 
ATOM     24  F   UNL A   1      42.156  35.354  27.396  1.00  0.00    -0.207 F 
ENDBRANCH  15  18
BRANCH  17  25
ATOM     25  C   UNL A   1      48.404  34.006  27.393  1.00  0.00    -0.001 A 
ATOM     26  C   UNL A   1      48.773  34.446  28.669  1.00  0.00     0.011 A 
ATOM     27  C   UNL A   1      48.427  34.907  26.324  1.00  0.00     0.011 A 
ATOM     28  C   UNL A   1      49.091  35.772  28.908  1.00  0.00     0.021 A 
ATOM     29  C   UNL A   1      48.787  36.240  26.544  1.00  0.00     0.021 A 
ATOM     30  C   UNL A   1      49.095  36.665  27.840  1.00  0.00     0.067 A 
BRANCH  30  31
ATOM     31  S   UNL A   1      49.559  38.339  28.179  1.00  0.00     0.175 S 
ATOM     32  C   UNL A   1      48.204  38.951  29.146  1.00  0.00     0.163 C 
ATOM     33  O   UNL A   1      50.735  38.298  29.016  1.00  0.00    -0.224 OA
ATOM     34  O   UNL A   1      49.569  39.065  26.912  1.00  0.00    -0.224 OA
ENDBRANCH  30  31
ENDBRANCH  17  25
ENDBRANCH  11  12
ENDBRANCH   8  11
ENDBRANCH   6   7
BRANCH   6  35
ATOM     35  C   UNL A   1      47.839  24.847  25.605  1.00  0.00     0.191 C 
BRANCH  35  36
ATOM     36  O   UNL A   1      47.390  24.199  26.803  1.00  0.00    -0.394 OA
ATOM     37  H   UNL A   1      46.452  23.972  26.716  1.00  0.00     0.210 HD
ENDBRANCH  35  36
ENDBRANCH   6  35
ENDBRANCH   3   6
ENDBRANCH   1   2
BRANCH   1  38
ATOM     38  C   UNL A   1      43.407  24.741  25.048  1.00  0.00     0.023 C 
BRANCH  38  39
ATOM     39  C   UNL A   1      43.718  23.240  24.611  1.00  0.00     0.023 C 
BRANCH  39  40
ATOM     40  C   UNL A   1      43.669  21.926  25.520  1.00  0.00     0.116 C 
BRANCH  40  41
ATOM     41  N   UNL A   1      42.411  21.742  26.353  1.00  0.00    -0.352 N 
ATOM     42  C   UNL A   1      41.452  22.337  27.207  1.00  0.00     0.251 C 
ATOM     43  H   UNL A   1      42.148  20.798  26.255  1.00  0.00     0.163 HD
ATOM     44  O   UNL A   1      40.598  21.490  27.539  1.00  0.00    -0.269 OA
BRANCH  42  45
ATOM     45  C   UNL A   1      41.188  23.751  27.855  1.00  0.00     0.039 A 
ATOM     46  C   UNL A   1      39.912  24.376  27.714  1.00  0.00     0.014 A 
ATOM     47  C   UNL A   1      42.058  24.668  28.403  1.00  0.00     0.014 A 
ATOM     48  C   UNL A   1      39.522  25.804  28.101  1.00  0.00     0.010 A 
ATOM     49  C   UNL A   1      41.652  26.108  28.764  1.00  0.00     0.010 A 
ATOM     50  C   UNL A   1      40.382  26.833  28.592  1.00  0.00    -0.014 A 
BRANCH  50  51
ATOM     51  C   UNL A   1      39.875  28.610  28.507  1.00  0.00     0.031 A 
ATOM     52  C   UNL A   1      41.187  29.264  27.950  1.00  0.00     0.074 A 
ATOM     53  C   UNL A   1      39.288  29.735  29.340  1.00  0.00     0.049 A 
ATOM     54  N   UNL A   1      41.965  29.902  28.764  1.00  0.00    -0.248 NA
ATOM     55  C   UNL A   1      42.036  28.656  26.920  1.00  0.00     0.031 C 
ATOM     56  C   UNL A   1      40.091  30.856  29.948  1.00  0.00     0.029 A 
ATOM     57  N   UNL A   1      38.004  30.560  29.326  1.00  0.00    -0.354 N 
ATOM     58  C   UNL A   1      42.925  28.984  29.003  1.00  0.00     0.074 A 
ATOM     59  C   UNL A   1      43.134  28.420  27.665  1.00  0.00     0.031 C 
ATOM     60  C   UNL A   1      39.530  32.070  30.060  1.00  0.00     0.029 A 
ATOM     61  C   UNL A   1      38.062  32.042  29.865  1.00  0.00     0.049 A 
ATOM     62  H   UNL A   1      37.161  30.177  28.991  1.00  0.00     0.167 HD
ATOM     63  C   UNL A   1      43.091  28.413  30.232  1.00  0.00     0.037 A 
ATOM     64  C   UNL A   1      37.441  32.667  30.994  1.00  0.00     0.037 A 
ATOM     65  C   UNL A   1      42.029  28.520  31.275  1.00  0.00     0.049 A 
ATOM     66  C   UNL A   1      37.970  31.952  32.191  1.00  0.00     0.074 A 
ATOM     67  C   UNL A   1      40.715  28.115  31.494  1.00  0.00     0.029 A 
ATOM     68  N   UNL A   1      42.266  29.204  32.462  1.00  0.00    -0.354 N 
ATOM     69  N   UNL A   1      38.961  32.259  32.975  1.00  0.00    -0.248 NA
ATOM     70  C   UNL A   1      37.349  30.651  32.381  1.00  0.00     0.031 C 
ATOM     71  C   UNL A   1      40.381  28.209  32.857  1.00  0.00     0.029 A 
ATOM     72  C   UNL A   1      41.054  29.367  33.142  1.00  0.00     0.049 A 
ATOM     73  H   UNL A   1      43.144  29.523  32.772  1.00  0.00     0.167 HD
ATOM     74  C   UNL A   1      39.330  31.018  33.482  1.00  0.00     0.074 A 
ATOM     75  C   UNL A   1      38.192  30.139  33.259  1.00  0.00     0.031 C 
ATOM     76  C   UNL A   1      40.642  30.667  33.611  1.00  0.00     0.037 A 
BRANCH  63  77
ATOM     77  C   UNL A   1      44.456  27.910  30.582  1.00  0.00     0.058 A 
ATOM     78  C   UNL A   1      44.734  26.560  30.876  1.00  0.00     0.135 A 
ATOM     79  C   UNL A   1      45.566  28.743  30.344  1.00  0.00     0.135 A 
ATOM     80  F   UNL A   1      43.770  25.667  31.142  1.00  0.00    -0.206 F 
ATOM     81  C   UNL A   1      46.021  26.056  30.852  1.00  0.00     0.059 A 
ATOM     82  C   UNL A   1      46.849  28.240  30.228  1.00  0.00     0.059 A 
ATOM     83  F   UNL A   1      45.423  30.067  30.167  1.00  0.00    -0.206 F 
ATOM     84  C   UNL A   1      47.065  26.894  30.487  1.00  0.00     0.060 A 
BRANCH  84  85
ATOM     85  S   UNL A   1      48.710  26.196  30.357  1.00  0.00     0.124 S 
ATOM     86  O   UNL A   1      48.640  25.572  29.037  1.00  0.00    -0.237 OA
ATOM     87  O   UNL A   1      49.560  27.376  30.452  1.00  0.00    -0.237 OA
ATOM     88  O   UNL A   1      48.771  25.271  31.482  1.00  0.00    -0.744 OA
ENDBRANCH  84  85
ENDBRANCH  63  77
BRANCH  64  89
ATOM     89  C   UNL A   1      36.300  33.682  31.412  1.00  0.00     0.058 A 
ATOM     90  C   UNL A   1      36.279  34.598  32.498  1.00  0.00     0.135 A 
ATOM     91  C   UNL A   1      35.007  33.562  30.814  1.00  0.00     0.135 A 
ATOM     92  F   UNL A   1      37.344  34.709  33.306  1.00  0.00    -0.206 F 
ATOM     93  C   UNL A   1      35.132  35.405  32.839  1.00  0.00     0.059 A 
ATOM     94  C   UNL A   1      33.871  34.328  31.133  1.00  0.00     0.059 A 
ATOM     95  F   UNL A   1      34.770  32.658  29.858  1.00  0.00    -0.206 F 
ATOM     96  C   UNL A   1      33.940  35.288  32.121  1.00  0.00     0.060 A 
BRANCH  96  97
ATOM     97  S   UNL A   1      32.533  36.438  32.320  1.00  0.00     0.124 S 
ATOM     98  O   UNL A   1      31.398  35.542  32.503  1.00  0.00    -0.237 OA
ATOM     99  O   UNL A   1      32.925  37.217  33.491  1.00  0.00    -0.237 OA
ATOM    100  O   UNL A   1      32.535  37.190  31.066  1.00  0.00    -0.744 OA
ENDBRANCH  96  97
ENDBRANCH  64  89
BRANCH  76 101
ATOM    101  C   UNL A   1      41.642  31.726  33.885  1.00  0.00     0.058 A 
ATOM    102  C   UNL A   1      41.949  32.004  35.218  1.00  0.00     0.135 A 
ATOM    103  C   UNL A   1      42.458  32.282  32.886  1.00  0.00     0.135 A 
ATOM    104  F   UNL A   1      41.195  31.498  36.208  1.00  0.00    -0.206 F 
ATOM    105  C   UNL A   1      43.086  32.725  35.547  1.00  0.00     0.059 A 
ATOM    106  C   UNL A   1      43.627  32.952  33.190  1.00  0.00     0.059 A 
ATOM    107  F   UNL A   1      42.216  32.063  31.586  1.00  0.00    -0.206 F 
ATOM    108  C   UNL A   1      43.940  33.153  34.526  1.00  0.00     0.060 A 
BRANCH 108 109
ATOM    109  S   UNL A   1      45.486  33.954  34.969  1.00  0.00     0.124 S 
ATOM    110  O   UNL A   1      45.216  34.401  36.332  1.00  0.00    -0.237 OA
ATOM    111  O   UNL A   1      46.432  32.851  34.841  1.00  0.00    -0.237 OA
ATOM    112  O   UNL A   1      45.610  35.019  33.981  1.00  0.00    -0.744 OA
ENDBRANCH 108 109
ENDBRANCH  76 101
ENDBRANCH  50  51
ENDBRANCH  42  45
ENDBRANCH  40  41
ENDBRANCH  39  40
ENDBRANCH  38  39
ENDBRANCH   1  38
TORSDOF 22
ENDMDL
