MODEL 1
REMARK VINA RESULT:     -13.7      0.000      0.000
REMARK SMILES Cc1cccc(-c2cccc(C(=O)NCCCCNC(=O)c3ccc(-c4c5nc(c(-c6c(F)cc(S(=O)(=O)[O-])cc6F)c6ccc([nH]6)c(-c6c(F)cc(S(=O)(=O)[O-])cc6F)c6nc(c(-c7c(F)cc(S(=O)(=O)[O-])cc7F)c7ccc4[nH]7)C=C6)C=C5)cc3)c2)c1
REMARK SMILES IDX 17 1 16 2 15 3 14 4 12 5 13 6 11 8 7 9 8 10 88 11 9 12 10 13
REMARK SMILES IDX 6 14 1 15 2 16 3 17 89 18 4 19 5 20 18 21 19 22 20 23 21 25
REMARK SMILES IDX 22 26 23 27 87 28 24 29 86 30 25 31 26 32 27 33 80 34 28 35
REMARK SMILES IDX 85 36 79 37 81 38 29 39 84 40 78 41 77 42 30 44 64 45 43 46
REMARK SMILES IDX 63 47 44 48 47 49 62 50 82 51 45 52 46 53 61 55 83 56 48 57
REMARK SMILES IDX 31 58 32 59 41 60 33 61 34 62 40 63 42 64 35 65 36 66 37 67
REMARK SMILES IDX 38 68 39 69 65 70 66 71 75 72 67 73 68 74 74 75 76 76 69 77
REMARK SMILES IDX 70 78 71 79 72 80 73 81 49 82 50 83 59 84 51 85 52 86 58 87
REMARK SMILES IDX 60 88 53 89 54 90 55 91 56 92 57 93
REMARK H PARENT 14 7 19 24 81 43 47 54
REMARK Flexibility Score: inf
ROOT
ATOM      1  C   UNL A   1      34.226  28.905  26.323  1.00  0.00     0.023 C 
ENDROOT
BRANCH   1   2
ATOM      2  C   UNL A   1      33.294  27.698  26.248  1.00  0.00     0.023 C 
BRANCH   2   3
ATOM      3  C   UNL A   1      32.278  27.709  25.102  1.00  0.00     0.116 C 
BRANCH   3   4
ATOM      4  N   UNL A   1      32.875  27.921  23.787  1.00  0.00    -0.352 N 
ATOM      5  C   UNL A   1      33.449  27.115  22.833  1.00  0.00     0.251 C 
ATOM      6  O   UNL A   1      33.925  27.679  21.843  1.00  0.00    -0.269 OA
ATOM      7  H   UNL A   1      32.865  28.868  23.518  1.00  0.00     0.163 HD
BRANCH   5   8
ATOM      8  C   UNL A   1      33.564  25.629  22.918  1.00  0.00     0.040 A 
ATOM      9  C   UNL A   1      34.811  23.710  23.833  1.00  0.00    -0.018 A 
ATOM     10  C   UNL A   1      33.912  22.856  23.179  1.00  0.00     0.009 A 
ATOM     11  C   UNL A   1      34.595  25.097  23.727  1.00  0.00     0.022 A 
ATOM     12  C   UNL A   1      32.921  23.361  22.344  1.00  0.00     0.001 A 
ATOM     13  C   UNL A   1      32.792  24.739  22.172  1.00  0.00     0.014 A 
BRANCH   9  14
ATOM     14  C   UNL A   1      35.990  23.141  24.516  1.00  0.00    -0.018 A 
ATOM     15  C   UNL A   1      37.679  19.714  24.774  1.00  0.00     0.044 C 
ATOM     16  C   UNL A   1      37.391  21.173  24.976  1.00  0.00    -0.051 A 
ATOM     17  C   UNL A   1      38.191  21.949  25.816  1.00  0.00     0.003 A 
ATOM     18  C   UNL A   1      36.303  21.778  24.334  1.00  0.00     0.012 A 
ATOM     19  C   UNL A   1      37.912  23.304  25.997  1.00  0.00     0.001 A 
ATOM     20  C   UNL A   1      36.822  23.898  25.350  1.00  0.00     0.009 A 
ENDBRANCH   9  14
ENDBRANCH   5   8
ENDBRANCH   3   4
ENDBRANCH   2   3
ENDBRANCH   1   2
BRANCH   1  21
ATOM     21  C   UNL A   1      34.259  29.602  27.678  1.00  0.00     0.116 C 
BRANCH  21  22
ATOM     22  N   UNL A   1      35.032  30.828  27.718  1.00  0.00    -0.352 N 
ATOM     23  C   UNL A   1      36.295  31.019  28.272  1.00  0.00     0.251 C 
ATOM     24  H   UNL A   1      34.615  31.619  27.304  1.00  0.00     0.163 HD
ATOM     25  O   UNL A   1      36.691  32.113  28.597  1.00  0.00    -0.269 OA
BRANCH  23  26
ATOM     26  C   UNL A   1      37.196  29.839  28.315  1.00  0.00     0.039 A 
ATOM     27  C   UNL A   1      37.284  29.150  29.532  1.00  0.00     0.014 A 
ATOM     28  C   UNL A   1      38.100  29.579  27.290  1.00  0.00     0.014 A 
ATOM     29  C   UNL A   1      38.392  28.341  29.790  1.00  0.00     0.010 A 
ATOM     30  C   UNL A   1      39.240  28.852  27.580  1.00  0.00     0.010 A 
ATOM     31  C   UNL A   1      39.413  28.271  28.846  1.00  0.00    -0.014 A 
BRANCH  31  32
ATOM     32  C   UNL A   1      40.738  27.705  29.105  1.00  0.00     0.031 A 
ATOM     33  C   UNL A   1      41.063  26.318  28.693  1.00  0.00     0.074 A 
ATOM     34  C   UNL A   1      41.724  28.503  29.570  1.00  0.00     0.049 A 
ATOM     35  N   UNL A   1      42.138  25.678  29.013  1.00  0.00    -0.248 NA
ATOM     36  C   UNL A   1      40.140  25.517  27.900  1.00  0.00     0.031 C 
ATOM     37  C   UNL A   1      43.162  28.267  29.484  1.00  0.00     0.029 A 
ATOM     38  N   UNL A   1      41.606  29.608  30.415  1.00  0.00    -0.354 N 
ATOM     39  C   UNL A   1      42.188  24.520  28.263  1.00  0.00     0.074 A 
ATOM     40  C   UNL A   1      40.889  24.443  27.638  1.00  0.00     0.031 C 
ATOM     41  C   UNL A   1      43.783  29.013  30.409  1.00  0.00     0.029 A 
ATOM     42  C   UNL A   1      42.757  29.630  31.230  1.00  0.00     0.049 A 
ATOM     43  H   UNL A   1      40.860  30.251  30.437  1.00  0.00     0.167 HD
ATOM     44  C   UNL A   1      43.366  23.831  28.174  1.00  0.00     0.037 A 
ATOM     45  C   UNL A   1      42.645  29.464  32.582  1.00  0.00     0.037 A 
ATOM     46  C   UNL A   1      44.356  24.345  29.127  1.00  0.00     0.049 A 
ATOM     47  C   UNL A   1      43.258  28.188  33.121  1.00  0.00     0.074 A 
ATOM     48  C   UNL A   1      45.453  25.188  29.038  1.00  0.00     0.029 A 
ATOM     49  N   UNL A   1      44.109  24.189  30.481  1.00  0.00    -0.354 N 
ATOM     50  N   UNL A   1      43.892  27.305  32.399  1.00  0.00    -0.248 NA
ATOM     51  C   UNL A   1      43.136  27.772  34.522  1.00  0.00     0.031 C 
ATOM     52  C   UNL A   1      45.816  25.587  30.358  1.00  0.00     0.029 A 
ATOM     53  C   UNL A   1      44.944  24.985  31.245  1.00  0.00     0.049 A 
ATOM     54  H   UNL A   1      43.426  23.585  30.853  1.00  0.00     0.167 HD
ATOM     55  C   UNL A   1      44.177  26.211  33.170  1.00  0.00     0.074 A 
ATOM     56  C   UNL A   1      43.719  26.561  34.502  1.00  0.00     0.031 C 
ATOM     57  C   UNL A   1      44.719  25.064  32.677  1.00  0.00     0.037 A 
BRANCH  44  58
ATOM     58  C   UNL A   1      43.703  22.846  27.062  1.00  0.00     0.058 A 
ATOM     59  C   UNL A   1      42.969  21.645  26.916  1.00  0.00     0.135 A 
ATOM     60  C   UNL A   1      44.775  22.973  26.156  1.00  0.00     0.135 A 
ATOM     61  F   UNL A   1      41.854  21.415  27.624  1.00  0.00    -0.206 F 
ATOM     62  C   UNL A   1      43.344  20.617  26.044  1.00  0.00     0.059 A 
ATOM     63  C   UNL A   1      45.206  21.939  25.318  1.00  0.00     0.059 A 
ATOM     64  F   UNL A   1      45.418  24.131  25.984  1.00  0.00    -0.206 F 
ATOM     65  C   UNL A   1      44.492  20.754  25.278  1.00  0.00     0.060 A 
BRANCH  65  66
ATOM     66  S   UNL A   1      45.022  19.389  24.229  1.00  0.00     0.124 S 
ATOM     67  O   UNL A   1      44.419  19.734  22.945  1.00  0.00    -0.237 OA
ATOM     68  O   UNL A   1      46.476  19.499  24.300  1.00  0.00    -0.237 OA
ATOM     69  O   UNL A   1      44.452  18.214  24.884  1.00  0.00    -0.744 OA
ENDBRANCH  65  66
ENDBRANCH  44  58
BRANCH  45  70
ATOM     70  C   UNL A   1      41.449  30.154  33.137  1.00  0.00     0.058 A 
ATOM     71  C   UNL A   1      41.533  31.550  33.297  1.00  0.00     0.135 A 
ATOM     72  C   UNL A   1      40.174  29.581  33.042  1.00  0.00     0.135 A 
ATOM     73  F   UNL A   1      42.733  32.142  33.417  1.00  0.00    -0.206 F 
ATOM     74  C   UNL A   1      40.416  32.363  33.164  1.00  0.00     0.059 A 
ATOM     75  C   UNL A   1      39.036  30.378  32.921  1.00  0.00     0.059 A 
ATOM     76  F   UNL A   1      40.036  28.254  32.899  1.00  0.00    -0.206 F 
ATOM     77  C   UNL A   1      39.187  31.766  32.894  1.00  0.00     0.060 A 
BRANCH  77  78
ATOM     78  S   UNL A   1      37.852  32.829  32.298  1.00  0.00     0.124 S 
ATOM     79  O   UNL A   1      36.780  31.869  32.059  1.00  0.00    -0.237 OA
ATOM     80  O   UNL A   1      37.660  33.717  33.443  1.00  0.00    -0.237 OA
ATOM     81  O   UNL A   1      38.425  33.447  31.108  1.00  0.00    -0.744 OA
ENDBRANCH  77  78
ENDBRANCH  45  70
BRANCH  57  82
ATOM     82  C   UNL A   1      45.069  23.915  33.564  1.00  0.00     0.058 A 
ATOM     83  C   UNL A   1      46.385  23.723  34.017  1.00  0.00     0.135 A 
ATOM     84  C   UNL A   1      44.132  22.915  33.882  1.00  0.00     0.135 A 
ATOM     85  F   UNL A   1      47.339  24.624  33.734  1.00  0.00    -0.206 F 
ATOM     86  C   UNL A   1      46.751  22.605  34.762  1.00  0.00     0.059 A 
ATOM     87  C   UNL A   1      44.482  21.773  34.597  1.00  0.00     0.059 A 
ATOM     88  F   UNL A   1      42.845  23.039  33.520  1.00  0.00    -0.206 F 
ATOM     89  C   UNL A   1      45.793  21.633  35.044  1.00  0.00     0.060 A 
BRANCH  89  90
ATOM     90  S   UNL A   1      46.268  20.156  35.965  1.00  0.00     0.124 S 
ATOM     91  O   UNL A   1      45.714  20.406  37.292  1.00  0.00    -0.237 OA
ATOM     92  O   UNL A   1      45.605  19.109  35.194  1.00  0.00    -0.237 OA
ATOM     93  O   UNL A   1      47.725  20.172  35.889  1.00  0.00    -0.744 OA
ENDBRANCH  89  90
ENDBRANCH  57  82
ENDBRANCH  31  32
ENDBRANCH  23  26
ENDBRANCH  21  22
ENDBRANCH   1  21
TORSDOF 15
ENDMDL
MODEL 2
REMARK VINA RESULT:     -13.2      1.479      2.087
REMARK SMILES Cc1cccc(-c2cccc(C(=O)NCCCCNC(=O)c3ccc(-c4c5nc(c(-c6c(F)cc(S(=O)(=O)[O-])cc6F)c6ccc([nH]6)c(-c6c(F)cc(S(=O)(=O)[O-])cc6F)c6nc(c(-c7c(F)cc(S(=O)(=O)[O-])cc7F)c7ccc4[nH]7)C=C6)C=C5)cc3)c2)c1
REMARK SMILES IDX 17 1 16 2 15 3 14 4 12 5 13 6 11 8 7 9 8 10 88 11 9 12 10 13
REMARK SMILES IDX 6 14 1 15 2 16 3 17 89 18 4 19 5 20 18 21 19 22 20 23 21 25
REMARK SMILES IDX 22 26 23 27 87 28 24 29 86 30 25 31 26 32 27 33 80 34 28 35
REMARK SMILES IDX 85 36 79 37 81 38 29 39 84 40 78 41 77 42 30 44 64 45 43 46
REMARK SMILES IDX 63 47 44 48 47 49 62 50 82 51 45 52 46 53 61 55 83 56 48 57
REMARK SMILES IDX 31 58 32 59 41 60 33 61 34 62 40 63 42 64 35 65 36 66 37 67
REMARK SMILES IDX 38 68 39 69 65 70 66 71 75 72 67 73 68 74 74 75 76 76 69 77
REMARK SMILES IDX 70 78 71 79 72 80 73 81 49 82 50 83 59 84 51 85 52 86 58 87
REMARK SMILES IDX 60 88 53 89 54 90 55 91 56 92 57 93
REMARK H PARENT 14 7 19 24 81 43 47 54
REMARK Flexibility Score: inf
ROOT
ATOM      1  C   UNL A   1      33.803  28.870  27.359  1.00  0.00     0.023 C 
ENDROOT
BRANCH   1   2
ATOM      2  C   UNL A   1      32.276  28.894  27.315  1.00  0.00     0.023 C 
BRANCH   2   3
ATOM      3  C   UNL A   1      31.624  27.967  26.284  1.00  0.00     0.116 C 
BRANCH   3   4
ATOM      4  N   UNL A   1      31.277  26.651  26.810  1.00  0.00    -0.352 N 
ATOM      5  C   UNL A   1      31.565  25.353  26.463  1.00  0.00     0.251 C 
ATOM      6  O   UNL A   1      31.014  24.467  27.123  1.00  0.00    -0.269 OA
ATOM      7  H   UNL A   1      30.698  26.706  27.604  1.00  0.00     0.163 HD
BRANCH   5   8
ATOM      8  C   UNL A   1      32.461  24.940  25.342  1.00  0.00     0.040 A 
ATOM      9  C   UNL A   1      34.533  23.780  24.683  1.00  0.00    -0.018 A 
ATOM     10  C   UNL A   1      34.242  24.089  23.346  1.00  0.00     0.009 A 
ATOM     11  C   UNL A   1      33.605  24.176  25.665  1.00  0.00     0.022 A 
ATOM     12  C   UNL A   1      33.145  24.878  23.015  1.00  0.00     0.001 A 
ATOM     13  C   UNL A   1      32.297  25.347  24.018  1.00  0.00     0.014 A 
BRANCH   9  14
ATOM     14  C   UNL A   1      35.823  23.149  25.019  1.00  0.00    -0.018 A 
ATOM     15  C   UNL A   1      37.389  19.667  24.714  1.00  0.00     0.044 C 
ATOM     16  C   UNL A   1      37.219  21.123  25.034  1.00  0.00    -0.051 A 
ATOM     17  C   UNL A   1      38.236  21.838  25.668  1.00  0.00     0.003 A 
ATOM     18  C   UNL A   1      36.027  21.786  24.716  1.00  0.00     0.012 A 
ATOM     19  C   UNL A   1      38.065  23.191  25.962  1.00  0.00     0.001 A 
ATOM     20  C   UNL A   1      36.870  23.843  25.638  1.00  0.00     0.009 A 
ENDBRANCH   9  14
ENDBRANCH   5   8
ENDBRANCH   3   4
ENDBRANCH   2   3
ENDBRANCH   1   2
BRANCH   1  21
ATOM     21  C   UNL A   1      34.481  29.964  26.543  1.00  0.00     0.116 C 
BRANCH  21  22
ATOM     22  N   UNL A   1      35.047  31.047  27.322  1.00  0.00    -0.352 N 
ATOM     23  C   UNL A   1      36.023  30.965  28.311  1.00  0.00     0.251 C 
ATOM     24  H   UNL A   1      34.701  31.949  27.129  1.00  0.00     0.163 HD
ATOM     25  O   UNL A   1      36.158  31.823  29.150  1.00  0.00    -0.269 OA
BRANCH  23  26
ATOM     26  C   UNL A   1      36.992  29.843  28.207  1.00  0.00     0.039 A 
ATOM     27  C   UNL A   1      37.063  28.962  29.294  1.00  0.00     0.014 A 
ATOM     28  C   UNL A   1      37.959  29.810  27.208  1.00  0.00     0.014 A 
ATOM     29  C   UNL A   1      38.205  28.179  29.476  1.00  0.00     0.010 A 
ATOM     30  C   UNL A   1      39.126  29.105  27.436  1.00  0.00     0.010 A 
ATOM     31  C   UNL A   1      39.273  28.325  28.594  1.00  0.00    -0.014 A 
BRANCH  31  32
ATOM     32  C   UNL A   1      40.616  27.794  28.831  1.00  0.00     0.031 A 
ATOM     33  C   UNL A   1      40.950  26.393  28.476  1.00  0.00     0.074 A 
ATOM     34  C   UNL A   1      41.605  28.629  29.219  1.00  0.00     0.049 A 
ATOM     35  N   UNL A   1      42.046  25.785  28.787  1.00  0.00    -0.248 NA
ATOM     36  C   UNL A   1      40.012  25.539  27.759  1.00  0.00     0.031 C 
ATOM     37  C   UNL A   1      43.042  28.411  29.090  1.00  0.00     0.029 A 
ATOM     38  N   UNL A   1      41.499  29.773  30.012  1.00  0.00    -0.354 N 
ATOM     39  C   UNL A   1      42.088  24.593  28.094  1.00  0.00     0.074 A 
ATOM     40  C   UNL A   1      40.769  24.465  27.522  1.00  0.00     0.031 C 
ATOM     41  C   UNL A   1      43.684  29.211  29.954  1.00  0.00     0.029 A 
ATOM     42  C   UNL A   1      42.679  29.853  30.781  1.00  0.00     0.049 A 
ATOM     43  H   UNL A   1      40.744  30.404  30.030  1.00  0.00     0.167 HD
ATOM     44  C   UNL A   1      43.273  23.918  27.994  1.00  0.00     0.037 A 
ATOM     45  C   UNL A   1      42.619  29.752  32.143  1.00  0.00     0.037 A 
ATOM     46  C   UNL A   1      44.289  24.494  28.883  1.00  0.00     0.049 A 
ATOM     47  C   UNL A   1      43.274  28.514  32.721  1.00  0.00     0.074 A 
ATOM     48  C   UNL A   1      45.368  25.348  28.711  1.00  0.00     0.029 A 
ATOM     49  N   UNL A   1      44.095  24.402  30.252  1.00  0.00    -0.354 N 
ATOM     50  N   UNL A   1      43.896  27.606  32.020  1.00  0.00    -0.248 NA
ATOM     51  C   UNL A   1      43.210  28.167  34.144  1.00  0.00     0.031 C 
ATOM     52  C   UNL A   1      45.772  25.818  29.996  1.00  0.00     0.029 A 
ATOM     53  C   UNL A   1      44.943  25.247  30.944  1.00  0.00     0.049 A 
ATOM     54  H   UNL A   1      43.436  23.808  30.678  1.00  0.00     0.167 HD
ATOM     55  C   UNL A   1      44.227  26.557  32.833  1.00  0.00     0.074 A 
ATOM     56  C   UNL A   1      43.812  26.966  34.162  1.00  0.00     0.031 C 
ATOM     57  C   UNL A   1      44.770  25.395  32.377  1.00  0.00     0.037 A 
BRANCH  44  58
ATOM     58  C   UNL A   1      43.586  22.884  26.920  1.00  0.00     0.058 A 
ATOM     59  C   UNL A   1      42.910  21.641  26.898  1.00  0.00     0.135 A 
ATOM     60  C   UNL A   1      44.585  23.007  25.934  1.00  0.00     0.135 A 
ATOM     61  F   UNL A   1      41.860  21.401  27.695  1.00  0.00    -0.206 F 
ATOM     62  C   UNL A   1      43.279  20.581  26.063  1.00  0.00     0.059 A 
ATOM     63  C   UNL A   1      45.014  21.946  25.129  1.00  0.00     0.059 A 
ATOM     64  F   UNL A   1      45.152  24.184  25.649  1.00  0.00    -0.206 F 
ATOM     65  C   UNL A   1      44.363  20.727  25.210  1.00  0.00     0.060 A 
BRANCH  65  66
ATOM     66  S   UNL A   1      44.893  19.328  24.207  1.00  0.00     0.124 S 
ATOM     67  O   UNL A   1      44.409  19.698  22.881  1.00  0.00    -0.237 OA
ATOM     68  O   UNL A   1      46.341  19.357  24.386  1.00  0.00    -0.237 OA
ATOM     69  O   UNL A   1      44.210  18.191  24.820  1.00  0.00    -0.744 OA
ENDBRANCH  65  66
ENDBRANCH  44  58
BRANCH  45  70
ATOM     70  C   UNL A   1      41.433  30.451  32.708  1.00  0.00     0.058 A 
ATOM     71  C   UNL A   1      40.344  29.650  33.099  1.00  0.00     0.135 A 
ATOM     72  C   UNL A   1      41.548  31.724  33.282  1.00  0.00     0.135 A 
ATOM     73  F   UNL A   1      40.178  28.430  32.558  1.00  0.00    -0.206 F 
ATOM     74  C   UNL A   1      39.524  30.008  34.159  1.00  0.00     0.059 A 
ATOM     75  C   UNL A   1      40.726  32.111  34.339  1.00  0.00     0.059 A 
ATOM     76  F   UNL A   1      42.561  32.534  32.938  1.00  0.00    -0.206 F 
ATOM     77  C   UNL A   1      39.779  31.206  34.822  1.00  0.00     0.060 A 
BRANCH  77  78
ATOM     78  S   UNL A   1      39.007  31.450  36.438  1.00  0.00     0.124 S 
ATOM     79  O   UNL A   1      38.407  30.144  36.692  1.00  0.00    -0.237 OA
ATOM     80  O   UNL A   1      40.167  31.781  37.263  1.00  0.00    -0.237 OA
ATOM     81  O   UNL A   1      38.070  32.541  36.197  1.00  0.00    -0.744 OA
ENDBRANCH  77  78
ENDBRANCH  45  70
BRANCH  57  82
ATOM     82  C   UNL A   1      45.172  24.297  33.306  1.00  0.00     0.058 A 
ATOM     83  C   UNL A   1      44.273  23.276  33.655  1.00  0.00     0.135 A 
ATOM     84  C   UNL A   1      46.418  24.303  33.960  1.00  0.00     0.135 A 
ATOM     85  F   UNL A   1      43.057  23.218  33.089  1.00  0.00    -0.206 F 
ATOM     86  C   UNL A   1      44.595  22.301  34.595  1.00  0.00     0.059 A 
ATOM     87  C   UNL A   1      46.750  23.358  34.927  1.00  0.00     0.059 A 
ATOM     88  F   UNL A   1      47.349  25.220  33.657  1.00  0.00    -0.206 F 
ATOM     89  C   UNL A   1      45.836  22.352  35.229  1.00  0.00     0.060 A 
BRANCH  89  90
ATOM     90  S   UNL A   1      46.245  21.122  36.485  1.00  0.00     0.124 S 
ATOM     91  O   UNL A   1      45.608  19.912  35.976  1.00  0.00    -0.237 OA
ATOM     92  O   UNL A   1      47.704  21.134  36.436  1.00  0.00    -0.237 OA
ATOM     93  O   UNL A   1      45.648  21.674  37.696  1.00  0.00    -0.744 OA
ENDBRANCH  89  90
ENDBRANCH  57  82
ENDBRANCH  31  32
ENDBRANCH  23  26
ENDBRANCH  21  22
ENDBRANCH   1  21
TORSDOF 15
ENDMDL
MODEL 3
REMARK VINA RESULT:     -13.2      2.044      4.103
REMARK SMILES Cc1cccc(-c2cccc(C(=O)NCCCCNC(=O)c3ccc(-c4c5nc(c(-c6c(F)cc(S(=O)(=O)[O-])cc6F)c6ccc([nH]6)c(-c6c(F)cc(S(=O)(=O)[O-])cc6F)c6nc(c(-c7c(F)cc(S(=O)(=O)[O-])cc7F)c7ccc4[nH]7)C=C6)C=C5)cc3)c2)c1
REMARK SMILES IDX 17 1 16 2 15 3 14 4 12 5 13 6 11 8 7 9 8 10 88 11 9 12 10 13
REMARK SMILES IDX 6 14 1 15 2 16 3 17 89 18 4 19 5 20 18 21 19 22 20 23 21 25
REMARK SMILES IDX 22 26 23 27 87 28 24 29 86 30 25 31 26 32 27 33 80 34 28 35
REMARK SMILES IDX 85 36 79 37 81 38 29 39 84 40 78 41 77 42 30 44 64 45 43 46
REMARK SMILES IDX 63 47 44 48 47 49 62 50 82 51 45 52 46 53 61 55 83 56 48 57
REMARK SMILES IDX 31 58 32 59 41 60 33 61 34 62 40 63 42 64 35 65 36 66 37 67
REMARK SMILES IDX 38 68 39 69 65 70 66 71 75 72 67 73 68 74 74 75 76 76 69 77
REMARK SMILES IDX 70 78 71 79 72 80 73 81 49 82 50 83 59 84 51 85 52 86 58 87
REMARK SMILES IDX 60 88 53 89 54 90 55 91 56 92 57 93
REMARK H PARENT 14 7 19 24 81 43 47 54
REMARK Flexibility Score: inf
ROOT
ATOM      1  C   UNL A   1      33.488  29.277  25.661  1.00  0.00     0.023 C 
ENDROOT
BRANCH   1   2
ATOM      2  C   UNL A   1      34.183  28.241  24.781  1.00  0.00     0.023 C 
BRANCH   2   3
ATOM      3  C   UNL A   1      34.136  28.507  23.273  1.00  0.00     0.116 C 
BRANCH   3   4
ATOM      4  N   UNL A   1      33.795  27.332  22.478  1.00  0.00    -0.352 N 
ATOM      5  C   UNL A   1      32.641  26.640  22.203  1.00  0.00     0.251 C 
ATOM      6  O   UNL A   1      32.756  25.616  21.523  1.00  0.00    -0.269 OA
ATOM      7  H   UNL A   1      34.580  26.941  22.031  1.00  0.00     0.163 HD
BRANCH   5   8
ATOM      8  C   UNL A   1      31.278  27.013  22.684  1.00  0.00     0.040 A 
ATOM      9  C   UNL A   1      29.550  28.766  22.817  1.00  0.00    -0.018 A 
ATOM     10  C   UNL A   1      28.737  27.866  23.519  1.00  0.00     0.009 A 
ATOM     11  C   UNL A   1      30.803  28.307  22.367  1.00  0.00     0.022 A 
ATOM     12  C   UNL A   1      29.205  26.606  23.878  1.00  0.00     0.001 A 
ATOM     13  C   UNL A   1      30.491  26.211  23.511  1.00  0.00     0.014 A 
BRANCH   9  14
ATOM     14  C   UNL A   1      29.117  30.168  22.660  1.00  0.00    -0.018 A 
ATOM     15  C   UNL A   1      27.846  32.393  19.813  1.00  0.00     0.044 C 
ATOM     16  C   UNL A   1      28.283  31.945  21.177  1.00  0.00    -0.051 A 
ATOM     17  C   UNL A   1      28.316  32.842  22.246  1.00  0.00     0.003 A 
ATOM     18  C   UNL A   1      28.681  30.620  21.397  1.00  0.00     0.012 A 
ATOM     19  C   UNL A   1      28.726  32.414  23.509  1.00  0.00     0.001 A 
ATOM     20  C   UNL A   1      29.121  31.087  23.717  1.00  0.00     0.009 A 
ENDBRANCH   9  14
ENDBRANCH   5   8
ENDBRANCH   3   4
ENDBRANCH   2   3
ENDBRANCH   1   2
BRANCH   1  21
ATOM     21  C   UNL A   1      34.064  29.410  27.066  1.00  0.00     0.116 C 
BRANCH  21  22
ATOM     22  N   UNL A   1      34.776  30.646  27.322  1.00  0.00    -0.352 N 
ATOM     23  C   UNL A   1      35.901  30.831  28.121  1.00  0.00     0.251 C 
ATOM     24  H   UNL A   1      34.422  31.452  26.878  1.00  0.00     0.163 HD
ATOM     25  O   UNL A   1      36.192  31.911  28.575  1.00  0.00    -0.269 OA
BRANCH  23  26
ATOM     26  C   UNL A   1      36.814  29.668  28.275  1.00  0.00     0.039 A 
ATOM     27  C   UNL A   1      37.008  29.181  29.573  1.00  0.00     0.014 A 
ATOM     28  C   UNL A   1      37.632  29.246  27.232  1.00  0.00     0.014 A 
ATOM     29  C   UNL A   1      38.141  28.418  29.863  1.00  0.00     0.010 A 
ATOM     30  C   UNL A   1      38.798  28.570  27.537  1.00  0.00     0.010 A 
ATOM     31  C   UNL A   1      39.081  28.195  28.860  1.00  0.00    -0.014 A 
BRANCH  31  32
ATOM     32  C   UNL A   1      40.428  27.672  29.095  1.00  0.00     0.031 A 
ATOM     33  C   UNL A   1      40.780  26.284  28.707  1.00  0.00     0.074 A 
ATOM     34  C   UNL A   1      41.404  28.508  29.511  1.00  0.00     0.049 A 
ATOM     35  N   UNL A   1      41.880  25.681  29.011  1.00  0.00    -0.248 NA
ATOM     36  C   UNL A   1      39.857  25.439  27.962  1.00  0.00     0.031 C 
ATOM     37  C   UNL A   1      42.846  28.309  29.388  1.00  0.00     0.029 A 
ATOM     38  N   UNL A   1      41.280  29.630  30.331  1.00  0.00    -0.354 N 
ATOM     39  C   UNL A   1      41.941  24.507  28.290  1.00  0.00     0.074 A 
ATOM     40  C   UNL A   1      40.627  24.379  27.704  1.00  0.00     0.031 C 
ATOM     41  C   UNL A   1      43.471  29.095  30.276  1.00  0.00     0.029 A 
ATOM     42  C   UNL A   1      42.453  29.704  31.111  1.00  0.00     0.049 A 
ATOM     43  H   UNL A   1      40.518  30.253  30.359  1.00  0.00     0.167 HD
ATOM     44  C   UNL A   1      43.134  23.847  28.183  1.00  0.00     0.037 A 
ATOM     45  C   UNL A   1      42.384  29.569  32.470  1.00  0.00     0.037 A 
ATOM     46  C   UNL A   1      44.137  24.412  29.093  1.00  0.00     0.049 A 
ATOM     47  C   UNL A   1      43.048  28.325  33.022  1.00  0.00     0.074 A 
ATOM     48  C   UNL A   1      45.207  25.282  28.952  1.00  0.00     0.029 A 
ATOM     49  N   UNL A   1      43.933  24.284  30.458  1.00  0.00    -0.354 N 
ATOM     50  N   UNL A   1      43.685  27.441  32.303  1.00  0.00    -0.248 NA
ATOM     51  C   UNL A   1      42.978  27.942  34.435  1.00  0.00     0.031 C 
ATOM     52  C   UNL A   1      45.597  25.724  30.250  1.00  0.00     0.029 A 
ATOM     53  C   UNL A   1      44.767  25.121  31.177  1.00  0.00     0.049 A 
ATOM     54  H   UNL A   1      43.278  23.672  30.864  1.00  0.00     0.167 HD
ATOM     55  C   UNL A   1      44.022  26.375  33.093  1.00  0.00     0.074 A 
ATOM     56  C   UNL A   1      43.593  26.747  34.428  1.00  0.00     0.031 C 
ATOM     57  C   UNL A   1      44.581  25.231  32.612  1.00  0.00     0.037 A 
BRANCH  44  58
ATOM     58  C   UNL A   1      43.467  22.844  27.086  1.00  0.00     0.058 A 
ATOM     59  C   UNL A   1      42.844  21.574  27.059  1.00  0.00     0.135 A 
ATOM     60  C   UNL A   1      44.437  23.026  26.079  1.00  0.00     0.135 A 
ATOM     61  F   UNL A   1      41.824  21.276  27.876  1.00  0.00    -0.206 F 
ATOM     62  C   UNL A   1      43.240  20.543  26.200  1.00  0.00     0.059 A 
ATOM     63  C   UNL A   1      44.892  21.996  25.249  1.00  0.00     0.059 A 
ATOM     64  F   UNL A   1      44.946  24.229  25.800  1.00  0.00    -0.206 F 
ATOM     65  C   UNL A   1      44.296  20.749  25.325  1.00  0.00     0.060 A 
BRANCH  65  66
ATOM     66  S   UNL A   1      44.863  19.389  24.288  1.00  0.00     0.124 S 
ATOM     67  O   UNL A   1      44.461  19.828  22.956  1.00  0.00    -0.237 OA
ATOM     68  O   UNL A   1      46.299  19.384  24.551  1.00  0.00    -0.237 OA
ATOM     69  O   UNL A   1      44.129  18.237  24.807  1.00  0.00    -0.744 OA
ENDBRANCH  65  66
ENDBRANCH  44  58
BRANCH  45  70
ATOM     70  C   UNL A   1      41.186  30.241  33.042  1.00  0.00     0.058 A 
ATOM     71  C   UNL A   1      41.241  31.641  33.178  1.00  0.00     0.135 A 
ATOM     72  C   UNL A   1      39.922  29.637  32.987  1.00  0.00     0.135 A 
ATOM     73  F   UNL A   1      42.430  32.263  33.259  1.00  0.00    -0.206 F 
ATOM     74  C   UNL A   1      40.103  32.426  33.059  1.00  0.00     0.059 A 
ATOM     75  C   UNL A   1      38.764  30.406  32.881  1.00  0.00     0.059 A 
ATOM     76  F   UNL A   1      39.813  28.305  32.868  1.00  0.00    -0.206 F 
ATOM     77  C   UNL A   1      38.882  31.797  32.829  1.00  0.00     0.060 A 
BRANCH  77  78
ATOM     78  S   UNL A   1      37.509  32.819  32.248  1.00  0.00     0.124 S 
ATOM     79  O   UNL A   1      38.058  33.406  31.030  1.00  0.00    -0.237 OA
ATOM     80  O   UNL A   1      36.467  31.813  32.049  1.00  0.00    -0.237 OA
ATOM     81  O   UNL A   1      37.292  33.744  33.354  1.00  0.00    -0.744 OA
ENDBRANCH  77  78
ENDBRANCH  45  70
BRANCH  57  82
ATOM     82  C   UNL A   1      44.988  24.115  33.517  1.00  0.00     0.058 A 
ATOM     83  C   UNL A   1      46.336  23.912  33.857  1.00  0.00     0.135 A 
ATOM     84  C   UNL A   1      44.064  23.154  33.966  1.00  0.00     0.135 A 
ATOM     85  F   UNL A   1      47.278  24.775  33.446  1.00  0.00    -0.206 F 
ATOM     86  C   UNL A   1      46.747  22.820  34.617  1.00  0.00     0.059 A 
ATOM     87  C   UNL A   1      44.456  22.037  34.698  1.00  0.00     0.059 A 
ATOM     88  F   UNL A   1      42.753  23.292  33.716  1.00  0.00    -0.206 F 
ATOM     89  C   UNL A   1      45.799  21.884  35.031  1.00  0.00     0.060 A 
BRANCH  89  90
ATOM     90  S   UNL A   1      46.327  20.439  35.973  1.00  0.00     0.124 S 
ATOM     91  O   UNL A   1      45.739  19.331  35.228  1.00  0.00    -0.237 OA
ATOM     92  O   UNL A   1      47.780  20.554  35.887  1.00  0.00    -0.237 OA
ATOM     93  O   UNL A   1      45.751  20.675  37.292  1.00  0.00    -0.744 OA
ENDBRANCH  89  90
ENDBRANCH  57  82
ENDBRANCH  31  32
ENDBRANCH  23  26
ENDBRANCH  21  22
ENDBRANCH   1  21
TORSDOF 15
ENDMDL
