MODEL 1
REMARK VINA RESULT:     -14.6      0.000      0.000
REMARK SMILES Cc1ccccc1S(=O)(=O)Nc1ccc(N2CCOCC2)cc1C(=O)NCCCCNC(=O)c1ccc(-c2c3nc(c(-c4c(F)cc(S(=O)(=O)[O-])cc4F)c4ccc([nH]4)c(-c4c(F)cc(S(=O)(=O)[O-])cc4F)c4nc(c(-c5c(F)cc(S(=O)(=O)[O-])cc5F)c5ccc2[nH]5)C=C4)C=C3)cc1
REMARK SMILES IDX 28 1 27 2 26 3 24 4 25 5 23 7 12 8 13 9 14 10 22 11 15 12
REMARK SMILES IDX 11 13 8 15 9 16 10 17 7 18 1 19 2 20 3 21 4 22 6 23 5 24
REMARK SMILES IDX 16 25 17 26 21 27 18 28 20 29 19 30 29 31 30 32 31 33 32 34
REMARK SMILES IDX 33 36 34 37 35 38 99 39 36 40 98 41 37 42 38 43 39 44 92 45
REMARK SMILES IDX 40 46 97 47 91 48 93 49 41 50 96 51 90 52 89 53 42 55 76 56
REMARK SMILES IDX 55 57 75 58 56 59 59 60 74 61 94 62 57 63 58 64 73 66 95 67
REMARK SMILES IDX 60 68 43 69 44 70 53 71 45 72 46 73 52 74 54 75 47 76 48 77
REMARK SMILES IDX 49 78 50 79 51 80 77 81 78 82 87 83 79 84 80 85 86 86 88 87
REMARK SMILES IDX 81 88 82 89 83 90 84 91 85 92 61 93 62 94 71 95 63 96 64 97
REMARK SMILES IDX 70 98 72 99 65 100 66 101 67 102 68 103 69 104
REMARK H PARENT 26 6 11 14 31 35 93 54 59 65
REMARK Flexibility Score: inf
ROOT
ATOM      1  C   UNL A   1      34.028  29.144  26.882  1.00  0.00     0.023 C 
ENDROOT
BRANCH   1   2
ATOM      2  C   UNL A   1      33.216  29.189  25.593  1.00  0.00     0.116 C 
BRANCH   2   3
ATOM      3  N   UNL A   1      33.724  28.361  24.501  1.00  0.00    -0.352 N 
ATOM      4  C   UNL A   1      33.095  27.647  23.501  1.00  0.00     0.253 C 
ATOM      5  O   UNL A   1      33.794  27.117  22.640  1.00  0.00    -0.269 OA
ATOM      6  H   UNL A   1      34.707  28.302  24.472  1.00  0.00     0.163 HD
BRANCH   4   7
ATOM      7  C   UNL A   1      31.617  27.478  23.464  1.00  0.00     0.066 A 
ATOM      8  C   UNL A   1      30.993  26.411  24.133  1.00  0.00     0.062 A 
ATOM      9  C   UNL A   1      29.602  26.317  24.116  1.00  0.00     0.030 A 
ATOM     10  C   UNL A   1      28.840  27.353  23.557  1.00  0.00     0.028 A 
ATOM     11  C   UNL A   1      30.825  28.403  22.768  1.00  0.00     0.042 A 
ATOM     12  C   UNL A   1      29.435  28.449  22.919  1.00  0.00     0.038 A 
BRANCH   8  13
ATOM     13  N   UNL A   1      31.752  25.421  24.826  1.00  0.00    -0.279 N 
ATOM     14  H   UNL A   1      32.217  25.669  25.656  1.00  0.00     0.180 HD
BRANCH  13  15
ATOM     15  S   UNL A   1      31.871  23.841  24.262  1.00  0.00     0.262 S 
ATOM     16  O   UNL A   1      31.848  23.950  22.815  1.00  0.00    -0.201 OA
ATOM     17  O   UNL A   1      30.842  23.048  24.903  1.00  0.00    -0.201 OA
BRANCH  15  18
ATOM     18  C   UNL A   1      33.478  23.202  24.735  1.00  0.00     0.090 A 
ATOM     19  C   UNL A   1      33.001  20.755  24.012  1.00  0.00     0.046 C 
ATOM     20  C   UNL A   1      33.882  21.874  24.480  1.00  0.00    -0.031 A 
ATOM     21  C   UNL A   1      35.220  21.518  24.740  1.00  0.00     0.005 A 
ATOM     22  C   UNL A   1      36.149  22.449  25.197  1.00  0.00     0.000 A 
ATOM     23  C   UNL A   1      34.425  24.133  25.206  1.00  0.00     0.022 A 
ATOM     24  C   UNL A   1      35.753  23.757  25.430  1.00  0.00     0.001 A 
ENDBRANCH  15  18
ENDBRANCH  13  15
ENDBRANCH   8  13
BRANCH  12  25
ATOM     25  N   UNL A   1      28.712  29.564  22.551  1.00  0.00    -0.367 N 
ATOM     26  C   UNL A   1      29.145  30.518  21.512  1.00  0.00     0.145 C 
ATOM     27  C   UNL A   1      27.427  29.892  23.199  1.00  0.00     0.145 C 
ATOM     28  C   UNL A   1      28.991  31.964  22.008  1.00  0.00     0.181 C 
ATOM     29  C   UNL A   1      27.360  31.384  23.574  1.00  0.00     0.181 C 
ATOM     30  O   UNL A   1      27.646  32.218  22.447  1.00  0.00    -0.378 OA
ENDBRANCH  12  25
ENDBRANCH   4   7
ENDBRANCH   2   3
ENDBRANCH   1   2
BRANCH   1  31
ATOM     31  C   UNL A   1      34.144  30.442  27.655  1.00  0.00     0.023 C 
BRANCH  31  32
ATOM     32  C   UNL A   1      35.478  31.152  27.481  1.00  0.00     0.116 C 
BRANCH  32  33
ATOM     33  N   UNL A   1      36.072  31.604  28.741  1.00  0.00    -0.352 N 
ATOM     34  C   UNL A   1      36.930  30.930  29.599  1.00  0.00     0.251 C 
ATOM     35  H   UNL A   1      35.827  32.516  29.020  1.00  0.00     0.163 HD
ATOM     36  O   UNL A   1      37.271  31.364  30.696  1.00  0.00    -0.269 OA
BRANCH  34  37
ATOM     37  C   UNL A   1      37.559  29.699  29.088  1.00  0.00     0.039 A 
ATOM     38  C   UNL A   1      37.678  28.651  30.009  1.00  0.00     0.014 A 
ATOM     39  C   UNL A   1      38.406  29.814  27.995  1.00  0.00     0.014 A 
ATOM     40  C   UNL A   1      38.846  27.910  30.017  1.00  0.00     0.010 A 
ATOM     41  C   UNL A   1      39.624  29.187  28.093  1.00  0.00     0.010 A 
ATOM     42  C   UNL A   1      39.861  28.298  29.149  1.00  0.00    -0.014 A 
BRANCH  42  43
ATOM     43  C   UNL A   1      41.216  27.794  29.243  1.00  0.00     0.031 A 
ATOM     44  C   UNL A   1      41.431  26.417  28.784  1.00  0.00     0.074 A 
ATOM     45  C   UNL A   1      42.209  28.592  29.687  1.00  0.00     0.049 A 
ATOM     46  N   UNL A   1      42.436  25.685  29.100  1.00  0.00    -0.248 NA
ATOM     47  C   UNL A   1      40.445  25.724  27.964  1.00  0.00     0.031 C 
ATOM     48  C   UNL A   1      43.644  28.321  29.691  1.00  0.00     0.029 A 
ATOM     49  N   UNL A   1      42.072  29.747  30.473  1.00  0.00    -0.354 N 
ATOM     50  C   UNL A   1      42.365  24.533  28.347  1.00  0.00     0.074 A 
ATOM     51  C   UNL A   1      41.067  24.572  27.727  1.00  0.00     0.031 C 
ATOM     52  C   UNL A   1      44.208  29.048  30.671  1.00  0.00     0.029 A 
ATOM     53  C   UNL A   1      43.132  29.693  31.406  1.00  0.00     0.049 A 
ATOM     54  H   UNL A   1      41.383  30.446  30.391  1.00  0.00     0.167 HD
ATOM     55  C   UNL A   1      43.479  23.754  28.256  1.00  0.00     0.037 A 
ATOM     56  C   UNL A   1      42.846  29.481  32.726  1.00  0.00     0.037 A 
ATOM     57  C   UNL A   1      44.494  24.229  29.203  1.00  0.00     0.049 A 
ATOM     58  C   UNL A   1      43.334  28.141  33.253  1.00  0.00     0.074 A 
ATOM     59  C   UNL A   1      45.589  25.073  29.119  1.00  0.00     0.029 A 
ATOM     60  N   UNL A   1      44.200  24.132  30.551  1.00  0.00    -0.354 N 
ATOM     61  N   UNL A   1      43.872  27.209  32.507  1.00  0.00    -0.248 NA
ATOM     62  C   UNL A   1      43.241  27.728  34.653  1.00  0.00     0.031 C 
ATOM     63  C   UNL A   1      45.900  25.528  30.442  1.00  0.00     0.029 A 
ATOM     64  C   UNL A   1      45.013  24.937  31.324  1.00  0.00     0.049 A 
ATOM     65  H   UNL A   1      43.493  23.555  30.917  1.00  0.00     0.167 HD
ATOM     66  C   UNL A   1      44.191  26.117  33.270  1.00  0.00     0.074 A 
ATOM     67  C   UNL A   1      43.766  26.489  34.610  1.00  0.00     0.031 C 
ATOM     68  C   UNL A   1      44.765  24.985  32.760  1.00  0.00     0.037 A 
BRANCH  55  69
ATOM     69  C   UNL A   1      43.723  22.736  27.160  1.00  0.00     0.058 A 
ATOM     70  C   UNL A   1      42.910  21.587  27.076  1.00  0.00     0.135 A 
ATOM     71  C   UNL A   1      44.770  22.775  26.214  1.00  0.00     0.135 A 
ATOM     72  F   UNL A   1      41.827  21.442  27.852  1.00  0.00    -0.206 F 
ATOM     73  C   UNL A   1      43.172  20.530  26.198  1.00  0.00     0.059 A 
ATOM     74  C   UNL A   1      45.088  21.710  25.370  1.00  0.00     0.059 A 
ATOM     75  F   UNL A   1      45.503  23.873  26.008  1.00  0.00    -0.206 F 
ATOM     76  C   UNL A   1      44.285  20.585  25.371  1.00  0.00     0.060 A 
BRANCH  76  77
ATOM     77  S   UNL A   1      44.643  19.199  24.279  1.00  0.00     0.124 S 
ATOM     78  O   UNL A   1      43.652  18.214  24.699  1.00  0.00    -0.237 OA
ATOM     79  O   UNL A   1      44.435  19.791  22.961  1.00  0.00    -0.237 OA
ATOM     80  O   UNL A   1      46.028  18.861  24.599  1.00  0.00    -0.744 OA
ENDBRANCH  76  77
ENDBRANCH  55  69
BRANCH  56  81
ATOM     81  C   UNL A   1      41.672  30.289  33.180  1.00  0.00     0.058 A 
ATOM     82  C   UNL A   1      40.447  29.604  33.336  1.00  0.00     0.135 A 
ATOM     83  C   UNL A   1      41.794  31.518  33.842  1.00  0.00     0.135 A 
ATOM     84  F   UNL A   1      40.247  28.428  32.718  1.00  0.00    -0.206 F 
ATOM     85  C   UNL A   1      39.465  30.036  34.220  1.00  0.00     0.059 A 
ATOM     86  C   UNL A   1      40.807  31.976  34.732  1.00  0.00     0.059 A 
ATOM     87  F   UNL A   1      42.915  32.240  33.713  1.00  0.00    -0.206 F 
ATOM     88  C   UNL A   1      39.678  31.192  34.959  1.00  0.00     0.060 A 
BRANCH  88  89
ATOM     89  S   UNL A   1      38.471  31.583  36.251  1.00  0.00     0.124 S 
ATOM     90  O   UNL A   1      37.414  32.241  35.490  1.00  0.00    -0.237 OA
ATOM     91  O   UNL A   1      38.130  30.254  36.755  1.00  0.00    -0.237 OA
ATOM     92  O   UNL A   1      39.222  32.440  37.158  1.00  0.00    -0.744 OA
ENDBRANCH  88  89
ENDBRANCH  56  81
BRANCH  68  93
ATOM     93  C   UNL A   1      45.125  23.782  33.596  1.00  0.00     0.058 A 
ATOM     94  C   UNL A   1      44.219  22.744  33.859  1.00  0.00     0.135 A 
ATOM     95  C   UNL A   1      46.371  23.696  34.261  1.00  0.00     0.135 A 
ATOM     96  F   UNL A   1      42.983  22.765  33.337  1.00  0.00    -0.206 F 
ATOM     97  C   UNL A   1      44.552  21.656  34.670  1.00  0.00     0.059 A 
ATOM     98  C   UNL A   1      46.701  22.658  35.123  1.00  0.00     0.059 A 
ATOM     99  F   UNL A   1      47.342  24.597  34.061  1.00  0.00    -0.206 F 
ATOM    100  C   UNL A   1      45.799  21.620  35.292  1.00  0.00     0.060 A 
BRANCH 100 101
ATOM    101  S   UNL A   1      46.258  20.204  36.304  1.00  0.00     0.124 S 
ATOM    102  O   UNL A   1      45.856  20.625  37.642  1.00  0.00    -0.237 OA
ATOM    103  O   UNL A   1      45.449  19.148  35.703  1.00  0.00    -0.237 OA
ATOM    104  O   UNL A   1      47.698  20.088  36.096  1.00  0.00    -0.744 OA
ENDBRANCH 100 101
ENDBRANCH  68  93
ENDBRANCH  42  43
ENDBRANCH  34  37
ENDBRANCH  32  33
ENDBRANCH  31  32
ENDBRANCH   1  31
TORSDOF 18
ENDMDL
MODEL 2
REMARK VINA RESULT:     -13.9      1.319      4.333
REMARK SMILES Cc1ccccc1S(=O)(=O)Nc1ccc(N2CCOCC2)cc1C(=O)NCCCCNC(=O)c1ccc(-c2c3nc(c(-c4c(F)cc(S(=O)(=O)[O-])cc4F)c4ccc([nH]4)c(-c4c(F)cc(S(=O)(=O)[O-])cc4F)c4nc(c(-c5c(F)cc(S(=O)(=O)[O-])cc5F)c5ccc2[nH]5)C=C4)C=C3)cc1
REMARK SMILES IDX 28 1 27 2 26 3 24 4 25 5 23 7 12 8 13 9 14 10 22 11 15 12
REMARK SMILES IDX 11 13 8 15 9 16 10 17 7 18 1 19 2 20 3 21 4 22 6 23 5 24
REMARK SMILES IDX 16 25 17 26 21 27 18 28 20 29 19 30 29 31 30 32 31 33 32 34
REMARK SMILES IDX 33 36 34 37 35 38 99 39 36 40 98 41 37 42 38 43 39 44 92 45
REMARK SMILES IDX 40 46 97 47 91 48 93 49 41 50 96 51 90 52 89 53 42 55 76 56
REMARK SMILES IDX 55 57 75 58 56 59 59 60 74 61 94 62 57 63 58 64 73 66 95 67
REMARK SMILES IDX 60 68 43 69 44 70 53 71 45 72 46 73 52 74 54 75 47 76 48 77
REMARK SMILES IDX 49 78 50 79 51 80 77 81 78 82 87 83 79 84 80 85 86 86 88 87
REMARK SMILES IDX 81 88 82 89 83 90 84 91 85 92 61 93 62 94 71 95 63 96 64 97
REMARK SMILES IDX 70 98 72 99 65 100 66 101 67 102 68 103 69 104
REMARK H PARENT 26 6 11 14 31 35 93 54 59 65
REMARK Flexibility Score: inf
ROOT
ATOM      1  C   UNL A   1      34.654  29.119  27.401  1.00  0.00     0.023 C 
ENDROOT
BRANCH   1   2
ATOM      2  C   UNL A   1      33.752  28.485  26.348  1.00  0.00     0.116 C 
BRANCH   2   3
ATOM      3  N   UNL A   1      32.450  28.027  26.829  1.00  0.00    -0.352 N 
ATOM      4  C   UNL A   1      31.725  26.875  26.604  1.00  0.00     0.253 C 
ATOM      5  O   UNL A   1      30.684  26.711  27.238  1.00  0.00    -0.269 OA
ATOM      6  H   UNL A   1      32.003  28.665  27.432  1.00  0.00     0.163 HD
BRANCH   4   7
ATOM      7  C   UNL A   1      32.150  25.859  25.602  1.00  0.00     0.066 A 
ATOM      8  C   UNL A   1      31.639  25.875  24.294  1.00  0.00     0.062 A 
ATOM      9  C   UNL A   1      32.101  24.937  23.371  1.00  0.00     0.030 A 
ATOM     10  C   UNL A   1      33.161  24.086  23.713  1.00  0.00     0.028 A 
ATOM     11  C   UNL A   1      33.088  24.878  25.957  1.00  0.00     0.042 A 
ATOM     12  C   UNL A   1      33.718  24.077  24.999  1.00  0.00     0.038 A 
BRANCH   8  13
ATOM     13  N   UNL A   1      30.656  26.827  23.889  1.00  0.00    -0.279 N 
ATOM     14  H   UNL A   1      29.746  26.760  24.258  1.00  0.00     0.180 HD
BRANCH  13  15
ATOM     15  S   UNL A   1      31.009  28.059  22.802  1.00  0.00     0.262 S 
ATOM     16  O   UNL A   1      30.813  27.475  21.487  1.00  0.00    -0.201 OA
ATOM     17  O   UNL A   1      32.318  28.591  23.122  1.00  0.00    -0.201 OA
BRANCH  15  18
ATOM     18  C   UNL A   1      29.787  29.354  23.011  1.00  0.00     0.090 A 
ATOM     19  C   UNL A   1      30.940  30.464  25.055  1.00  0.00     0.046 C 
ATOM     20  C   UNL A   1      29.924  30.394  23.955  1.00  0.00    -0.031 A 
ATOM     21  C   UNL A   1      28.995  31.453  23.927  1.00  0.00     0.005 A 
ATOM     22  C   UNL A   1      27.982  31.513  22.973  1.00  0.00     0.000 A 
ATOM     23  C   UNL A   1      28.753  29.421  22.056  1.00  0.00     0.022 A 
ATOM     24  C   UNL A   1      27.861  30.497  22.036  1.00  0.00     0.001 A 
ENDBRANCH  15  18
ENDBRANCH  13  15
ENDBRANCH   8  13
BRANCH  12  25
ATOM     25  N   UNL A   1      34.883  23.399  25.288  1.00  0.00    -0.367 N 
ATOM     26  C   UNL A   1      36.068  24.027  25.905  1.00  0.00     0.145 C 
ATOM     27  C   UNL A   1      35.032  21.964  24.977  1.00  0.00     0.145 C 
ATOM     28  C   UNL A   1      37.346  23.629  25.149  1.00  0.00     0.181 C 
ATOM     29  C   UNL A   1      36.384  21.679  24.299  1.00  0.00     0.181 C 
ATOM     30  O   UNL A   1      37.473  22.200  25.068  1.00  0.00    -0.378 OA
ENDBRANCH  12  25
ENDBRANCH   4   7
ENDBRANCH   2   3
ENDBRANCH   1   2
BRANCH   1  31
ATOM     31  C   UNL A   1      34.461  30.601  27.654  1.00  0.00     0.023 C 
BRANCH  31  32
ATOM     32  C   UNL A   1      35.755  31.399  27.688  1.00  0.00     0.116 C 
BRANCH  32  33
ATOM     33  N   UNL A   1      36.240  31.674  29.043  1.00  0.00    -0.352 N 
ATOM     34  C   UNL A   1      37.029  30.887  29.870  1.00  0.00     0.251 C 
ATOM     35  H   UNL A   1      35.967  32.542  29.421  1.00  0.00     0.163 HD
ATOM     36  O   UNL A   1      37.276  31.168  31.040  1.00  0.00    -0.269 OA
BRANCH  34  37
ATOM     37  C   UNL A   1      37.706  29.734  29.252  1.00  0.00     0.039 A 
ATOM     38  C   UNL A   1      37.789  28.582  30.045  1.00  0.00     0.014 A 
ATOM     39  C   UNL A   1      38.613  29.989  28.232  1.00  0.00     0.014 A 
ATOM     40  C   UNL A   1      38.967  27.857  30.031  1.00  0.00     0.010 A 
ATOM     41  C   UNL A   1      39.834  29.367  28.325  1.00  0.00     0.010 A 
ATOM     42  C   UNL A   1      40.024  28.358  29.278  1.00  0.00    -0.014 A 
BRANCH  42  43
ATOM     43  C   UNL A   1      41.379  27.859  29.390  1.00  0.00     0.031 A 
ATOM     44  C   UNL A   1      41.615  26.497  28.895  1.00  0.00     0.074 A 
ATOM     45  C   UNL A   1      42.357  28.648  29.882  1.00  0.00     0.049 A 
ATOM     46  N   UNL A   1      42.616  25.762  29.213  1.00  0.00    -0.248 NA
ATOM     47  C   UNL A   1      40.653  25.824  28.030  1.00  0.00     0.031 C 
ATOM     48  C   UNL A   1      43.792  28.386  29.914  1.00  0.00     0.029 A 
ATOM     49  N   UNL A   1      42.192  29.778  30.699  1.00  0.00    -0.354 N 
ATOM     50  C   UNL A   1      42.572  24.633  28.424  1.00  0.00     0.074 A 
ATOM     51  C   UNL A   1      41.288  24.683  27.773  1.00  0.00     0.031 C 
ATOM     52  C   UNL A   1      44.328  29.086  30.929  1.00  0.00     0.029 A 
ATOM     53  C   UNL A   1      43.230  29.702  31.656  1.00  0.00     0.049 A 
ATOM     54  H   UNL A   1      41.502  30.475  30.622  1.00  0.00     0.167 HD
ATOM     55  C   UNL A   1      43.692  23.864  28.337  1.00  0.00     0.037 A 
ATOM     56  C   UNL A   1      42.913  29.448  32.962  1.00  0.00     0.037 A 
ATOM     57  C   UNL A   1      44.681  24.316  29.322  1.00  0.00     0.049 A 
ATOM     58  C   UNL A   1      43.397  28.095  33.459  1.00  0.00     0.074 A 
ATOM     59  C   UNL A   1      45.772  25.168  29.291  1.00  0.00     0.029 A 
ATOM     60  N   UNL A   1      44.355  24.176  30.659  1.00  0.00    -0.354 N 
ATOM     61  N   UNL A   1      43.959  27.190  32.699  1.00  0.00    -0.248 NA
ATOM     62  C   UNL A   1      43.272  27.639  34.843  1.00  0.00     0.031 C 
ATOM     63  C   UNL A   1      46.048  25.584  30.634  1.00  0.00     0.029 A 
ATOM     64  C   UNL A   1      45.143  24.962  31.476  1.00  0.00     0.049 A 
ATOM     65  H   UNL A   1      43.642  23.584  30.990  1.00  0.00     0.167 HD
ATOM     66  C   UNL A   1      44.267  26.077  33.436  1.00  0.00     0.074 A 
ATOM     67  C   UNL A   1      43.807  26.406  34.776  1.00  0.00     0.031 C 
ATOM     68  C   UNL A   1      44.860  24.964  32.906  1.00  0.00     0.037 A 
BRANCH  55  69
ATOM     69  C   UNL A   1      43.969  22.882  27.217  1.00  0.00     0.058 A 
ATOM     70  C   UNL A   1      43.122  21.769  27.033  1.00  0.00     0.135 A 
ATOM     71  C   UNL A   1      45.077  22.917  26.342  1.00  0.00     0.135 A 
ATOM     72  F   UNL A   1      41.986  21.636  27.732  1.00  0.00    -0.206 F 
ATOM     73  C   UNL A   1      43.402  20.738  26.130  1.00  0.00     0.059 A 
ATOM     74  C   UNL A   1      45.410  21.874  25.476  1.00  0.00     0.059 A 
ATOM     75  F   UNL A   1      45.861  23.992  26.229  1.00  0.00    -0.206 F 
ATOM     76  C   UNL A   1      44.567  20.782  25.378  1.00  0.00     0.060 A 
BRANCH  76  77
ATOM     77  S   UNL A   1      44.944  19.428  24.254  1.00  0.00     0.124 S 
ATOM     78  O   UNL A   1      46.400  19.364  24.328  1.00  0.00    -0.237 OA
ATOM     79  O   UNL A   1      44.225  18.316  24.868  1.00  0.00    -0.237 OA
ATOM     80  O   UNL A   1      44.408  19.886  22.974  1.00  0.00    -0.744 OA
ENDBRANCH  76  77
ENDBRANCH  55  69
BRANCH  56  81
ATOM     81  C   UNL A   1      41.723  30.235  33.411  1.00  0.00     0.058 A 
ATOM     82  C   UNL A   1      40.503  29.535  33.529  1.00  0.00     0.135 A 
ATOM     83  C   UNL A   1      41.821  31.451  34.101  1.00  0.00     0.135 A 
ATOM     84  F   UNL A   1      40.325  28.371  32.883  1.00  0.00    -0.206 F 
ATOM     85  C   UNL A   1      39.500  29.940  34.405  1.00  0.00     0.059 A 
ATOM     86  C   UNL A   1      40.814  31.880  34.982  1.00  0.00     0.059 A 
ATOM     87  F   UNL A   1      42.937  32.186  34.008  1.00  0.00    -0.206 F 
ATOM     88  C   UNL A   1      39.688  31.081  35.172  1.00  0.00     0.060 A 
BRANCH  88  89
ATOM     89  S   UNL A   1      38.454  31.433  36.449  1.00  0.00     0.124 S 
ATOM     90  O   UNL A   1      39.232  32.191  37.423  1.00  0.00    -0.237 OA
ATOM     91  O   UNL A   1      37.468  32.216  35.704  1.00  0.00    -0.237 OA
ATOM     92  O   UNL A   1      38.030  30.106  36.875  1.00  0.00    -0.744 OA
ENDBRANCH  88  89
ENDBRANCH  56  81
BRANCH  68  93
ATOM     93  C   UNL A   1      45.207  23.738  33.714  1.00  0.00     0.058 A 
ATOM     94  C   UNL A   1      44.280  22.720  33.982  1.00  0.00     0.135 A 
ATOM     95  C   UNL A   1      46.466  23.608  34.347  1.00  0.00     0.135 A 
ATOM     96  F   UNL A   1      43.033  22.782  33.490  1.00  0.00    -0.206 F 
ATOM     97  C   UNL A   1      44.603  21.611  34.767  1.00  0.00     0.059 A 
ATOM     98  C   UNL A   1      46.788  22.548  35.185  1.00  0.00     0.059 A 
ATOM     99  F   UNL A   1      47.456  24.487  34.139  1.00  0.00    -0.206 F 
ATOM    100  C   UNL A   1      45.863  21.532  35.358  1.00  0.00     0.060 A 
BRANCH 100 101
ATOM    101  S   UNL A   1      46.307  20.087  36.336  1.00  0.00     0.124 S 
ATOM    102  O   UNL A   1      45.821  20.441  37.666  1.00  0.00    -0.237 OA
ATOM    103  O   UNL A   1      45.564  19.036  35.649  1.00  0.00    -0.237 OA
ATOM    104  O   UNL A   1      47.759  20.019  36.204  1.00  0.00    -0.744 OA
ENDBRANCH 100 101
ENDBRANCH  68  93
ENDBRANCH  42  43
ENDBRANCH  34  37
ENDBRANCH  32  33
ENDBRANCH  31  32
ENDBRANCH   1  31
TORSDOF 18
ENDMDL
MODEL 3
REMARK VINA RESULT:     -13.1      1.321      2.030
REMARK SMILES Cc1ccccc1S(=O)(=O)Nc1ccc(N2CCOCC2)cc1C(=O)NCCCCNC(=O)c1ccc(-c2c3nc(c(-c4c(F)cc(S(=O)(=O)[O-])cc4F)c4ccc([nH]4)c(-c4c(F)cc(S(=O)(=O)[O-])cc4F)c4nc(c(-c5c(F)cc(S(=O)(=O)[O-])cc5F)c5ccc2[nH]5)C=C4)C=C3)cc1
REMARK SMILES IDX 28 1 27 2 26 3 24 4 25 5 23 7 12 8 13 9 14 10 22 11 15 12
REMARK SMILES IDX 11 13 8 15 9 16 10 17 7 18 1 19 2 20 3 21 4 22 6 23 5 24
REMARK SMILES IDX 16 25 17 26 21 27 18 28 20 29 19 30 29 31 30 32 31 33 32 34
REMARK SMILES IDX 33 36 34 37 35 38 99 39 36 40 98 41 37 42 38 43 39 44 92 45
REMARK SMILES IDX 40 46 97 47 91 48 93 49 41 50 96 51 90 52 89 53 42 55 76 56
REMARK SMILES IDX 55 57 75 58 56 59 59 60 74 61 94 62 57 63 58 64 73 66 95 67
REMARK SMILES IDX 60 68 43 69 44 70 53 71 45 72 46 73 52 74 54 75 47 76 48 77
REMARK SMILES IDX 49 78 50 79 51 80 77 81 78 82 87 83 79 84 80 85 86 86 88 87
REMARK SMILES IDX 81 88 82 89 83 90 84 91 85 92 61 93 62 94 71 95 63 96 64 97
REMARK SMILES IDX 70 98 72 99 65 100 66 101 67 102 68 103 69 104
REMARK H PARENT 26 6 11 14 31 35 93 54 59 65
REMARK Flexibility Score: inf
ROOT
ATOM      1  C   UNL A   1      33.572  29.933  26.597  1.00  0.00     0.023 C 
ENDROOT
BRANCH   1   2
ATOM      2  C   UNL A   1      32.175  29.684  27.153  1.00  0.00     0.116 C 
BRANCH   2   3
ATOM      3  N   UNL A   1      31.807  28.280  27.322  1.00  0.00    -0.352 N 
ATOM      4  C   UNL A   1      31.495  27.283  26.420  1.00  0.00     0.253 C 
ATOM      5  O   UNL A   1      31.324  26.144  26.851  1.00  0.00    -0.269 OA
ATOM      6  H   UNL A   1      31.776  27.987  28.262  1.00  0.00     0.163 HD
BRANCH   4   7
ATOM      7  C   UNL A   1      31.330  27.558  24.966  1.00  0.00     0.066 A 
ATOM      8  C   UNL A   1      31.573  26.559  24.009  1.00  0.00     0.062 A 
ATOM      9  C   UNL A   1      31.357  26.843  22.661  1.00  0.00     0.030 A 
ATOM     10  C   UNL A   1      30.773  28.061  22.288  1.00  0.00     0.028 A 
ATOM     11  C   UNL A   1      30.908  28.826  24.539  1.00  0.00     0.042 A 
ATOM     12  C   UNL A   1      30.482  29.060  23.227  1.00  0.00     0.038 A 
BRANCH   8  13
ATOM     13  N   UNL A   1      32.039  25.264  24.384  1.00  0.00    -0.279 N 
ATOM     14  H   UNL A   1      31.410  24.631  24.799  1.00  0.00     0.180 HD
BRANCH  13  15
ATOM     15  S   UNL A   1      33.633  24.790  24.138  1.00  0.00     0.262 S 
ATOM     16  O   UNL A   1      34.388  25.420  25.206  1.00  0.00    -0.201 OA
ATOM     17  O   UNL A   1      33.997  25.101  22.770  1.00  0.00    -0.201 OA
BRANCH  15  18
ATOM     18  C   UNL A   1      33.729  23.015  24.376  1.00  0.00     0.090 A 
ATOM     19  C   UNL A   1      36.267  22.826  23.866  1.00  0.00     0.046 C 
ATOM     20  C   UNL A   1      34.943  22.299  24.333  1.00  0.00    -0.031 A 
ATOM     21  C   UNL A   1      34.934  20.938  24.698  1.00  0.00     0.005 A 
ATOM     22  C   UNL A   1      33.772  20.306  25.135  1.00  0.00     0.000 A 
ATOM     23  C   UNL A   1      32.557  22.363  24.811  1.00  0.00     0.022 A 
ATOM     24  C   UNL A   1      32.583  21.018  25.192  1.00  0.00     0.001 A 
ENDBRANCH  15  18
ENDBRANCH  13  15
ENDBRANCH   8  13
BRANCH  12  25
ATOM     25  N   UNL A   1      29.726  30.168  22.908  1.00  0.00    -0.367 N 
ATOM     26  C   UNL A   1      29.120  31.066  23.909  1.00  0.00     0.145 C 
ATOM     27  C   UNL A   1      29.456  30.532  21.503  1.00  0.00     0.145 C 
ATOM     28  C   UNL A   1      27.651  31.354  23.559  1.00  0.00     0.181 C 
ATOM     29  C   UNL A   1      27.970  30.879  21.295  1.00  0.00     0.181 C 
ATOM     30  O   UNL A   1      27.533  31.875  22.225  1.00  0.00    -0.378 OA
ENDBRANCH  12  25
ENDBRANCH   4   7
ENDBRANCH   2   3
ENDBRANCH   1   2
BRANCH   1  31
ATOM     31  C   UNL A   1      34.732  29.654  27.530  1.00  0.00     0.023 C 
BRANCH  31  32
ATOM     32  C   UNL A   1      35.141  30.843  28.386  1.00  0.00     0.116 C 
BRANCH  32  33
ATOM     33  N   UNL A   1      35.537  30.476  29.748  1.00  0.00    -0.352 N 
ATOM     34  C   UNL A   1      36.623  29.725  30.175  1.00  0.00     0.251 C 
ATOM     35  H   UNL A   1      34.949  30.811  30.463  1.00  0.00     0.163 HD
ATOM     36  O   UNL A   1      36.790  29.377  31.341  1.00  0.00    -0.269 OA
BRANCH  34  37
ATOM     37  C   UNL A   1      37.685  29.460  29.189  1.00  0.00     0.039 A 
ATOM     38  C   UNL A   1      37.803  28.130  28.766  1.00  0.00     0.014 A 
ATOM     39  C   UNL A   1      38.756  30.342  29.143  1.00  0.00     0.014 A 
ATOM     40  C   UNL A   1      39.071  27.599  28.608  1.00  0.00     0.010 A 
ATOM     41  C   UNL A   1      40.011  29.785  29.136  1.00  0.00     0.010 A 
ATOM     42  C   UNL A   1      40.154  28.404  28.946  1.00  0.00    -0.014 A 
BRANCH  42  43
ATOM     43  C   UNL A   1      41.502  27.895  29.091  1.00  0.00     0.031 A 
ATOM     44  C   UNL A   1      41.732  26.521  28.627  1.00  0.00     0.074 A 
ATOM     45  C   UNL A   1      42.479  28.684  29.584  1.00  0.00     0.049 A 
ATOM     46  N   UNL A   1      42.721  25.783  28.977  1.00  0.00    -0.248 NA
ATOM     47  C   UNL A   1      40.779  25.841  27.758  1.00  0.00     0.031 C 
ATOM     48  C   UNL A   1      43.910  28.409  29.646  1.00  0.00     0.029 A 
ATOM     49  N   UNL A   1      42.312  29.832  30.376  1.00  0.00    -0.354 N 
ATOM     50  C   UNL A   1      42.678  24.639  28.209  1.00  0.00     0.074 A 
ATOM     51  C   UNL A   1      41.406  24.689  27.535  1.00  0.00     0.031 C 
ATOM     52  C   UNL A   1      44.436  29.123  30.656  1.00  0.00     0.029 A 
ATOM     53  C   UNL A   1      43.332  29.764  31.352  1.00  0.00     0.049 A 
ATOM     54  H   UNL A   1      41.629  30.533  30.274  1.00  0.00     0.167 HD
ATOM     55  C   UNL A   1      43.792  23.857  28.156  1.00  0.00     0.037 A 
ATOM     56  C   UNL A   1      42.991  29.539  32.657  1.00  0.00     0.037 A 
ATOM     57  C   UNL A   1      44.768  24.319  29.149  1.00  0.00     0.049 A 
ATOM     58  C   UNL A   1      43.452  28.191  33.189  1.00  0.00     0.074 A 
ATOM     59  C   UNL A   1      45.868  25.160  29.121  1.00  0.00     0.029 A 
ATOM     60  N   UNL A   1      44.418  24.209  30.483  1.00  0.00    -0.354 N 
ATOM     61  N   UNL A   1      44.018  27.266  32.456  1.00  0.00    -0.248 NA
ATOM     62  C   UNL A   1      43.299  27.764  34.579  1.00  0.00     0.031 C 
ATOM     63  C   UNL A   1      46.125  25.600  30.460  1.00  0.00     0.029 A 
ATOM     64  C   UNL A   1      45.200  25.003  31.298  1.00  0.00     0.049 A 
ATOM     65  H   UNL A   1      43.694  23.630  30.813  1.00  0.00     0.167 HD
ATOM     66  C   UNL A   1      44.302  26.165  33.220  1.00  0.00     0.074 A 
ATOM     67  C   UNL A   1      43.823  26.524  34.546  1.00  0.00     0.031 C 
ATOM     68  C   UNL A   1      44.893  25.036  32.722  1.00  0.00     0.037 A 
BRANCH  55  69
ATOM     69  C   UNL A   1      44.078  22.851  27.060  1.00  0.00     0.058 A 
ATOM     70  C   UNL A   1      43.235  21.732  26.896  1.00  0.00     0.135 A 
ATOM     71  C   UNL A   1      45.191  22.869  26.191  1.00  0.00     0.135 A 
ATOM     72  F   UNL A   1      42.095  21.612  27.592  1.00  0.00    -0.206 F 
ATOM     73  C   UNL A   1      43.522  20.682  26.019  1.00  0.00     0.059 A 
ATOM     74  C   UNL A   1      45.532  21.808  25.351  1.00  0.00     0.059 A 
ATOM     75  F   UNL A   1      45.973  23.943  26.059  1.00  0.00    -0.206 F 
ATOM     76  C   UNL A   1      44.692  20.712  25.273  1.00  0.00     0.060 A 
BRANCH  76  77
ATOM     77  S   UNL A   1      45.079  19.333  24.182  1.00  0.00     0.124 S 
ATOM     78  O   UNL A   1      44.632  19.832  22.887  1.00  0.00    -0.237 OA
ATOM     79  O   UNL A   1      46.523  19.207  24.354  1.00  0.00    -0.237 OA
ATOM     80  O   UNL A   1      44.289  18.232  24.729  1.00  0.00    -0.744 OA
ENDBRANCH  76  77
ENDBRANCH  55  69
BRANCH  56  81
ATOM     81  C   UNL A   1      41.801  30.346  33.070  1.00  0.00     0.058 A 
ATOM     82  C   UNL A   1      41.991  31.737  33.216  1.00  0.00     0.135 A 
ATOM     83  C   UNL A   1      40.480  29.904  32.913  1.00  0.00     0.135 A 
ATOM     84  F   UNL A   1      43.226  32.236  33.390  1.00  0.00    -0.206 F 
ATOM     85  C   UNL A   1      40.951  32.646  33.055  1.00  0.00     0.059 A 
ATOM     86  C   UNL A   1      39.415  30.808  32.758  1.00  0.00     0.059 A 
ATOM     87  F   UNL A   1      40.220  28.594  32.802  1.00  0.00    -0.206 F 
ATOM     88  C   UNL A   1      39.677  32.177  32.767  1.00  0.00     0.060 A 
BRANCH  88  89
ATOM     89  S   UNL A   1      38.416  33.407  32.350  1.00  0.00     0.124 S 
ATOM     90  O   UNL A   1      37.430  33.203  33.405  1.00  0.00    -0.237 OA
ATOM     91  O   UNL A   1      39.172  34.655  32.446  1.00  0.00    -0.237 OA
ATOM     92  O   UNL A   1      37.998  33.012  31.011  1.00  0.00    -0.744 OA
ENDBRANCH  88  89
ENDBRANCH  56  81
BRANCH  68  93
ATOM     93  C   UNL A   1      45.214  23.823  33.560  1.00  0.00     0.058 A 
ATOM     94  C   UNL A   1      44.260  22.842  33.868  1.00  0.00     0.135 A 
ATOM     95  C   UNL A   1      46.477  23.672  34.180  1.00  0.00     0.135 A 
ATOM     96  F   UNL A   1      43.009  22.928  33.391  1.00  0.00    -0.206 F 
ATOM     97  C   UNL A   1      44.561  21.745  34.680  1.00  0.00     0.059 A 
ATOM     98  C   UNL A   1      46.778  22.626  35.043  1.00  0.00     0.059 A 
ATOM     99  F   UNL A   1      47.490  24.514  33.935  1.00  0.00    -0.206 F 
ATOM    100  C   UNL A   1      45.826  21.644  35.257  1.00  0.00     0.060 A 
BRANCH 100 101
ATOM    101  S   UNL A   1      46.239  20.214  36.270  1.00  0.00     0.124 S 
ATOM    102  O   UNL A   1      45.735  20.598  37.584  1.00  0.00    -0.237 OA
ATOM    103  O   UNL A   1      45.497  19.157  35.590  1.00  0.00    -0.237 OA
ATOM    104  O   UNL A   1      47.693  20.130  36.163  1.00  0.00    -0.744 OA
ENDBRANCH 100 101
ENDBRANCH  68  93
ENDBRANCH  42  43
ENDBRANCH  34  37
ENDBRANCH  32  33
ENDBRANCH  31  32
ENDBRANCH   1  31
TORSDOF 18
ENDMDL
