MODEL 1
REMARK VINA RESULT:     -12.2      0.000      0.000
REMARK SMILES CCSc1ccc(-c2cc(Cl)cc3c2O[C@H](C(F)(F)F)C(C(=O)NCCCCNC(=O)c2ccc(-c4c5nc(c(-c6c(F)cc(S(=O)(=O)[O-])cc6F)c6ccc([nH]6)c(-c6c(F)cc(S(=O)(=O)[O-])cc6F)c6nc(c(-c7c(F)cc(S(=O)(=O)[O-])cc7F)c7ccc4[nH]7)C=C6)C=C5)cc2)=C3)cc1
REMARK SMILES IDX 26 1 25 2 24 3 22 4 23 5 21 7 8 8 9 9 14 10 10 11 13 12
REMARK SMILES IDX 15 13 11 14 12 15 98 16 16 17 7 18 4 19 5 20 100 21 6 22
REMARK SMILES IDX 99 23 3 24 2 25 1 26 17 27 18 28 19 29 20 30 27 31 28 32
REMARK SMILES IDX 29 33 30 34 31 36 32 37 33 38 97 39 34 40 96 41 35 42 36 43
REMARK SMILES IDX 37 44 90 45 38 46 95 47 89 48 91 49 39 50 94 51 88 52 87 53
REMARK SMILES IDX 40 55 74 56 53 57 73 58 54 59 57 60 72 61 92 62 55 63 56 64
REMARK SMILES IDX 71 66 93 67 58 68 41 69 42 70 51 71 43 72 44 73 50 74 52 75
REMARK SMILES IDX 45 76 46 77 47 78 48 79 49 80 75 81 76 82 85 83 77 84 78 85
REMARK SMILES IDX 84 86 86 87 79 88 80 89 81 90 82 91 83 92 59 93 60 94 69 95
REMARK SMILES IDX 61 96 62 97 68 98 70 99 63 100 64 101 65 102 66 103 67 104
REMARK H PARENT 24 6 29 35 91 54 57 65
REMARK Flexibility Score: inf
ROOT
ATOM      1  C   UNL A   1      34.846  29.849  26.863  1.00  0.00     0.023 C 
ENDROOT
BRANCH   1   2
ATOM      2  C   UNL A   1      33.673  29.314  26.028  1.00  0.00     0.116 C 
BRANCH   2   3
ATOM      3  N   UNL A   1      33.031  28.223  26.728  1.00  0.00    -0.352 N 
ATOM      4  C   UNL A   1      31.938  27.502  26.394  1.00  0.00     0.251 C 
ATOM      5  O   UNL A   1      31.252  27.028  27.295  1.00  0.00    -0.270 OA
ATOM      6  H   UNL A   1      33.457  27.965  27.578  1.00  0.00     0.163 HD
BRANCH   4   7
ATOM      7  C   UNL A   1      31.657  27.234  24.949  1.00  0.00     0.067 C 
ATOM      8  C   UNL A   1      32.819  23.317  24.821  1.00  0.00     0.026 A 
ATOM      9  C   UNL A   1      34.057  23.233  25.507  1.00  0.00     0.033 A 
ATOM     10  C   UNL A   1      32.375  24.614  24.496  1.00  0.00     0.135 A 
ATOM     11  C   UNL A   1      34.891  24.334  25.685  1.00  0.00     0.042 A 
ATOM     12  C   UNL A   1      33.283  25.699  24.581  1.00  0.00     0.019 A 
ATOM     13  O   UNL A   1      31.064  24.903  24.141  1.00  0.00    -0.475 OA
ATOM     14  Cl  UNL A   1      36.374  24.150  26.532  1.00  0.00    -0.084 Cl
ATOM     15  C   UNL A   1      34.543  25.562  25.153  1.00  0.00     0.032 A 
ATOM     16  C   UNL A   1      32.784  27.050  24.231  1.00  0.00     0.025 C 
ATOM     17  C   UNL A   1      30.564  26.195  24.707  1.00  0.00     0.314 C 
BRANCH   8  18
ATOM     18  C   UNL A   1      32.292  22.014  24.324  1.00  0.00    -0.015 A 
ATOM     19  C   UNL A   1      32.353  19.384  23.208  1.00  0.00     0.007 A 
ATOM     20  C   UNL A   1      32.344  19.566  24.592  1.00  0.00     0.015 A 
ATOM     21  C   UNL A   1      32.212  20.510  22.392  1.00  0.00     0.015 A 
ATOM     22  C   UNL A   1      32.296  20.862  25.141  1.00  0.00     0.010 A 
ATOM     23  C   UNL A   1      32.178  21.805  22.940  1.00  0.00     0.010 A 
BRANCH  19  24
ATOM     24  S   UNL A   1      32.430  17.762  22.464  1.00  0.00    -0.126 SA
BRANCH  24  25
ATOM     25  C   UNL A   1      33.886  16.998  23.283  1.00  0.00     0.071 C 
ATOM     26  C   UNL A   1      33.489  15.948  24.310  1.00  0.00     0.016 C 
ENDBRANCH  24  25
ENDBRANCH  19  24
ENDBRANCH   8  18
BRANCH  17  27
ATOM     27  C   UNL A   1      29.481  26.826  23.803  1.00  0.00     0.429 C 
ATOM     28  F   UNL A   1      29.945  27.141  22.573  1.00  0.00    -0.167 F 
ATOM     29  F   UNL A   1      28.427  25.989  23.640  1.00  0.00    -0.167 F 
ATOM     30  F   UNL A   1      28.971  27.974  24.324  1.00  0.00    -0.167 F 
ENDBRANCH  17  27
ENDBRANCH   4   7
ENDBRANCH   2   3
ENDBRANCH   1   2
BRANCH   1  31
ATOM     31  C   UNL A   1      34.630  31.234  27.490  1.00  0.00     0.023 C 
BRANCH  31  32
ATOM     32  C   UNL A   1      35.718  31.683  28.460  1.00  0.00     0.116 C 
BRANCH  32  33
ATOM     33  N   UNL A   1      35.549  31.096  29.779  1.00  0.00    -0.352 N 
ATOM     34  C   UNL A   1      36.430  30.342  30.516  1.00  0.00     0.251 C 
ATOM     35  H   UNL A   1      34.677  31.263  30.207  1.00  0.00     0.163 HD
ATOM     36  O   UNL A   1      36.042  29.766  31.531  1.00  0.00    -0.269 OA
BRANCH  34  37
ATOM     37  C   UNL A   1      37.833  30.199  30.072  1.00  0.00     0.039 A 
ATOM     38  C   UNL A   1      38.860  30.373  31.003  1.00  0.00     0.014 A 
ATOM     39  C   UNL A   1      38.135  29.874  28.746  1.00  0.00     0.014 A 
ATOM     40  C   UNL A   1      40.184  30.131  30.627  1.00  0.00     0.010 A 
ATOM     41  C   UNL A   1      39.449  29.573  28.390  1.00  0.00     0.010 A 
ATOM     42  C   UNL A   1      40.485  29.678  29.332  1.00  0.00    -0.014 A 
BRANCH  42  43
ATOM     43  C   UNL A   1      41.859  29.243  28.964  1.00  0.00     0.031 A 
ATOM     44  C   UNL A   1      42.972  30.247  28.839  1.00  0.00     0.074 A 
ATOM     45  C   UNL A   1      42.074  27.951  28.640  1.00  0.00     0.049 A 
ATOM     46  N   UNL A   1      44.198  30.067  28.422  1.00  0.00    -0.248 NA
ATOM     47  C   UNL A   1      42.661  31.638  29.208  1.00  0.00     0.031 C 
ATOM     48  C   UNL A   1      41.060  26.892  28.666  1.00  0.00     0.029 A 
ATOM     49  N   UNL A   1      43.206  27.309  28.200  1.00  0.00    -0.354 N 
ATOM     50  C   UNL A   1      44.799  31.320  28.457  1.00  0.00     0.074 A 
ATOM     51  C   UNL A   1      43.795  32.258  28.908  1.00  0.00     0.031 C 
ATOM     52  C   UNL A   1      41.614  25.739  28.260  1.00  0.00     0.029 A 
ATOM     53  C   UNL A   1      43.008  25.980  27.902  1.00  0.00     0.049 A 
ATOM     54  H   UNL A   1      44.077  27.758  28.106  1.00  0.00     0.167 HD
ATOM     55  C   UNL A   1      46.076  31.651  28.150  1.00  0.00     0.037 A 
ATOM     56  C   UNL A   1      43.842  25.063  27.372  1.00  0.00     0.037 A 
ATOM     57  C   UNL A   1      47.080  30.704  27.737  1.00  0.00     0.049 A 
ATOM     58  C   UNL A   1      45.254  25.461  27.036  1.00  0.00     0.074 A 
ATOM     59  C   UNL A   1      48.427  30.928  27.511  1.00  0.00     0.029 A 
ATOM     60  N   UNL A   1      46.848  29.363  27.471  1.00  0.00    -0.354 N 
ATOM     61  N   UNL A   1      45.835  26.629  27.180  1.00  0.00    -0.248 NA
ATOM     62  C   UNL A   1      46.124  24.424  26.466  1.00  0.00     0.031 C 
ATOM     63  C   UNL A   1      48.998  29.737  27.052  1.00  0.00     0.029 A 
ATOM     64  C   UNL A   1      48.017  28.758  27.039  1.00  0.00     0.049 A 
ATOM     65  H   UNL A   1      45.981  28.909  27.572  1.00  0.00     0.167 HD
ATOM     66  C   UNL A   1      47.139  26.462  26.729  1.00  0.00     0.074 A 
ATOM     67  C   UNL A   1      47.271  25.076  26.329  1.00  0.00     0.031 C 
ATOM     68  C   UNL A   1      48.136  27.377  26.645  1.00  0.00     0.037 A 
BRANCH  55  69
ATOM     69  C   UNL A   1      46.480  33.096  28.246  1.00  0.00     0.058 A 
ATOM     70  C   UNL A   1      46.320  33.980  27.168  1.00  0.00     0.135 A 
ATOM     71  C   UNL A   1      46.947  33.623  29.461  1.00  0.00     0.135 A 
ATOM     72  F   UNL A   1      45.889  33.528  25.980  1.00  0.00    -0.206 F 
ATOM     73  C   UNL A   1      46.619  35.334  27.288  1.00  0.00     0.059 A 
ATOM     74  C   UNL A   1      47.229  34.977  29.612  1.00  0.00     0.059 A 
ATOM     75  F   UNL A   1      47.119  32.820  30.523  1.00  0.00    -0.206 F 
ATOM     76  C   UNL A   1      47.068  35.824  28.516  1.00  0.00     0.060 A 
BRANCH  76  77
ATOM     77  S   UNL A   1      47.411  37.591  28.665  1.00  0.00     0.124 S 
ATOM     78  O   UNL A   1      46.109  38.106  29.075  1.00  0.00    -0.237 OA
ATOM     79  O   UNL A   1      48.454  37.620  29.685  1.00  0.00    -0.237 OA
ATOM     80  O   UNL A   1      47.840  37.969  27.323  1.00  0.00    -0.744 OA
ENDBRANCH  76  77
ENDBRANCH  55  69
BRANCH  56  81
ATOM     81  C   UNL A   1      43.357  23.683  27.096  1.00  0.00     0.058 A 
ATOM     82  C   UNL A   1      43.283  22.722  28.115  1.00  0.00     0.135 A 
ATOM     83  C   UNL A   1      42.969  23.294  25.804  1.00  0.00     0.135 A 
ATOM     84  F   UNL A   1      43.650  23.042  29.366  1.00  0.00    -0.206 F 
ATOM     85  C   UNL A   1      42.865  21.420  27.861  1.00  0.00     0.059 A 
ATOM     86  C   UNL A   1      42.521  22.005  25.530  1.00  0.00     0.059 A 
ATOM     87  F   UNL A   1      43.005  24.178  24.796  1.00  0.00    -0.206 F 
ATOM     88  C   UNL A   1      42.487  21.070  26.563  1.00  0.00     0.060 A 
BRANCH  88  89
ATOM     89  S   UNL A   1      41.921  19.385  26.248  1.00  0.00     0.124 S 
ATOM     90  O   UNL A   1      40.497  19.593  26.015  1.00  0.00    -0.237 OA
ATOM     91  O   UNL A   1      42.711  19.010  25.079  1.00  0.00    -0.237 OA
ATOM     92  O   UNL A   1      42.264  18.681  27.480  1.00  0.00    -0.744 OA
ENDBRANCH  88  89
ENDBRANCH  56  81
BRANCH  68  93
ATOM     93  C   UNL A   1      49.462  26.916  26.109  1.00  0.00     0.058 A 
ATOM     94  C   UNL A   1      49.776  27.019  24.745  1.00  0.00     0.135 A 
ATOM     95  C   UNL A   1      50.459  26.441  26.977  1.00  0.00     0.135 A 
ATOM     96  F   UNL A   1      48.854  27.457  23.872  1.00  0.00    -0.206 F 
ATOM     97  C   UNL A   1      51.028  26.662  24.258  1.00  0.00     0.059 A 
ATOM     98  C   UNL A   1      51.728  26.104  26.516  1.00  0.00     0.059 A 
ATOM     99  F   UNL A   1      50.213  26.330  28.292  1.00  0.00    -0.206 F 
ATOM    100  C   UNL A   1      52.001  26.213  25.153  1.00  0.00     0.060 A 
BRANCH 100 101
ATOM    101  S   UNL A   1      53.642  25.814  24.516  1.00  0.00     0.124 S 
ATOM    102  O   UNL A   1      54.491  26.692  25.314  1.00  0.00    -0.237 OA
ATOM    103  O   UNL A   1      53.752  24.388  24.809  1.00  0.00    -0.237 OA
ATOM    104  O   UNL A   1      53.548  26.150  23.099  1.00  0.00    -0.744 OA
ENDBRANCH 100 101
ENDBRANCH  68  93
ENDBRANCH  42  43
ENDBRANCH  34  37
ENDBRANCH  32  33
ENDBRANCH  31  32
ENDBRANCH   1  31
TORSDOF 18
ENDMDL
MODEL 2
REMARK VINA RESULT:     -11.9      3.080      8.885
REMARK SMILES CCSc1ccc(-c2cc(Cl)cc3c2O[C@H](C(F)(F)F)C(C(=O)NCCCCNC(=O)c2ccc(-c4c5nc(c(-c6c(F)cc(S(=O)(=O)[O-])cc6F)c6ccc([nH]6)c(-c6c(F)cc(S(=O)(=O)[O-])cc6F)c6nc(c(-c7c(F)cc(S(=O)(=O)[O-])cc7F)c7ccc4[nH]7)C=C6)C=C5)cc2)=C3)cc1
REMARK SMILES IDX 26 1 25 2 24 3 22 4 23 5 21 7 8 8 9 9 14 10 10 11 13 12
REMARK SMILES IDX 15 13 11 14 12 15 98 16 16 17 7 18 4 19 5 20 100 21 6 22
REMARK SMILES IDX 99 23 3 24 2 25 1 26 17 27 18 28 19 29 20 30 27 31 28 32
REMARK SMILES IDX 29 33 30 34 31 36 32 37 33 38 97 39 34 40 96 41 35 42 36 43
REMARK SMILES IDX 37 44 90 45 38 46 95 47 89 48 91 49 39 50 94 51 88 52 87 53
REMARK SMILES IDX 40 55 74 56 53 57 73 58 54 59 57 60 72 61 92 62 55 63 56 64
REMARK SMILES IDX 71 66 93 67 58 68 41 69 42 70 51 71 43 72 44 73 50 74 52 75
REMARK SMILES IDX 45 76 46 77 47 78 48 79 49 80 75 81 76 82 85 83 77 84 78 85
REMARK SMILES IDX 84 86 86 87 79 88 80 89 81 90 82 91 83 92 59 93 60 94 69 95
REMARK SMILES IDX 61 96 62 97 68 98 70 99 63 100 64 101 65 102 66 103 67 104
REMARK H PARENT 24 6 29 35 91 54 57 65
REMARK Flexibility Score: inf
ROOT
ATOM      1  C   UNL A   1      37.074  21.246  24.850  1.00  0.00     0.023 C 
ENDROOT
BRANCH   1   2
ATOM      2  C   UNL A   1      36.665  22.251  25.937  1.00  0.00     0.116 C 
BRANCH   2   3
ATOM      3  N   UNL A   1      35.415  21.839  26.540  1.00  0.00    -0.352 N 
ATOM      4  C   UNL A   1      34.146  22.193  26.233  1.00  0.00     0.251 C 
ATOM      5  O   UNL A   1      33.307  22.192  27.128  1.00  0.00    -0.270 OA
ATOM      6  H   UNL A   1      35.501  21.203  27.287  1.00  0.00     0.163 HD
BRANCH   4   7
ATOM      7  C   UNL A   1      33.796  22.480  24.807  1.00  0.00     0.067 C 
ATOM      8  C   UNL A   1      30.648  25.007  25.454  1.00  0.00     0.026 A 
ATOM      9  C   UNL A   1      29.840  24.410  26.455  1.00  0.00     0.033 A 
ATOM     10  C   UNL A   1      31.630  24.181  24.872  1.00  0.00     0.135 A 
ATOM     11  C   UNL A   1      29.869  23.043  26.723  1.00  0.00     0.042 A 
ATOM     12  C   UNL A   1      31.566  22.779  25.074  1.00  0.00     0.019 A 
ATOM     13  O   UNL A   1      32.705  24.673  24.144  1.00  0.00    -0.475 OA
ATOM     14  Cl  UNL A   1      28.862  22.397  27.955  1.00  0.00    -0.084 Cl
ATOM     15  C   UNL A   1      30.678  22.206  25.977  1.00  0.00     0.032 A 
ATOM     16  C   UNL A   1      32.614  21.940  24.448  1.00  0.00     0.025 C 
ATOM     17  C   UNL A   1      33.985  23.941  24.401  1.00  0.00     0.314 C 
BRANCH   8  18
ATOM     18  C   UNL A   1      30.176  26.342  24.986  1.00  0.00    -0.015 A 
ATOM     19  C   UNL A   1      29.876  28.582  23.239  1.00  0.00     0.007 A 
ATOM     20  C   UNL A   1      28.926  27.559  23.249  1.00  0.00     0.015 A 
ATOM     21  C   UNL A   1      30.905  28.538  24.183  1.00  0.00     0.015 A 
ATOM     22  C   UNL A   1      29.065  26.464  24.123  1.00  0.00     0.010 A 
ATOM     23  C   UNL A   1      31.052  27.437  25.047  1.00  0.00     0.010 A 
BRANCH  19  24
ATOM     24  S   UNL A   1      29.752  29.983  22.137  1.00  0.00    -0.126 SA
BRANCH  24  25
ATOM     25  C   UNL A   1      27.985  30.464  22.274  1.00  0.00     0.071 C 
ATOM     26  C   UNL A   1      27.655  31.083  23.624  1.00  0.00     0.016 C 
ENDBRANCH  24  25
ENDBRANCH  19  24
ENDBRANCH   8  18
BRANCH  17  27
ATOM     27  C   UNL A   1      34.919  23.989  23.170  1.00  0.00     0.429 C 
ATOM     28  F   UNL A   1      34.632  25.014  22.336  1.00  0.00    -0.167 F 
ATOM     29  F   UNL A   1      36.216  24.116  23.541  1.00  0.00    -0.167 F 
ATOM     30  F   UNL A   1      34.853  22.856  22.421  1.00  0.00    -0.167 F 
ENDBRANCH  17  27
ENDBRANCH   4   7
ENDBRANCH   2   3
ENDBRANCH   1   2
BRANCH   1  31
ATOM     31  C   UNL A   1      37.990  20.106  25.318  1.00  0.00     0.023 C 
BRANCH  31  32
ATOM     32  C   UNL A   1      39.343  20.547  25.867  1.00  0.00     0.116 C 
BRANCH  32  33
ATOM     33  N   UNL A   1      40.253  19.426  26.037  1.00  0.00    -0.352 N 
ATOM     34  C   UNL A   1      41.621  19.427  26.171  1.00  0.00     0.251 C 
ATOM     35  H   UNL A   1      39.829  18.537  26.061  1.00  0.00     0.163 HD
ATOM     36  O   UNL A   1      42.243  18.369  26.110  1.00  0.00    -0.269 OA
BRANCH  34  37
ATOM     37  C   UNL A   1      42.344  20.703  26.358  1.00  0.00     0.039 A 
ATOM     38  C   UNL A   1      42.880  21.348  25.241  1.00  0.00     0.014 A 
ATOM     39  C   UNL A   1      42.477  21.273  27.628  1.00  0.00     0.014 A 
ATOM     40  C   UNL A   1      43.468  22.608  25.383  1.00  0.00     0.010 A 
ATOM     41  C   UNL A   1      43.006  22.557  27.758  1.00  0.00     0.010 A 
ATOM     42  C   UNL A   1      43.488  23.246  26.635  1.00  0.00    -0.014 A 
BRANCH  42  43
ATOM     43  C   UNL A   1      43.943  24.655  26.778  1.00  0.00     0.031 A 
ATOM     44  C   UNL A   1      45.389  25.017  26.577  1.00  0.00     0.074 A 
ATOM     45  C   UNL A   1      43.063  25.590  27.194  1.00  0.00     0.049 A 
ATOM     46  N   UNL A   1      45.983  26.166  26.767  1.00  0.00    -0.248 NA
ATOM     47  C   UNL A   1      46.289  23.944  26.124  1.00  0.00     0.031 C 
ATOM     48  C   UNL A   1      41.645  25.350  27.479  1.00  0.00     0.029 A 
ATOM     49  N   UNL A   1      43.233  26.924  27.477  1.00  0.00    -0.354 N 
ATOM     50  C   UNL A   1      47.326  25.953  26.481  1.00  0.00     0.074 A 
ATOM     51  C   UNL A   1      47.466  24.556  26.131  1.00  0.00     0.031 C 
ATOM     52  C   UNL A   1      41.079  26.493  27.896  1.00  0.00     0.029 A 
ATOM     53  C   UNL A   1      42.095  27.537  27.951  1.00  0.00     0.049 A 
ATOM     54  H   UNL A   1      44.087  27.396  27.351  1.00  0.00     0.167 HD
ATOM     55  C   UNL A   1      48.344  26.845  26.498  1.00  0.00     0.037 A 
ATOM     56  C   UNL A   1      41.897  28.790  28.408  1.00  0.00     0.037 A 
ATOM     57  C   UNL A   1      48.190  28.243  26.812  1.00  0.00     0.049 A 
ATOM     58  C   UNL A   1      43.048  29.759  28.421  1.00  0.00     0.074 A 
ATOM     59  C   UNL A   1      49.141  29.245  26.750  1.00  0.00     0.029 A 
ATOM     60  N   UNL A   1      47.018  28.832  27.264  1.00  0.00    -0.354 N 
ATOM     61  N   UNL A   1      44.289  29.565  28.041  1.00  0.00    -0.248 NA
ATOM     62  C   UNL A   1      42.778  31.112  28.924  1.00  0.00     0.031 C 
ATOM     63  C   UNL A   1      48.562  30.428  27.219  1.00  0.00     0.029 A 
ATOM     64  C   UNL A   1      47.236  30.175  27.526  1.00  0.00     0.049 A 
ATOM     65  H   UNL A   1      46.159  28.365  27.380  1.00  0.00     0.167 HD
ATOM     66  C   UNL A   1      44.943  30.774  28.249  1.00  0.00     0.074 A 
ATOM     67  C   UNL A   1      43.957  31.701  28.766  1.00  0.00     0.031 C 
ATOM     68  C   UNL A   1      46.245  31.087  28.039  1.00  0.00     0.037 A 
BRANCH  55  69
ATOM     69  C   UNL A   1      49.727  26.355  26.169  1.00  0.00     0.058 A 
ATOM     70  C   UNL A   1      50.280  26.508  24.888  1.00  0.00     0.135 A 
ATOM     71  C   UNL A   1      50.542  25.808  27.173  1.00  0.00     0.135 A 
ATOM     72  F   UNL A   1      49.541  27.013  23.888  1.00  0.00    -0.206 F 
ATOM     73  C   UNL A   1      51.589  26.126  24.611  1.00  0.00     0.059 A 
ATOM     74  C   UNL A   1      51.863  25.442  26.926  1.00  0.00     0.059 A 
ATOM     75  F   UNL A   1      50.063  25.639  28.415  1.00  0.00    -0.206 F 
ATOM     76  C   UNL A   1      52.374  25.600  25.639  1.00  0.00     0.060 A 
BRANCH  76  77
ATOM     77  S   UNL A   1      54.084  25.148  25.271  1.00  0.00     0.124 S 
ATOM     78  O   UNL A   1      54.753  25.504  26.518  1.00  0.00    -0.237 OA
ATOM     79  O   UNL A   1      53.976  23.719  24.996  1.00  0.00    -0.237 OA
ATOM     80  O   UNL A   1      54.417  25.982  24.121  1.00  0.00    -0.744 OA
ENDBRANCH  76  77
ENDBRANCH  55  69
BRANCH  56  81
ATOM     81  C   UNL A   1      40.559  29.195  28.921  1.00  0.00     0.058 A 
ATOM     82  C   UNL A   1      39.519  29.538  28.045  1.00  0.00     0.135 A 
ATOM     83  C   UNL A   1      40.299  29.257  30.299  1.00  0.00     0.135 A 
ATOM     84  F   UNL A   1      39.720  29.501  26.719  1.00  0.00    -0.206 F 
ATOM     85  C   UNL A   1      38.277  29.952  28.515  1.00  0.00     0.059 A 
ATOM     86  C   UNL A   1      39.056  29.641  30.793  1.00  0.00     0.059 A 
ATOM     87  F   UNL A   1      41.254  28.923  31.180  1.00  0.00    -0.206 F 
ATOM     88  C   UNL A   1      38.055  30.001  29.893  1.00  0.00     0.060 A 
BRANCH  88  89
ATOM     89  S   UNL A   1      36.432  30.514  30.493  1.00  0.00     0.124 S 
ATOM     90  O   UNL A   1      35.646  30.497  29.265  1.00  0.00    -0.237 OA
ATOM     91  O   UNL A   1      36.120  29.470  31.465  1.00  0.00    -0.237 OA
ATOM     92  O   UNL A   1      36.687  31.834  31.063  1.00  0.00    -0.744 OA
ENDBRANCH  88  89
ENDBRANCH  56  81
BRANCH  68  93
ATOM     93  C   UNL A   1      46.686  32.488  28.358  1.00  0.00     0.058 A 
ATOM     94  C   UNL A   1      47.219  32.819  29.613  1.00  0.00     0.135 A 
ATOM     95  C   UNL A   1      46.651  33.490  27.375  1.00  0.00     0.135 A 
ATOM     96  F   UNL A   1      47.265  31.900  30.591  1.00  0.00    -0.206 F 
ATOM     97  C   UNL A   1      47.695  34.096  29.886  1.00  0.00     0.059 A 
ATOM     98  C   UNL A   1      47.147  34.768  27.617  1.00  0.00     0.059 A 
ATOM     99  F   UNL A   1      46.157  33.224  26.155  1.00  0.00    -0.206 F 
ATOM    100  C   UNL A   1      47.663  35.062  28.878  1.00  0.00     0.060 A 
BRANCH 100 101
ATOM    101  S   UNL A   1      48.343  36.698  29.227  1.00  0.00     0.124 S 
ATOM    102  O   UNL A   1      47.456  37.558  28.453  1.00  0.00    -0.237 OA
ATOM    103  O   UNL A   1      48.208  36.788  30.678  1.00  0.00    -0.237 OA
ATOM    104  O   UNL A   1      49.715  36.608  28.737  1.00  0.00    -0.744 OA
ENDBRANCH 100 101
ENDBRANCH  68  93
ENDBRANCH  42  43
ENDBRANCH  34  37
ENDBRANCH  32  33
ENDBRANCH  31  32
ENDBRANCH   1  31
TORSDOF 18
ENDMDL
MODEL 3
REMARK VINA RESULT:     -11.9      3.071      8.787
REMARK SMILES CCSc1ccc(-c2cc(Cl)cc3c2O[C@H](C(F)(F)F)C(C(=O)NCCCCNC(=O)c2ccc(-c4c5nc(c(-c6c(F)cc(S(=O)(=O)[O-])cc6F)c6ccc([nH]6)c(-c6c(F)cc(S(=O)(=O)[O-])cc6F)c6nc(c(-c7c(F)cc(S(=O)(=O)[O-])cc7F)c7ccc4[nH]7)C=C6)C=C5)cc2)=C3)cc1
REMARK SMILES IDX 26 1 25 2 24 3 22 4 23 5 21 7 8 8 9 9 14 10 10 11 13 12
REMARK SMILES IDX 15 13 11 14 12 15 98 16 16 17 7 18 4 19 5 20 100 21 6 22
REMARK SMILES IDX 99 23 3 24 2 25 1 26 17 27 18 28 19 29 20 30 27 31 28 32
REMARK SMILES IDX 29 33 30 34 31 36 32 37 33 38 97 39 34 40 96 41 35 42 36 43
REMARK SMILES IDX 37 44 90 45 38 46 95 47 89 48 91 49 39 50 94 51 88 52 87 53
REMARK SMILES IDX 40 55 74 56 53 57 73 58 54 59 57 60 72 61 92 62 55 63 56 64
REMARK SMILES IDX 71 66 93 67 58 68 41 69 42 70 51 71 43 72 44 73 50 74 52 75
REMARK SMILES IDX 45 76 46 77 47 78 48 79 49 80 75 81 76 82 85 83 77 84 78 85
REMARK SMILES IDX 84 86 86 87 79 88 80 89 81 90 82 91 83 92 59 93 60 94 69 95
REMARK SMILES IDX 61 96 62 97 68 98 70 99 63 100 64 101 65 102 66 103 67 104
REMARK H PARENT 24 6 29 35 91 54 57 65
REMARK Flexibility Score: inf
ROOT
ATOM      1  C   UNL A   1      37.037  21.386  24.804  1.00  0.00     0.023 C 
ENDROOT
BRANCH   1   2
ATOM      2  C   UNL A   1      36.673  22.299  25.985  1.00  0.00     0.116 C 
BRANCH   2   3
ATOM      3  N   UNL A   1      35.424  21.863  26.574  1.00  0.00    -0.352 N 
ATOM      4  C   UNL A   1      34.153  22.203  26.262  1.00  0.00     0.251 C 
ATOM      5  O   UNL A   1      33.308  22.181  27.151  1.00  0.00    -0.270 OA
ATOM      6  H   UNL A   1      35.515  21.221  27.315  1.00  0.00     0.163 HD
BRANCH   4   7
ATOM      7  C   UNL A   1      33.809  22.500  24.837  1.00  0.00     0.067 C 
ATOM      8  C   UNL A   1      30.630  24.987  25.487  1.00  0.00     0.026 A 
ATOM      9  C   UNL A   1      29.822  24.371  26.477  1.00  0.00     0.033 A 
ATOM     10  C   UNL A   1      31.625  24.177  24.904  1.00  0.00     0.135 A 
ATOM     11  C   UNL A   1      29.864  23.002  26.732  1.00  0.00     0.042 A 
ATOM     12  C   UNL A   1      31.574  22.773  25.092  1.00  0.00     0.019 A 
ATOM     13  O   UNL A   1      32.699  24.688  24.188  1.00  0.00    -0.475 OA
ATOM     14  Cl  UNL A   1      28.856  22.334  27.952  1.00  0.00    -0.084 Cl
ATOM     15  C   UNL A   1      30.687  22.181  25.984  1.00  0.00     0.032 A 
ATOM     16  C   UNL A   1      32.635  21.951  24.465  1.00  0.00     0.025 C 
ATOM     17  C   UNL A   1      33.985  23.967  24.445  1.00  0.00     0.314 C 
BRANCH   8  18
ATOM     18  C   UNL A   1      30.147  26.321  25.030  1.00  0.00    -0.015 A 
ATOM     19  C   UNL A   1      29.837  28.577  23.304  1.00  0.00     0.007 A 
ATOM     20  C   UNL A   1      28.900  27.543  23.292  1.00  0.00     0.015 A 
ATOM     21  C   UNL A   1      30.857  28.535  24.259  1.00  0.00     0.015 A 
ATOM     22  C   UNL A   1      29.044  26.440  24.155  1.00  0.00     0.010 A 
ATOM     23  C   UNL A   1      31.008  27.426  25.112  1.00  0.00     0.010 A 
BRANCH  19  24
ATOM     24  S   UNL A   1      29.708  29.989  22.217  1.00  0.00    -0.126 SA
BRANCH  24  25
ATOM     25  C   UNL A   1      29.028  31.296  23.313  1.00  0.00     0.071 C 
ATOM     26  C   UNL A   1      27.532  31.140  23.543  1.00  0.00     0.016 C 
ENDBRANCH  24  25
ENDBRANCH  19  24
ENDBRANCH   8  18
BRANCH  17  27
ATOM     27  C   UNL A   1      34.926  24.037  23.222  1.00  0.00     0.429 C 
ATOM     28  F   UNL A   1      36.230  24.131  23.570  1.00  0.00    -0.167 F 
ATOM     29  F   UNL A   1      34.792  22.943  22.434  1.00  0.00    -0.167 F 
ATOM     30  F   UNL A   1      34.666  25.107  22.424  1.00  0.00    -0.167 F 
ENDBRANCH  17  27
ENDBRANCH   4   7
ENDBRANCH   2   3
ENDBRANCH   1   2
BRANCH   1  31
ATOM     31  C   UNL A   1      37.930  20.186  25.151  1.00  0.00     0.023 C 
BRANCH  31  32
ATOM     32  C   UNL A   1      39.284  20.540  25.755  1.00  0.00     0.116 C 
BRANCH  32  33
ATOM     33  N   UNL A   1      40.141  19.373  25.894  1.00  0.00    -0.352 N 
ATOM     34  C   UNL A   1      41.495  19.309  26.121  1.00  0.00     0.251 C 
ATOM     35  H   UNL A   1      39.686  18.503  25.814  1.00  0.00     0.163 HD
ATOM     36  O   UNL A   1      42.083  18.235  26.015  1.00  0.00    -0.269 OA
BRANCH  34  37
ATOM     37  C   UNL A   1      42.246  20.536  26.463  1.00  0.00     0.039 A 
ATOM     38  C   UNL A   1      42.882  21.248  25.443  1.00  0.00     0.014 A 
ATOM     39  C   UNL A   1      42.308  20.995  27.782  1.00  0.00     0.014 A 
ATOM     40  C   UNL A   1      43.500  22.468  25.730  1.00  0.00     0.010 A 
ATOM     41  C   UNL A   1      42.869  22.241  28.056  1.00  0.00     0.010 A 
ATOM     42  C   UNL A   1      43.453  23.000  27.029  1.00  0.00    -0.014 A 
BRANCH  42  43
ATOM     43  C   UNL A   1      43.944  24.374  27.321  1.00  0.00     0.031 A 
ATOM     44  C   UNL A   1      42.986  25.460  27.725  1.00  0.00     0.074 A 
ATOM     45  C   UNL A   1      45.247  24.662  27.120  1.00  0.00     0.049 A 
ATOM     46  N   UNL A   1      43.217  26.734  27.911  1.00  0.00    -0.248 NA
ATOM     47  C   UNL A   1      41.580  25.070  27.926  1.00  0.00     0.031 C 
ATOM     48  C   UNL A   1      46.265  23.707  26.672  1.00  0.00     0.029 A 
ATOM     49  N   UNL A   1      45.936  25.845  27.236  1.00  0.00    -0.354 N 
ATOM     50  C   UNL A   1      41.988  27.302  28.226  1.00  0.00     0.074 A 
ATOM     51  C   UNL A   1      41.008  26.239  28.180  1.00  0.00     0.031 C 
ATOM     52  C   UNL A   1      47.442  24.340  26.551  1.00  0.00     0.029 A 
ATOM     53  C   UNL A   1      47.259  25.752  26.868  1.00  0.00     0.049 A 
ATOM     54  H   UNL A   1      45.522  26.680  27.553  1.00  0.00     0.167 HD
ATOM     55  C   UNL A   1      41.710  28.590  28.537  1.00  0.00     0.037 A 
ATOM     56  C   UNL A   1      48.213  26.700  26.767  1.00  0.00     0.037 A 
ATOM     57  C   UNL A   1      42.699  29.635  28.617  1.00  0.00     0.049 A 
ATOM     58  C   UNL A   1      47.873  28.124  27.114  1.00  0.00     0.074 A 
ATOM     59  C   UNL A   1      42.529  30.944  29.030  1.00  0.00     0.029 A 
ATOM     60  N   UNL A   1      44.032  29.497  28.261  1.00  0.00    -0.354 N 
ATOM     61  N   UNL A   1      46.728  28.621  27.516  1.00  0.00    -0.248 NA
ATOM     62  C   UNL A   1      48.949  29.117  26.992  1.00  0.00     0.031 C 
ATOM     63  C   UNL A   1      43.746  31.615  28.869  1.00  0.00     0.029 A 
ATOM     64  C   UNL A   1      44.686  30.710  28.403  1.00  0.00     0.049 A 
ATOM     65  H   UNL A   1      44.452  28.661  27.954  1.00  0.00     0.167 HD
ATOM     66  C   UNL A   1      46.949  29.980  27.706  1.00  0.00     0.074 A 
ATOM     67  C   UNL A   1      48.343  30.225  27.397  1.00  0.00     0.031 C 
ATOM     68  C   UNL A   1      46.075  30.941  28.094  1.00  0.00     0.037 A 
BRANCH  55  69
ATOM     69  C   UNL A   1      40.280  28.962  28.819  1.00  0.00     0.058 A 
ATOM     70  C   UNL A   1      39.802  29.117  30.129  1.00  0.00     0.135 A 
ATOM     71  C   UNL A   1      39.403  29.256  27.762  1.00  0.00     0.135 A 
ATOM     72  F   UNL A   1      40.594  28.837  31.176  1.00  0.00    -0.206 F 
ATOM     73  C   UNL A   1      38.501  29.540  30.382  1.00  0.00     0.059 A 
ATOM     74  C   UNL A   1      38.106  29.706  27.991  1.00  0.00     0.059 A 
ATOM     75  F   UNL A   1      39.810  29.125  26.490  1.00  0.00    -0.206 F 
ATOM     76  C   UNL A   1      37.662  29.838  29.306  1.00  0.00     0.060 A 
BRANCH  76  77
ATOM     77  S   UNL A   1      35.990  30.426  29.655  1.00  0.00     0.124 S 
ATOM     78  O   UNL A   1      35.308  30.120  28.401  1.00  0.00    -0.237 OA
ATOM     79  O   UNL A   1      35.605  29.608  30.800  1.00  0.00    -0.237 OA
ATOM     80  O   UNL A   1      36.179  31.845  29.936  1.00  0.00    -0.744 OA
ENDBRANCH  76  77
ENDBRANCH  55  69
BRANCH  56  81
ATOM     81  C   UNL A   1      49.576  26.340  26.289  1.00  0.00     0.058 A 
ATOM     82  C   UNL A   1      50.508  25.730  27.141  1.00  0.00     0.135 A 
ATOM     83  C   UNL A   1      49.977  26.610  24.971  1.00  0.00     0.135 A 
ATOM     84  F   UNL A   1      50.174  25.458  28.413  1.00  0.00    -0.206 F 
ATOM     85  C   UNL A   1      51.795  25.422  26.714  1.00  0.00     0.059 A 
ATOM     86  C   UNL A   1      51.251  26.286  24.512  1.00  0.00     0.059 A 
ATOM     87  F   UNL A   1      49.120  27.177  24.109  1.00  0.00    -0.206 F 
ATOM     88  C   UNL A   1      52.158  25.706  25.396  1.00  0.00     0.060 A 
BRANCH  88  89
ATOM     89  S   UNL A   1      53.823  25.279  24.843  1.00  0.00     0.124 S 
ATOM     90  O   UNL A   1      53.789  23.823  24.910  1.00  0.00    -0.237 OA
ATOM     91  O   UNL A   1      53.858  25.856  23.502  1.00  0.00    -0.237 OA
ATOM     92  O   UNL A   1      54.681  25.938  25.824  1.00  0.00    -0.744 OA
ENDBRANCH  88  89
ENDBRANCH  56  81
BRANCH  68  93
ATOM     93  C   UNL A   1      46.592  32.347  28.215  1.00  0.00     0.058 A 
ATOM     94  C   UNL A   1      46.443  33.273  27.172  1.00  0.00     0.135 A 
ATOM     95  C   UNL A   1      47.169  32.796  29.414  1.00  0.00     0.135 A 
ATOM     96  F   UNL A   1      45.907  32.891  26.001  1.00  0.00    -0.206 F 
ATOM     97  C   UNL A   1      46.854  34.594  27.309  1.00  0.00     0.059 A 
ATOM     98  C   UNL A   1      47.563  34.120  29.583  1.00  0.00     0.059 A 
ATOM     99  F   UNL A   1      47.328  31.951  30.446  1.00  0.00    -0.206 F 
ATOM    100  C   UNL A   1      47.406  35.010  28.522  1.00  0.00     0.060 A 
BRANCH 100 101
ATOM    101  S   UNL A   1      47.877  36.744  28.707  1.00  0.00     0.124 S 
ATOM    102  O   UNL A   1      47.921  36.884  30.158  1.00  0.00    -0.237 OA
ATOM    103  O   UNL A   1      49.167  36.791  28.026  1.00  0.00    -0.237 OA
ATOM    104  O   UNL A   1      46.796  37.463  28.040  1.00  0.00    -0.744 OA
ENDBRANCH 100 101
ENDBRANCH  68  93
ENDBRANCH  42  43
ENDBRANCH  34  37
ENDBRANCH  32  33
ENDBRANCH  31  32
ENDBRANCH   1  31
TORSDOF 18
ENDMDL
