MODEL 1
REMARK VINA RESULT:     -12.1      0.000      0.000
REMARK SMILES O=C(NCCCCNC(=O)c1csc(-c2cnc3ccccc3c2)c1)c1ccc(-c2c3nc(c(-c4c(F)cc(S(=O)(=O)[O-])cc4F)c4ccc([nH]4)c(-c4c(F)cc(S(=O)(=O)[O-])cc4F)c4nc(c(-c5c(F)cc(S(=O)(=O)[O-])cc5F)c5ccc2[nH]5)C=C4)C=C3)cc1
REMARK SMILES IDX 4 1 3 2 1 3 2 4 26 6 27 7 91 8 28 9 90 10 29 11 30 12 31 13
REMARK SMILES IDX 84 14 32 15 89 16 83 17 85 18 33 19 88 20 82 21 81 22 34 24
REMARK SMILES IDX 68 25 47 26 67 27 48 28 51 29 66 30 86 31 49 32 50 33 65 35
REMARK SMILES IDX 87 36 52 37 35 38 36 39 45 40 37 41 38 42 44 43 46 44 39 45
REMARK SMILES IDX 40 46 41 47 42 48 43 49 69 50 70 51 79 52 71 53 72 54 78 55
REMARK SMILES IDX 80 56 73 57 74 58 75 59 76 60 77 61 53 62 54 63 63 64 55 65
REMARK SMILES IDX 56 66 62 67 64 68 57 69 58 70 59 71 60 72 61 73 5 74 6 75
REMARK SMILES IDX 7 76 8 77 9 78 10 80 11 81 12 82 25 83 13 84 14 85 15 86
REMARK SMILES IDX 16 87 24 88 17 89 23 90 18 91 22 92 19 93 21 94 20 95
REMARK H PARENT 3 5 85 23 51 34 8 79
REMARK Flexibility Score: inf
ROOT
ATOM      1  C   UNL A   1      35.160  29.341  27.660  1.00  0.00     0.116 C 
ENDROOT
BRANCH   1   2
ATOM      2  N   UNL A   1      35.194  30.133  28.877  1.00  0.00    -0.352 N 
ATOM      3  O   UNL A   1      36.065  31.034  30.743  1.00  0.00    -0.269 OA
ATOM      4  C   UNL A   1      36.258  30.424  29.695  1.00  0.00     0.251 C 
ATOM      5  H   UNL A   1      34.331  30.516  29.155  1.00  0.00     0.163 HD
BRANCH   4   6
ATOM      6  C   UNL A   1      37.624  29.977  29.339  1.00  0.00     0.039 A 
ATOM      7  C   UNL A   1      38.534  29.566  30.316  1.00  0.00     0.014 A 
ATOM      8  C   UNL A   1      37.988  29.947  27.989  1.00  0.00     0.014 A 
ATOM      9  C   UNL A   1      39.838  29.232  29.955  1.00  0.00     0.010 A 
ATOM     10  C   UNL A   1      39.282  29.565  27.622  1.00  0.00     0.010 A 
ATOM     11  C   UNL A   1      40.225  29.232  28.605  1.00  0.00    -0.014 A 
BRANCH  11  12
ATOM     12  C   UNL A   1      41.611  28.848  28.240  1.00  0.00     0.031 A 
ATOM     13  C   UNL A   1      42.729  29.852  28.281  1.00  0.00     0.074 A 
ATOM     14  C   UNL A   1      41.864  27.572  27.891  1.00  0.00     0.049 A 
ATOM     15  N   UNL A   1      44.001  29.676  28.034  1.00  0.00    -0.248 NA
ATOM     16  C   UNL A   1      42.371  31.233  28.640  1.00  0.00     0.031 C 
ATOM     17  C   UNL A   1      40.859  26.512  27.788  1.00  0.00     0.029 A 
ATOM     18  N   UNL A   1      43.042  26.948  27.574  1.00  0.00    -0.354 N 
ATOM     19  C   UNL A   1      44.595  30.923  28.185  1.00  0.00     0.074 A 
ATOM     20  C   UNL A   1      43.541  31.852  28.536  1.00  0.00     0.031 C 
ATOM     21  C   UNL A   1      41.469  25.360  27.469  1.00  0.00     0.029 A 
ATOM     22  C   UNL A   1      42.900  25.605  27.318  1.00  0.00     0.049 A 
ATOM     23  H   UNL A   1      43.907  27.415  27.533  1.00  0.00     0.167 HD
ATOM     24  C   UNL A   1      45.900  31.261  28.050  1.00  0.00     0.037 A 
ATOM     25  C   UNL A   1      43.818  24.674  27.002  1.00  0.00     0.037 A 
ATOM     26  C   UNL A   1      46.954  30.335  27.728  1.00  0.00     0.049 A 
ATOM     27  C   UNL A   1      45.262  25.065  26.895  1.00  0.00     0.074 A 
ATOM     28  C   UNL A   1      48.312  30.580  27.609  1.00  0.00     0.029 A 
ATOM     29  N   UNL A   1      46.769  28.984  27.476  1.00  0.00    -0.354 N 
ATOM     30  N   UNL A   1      45.807  26.244  27.070  1.00  0.00    -0.248 NA
ATOM     31  C   UNL A   1      46.214  24.001  26.547  1.00  0.00     0.031 C 
ATOM     32  C   UNL A   1      48.947  29.378  27.268  1.00  0.00     0.029 A 
ATOM     33  C   UNL A   1      47.985  28.383  27.193  1.00  0.00     0.049 A 
ATOM     34  H   UNL A   1      45.901  28.520  27.495  1.00  0.00     0.167 HD
ATOM     35  C   UNL A   1      47.167  26.067  26.848  1.00  0.00     0.074 A 
ATOM     36  C   UNL A   1      47.363  24.663  26.547  1.00  0.00     0.031 C 
ATOM     37  C   UNL A   1      48.161  26.988  26.884  1.00  0.00     0.037 A 
BRANCH  24  38
ATOM     38  C   UNL A   1      46.261  32.705  28.243  1.00  0.00     0.058 A 
ATOM     39  C   UNL A   1      46.619  33.207  29.503  1.00  0.00     0.135 A 
ATOM     40  C   UNL A   1      46.277  33.588  27.153  1.00  0.00     0.135 A 
ATOM     41  F   UNL A   1      46.603  32.404  30.579  1.00  0.00    -0.206 F 
ATOM     42  C   UNL A   1      46.962  34.543  29.680  1.00  0.00     0.059 A 
ATOM     43  C   UNL A   1      46.630  34.925  27.304  1.00  0.00     0.059 A 
ATOM     44  F   UNL A   1      45.939  33.154  25.928  1.00  0.00    -0.206 F 
ATOM     45  C   UNL A   1      46.958  35.397  28.576  1.00  0.00     0.060 A 
BRANCH  45  46
ATOM     46  S   UNL A   1      47.400  37.132  28.810  1.00  0.00     0.124 S 
ATOM     47  O   UNL A   1      47.765  37.522  27.451  1.00  0.00    -0.237 OA
ATOM     48  O   UNL A   1      46.163  37.711  29.322  1.00  0.00    -0.237 OA
ATOM     49  O   UNL A   1      48.502  37.072  29.765  1.00  0.00    -0.744 OA
ENDBRANCH  45  46
ENDBRANCH  24  38
BRANCH  25  50
ATOM     50  C   UNL A   1      43.383  23.273  26.787  1.00  0.00     0.058 A 
ATOM     51  C   UNL A   1      43.368  22.718  25.501  1.00  0.00     0.135 A 
ATOM     52  C   UNL A   1      43.039  22.449  27.868  1.00  0.00     0.135 A 
ATOM     53  F   UNL A   1      43.688  23.473  24.440  1.00  0.00    -0.206 F 
ATOM     54  C   UNL A   1      43.035  21.384  25.292  1.00  0.00     0.059 A 
ATOM     55  C   UNL A   1      42.716  21.109  27.685  1.00  0.00     0.059 A 
ATOM     56  F   UNL A   1      43.055  22.938  29.117  1.00  0.00    -0.206 F 
ATOM     57  C   UNL A   1      42.716  20.586  26.392  1.00  0.00     0.060 A 
BRANCH  57  58
ATOM     58  S   UNL A   1      42.382  18.829  26.136  1.00  0.00     0.124 S 
ATOM     59  O   UNL A   1      42.685  18.279  27.451  1.00  0.00    -0.237 OA
ATOM     60  O   UNL A   1      40.974  18.827  25.751  1.00  0.00    -0.237 OA
ATOM     61  O   UNL A   1      43.312  18.472  25.068  1.00  0.00    -0.744 OA
ENDBRANCH  57  58
ENDBRANCH  25  50
BRANCH  37  62
ATOM     62  C   UNL A   1      49.545  26.502  26.579  1.00  0.00     0.058 A 
ATOM     63  C   UNL A   1      50.390  26.039  27.598  1.00  0.00     0.135 A 
ATOM     64  C   UNL A   1      50.022  26.474  25.260  1.00  0.00     0.135 A 
ATOM     65  F   UNL A   1      49.978  26.053  28.876  1.00  0.00    -0.206 F 
ATOM     66  C   UNL A   1      51.672  25.577  27.322  1.00  0.00     0.059 A 
ATOM     67  C   UNL A   1      51.297  26.006  24.959  1.00  0.00     0.059 A 
ATOM     68  F   UNL A   1      49.246  26.903  24.251  1.00  0.00    -0.206 F 
ATOM     69  C   UNL A   1      52.120  25.571  26.000  1.00  0.00     0.060 A 
BRANCH  69  70
ATOM     70  S   UNL A   1      53.778  24.953  25.638  1.00  0.00     0.124 S 
ATOM     71  O   UNL A   1      54.143  25.762  24.480  1.00  0.00    -0.237 OA
ATOM     72  O   UNL A   1      54.505  25.247  26.869  1.00  0.00    -0.237 OA
ATOM     73  O   UNL A   1      53.555  23.535  25.374  1.00  0.00    -0.744 OA
ENDBRANCH  69  70
ENDBRANCH  37  62
ENDBRANCH  11  12
ENDBRANCH   4   6
ENDBRANCH   1   2
BRANCH   1  74
ATOM     74  C   UNL A   1      33.815  29.397  26.941  1.00  0.00     0.023 C 
BRANCH  74  75
ATOM     75  C   UNL A   1      32.922  28.160  27.090  1.00  0.00     0.023 C 
BRANCH  75  76
ATOM     76  C   UNL A   1      31.695  28.122  26.179  1.00  0.00     0.116 C 
BRANCH  76  77
ATOM     77  N   UNL A   1      30.719  27.141  26.621  1.00  0.00    -0.352 N 
ATOM     78  C   UNL A   1      30.509  25.857  26.192  1.00  0.00     0.252 C 
ATOM     79  H   UNL A   1      30.117  27.445  27.338  1.00  0.00     0.163 HD
ATOM     80  O   UNL A   1      29.464  25.288  26.502  1.00  0.00    -0.269 OA
BRANCH  78  81
ATOM     81  C   UNL A   1      31.510  25.200  25.366  1.00  0.00     0.051 A 
ATOM     82  C   UNL A   1      31.486  25.152  23.985  1.00  0.00     0.079 A 
ATOM     83  C   UNL A   1      32.720  24.611  25.866  1.00  0.00     0.034 A 
ATOM     84  S   UNL A   1      32.839  24.342  23.326  1.00  0.00    -0.143 S 
ATOM     85  C   UNL A   1      33.532  24.098  24.873  1.00  0.00     0.037 A 
BRANCH  85  86
ATOM     86  C   UNL A   1      34.816  23.413  25.012  1.00  0.00     0.011 A 
ATOM     87  C   UNL A   1      35.004  22.132  24.506  1.00  0.00     0.121 A 
ATOM     88  C   UNL A   1      35.897  23.989  25.682  1.00  0.00     0.021 A 
ATOM     89  N   UNL A   1      36.153  21.421  24.615  1.00  0.00    -0.256 NA
ATOM     90  C   UNL A   1      37.101  23.283  25.822  1.00  0.00     0.001 A 
ATOM     91  C   UNL A   1      37.182  21.989  25.266  1.00  0.00     0.070 A 
ATOM     92  C   UNL A   1      38.203  23.831  26.501  1.00  0.00     0.010 A 
ATOM     93  C   UNL A   1      38.370  21.286  25.409  1.00  0.00     0.029 A 
ATOM     94  C   UNL A   1      39.383  23.104  26.632  1.00  0.00     0.001 A 
ATOM     95  C   UNL A   1      39.468  21.828  26.085  1.00  0.00     0.002 A 
ENDBRANCH  85  86
ENDBRANCH  78  81
ENDBRANCH  76  77
ENDBRANCH  75  76
ENDBRANCH  74  75
ENDBRANCH   1  74
TORSDOF 15
ENDMDL
MODEL 2
REMARK VINA RESULT:     -12.0      6.597     12.193
REMARK SMILES O=C(NCCCCNC(=O)c1csc(-c2cnc3ccccc3c2)c1)c1ccc(-c2c3nc(c(-c4c(F)cc(S(=O)(=O)[O-])cc4F)c4ccc([nH]4)c(-c4c(F)cc(S(=O)(=O)[O-])cc4F)c4nc(c(-c5c(F)cc(S(=O)(=O)[O-])cc5F)c5ccc2[nH]5)C=C4)C=C3)cc1
REMARK SMILES IDX 4 1 3 2 1 3 2 4 26 6 27 7 91 8 28 9 90 10 29 11 30 12 31 13
REMARK SMILES IDX 84 14 32 15 89 16 83 17 85 18 33 19 88 20 82 21 81 22 34 24
REMARK SMILES IDX 68 25 47 26 67 27 48 28 51 29 66 30 86 31 49 32 50 33 65 35
REMARK SMILES IDX 87 36 52 37 35 38 36 39 45 40 37 41 38 42 44 43 46 44 39 45
REMARK SMILES IDX 40 46 41 47 42 48 43 49 69 50 70 51 79 52 71 53 72 54 78 55
REMARK SMILES IDX 80 56 73 57 74 58 75 59 76 60 77 61 53 62 54 63 63 64 55 65
REMARK SMILES IDX 56 66 62 67 64 68 57 69 58 70 59 71 60 72 61 73 5 74 6 75
REMARK SMILES IDX 7 76 8 77 9 78 10 80 11 81 12 82 25 83 13 84 14 85 15 86
REMARK SMILES IDX 16 87 24 88 17 89 23 90 18 91 22 92 19 93 21 94 20 95
REMARK H PARENT 3 5 85 23 51 34 8 79
REMARK Flexibility Score: inf
ROOT
ATOM      1  C   UNL A   1      39.079  23.604  26.875  1.00  0.00     0.116 C 
ENDROOT
BRANCH   1   2
ATOM      2  N   UNL A   1      40.264  23.954  26.112  1.00  0.00    -0.352 N 
ATOM      3  O   UNL A   1      42.043  25.180  25.488  1.00  0.00    -0.269 OA
ATOM      4  C   UNL A   1      41.148  24.988  26.307  1.00  0.00     0.251 C 
ATOM      5  H   UNL A   1      40.462  23.368  25.347  1.00  0.00     0.163 HD
BRANCH   4   6
ATOM      6  C   UNL A   1      41.007  25.888  27.474  1.00  0.00     0.039 A 
ATOM      7  C   UNL A   1      39.981  25.716  28.407  1.00  0.00     0.014 A 
ATOM      8  C   UNL A   1      41.942  26.914  27.645  1.00  0.00     0.014 A 
ATOM      9  C   UNL A   1      39.827  26.631  29.447  1.00  0.00     0.010 A 
ATOM     10  C   UNL A   1      41.815  27.804  28.717  1.00  0.00     0.010 A 
ATOM     11  C   UNL A   1      40.740  27.685  29.609  1.00  0.00    -0.014 A 
BRANCH  11  12
ATOM     12  C   UNL A   1      40.571  28.634  30.738  1.00  0.00     0.031 A 
ATOM     13  C   UNL A   1      41.476  28.579  31.936  1.00  0.00     0.074 A 
ATOM     14  C   UNL A   1      39.605  29.569  30.664  1.00  0.00     0.049 A 
ATOM     15  N   UNL A   1      41.494  29.356  32.989  1.00  0.00    -0.248 NA
ATOM     16  C   UNL A   1      42.487  27.510  31.960  1.00  0.00     0.031 C 
ATOM     17  C   UNL A   1      38.648  29.707  29.565  1.00  0.00     0.029 A 
ATOM     18  N   UNL A   1      39.279  30.588  31.522  1.00  0.00    -0.354 N 
ATOM     19  C   UNL A   1      42.499  28.861  33.811  1.00  0.00     0.074 A 
ATOM     20  C   UNL A   1      43.063  27.709  33.139  1.00  0.00     0.031 C 
ATOM     21  C   UNL A   1      37.866  30.773  29.797  1.00  0.00     0.029 A 
ATOM     22  C   UNL A   1      38.247  31.375  31.071  1.00  0.00     0.049 A 
ATOM     23  H   UNL A   1      39.739  30.741  32.379  1.00  0.00     0.167 HD
ATOM     24  C   UNL A   1      42.917  29.329  35.011  1.00  0.00     0.037 A 
ATOM     25  C   UNL A   1      37.675  32.464  31.618  1.00  0.00     0.037 A 
ATOM     26  C   UNL A   1      42.377  30.490  35.668  1.00  0.00     0.049 A 
ATOM     27  C   UNL A   1      38.180  32.984  32.930  1.00  0.00     0.074 A 
ATOM     28  C   UNL A   1      42.765  31.061  36.868  1.00  0.00     0.029 A 
ATOM     29  N   UNL A   1      41.333  31.260  35.179  1.00  0.00    -0.354 N 
ATOM     30  N   UNL A   1      39.151  32.519  33.677  1.00  0.00    -0.248 NA
ATOM     31  C   UNL A   1      37.513  34.176  33.473  1.00  0.00     0.031 C 
ATOM     32  C   UNL A   1      41.943  32.170  37.113  1.00  0.00     0.029 A 
ATOM     33  C   UNL A   1      41.056  32.296  36.057  1.00  0.00     0.049 A 
ATOM     34  H   UNL A   1      40.858  31.095  34.333  1.00  0.00     0.167 HD
ATOM     35  C   UNL A   1      39.209  33.357  34.784  1.00  0.00     0.074 A 
ATOM     36  C   UNL A   1      38.190  34.370  34.597  1.00  0.00     0.031 C 
ATOM     37  C   UNL A   1      40.030  33.288  35.861  1.00  0.00     0.037 A 
BRANCH  24  38
ATOM     38  C   UNL A   1      44.015  28.572  35.701  1.00  0.00     0.058 A 
ATOM     39  C   UNL A   1      43.735  27.530  36.596  1.00  0.00     0.135 A 
ATOM     40  C   UNL A   1      45.361  28.875  35.441  1.00  0.00     0.135 A 
ATOM     41  F   UNL A   1      42.463  27.214  36.888  1.00  0.00    -0.206 F 
ATOM     42  C   UNL A   1      44.753  26.823  37.227  1.00  0.00     0.059 A 
ATOM     43  C   UNL A   1      46.396  28.173  36.052  1.00  0.00     0.059 A 
ATOM     44  F   UNL A   1      45.679  29.868  34.595  1.00  0.00    -0.206 F 
ATOM     45  C   UNL A   1      46.081  27.156  36.954  1.00  0.00     0.060 A 
BRANCH  45  46
ATOM     46  S   UNL A   1      47.400  26.239  37.779  1.00  0.00     0.124 S 
ATOM     47  O   UNL A   1      48.507  26.424  36.845  1.00  0.00    -0.237 OA
ATOM     48  O   UNL A   1      47.526  26.939  39.053  1.00  0.00    -0.237 OA
ATOM     49  O   UNL A   1      46.866  24.884  37.863  1.00  0.00    -0.744 OA
ENDBRANCH  45  46
ENDBRANCH  24  38
BRANCH  25  50
ATOM     50  C   UNL A   1      36.568  33.137  30.898  1.00  0.00     0.058 A 
ATOM     51  C   UNL A   1      35.245  33.012  31.341  1.00  0.00     0.135 A 
ATOM     52  C   UNL A   1      36.822  33.969  29.798  1.00  0.00     0.135 A 
ATOM     53  F   UNL A   1      34.960  32.224  32.389  1.00  0.00    -0.206 F 
ATOM     54  C   UNL A   1      34.206  33.698  30.722  1.00  0.00     0.059 A 
ATOM     55  C   UNL A   1      35.801  34.676  29.172  1.00  0.00     0.059 A 
ATOM     56  F   UNL A   1      38.077  34.128  29.351  1.00  0.00    -0.206 F 
ATOM     57  C   UNL A   1      34.495  34.532  29.641  1.00  0.00     0.060 A 
BRANCH  57  58
ATOM     58  S   UNL A   1      33.164  35.503  28.900  1.00  0.00     0.124 S 
ATOM     59  O   UNL A   1      32.464  35.990  30.082  1.00  0.00    -0.237 OA
ATOM     60  O   UNL A   1      33.895  36.506  28.131  1.00  0.00    -0.237 OA
ATOM     61  O   UNL A   1      32.447  34.515  28.098  1.00  0.00    -0.744 OA
ENDBRANCH  57  58
ENDBRANCH  25  50
BRANCH  37  62
ATOM     62  C   UNL A   1      39.846  34.331  36.921  1.00  0.00     0.058 A 
ATOM     63  C   UNL A   1      40.478  35.579  36.824  1.00  0.00     0.135 A 
ATOM     64  C   UNL A   1      39.015  34.094  38.024  1.00  0.00     0.135 A 
ATOM     65  F   UNL A   1      41.288  35.848  35.787  1.00  0.00    -0.206 F 
ATOM     66  C   UNL A   1      40.306  36.556  37.798  1.00  0.00     0.059 A 
ATOM     67  C   UNL A   1      38.818  35.061  39.006  1.00  0.00     0.059 A 
ATOM     68  F   UNL A   1      38.385  32.915  38.157  1.00  0.00    -0.206 F 
ATOM     69  C   UNL A   1      39.478  36.286  38.889  1.00  0.00     0.060 A 
BRANCH  69  70
ATOM     70  S   UNL A   1      39.237  37.561  40.145  1.00  0.00     0.124 S 
ATOM     71  O   UNL A   1      38.846  36.761  41.301  1.00  0.00    -0.237 OA
ATOM     72  O   UNL A   1      40.553  38.185  40.224  1.00  0.00    -0.237 OA
ATOM     73  O   UNL A   1      38.188  38.399  39.572  1.00  0.00    -0.744 OA
ENDBRANCH  69  70
ENDBRANCH  37  62
ENDBRANCH  11  12
ENDBRANCH   4   6
ENDBRANCH   1   2
BRANCH   1  74
ATOM     74  C   UNL A   1      37.798  23.632  26.046  1.00  0.00     0.023 C 
BRANCH  74  75
ATOM     75  C   UNL A   1      37.390  22.306  25.395  1.00  0.00     0.023 C 
BRANCH  75  76
ATOM     76  C   UNL A   1      36.312  22.408  24.315  1.00  0.00     0.116 C 
BRANCH  76  77
ATOM     77  N   UNL A   1      35.155  21.585  24.621  1.00  0.00    -0.352 N 
ATOM     78  C   UNL A   1      33.858  21.951  24.865  1.00  0.00     0.252 C 
ATOM     79  H   UNL A   1      35.330  20.617  24.657  1.00  0.00     0.163 HD
ATOM     80  O   UNL A   1      33.092  21.130  25.368  1.00  0.00    -0.269 OA
BRANCH  78  81
ATOM     81  C   UNL A   1      33.416  23.300  24.547  1.00  0.00     0.051 A 
ATOM     82  C   UNL A   1      32.727  23.655  23.402  1.00  0.00     0.079 A 
ATOM     83  C   UNL A   1      33.533  24.425  25.430  1.00  0.00     0.034 A 
ATOM     84  S   UNL A   1      32.318  25.313  23.362  1.00  0.00    -0.143 S 
ATOM     85  C   UNL A   1      32.989  25.585  24.915  1.00  0.00     0.037 A 
BRANCH  85  86
ATOM     86  C   UNL A   1      32.947  26.916  25.519  1.00  0.00     0.011 A 
ATOM     87  C   UNL A   1      31.802  27.700  25.449  1.00  0.00     0.121 A 
ATOM     88  C   UNL A   1      34.054  27.476  26.159  1.00  0.00     0.021 A 
ATOM     89  N   UNL A   1      31.691  28.951  25.960  1.00  0.00    -0.256 NA
ATOM     90  C   UNL A   1      33.982  28.770  26.696  1.00  0.00     0.001 A 
ATOM     91  C   UNL A   1      32.767  29.476  26.570  1.00  0.00     0.070 A 
ATOM     92  C   UNL A   1      35.083  29.366  27.336  1.00  0.00     0.010 A 
ATOM     93  C   UNL A   1      32.696  30.759  27.094  1.00  0.00     0.029 A 
ATOM     94  C   UNL A   1      34.985  30.656  27.851  1.00  0.00     0.001 A 
ATOM     95  C   UNL A   1      33.789  31.355  27.730  1.00  0.00     0.002 A 
ENDBRANCH  85  86
ENDBRANCH  78  81
ENDBRANCH  76  77
ENDBRANCH  75  76
ENDBRANCH  74  75
ENDBRANCH   1  74
TORSDOF 15
ENDMDL
MODEL 3
REMARK VINA RESULT:     -12.0      6.558     12.186
REMARK SMILES O=C(NCCCCNC(=O)c1csc(-c2cnc3ccccc3c2)c1)c1ccc(-c2c3nc(c(-c4c(F)cc(S(=O)(=O)[O-])cc4F)c4ccc([nH]4)c(-c4c(F)cc(S(=O)(=O)[O-])cc4F)c4nc(c(-c5c(F)cc(S(=O)(=O)[O-])cc5F)c5ccc2[nH]5)C=C4)C=C3)cc1
REMARK SMILES IDX 4 1 3 2 1 3 2 4 26 6 27 7 91 8 28 9 90 10 29 11 30 12 31 13
REMARK SMILES IDX 84 14 32 15 89 16 83 17 85 18 33 19 88 20 82 21 81 22 34 24
REMARK SMILES IDX 68 25 47 26 67 27 48 28 51 29 66 30 86 31 49 32 50 33 65 35
REMARK SMILES IDX 87 36 52 37 35 38 36 39 45 40 37 41 38 42 44 43 46 44 39 45
REMARK SMILES IDX 40 46 41 47 42 48 43 49 69 50 70 51 79 52 71 53 72 54 78 55
REMARK SMILES IDX 80 56 73 57 74 58 75 59 76 60 77 61 53 62 54 63 63 64 55 65
REMARK SMILES IDX 56 66 62 67 64 68 57 69 58 70 59 71 60 72 61 73 5 74 6 75
REMARK SMILES IDX 7 76 8 77 9 78 10 80 11 81 12 82 25 83 13 84 14 85 15 86
REMARK SMILES IDX 16 87 24 88 17 89 23 90 18 91 22 92 19 93 21 94 20 95
REMARK H PARENT 3 5 85 23 51 34 8 79
REMARK Flexibility Score: inf
ROOT
ATOM      1  C   UNL A   1      39.378  23.348  26.987  1.00  0.00     0.116 C 
ENDROOT
BRANCH   1   2
ATOM      2  N   UNL A   1      40.478  23.771  26.140  1.00  0.00    -0.352 N 
ATOM      3  O   UNL A   1      42.068  25.141  25.331  1.00  0.00    -0.269 OA
ATOM      4  C   UNL A   1      41.238  24.914  26.207  1.00  0.00     0.251 C 
ATOM      5  H   UNL A   1      40.714  23.150  25.414  1.00  0.00     0.163 HD
BRANCH   4   6
ATOM      6  C   UNL A   1      41.037  25.886  27.307  1.00  0.00     0.039 A 
ATOM      7  C   UNL A   1      41.856  27.009  27.445  1.00  0.00     0.014 A 
ATOM      8  C   UNL A   1      39.985  25.673  28.204  1.00  0.00     0.014 A 
ATOM      9  C   UNL A   1      41.692  27.858  28.538  1.00  0.00     0.010 A 
ATOM     10  C   UNL A   1      39.791  26.552  29.274  1.00  0.00     0.010 A 
ATOM     11  C   UNL A   1      40.661  27.635  29.465  1.00  0.00    -0.014 A 
BRANCH  11  12
ATOM     12  C   UNL A   1      40.489  28.565  30.608  1.00  0.00     0.031 A 
ATOM     13  C   UNL A   1      41.384  28.486  31.812  1.00  0.00     0.074 A 
ATOM     14  C   UNL A   1      39.528  29.507  30.543  1.00  0.00     0.049 A 
ATOM     15  N   UNL A   1      41.399  29.245  32.878  1.00  0.00    -0.248 NA
ATOM     16  C   UNL A   1      42.390  27.412  31.826  1.00  0.00     0.031 C 
ATOM     17  C   UNL A   1      38.580  29.668  29.440  1.00  0.00     0.029 A 
ATOM     18  N   UNL A   1      39.201  30.512  31.416  1.00  0.00    -0.354 N 
ATOM     19  C   UNL A   1      42.395  28.731  33.699  1.00  0.00     0.074 A 
ATOM     20  C   UNL A   1      42.958  27.588  33.012  1.00  0.00     0.031 C 
ATOM     21  C   UNL A   1      37.801  30.734  29.683  1.00  0.00     0.029 A 
ATOM     22  C   UNL A   1      38.176  31.313  30.970  1.00  0.00     0.049 A 
ATOM     23  H   UNL A   1      39.655  30.649  32.278  1.00  0.00     0.167 HD
ATOM     24  C   UNL A   1      42.807  29.177  34.910  1.00  0.00     0.037 A 
ATOM     25  C   UNL A   1      37.605  32.395  31.531  1.00  0.00     0.037 A 
ATOM     26  C   UNL A   1      42.268  30.330  35.582  1.00  0.00     0.049 A 
ATOM     27  C   UNL A   1      38.104  32.891  32.855  1.00  0.00     0.074 A 
ATOM     28  C   UNL A   1      42.649  30.879  36.794  1.00  0.00     0.029 A 
ATOM     29  N   UNL A   1      41.231  31.114  35.098  1.00  0.00    -0.354 N 
ATOM     30  N   UNL A   1      39.067  32.409  33.602  1.00  0.00    -0.248 NA
ATOM     31  C   UNL A   1      37.438  34.076  33.413  1.00  0.00     0.031 C 
ATOM     32  C   UNL A   1      41.831  31.988  37.052  1.00  0.00     0.029 A 
ATOM     33  C   UNL A   1      40.953  32.136  35.991  1.00  0.00     0.049 A 
ATOM     34  H   UNL A   1      40.761  30.965  34.246  1.00  0.00     0.167 HD
ATOM     35  C   UNL A   1      39.121  33.227  34.723  1.00  0.00     0.074 A 
ATOM     36  C   UNL A   1      38.108  34.248  34.546  1.00  0.00     0.031 C 
ATOM     37  C   UNL A   1      39.933  33.136  35.804  1.00  0.00     0.037 A 
BRANCH  24  38
ATOM     38  C   UNL A   1      43.896  28.404  35.595  1.00  0.00     0.058 A 
ATOM     39  C   UNL A   1      43.604  27.367  36.492  1.00  0.00     0.135 A 
ATOM     40  C   UNL A   1      45.245  28.684  35.328  1.00  0.00     0.135 A 
ATOM     41  F   UNL A   1      42.328  27.072  36.791  1.00  0.00    -0.206 F 
ATOM     42  C   UNL A   1      44.613  26.644  37.119  1.00  0.00     0.059 A 
ATOM     43  C   UNL A   1      46.271  27.966  35.934  1.00  0.00     0.059 A 
ATOM     44  F   UNL A   1      45.575  29.671  34.479  1.00  0.00    -0.206 F 
ATOM     45  C   UNL A   1      45.945  26.956  36.839  1.00  0.00     0.060 A 
BRANCH  45  46
ATOM     46  S   UNL A   1      47.253  26.018  37.658  1.00  0.00     0.124 S 
ATOM     47  O   UNL A   1      48.391  26.288  36.784  1.00  0.00    -0.237 OA
ATOM     48  O   UNL A   1      47.311  26.637  38.978  1.00  0.00    -0.237 OA
ATOM     49  O   UNL A   1      46.751  24.648  37.634  1.00  0.00    -0.744 OA
ENDBRANCH  45  46
ENDBRANCH  24  38
BRANCH  25  50
ATOM     50  C   UNL A   1      36.507  33.086  30.814  1.00  0.00     0.058 A 
ATOM     51  C   UNL A   1      35.187  32.998  31.273  1.00  0.00     0.135 A 
ATOM     52  C   UNL A   1      36.769  33.897  29.701  1.00  0.00     0.135 A 
ATOM     53  F   UNL A   1      34.894  32.230  32.333  1.00  0.00    -0.206 F 
ATOM     54  C   UNL A   1      34.157  33.701  30.656  1.00  0.00     0.059 A 
ATOM     55  C   UNL A   1      35.759  34.621  29.078  1.00  0.00     0.059 A 
ATOM     56  F   UNL A   1      38.022  34.021  29.240  1.00  0.00    -0.206 F 
ATOM     57  C   UNL A   1      34.455  34.515  29.562  1.00  0.00     0.060 A 
BRANCH  57  58
ATOM     58  S   UNL A   1      33.140  35.508  28.822  1.00  0.00     0.124 S 
ATOM     59  O   UNL A   1      33.906  36.510  28.091  1.00  0.00    -0.237 OA
ATOM     60  O   UNL A   1      32.424  34.530  28.008  1.00  0.00    -0.237 OA
ATOM     61  O   UNL A   1      32.405  35.996  29.986  1.00  0.00    -0.744 OA
ENDBRANCH  57  58
ENDBRANCH  25  50
BRANCH  37  62
ATOM     62  C   UNL A   1      39.747  34.162  36.880  1.00  0.00     0.058 A 
ATOM     63  C   UNL A   1      39.010  33.871  38.037  1.00  0.00     0.135 A 
ATOM     64  C   UNL A   1      40.329  35.433  36.768  1.00  0.00     0.135 A 
ATOM     65  F   UNL A   1      38.430  32.670  38.184  1.00  0.00    -0.206 F 
ATOM     66  C   UNL A   1      38.840  34.815  39.044  1.00  0.00     0.059 A 
ATOM     67  C   UNL A   1      40.182  36.389  37.768  1.00  0.00     0.059 A 
ATOM     68  F   UNL A   1      41.047  35.755  35.680  1.00  0.00    -0.206 F 
ATOM     69  C   UNL A   1      39.425  36.074  38.898  1.00  0.00     0.060 A 
BRANCH  69  70
ATOM     70  S   UNL A   1      39.222  37.293  40.215  1.00  0.00     0.124 S 
ATOM     71  O   UNL A   1      38.501  36.519  41.219  1.00  0.00    -0.237 OA
ATOM     72  O   UNL A   1      40.600  37.636  40.550  1.00  0.00    -0.237 OA
ATOM     73  O   UNL A   1      38.459  38.357  39.569  1.00  0.00    -0.744 OA
ENDBRANCH  69  70
ENDBRANCH  37  62
ENDBRANCH  11  12
ENDBRANCH   4   6
ENDBRANCH   1   2
BRANCH   1  74
ATOM     74  C   UNL A   1      38.234  22.700  26.211  1.00  0.00     0.023 C 
BRANCH  74  75
ATOM     75  C   UNL A   1      37.559  23.578  25.152  1.00  0.00     0.023 C 
BRANCH  75  76
ATOM     76  C   UNL A   1      36.717  22.830  24.117  1.00  0.00     0.116 C 
BRANCH  76  77
ATOM     77  N   UNL A   1      35.848  21.842  24.733  1.00  0.00    -0.352 N 
ATOM     78  C   UNL A   1      34.593  21.986  25.263  1.00  0.00     0.252 C 
ATOM     79  H   UNL A   1      36.217  20.931  24.774  1.00  0.00     0.163 HD
ATOM     80  O   UNL A   1      34.141  21.091  25.976  1.00  0.00    -0.269 OA
BRANCH  78  81
ATOM     81  C   UNL A   1      33.830  23.195  24.993  1.00  0.00     0.051 A 
ATOM     82  C   UNL A   1      32.784  23.283  24.094  1.00  0.00     0.079 A 
ATOM     83  C   UNL A   1      33.983  24.431  25.707  1.00  0.00     0.034 A 
ATOM     84  S   UNL A   1      32.074  24.836  24.054  1.00  0.00    -0.143 S 
ATOM     85  C   UNL A   1      33.102  25.412  25.297  1.00  0.00     0.037 A 
BRANCH  85  86
ATOM     86  C   UNL A   1      32.985  26.788  25.779  1.00  0.00     0.011 A 
ATOM     87  C   UNL A   1      31.795  27.494  25.652  1.00  0.00     0.121 A 
ATOM     88  C   UNL A   1      34.061  27.468  26.352  1.00  0.00     0.021 A 
ATOM     89  N   UNL A   1      31.613  28.777  26.050  1.00  0.00    -0.256 NA
ATOM     90  C   UNL A   1      33.916  28.799  26.771  1.00  0.00     0.001 A 
ATOM     91  C   UNL A   1      32.660  29.418  26.597  1.00  0.00     0.070 A 
ATOM     92  C   UNL A   1      34.984  29.514  27.341  1.00  0.00     0.010 A 
ATOM     93  C   UNL A   1      32.516  30.737  27.004  1.00  0.00     0.029 A 
ATOM     94  C   UNL A   1      34.812  30.837  27.739  1.00  0.00     0.001 A 
ATOM     95  C   UNL A   1      33.576  31.451  27.571  1.00  0.00     0.002 A 
ENDBRANCH  85  86
ENDBRANCH  78  81
ENDBRANCH  76  77
ENDBRANCH  75  76
ENDBRANCH  74  75
ENDBRANCH   1  74
TORSDOF 15
ENDMDL
