MODEL 1
REMARK VINA RESULT:     -10.6      0.000      0.000
REMARK SMILES C[NH2+]C[C@H]1CCCC[N@H+]1[C@H](C)[C@@H](C)C(=O)NCCCCNC(=O)c1ccc(-c2c3nc(c(-c4c(F)cc(S(=O)(=O)[O-])cc4F)c4ccc([nH]4)c(-c4c(F)cc(S(=O)(=O)[O-])cc4F)c4nc(c(-c5c(F)cc(S(=O)(=O)[O-])cc5F)c5ccc2[nH]5)C=C4)C=C3)cc1
REMARK SMILES IDX 18 1 17 2 16 3 14 4 15 5 12 7 13 8 10 9 11 10 9 11 4 12 5 13
REMARK SMILES IDX 6 14 8 15 7 17 3 18 2 19 1 20 19 23 20 24 21 25 22 26 23 28
REMARK SMILES IDX 24 29 25 30 89 31 26 32 88 33 27 34 28 35 29 36 82 37 30 38
REMARK SMILES IDX 87 39 81 40 83 41 31 42 86 43 80 44 79 45 32 47 66 48 45 49
REMARK SMILES IDX 65 50 46 51 49 52 64 53 84 54 47 55 48 56 63 58 85 59 50 60
REMARK SMILES IDX 33 61 34 62 43 63 35 64 36 65 42 66 44 67 37 68 38 69 39 70
REMARK SMILES IDX 40 71 41 72 67 73 68 74 77 75 69 76 70 77 76 78 78 79 71 80
REMARK SMILES IDX 72 81 73 82 74 83 75 84 51 85 52 86 61 87 53 88 54 89 60 90
REMARK SMILES IDX 62 91 55 92 56 93 57 94 58 95 59 96
REMARK H PARENT 16 6 9 16 2 21 2 22 21 27 83 46 49 57
REMARK Flexibility Score: inf
ROOT
ATOM      1  C   UNL A   1      40.557  21.055  26.592  1.00  0.00     0.023 C 
ENDROOT
BRANCH   1   2
ATOM      2  C   UNL A   1      39.215  21.049  25.854  1.00  0.00     0.116 C 
BRANCH   2   3
ATOM      3  N   UNL A   1      38.395  22.208  26.152  1.00  0.00    -0.356 N 
ATOM      4  C   UNL A   1      37.267  22.697  25.570  1.00  0.00     0.228 C 
ATOM      5  O   UNL A   1      36.753  23.691  26.094  1.00  0.00    -0.275 OA
ATOM      6  H   UNL A   1      38.713  22.740  26.918  1.00  0.00     0.163 HD
BRANCH   4   7
ATOM      7  C   UNL A   1      36.603  22.054  24.345  1.00  0.00     0.133 C 
ATOM      8  C   UNL A   1      36.696  23.066  23.195  1.00  0.00     0.024 C 
BRANCH   7   9
ATOM      9  C   UNL A   1      35.192  21.436  24.624  1.00  0.00     0.193 C 
ATOM     10  C   UNL A   1      35.252  19.933  24.959  1.00  0.00     0.076 C 
BRANCH   9  11
ATOM     11  N   UNL A   1      34.264  22.212  25.494  1.00  0.00    -0.325 N 
ATOM     12  C   UNL A   1      33.237  23.065  24.863  1.00  0.00     0.239 C 
ATOM     13  C   UNL A   1      32.666  24.028  25.931  1.00  0.00     0.071 C 
ATOM     14  C   UNL A   1      32.071  23.288  27.118  1.00  0.00     0.012 C 
ATOM     15  C   UNL A   1      33.796  21.498  26.691  1.00  0.00     0.262 C 
ATOM     16  H   UNL A   1      34.916  22.925  25.822  1.00  0.00     0.348 HD
ATOM     17  C   UNL A   1      33.136  22.400  27.733  1.00  0.00     0.062 C 
BRANCH  12  18
ATOM     18  C   UNL A   1      32.125  22.286  24.091  1.00  0.00     0.326 C 
BRANCH  18  19
ATOM     19  N   UNL A   1      32.166  22.349  22.620  1.00  0.00    -0.344 N 
ATOM     20  C   UNL A   1      33.104  23.339  22.110  1.00  0.00     0.331 C 
ATOM     21  H   UNL A   1      32.440  21.432  22.266  1.00  0.00     0.346 HD
ATOM     22  H   UNL A   1      31.237  22.624  22.303  1.00  0.00     0.346 HD
ENDBRANCH  18  19
ENDBRANCH  12  18
ENDBRANCH   9  11
ENDBRANCH   7   9
ENDBRANCH   4   7
ENDBRANCH   2   3
ENDBRANCH   1   2
BRANCH   1  23
ATOM     23  C   UNL A   1      40.712  22.114  27.682  1.00  0.00     0.023 C 
BRANCH  23  24
ATOM     24  C   UNL A   1      41.821  23.131  27.456  1.00  0.00     0.116 C 
BRANCH  24  25
ATOM     25  N   UNL A   1      41.621  23.954  26.273  1.00  0.00    -0.352 N 
ATOM     26  C   UNL A   1      41.353  25.299  26.195  1.00  0.00     0.251 C 
ATOM     27  H   UNL A   1      41.686  23.482  25.411  1.00  0.00     0.163 HD
ATOM     28  O   UNL A   1      41.127  25.818  25.105  1.00  0.00    -0.269 OA
BRANCH  26  29
ATOM     29  C   UNL A   1      41.295  26.104  27.433  1.00  0.00     0.039 A 
ATOM     30  C   UNL A   1      42.299  27.047  27.670  1.00  0.00     0.014 A 
ATOM     31  C   UNL A   1      40.237  25.959  28.334  1.00  0.00     0.014 A 
ATOM     32  C   UNL A   1      42.199  27.899  28.772  1.00  0.00     0.010 A 
ATOM     33  C   UNL A   1      40.100  26.857  29.387  1.00  0.00     0.010 A 
ATOM     34  C   UNL A   1      41.078  27.837  29.616  1.00  0.00    -0.014 A 
BRANCH  34  35
ATOM     35  C   UNL A   1      40.906  28.790  30.741  1.00  0.00     0.031 A 
ATOM     36  C   UNL A   1      41.775  28.676  31.962  1.00  0.00     0.074 A 
ATOM     37  C   UNL A   1      39.924  29.710  30.691  1.00  0.00     0.049 A 
ATOM     38  N   UNL A   1      41.732  29.366  33.073  1.00  0.00    -0.248 NA
ATOM     39  C   UNL A   1      42.809  27.631  31.943  1.00  0.00     0.031 C 
ATOM     40  C   UNL A   1      38.986  29.889  29.581  1.00  0.00     0.029 A 
ATOM     41  N   UNL A   1      39.545  30.665  31.602  1.00  0.00    -0.354 N 
ATOM     42  C   UNL A   1      42.721  28.829  33.889  1.00  0.00     0.074 A 
ATOM     43  C   UNL A   1      43.307  27.720  33.166  1.00  0.00     0.031 C 
ATOM     44  C   UNL A   1      38.159  30.909  29.862  1.00  0.00     0.029 A 
ATOM     45  C   UNL A   1      38.484  31.434  31.185  1.00  0.00     0.049 A 
ATOM     46  H   UNL A   1      39.991  30.787  32.470  1.00  0.00     0.167 HD
ATOM     47  C   UNL A   1      43.120  29.235  35.118  1.00  0.00     0.037 A 
ATOM     48  C   UNL A   1      37.844  32.446  31.802  1.00  0.00     0.037 A 
ATOM     49  C   UNL A   1      42.546  30.351  35.823  1.00  0.00     0.049 A 
ATOM     50  C   UNL A   1      38.301  32.880  33.167  1.00  0.00     0.074 A 
ATOM     51  C   UNL A   1      42.914  30.878  37.048  1.00  0.00     0.029 A 
ATOM     52  N   UNL A   1      41.482  31.113  35.363  1.00  0.00    -0.354 N 
ATOM     53  N   UNL A   1      39.274  32.397  33.901  1.00  0.00    -0.248 NA
ATOM     54  C   UNL A   1      37.577  33.999  33.784  1.00  0.00     0.031 C 
ATOM     55  C   UNL A   1      42.048  31.936  37.347  1.00  0.00     0.029 A 
ATOM     56  C   UNL A   1      41.167  32.095  36.288  1.00  0.00     0.049 A 
ATOM     57  H   UNL A   1      41.017  30.976  34.507  1.00  0.00     0.167 HD
ATOM     58  C   UNL A   1      39.296  33.168  35.058  1.00  0.00     0.074 A 
ATOM     59  C   UNL A   1      38.243  34.155  34.920  1.00  0.00     0.031 C 
ATOM     60  C   UNL A   1      40.116  33.071  36.134  1.00  0.00     0.037 A 
BRANCH  47  61
ATOM     61  C   UNL A   1      44.234  28.460  35.769  1.00  0.00     0.058 A 
ATOM     62  C   UNL A   1      43.973  27.371  36.617  1.00  0.00     0.135 A 
ATOM     63  C   UNL A   1      45.574  28.816  35.555  1.00  0.00     0.135 A 
ATOM     64  F   UNL A   1      42.708  26.997  36.869  1.00  0.00    -0.206 F 
ATOM     65  C   UNL A   1      44.999  26.695  37.268  1.00  0.00     0.059 A 
ATOM     66  C   UNL A   1      46.618  28.135  36.173  1.00  0.00     0.059 A 
ATOM     67  F   UNL A   1      45.880  29.847  34.751  1.00  0.00    -0.206 F 
ATOM     68  C   UNL A   1      46.318  27.091  37.048  1.00  0.00     0.060 A 
BRANCH  68  69
ATOM     69  S   UNL A   1      47.639  26.228  37.927  1.00  0.00     0.124 S 
ATOM     70  O   UNL A   1      47.089  24.879  38.019  1.00  0.00    -0.237 OA
ATOM     71  O   UNL A   1      48.775  26.389  37.025  1.00  0.00    -0.237 OA
ATOM     72  O   UNL A   1      47.737  26.955  39.189  1.00  0.00    -0.744 OA
ENDBRANCH  68  69
ENDBRANCH  47  61
BRANCH  48  73
ATOM     73  C   UNL A   1      36.731  33.145  31.108  1.00  0.00     0.058 A 
ATOM     74  C   UNL A   1      36.988  33.995  30.022  1.00  0.00     0.135 A 
ATOM     75  C   UNL A   1      35.394  32.950  31.485  1.00  0.00     0.135 A 
ATOM     76  F   UNL A   1      38.252  34.217  29.629  1.00  0.00    -0.206 F 
ATOM     77  C   UNL A   1      35.959  34.632  29.336  1.00  0.00     0.059 A 
ATOM     78  C   UNL A   1      34.346  33.559  30.800  1.00  0.00     0.059 A 
ATOM     79  F   UNL A   1      35.095  32.134  32.507  1.00  0.00    -0.206 F 
ATOM     80  C   UNL A   1      34.641  34.402  29.728  1.00  0.00     0.060 A 
BRANCH  80  81
ATOM     81  S   UNL A   1      33.309  35.175  28.783  1.00  0.00     0.124 S 
ATOM     82  O   UNL A   1      32.808  34.048  28.006  1.00  0.00    -0.237 OA
ATOM     83  O   UNL A   1      32.429  35.666  29.839  1.00  0.00    -0.237 OA
ATOM     84  O   UNL A   1      33.998  36.213  28.021  1.00  0.00    -0.744 OA
ENDBRANCH  80  81
ENDBRANCH  48  73
BRANCH  60  85
ATOM     85  C   UNL A   1      39.928  34.075  37.237  1.00  0.00     0.058 A 
ATOM     86  C   UNL A   1      39.083  33.819  38.328  1.00  0.00     0.135 A 
ATOM     87  C   UNL A   1      40.642  35.284  37.226  1.00  0.00     0.135 A 
ATOM     88  F   UNL A   1      38.373  32.682  38.382  1.00  0.00    -0.206 F 
ATOM     89  C   UNL A   1      38.938  34.739  39.363  1.00  0.00     0.059 A 
ATOM     90  C   UNL A   1      40.530  36.206  38.261  1.00  0.00     0.059 A 
ATOM     91  F   UNL A   1      41.469  35.571  36.209  1.00  0.00    -0.206 F 
ATOM     92  C   UNL A   1      39.667  35.928  39.321  1.00  0.00     0.060 A 
BRANCH  92  93
ATOM     93  S   UNL A   1      39.497  37.097  40.687  1.00  0.00     0.124 S 
ATOM     94  O   UNL A   1      40.748  37.842  40.593  1.00  0.00    -0.237 OA
ATOM     95  O   UNL A   1      38.291  37.834  40.322  1.00  0.00    -0.237 OA
ATOM     96  O   UNL A   1      39.366  36.235  41.857  1.00  0.00    -0.744 OA
ENDBRANCH  92  93
ENDBRANCH  60  85
ENDBRANCH  34  35
ENDBRANCH  26  29
ENDBRANCH  24  25
ENDBRANCH  23  24
ENDBRANCH   1  23
TORSDOF 18
ENDMDL
MODEL 2
REMARK VINA RESULT:     -10.3      0.780      8.488
REMARK SMILES C[NH2+]C[C@H]1CCCC[N@H+]1[C@H](C)[C@@H](C)C(=O)NCCCCNC(=O)c1ccc(-c2c3nc(c(-c4c(F)cc(S(=O)(=O)[O-])cc4F)c4ccc([nH]4)c(-c4c(F)cc(S(=O)(=O)[O-])cc4F)c4nc(c(-c5c(F)cc(S(=O)(=O)[O-])cc5F)c5ccc2[nH]5)C=C4)C=C3)cc1
REMARK SMILES IDX 18 1 17 2 16 3 14 4 15 5 12 7 13 8 10 9 11 10 9 11 4 12 5 13
REMARK SMILES IDX 6 14 8 15 7 17 3 18 2 19 1 20 19 23 20 24 21 25 22 26 23 28
REMARK SMILES IDX 24 29 25 30 89 31 26 32 88 33 27 34 28 35 29 36 82 37 30 38
REMARK SMILES IDX 87 39 81 40 83 41 31 42 86 43 80 44 79 45 32 47 66 48 45 49
REMARK SMILES IDX 65 50 46 51 49 52 64 53 84 54 47 55 48 56 63 58 85 59 50 60
REMARK SMILES IDX 33 61 34 62 43 63 35 64 36 65 42 66 44 67 37 68 38 69 39 70
REMARK SMILES IDX 40 71 41 72 67 73 68 74 77 75 69 76 70 77 76 78 78 79 71 80
REMARK SMILES IDX 72 81 73 82 74 83 75 84 51 85 52 86 61 87 53 88 54 89 60 90
REMARK SMILES IDX 62 91 55 92 56 93 57 94 58 95 59 96
REMARK H PARENT 16 6 9 16 2 21 2 22 21 27 83 46 49 57
REMARK Flexibility Score: inf
ROOT
ATOM      1  C   UNL A   1      40.727  21.621  26.130  1.00  0.00     0.023 C 
ENDROOT
BRANCH   1   2
ATOM      2  C   UNL A   1      39.214  21.384  26.131  1.00  0.00     0.116 C 
BRANCH   2   3
ATOM      3  N   UNL A   1      38.445  22.612  26.197  1.00  0.00    -0.356 N 
ATOM      4  C   UNL A   1      37.306  23.006  25.565  1.00  0.00     0.228 C 
ATOM      5  O   UNL A   1      36.848  24.111  25.875  1.00  0.00    -0.275 OA
ATOM      6  H   UNL A   1      38.815  23.286  26.813  1.00  0.00     0.163 HD
BRANCH   4   7
ATOM      7  C   UNL A   1      36.567  22.138  24.539  1.00  0.00     0.133 C 
ATOM      8  C   UNL A   1      36.649  22.861  23.187  1.00  0.00     0.024 C 
BRANCH   7   9
ATOM      9  C   UNL A   1      35.147  21.664  24.996  1.00  0.00     0.193 C 
ATOM     10  C   UNL A   1      35.041  21.470  26.521  1.00  0.00     0.076 C 
BRANCH   9  11
ATOM     11  N   UNL A   1      33.969  22.350  24.393  1.00  0.00    -0.325 N 
ATOM     12  C   UNL A   1      32.996  21.552  23.619  1.00  0.00     0.239 C 
ATOM     13  C   UNL A   1      32.101  22.515  22.804  1.00  0.00     0.071 C 
ATOM     14  C   UNL A   1      31.371  23.515  23.687  1.00  0.00     0.012 C 
ATOM     15  C   UNL A   1      33.357  23.387  25.237  1.00  0.00     0.262 C 
ATOM     16  H   UNL A   1      34.445  22.841  23.635  1.00  0.00     0.348 HD
ATOM     17  C   UNL A   1      32.389  24.303  24.489  1.00  0.00     0.062 C 
BRANCH  12  18
ATOM     18  C   UNL A   1      32.174  20.528  24.464  1.00  0.00     0.326 C 
BRANCH  18  19
ATOM     19  N   UNL A   1      32.559  19.111  24.351  1.00  0.00    -0.344 N 
ATOM     20  C   UNL A   1      32.807  18.475  25.637  1.00  0.00     0.331 C 
ATOM     21  H   UNL A   1      31.805  18.608  23.882  1.00  0.00     0.346 HD
ATOM     22  H   UNL A   1      33.432  19.076  23.826  1.00  0.00     0.346 HD
ENDBRANCH  18  19
ENDBRANCH  12  18
ENDBRANCH   9  11
ENDBRANCH   7   9
ENDBRANCH   4   7
ENDBRANCH   2   3
ENDBRANCH   1   2
BRANCH   1  23
ATOM     23  C   UNL A   1      41.310  22.203  27.416  1.00  0.00     0.023 C 
BRANCH  23  24
ATOM     24  C   UNL A   1      42.272  23.368  27.233  1.00  0.00     0.116 C 
BRANCH  24  25
ATOM     25  N   UNL A   1      41.930  24.231  26.112  1.00  0.00    -0.352 N 
ATOM     26  C   UNL A   1      41.507  25.538  26.131  1.00  0.00     0.251 C 
ATOM     27  H   UNL A   1      42.014  23.823  25.220  1.00  0.00     0.163 HD
ATOM     28  O   UNL A   1      41.178  26.091  25.085  1.00  0.00    -0.269 OA
BRANCH  26  29
ATOM     29  C   UNL A   1      41.408  26.255  27.419  1.00  0.00     0.039 A 
ATOM     30  C   UNL A   1      42.413  27.163  27.763  1.00  0.00     0.014 A 
ATOM     31  C   UNL A   1      40.311  26.064  28.264  1.00  0.00     0.014 A 
ATOM     32  C   UNL A   1      42.279  27.936  28.917  1.00  0.00     0.010 A 
ATOM     33  C   UNL A   1      40.142  26.888  29.372  1.00  0.00     0.010 A 
ATOM     34  C   UNL A   1      41.124  27.833  29.709  1.00  0.00    -0.014 A 
BRANCH  34  35
ATOM     35  C   UNL A   1      40.917  28.708  30.890  1.00  0.00     0.031 A 
ATOM     36  C   UNL A   1      39.844  29.760  30.868  1.00  0.00     0.074 A 
ATOM     37  C   UNL A   1      41.741  28.602  31.951  1.00  0.00     0.049 A 
ATOM     38  N   UNL A   1      39.554  30.664  31.769  1.00  0.00    -0.248 NA
ATOM     39  C   UNL A   1      39.003  29.822  29.663  1.00  0.00     0.031 C 
ATOM     40  C   UNL A   1      42.849  27.653  32.071  1.00  0.00     0.029 A 
ATOM     41  N   UNL A   1      41.778  29.306  33.128  1.00  0.00    -0.354 N 
ATOM     42  C   UNL A   1      38.511  31.409  31.233  1.00  0.00     0.074 A 
ATOM     43  C   UNL A   1      38.257  30.888  29.907  1.00  0.00     0.031 C 
ATOM     44  C   UNL A   1      43.438  27.813  33.267  1.00  0.00     0.029 A 
ATOM     45  C   UNL A   1      42.775  28.899  33.983  1.00  0.00     0.049 A 
ATOM     46  H   UNL A   1      41.150  30.033  33.341  1.00  0.00     0.167 HD
ATOM     47  C   UNL A   1      37.812  32.421  31.802  1.00  0.00     0.037 A 
ATOM     48  C   UNL A   1      43.117  29.351  35.205  1.00  0.00     0.037 A 
ATOM     49  C   UNL A   1      38.056  32.922  33.129  1.00  0.00     0.049 A 
ATOM     50  C   UNL A   1      42.330  30.476  35.818  1.00  0.00     0.074 A 
ATOM     51  C   UNL A   1      37.371  33.906  33.819  1.00  0.00     0.029 A 
ATOM     52  N   UNL A   1      39.067  32.475  33.969  1.00  0.00    -0.354 N 
ATOM     53  N   UNL A   1      41.311  31.134  35.320  1.00  0.00    -0.248 NA
ATOM     54  C   UNL A   1      42.737  30.917  37.159  1.00  0.00     0.031 C 
ATOM     55  C   UNL A   1      37.990  34.080  35.062  1.00  0.00     0.029 A 
ATOM     56  C   UNL A   1      39.035  33.176  35.163  1.00  0.00     0.049 A 
ATOM     57  H   UNL A   1      39.712  31.766  33.748  1.00  0.00     0.167 HD
ATOM     58  C   UNL A   1      40.937  32.051  36.296  1.00  0.00     0.074 A 
ATOM     59  C   UNL A   1      41.836  31.856  37.416  1.00  0.00     0.031 C 
ATOM     60  C   UNL A   1      39.938  32.968  36.269  1.00  0.00     0.037 A 
BRANCH  47  61
ATOM     61  C   UNL A   1      36.717  33.045  30.981  1.00  0.00     0.058 A 
ATOM     62  C   UNL A   1      36.996  34.000  29.988  1.00  0.00     0.135 A 
ATOM     63  C   UNL A   1      35.375  32.698  31.195  1.00  0.00     0.135 A 
ATOM     64  F   UNL A   1      38.262  34.379  29.752  1.00  0.00    -0.206 F 
ATOM     65  C   UNL A   1      35.980  34.623  29.273  1.00  0.00     0.059 A 
ATOM     66  C   UNL A   1      34.343  33.288  30.470  1.00  0.00     0.059 A 
ATOM     67  F   UNL A   1      35.051  31.790  32.129  1.00  0.00    -0.206 F 
ATOM     68  C   UNL A   1      34.655  34.268  29.528  1.00  0.00     0.060 A 
BRANCH  68  69
ATOM     69  S   UNL A   1      33.343  35.110  28.617  1.00  0.00     0.124 S 
ATOM     70  O   UNL A   1      34.114  36.028  27.784  1.00  0.00    -0.237 OA
ATOM     71  O   UNL A   1      32.693  34.010  27.912  1.00  0.00    -0.237 OA
ATOM     72  O   UNL A   1      32.547  35.734  29.669  1.00  0.00    -0.744 OA
ENDBRANCH  68  69
ENDBRANCH  47  61
BRANCH  48  73
ATOM     73  C   UNL A   1      44.232  28.703  35.945  1.00  0.00     0.058 A 
ATOM     74  C   UNL A   1      43.983  27.633  36.817  1.00  0.00     0.135 A 
ATOM     75  C   UNL A   1      45.562  29.109  35.768  1.00  0.00     0.135 A 
ATOM     76  F   UNL A   1      42.725  27.214  37.022  1.00  0.00    -0.206 F 
ATOM     77  C   UNL A   1      45.014  26.989  37.493  1.00  0.00     0.059 A 
ATOM     78  C   UNL A   1      46.614  28.466  36.417  1.00  0.00     0.059 A 
ATOM     79  F   UNL A   1      45.854  30.118  34.933  1.00  0.00    -0.206 F 
ATOM     80  C   UNL A   1      46.328  27.409  37.281  1.00  0.00     0.060 A 
BRANCH  80  81
ATOM     81  S   UNL A   1      47.665  26.518  38.106  1.00  0.00     0.124 S 
ATOM     82  O   UNL A   1      48.125  25.630  37.044  1.00  0.00    -0.237 OA
ATOM     83  O   UNL A   1      48.573  27.600  38.473  1.00  0.00    -0.237 OA
ATOM     84  O   UNL A   1      46.993  25.868  39.227  1.00  0.00    -0.744 OA
ENDBRANCH  80  81
ENDBRANCH  48  73
BRANCH  60  85
ATOM     85  C   UNL A   1      39.744  33.812  37.497  1.00  0.00     0.058 A 
ATOM     86  C   UNL A   1      38.880  33.418  38.532  1.00  0.00     0.135 A 
ATOM     87  C   UNL A   1      40.469  35.003  37.663  1.00  0.00     0.135 A 
ATOM     88  F   UNL A   1      38.159  32.293  38.419  1.00  0.00    -0.206 F 
ATOM     89  C   UNL A   1      38.729  34.188  39.681  1.00  0.00     0.059 A 
ATOM     90  C   UNL A   1      40.351  35.775  38.814  1.00  0.00     0.059 A 
ATOM     91  F   UNL A   1      41.314  35.417  36.706  1.00  0.00    -0.206 F 
ATOM     92  C   UNL A   1      39.470  35.363  39.814  1.00  0.00     0.060 A 
BRANCH  92  93
ATOM     93  S   UNL A   1      39.293  36.335  41.326  1.00  0.00     0.124 S 
ATOM     94  O   UNL A   1      38.217  35.624  42.007  1.00  0.00    -0.237 OA
ATOM     95  O   UNL A   1      40.615  36.217  41.932  1.00  0.00    -0.237 OA
ATOM     96  O   UNL A   1      38.953  37.667  40.835  1.00  0.00    -0.744 OA
ENDBRANCH  92  93
ENDBRANCH  60  85
ENDBRANCH  34  35
ENDBRANCH  26  29
ENDBRANCH  24  25
ENDBRANCH  23  24
ENDBRANCH   1  23
TORSDOF 18
ENDMDL
MODEL 3
REMARK VINA RESULT:     -10.2      3.582      4.815
REMARK SMILES C[NH2+]C[C@H]1CCCC[N@H+]1[C@H](C)[C@@H](C)C(=O)NCCCCNC(=O)c1ccc(-c2c3nc(c(-c4c(F)cc(S(=O)(=O)[O-])cc4F)c4ccc([nH]4)c(-c4c(F)cc(S(=O)(=O)[O-])cc4F)c4nc(c(-c5c(F)cc(S(=O)(=O)[O-])cc5F)c5ccc2[nH]5)C=C4)C=C3)cc1
REMARK SMILES IDX 18 1 17 2 16 3 14 4 15 5 12 7 13 8 10 9 11 10 9 11 4 12 5 13
REMARK SMILES IDX 6 14 8 15 7 17 3 18 2 19 1 20 19 23 20 24 21 25 22 26 23 28
REMARK SMILES IDX 24 29 25 30 89 31 26 32 88 33 27 34 28 35 29 36 82 37 30 38
REMARK SMILES IDX 87 39 81 40 83 41 31 42 86 43 80 44 79 45 32 47 66 48 45 49
REMARK SMILES IDX 65 50 46 51 49 52 64 53 84 54 47 55 48 56 63 58 85 59 50 60
REMARK SMILES IDX 33 61 34 62 43 63 35 64 36 65 42 66 44 67 37 68 38 69 39 70
REMARK SMILES IDX 40 71 41 72 67 73 68 74 77 75 69 76 70 77 76 78 78 79 71 80
REMARK SMILES IDX 72 81 73 82 74 83 75 84 51 85 52 86 61 87 53 88 54 89 60 90
REMARK SMILES IDX 62 91 55 92 56 93 57 94 58 95 59 96
REMARK H PARENT 16 6 9 16 2 21 2 22 21 27 83 46 49 57
REMARK Flexibility Score: inf
ROOT
ATOM      1  C   UNL A   1      34.948  22.387  24.767  1.00  0.00     0.023 C 
ENDROOT
BRANCH   1   2
ATOM      2  C   UNL A   1      33.909  23.065  23.869  1.00  0.00     0.116 C 
BRANCH   2   3
ATOM      3  N   UNL A   1      34.364  24.331  23.327  1.00  0.00    -0.356 N 
ATOM      4  C   UNL A   1      33.767  25.232  22.500  1.00  0.00     0.228 C 
ATOM      5  O   UNL A   1      34.395  26.267  22.254  1.00  0.00    -0.275 OA
ATOM      6  H   UNL A   1      35.272  24.586  23.609  1.00  0.00     0.163 HD
BRANCH   4   7
ATOM      7  C   UNL A   1      32.365  25.036  21.910  1.00  0.00     0.133 C 
ATOM      8  C   UNL A   1      32.426  25.469  20.439  1.00  0.00     0.024 C 
BRANCH   7   9
ATOM      9  C   UNL A   1      31.208  25.643  22.773  1.00  0.00     0.193 C 
ATOM     10  C   UNL A   1      30.386  24.570  23.513  1.00  0.00     0.076 C 
BRANCH   9  11
ATOM     11  N   UNL A   1      31.529  26.836  23.605  1.00  0.00    -0.325 N 
ATOM     12  C   UNL A   1      31.652  28.154  22.949  1.00  0.00     0.239 C 
ATOM     13  C   UNL A   1      32.339  29.135  23.928  1.00  0.00     0.071 C 
ATOM     14  C   UNL A   1      31.579  29.274  25.237  1.00  0.00     0.012 C 
ATOM     15  C   UNL A   1      30.856  26.879  24.912  1.00  0.00     0.262 C 
ATOM     16  H   UNL A   1      32.512  26.636  23.795  1.00  0.00     0.348 HD
ATOM     17  C   UNL A   1      31.444  27.906  25.880  1.00  0.00     0.062 C 
BRANCH  12  18
ATOM     18  C   UNL A   1      30.319  28.717  22.361  1.00  0.00     0.326 C 
BRANCH  18  19
ATOM     19  N   UNL A   1      30.379  30.046  21.728  1.00  0.00    -0.344 N 
ATOM     20  C   UNL A   1      29.217  30.875  22.013  1.00  0.00     0.331 C 
ATOM     21  H   UNL A   1      31.211  30.528  22.069  1.00  0.00     0.346 HD
ATOM     22  H   UNL A   1      30.404  29.899  20.720  1.00  0.00     0.346 HD
ENDBRANCH  18  19
ENDBRANCH  12  18
ENDBRANCH   9  11
ENDBRANCH   7   9
ENDBRANCH   4   7
ENDBRANCH   2   3
ENDBRANCH   1   2
BRANCH   1  23
ATOM     23  C   UNL A   1      35.602  23.280  25.819  1.00  0.00     0.023 C 
BRANCH  23  24
ATOM     24  C   UNL A   1      36.947  23.877  25.429  1.00  0.00     0.116 C 
BRANCH  24  25
ATOM     25  N   UNL A   1      38.063  22.963  25.617  1.00  0.00    -0.352 N 
ATOM     26  C   UNL A   1      39.254  23.181  26.267  1.00  0.00     0.251 C 
ATOM     27  H   UNL A   1      37.949  22.067  25.224  1.00  0.00     0.163 HD
ATOM     28  O   UNL A   1      40.126  22.317  26.256  1.00  0.00    -0.269 OA
BRANCH  26  29
ATOM     29  C   UNL A   1      39.492  24.475  26.939  1.00  0.00     0.039 A 
ATOM     30  C   UNL A   1      39.035  24.648  28.248  1.00  0.00     0.014 A 
ATOM     31  C   UNL A   1      40.198  25.497  26.298  1.00  0.00     0.014 A 
ATOM     32  C   UNL A   1      39.352  25.817  28.941  1.00  0.00     0.010 A 
ATOM     33  C   UNL A   1      40.577  26.627  27.015  1.00  0.00     0.010 A 
ATOM     34  C   UNL A   1      40.160  26.798  28.344  1.00  0.00    -0.014 A 
BRANCH  34  35
ATOM     35  C   UNL A   1      40.586  28.008  29.091  1.00  0.00     0.031 A 
ATOM     36  C   UNL A   1      41.951  28.062  29.717  1.00  0.00     0.074 A 
ATOM     37  C   UNL A   1      39.719  29.024  29.265  1.00  0.00     0.049 A 
ATOM     38  N   UNL A   1      42.479  28.996  30.466  1.00  0.00    -0.248 NA
ATOM     39  C   UNL A   1      42.827  26.901  29.497  1.00  0.00     0.031 C 
ATOM     40  C   UNL A   1      38.351  29.068  28.746  1.00  0.00     0.029 A 
ATOM     41  N   UNL A   1      39.858  30.214  29.934  1.00  0.00    -0.354 N 
ATOM     42  C   UNL A   1      43.741  28.530  30.817  1.00  0.00     0.074 A 
ATOM     43  C   UNL A   1      43.875  27.207  30.247  1.00  0.00     0.031 C 
ATOM     44  C   UNL A   1      37.786  30.237  29.090  1.00  0.00     0.029 A 
ATOM     45  C   UNL A   1      38.738  31.009  29.884  1.00  0.00     0.049 A 
ATOM     46  H   UNL A   1      40.682  30.473  30.405  1.00  0.00     0.167 HD
ATOM     47  C   UNL A   1      44.708  29.155  31.530  1.00  0.00     0.037 A 
ATOM     48  C   UNL A   1      38.504  32.223  30.419  1.00  0.00     0.037 A 
ATOM     49  C   UNL A   1      44.577  30.479  32.077  1.00  0.00     0.049 A 
ATOM     50  C   UNL A   1      39.590  32.899  31.209  1.00  0.00     0.074 A 
ATOM     51  C   UNL A   1      45.516  31.224  32.768  1.00  0.00     0.029 A 
ATOM     52  N   UNL A   1      43.431  31.259  31.995  1.00  0.00    -0.354 N 
ATOM     53  N   UNL A   1      40.797  32.467  31.485  1.00  0.00    -0.248 NA
ATOM     54  C   UNL A   1      39.284  34.228  31.756  1.00  0.00     0.031 C 
ATOM     55  C   UNL A   1      44.926  32.440  33.136  1.00  0.00     0.029 A 
ATOM     56  C   UNL A   1      43.633  32.469  32.638  1.00  0.00     0.049 A 
ATOM     57  H   UNL A   1      42.597  30.990  31.547  1.00  0.00     0.167 HD
ATOM     58  C   UNL A   1      41.405  33.481  32.217  1.00  0.00     0.074 A 
ATOM     59  C   UNL A   1      40.434  34.551  32.333  1.00  0.00     0.031 C 
ATOM     60  C   UNL A   1      42.655  33.524  32.742  1.00  0.00     0.037 A 
BRANCH  47  61
ATOM     61  C   UNL A   1      45.992  28.403  31.750  1.00  0.00     0.058 A 
ATOM     62  C   UNL A   1      47.019  28.404  30.792  1.00  0.00     0.135 A 
ATOM     63  C   UNL A   1      46.195  27.662  32.925  1.00  0.00     0.135 A 
ATOM     64  F   UNL A   1      46.872  29.084  29.643  1.00  0.00    -0.206 F 
ATOM     65  C   UNL A   1      48.179  27.658  30.968  1.00  0.00     0.059 A 
ATOM     66  C   UNL A   1      47.362  26.931  33.135  1.00  0.00     0.059 A 
ATOM     67  F   UNL A   1      45.248  27.628  33.876  1.00  0.00    -0.206 F 
ATOM     68  C   UNL A   1      48.337  26.917  32.139  1.00  0.00     0.060 A 
BRANCH  68  69
ATOM     69  S   UNL A   1      49.832  25.924  32.339  1.00  0.00     0.124 S 
ATOM     70  O   UNL A   1      50.522  26.186  31.080  1.00  0.00    -0.237 OA
ATOM     71  O   UNL A   1      50.441  26.509  33.529  1.00  0.00    -0.237 OA
ATOM     72  O   UNL A   1      49.319  24.568  32.504  1.00  0.00    -0.744 OA
ENDBRANCH  68  69
ENDBRANCH  47  61
BRANCH  48  73
ATOM     73  C   UNL A   1      37.197  32.893  30.183  1.00  0.00     0.058 A 
ATOM     74  C   UNL A   1      36.191  32.860  31.160  1.00  0.00     0.135 A 
ATOM     75  C   UNL A   1      36.943  33.609  29.004  1.00  0.00     0.135 A 
ATOM     76  F   UNL A   1      36.387  32.182  32.302  1.00  0.00    -0.206 F 
ATOM     77  C   UNL A   1      34.975  33.508  30.976  1.00  0.00     0.059 A 
ATOM     78  C   UNL A   1      35.742  34.284  28.805  1.00  0.00     0.059 A 
ATOM     79  F   UNL A   1      37.879  33.683  28.047  1.00  0.00    -0.206 F 
ATOM     80  C   UNL A   1      34.762  34.224  29.797  1.00  0.00     0.060 A 
BRANCH  80  81
ATOM     81  S   UNL A   1      33.209  35.125  29.600  1.00  0.00     0.124 S 
ATOM     82  O   UNL A   1      32.592  34.935  30.908  1.00  0.00    -0.237 OA
ATOM     83  O   UNL A   1      33.674  36.475  29.302  1.00  0.00    -0.237 OA
ATOM     84  O   UNL A   1      32.560  34.435  28.489  1.00  0.00    -0.744 OA
ENDBRANCH  80  81
ENDBRANCH  48  73
BRANCH  60  85
ATOM     85  C   UNL A   1      43.056  34.779  33.465  1.00  0.00     0.058 A 
ATOM     86  C   UNL A   1      42.966  34.885  34.862  1.00  0.00     0.135 A 
ATOM     87  C   UNL A   1      43.586  35.869  32.755  1.00  0.00     0.135 A 
ATOM     88  F   UNL A   1      42.459  33.874  35.584  1.00  0.00    -0.206 F 
ATOM     89  C   UNL A   1      43.369  36.037  35.529  1.00  0.00     0.059 A 
ATOM     90  C   UNL A   1      44.017  37.021  33.404  1.00  0.00     0.059 A 
ATOM     91  F   UNL A   1      43.701  35.814  31.420  1.00  0.00    -0.206 F 
ATOM     92  C   UNL A   1      43.895  37.099  34.792  1.00  0.00     0.060 A 
BRANCH  92  93
ATOM     93  S   UNL A   1      44.449  38.576  35.672  1.00  0.00     0.124 S 
ATOM     94  O   UNL A   1      43.912  38.341  37.007  1.00  0.00    -0.237 OA
ATOM     95  O   UNL A   1      45.901  38.489  35.547  1.00  0.00    -0.237 OA
ATOM     96  O   UNL A   1      43.828  39.667  34.927  1.00  0.00    -0.744 OA
ENDBRANCH  92  93
ENDBRANCH  60  85
ENDBRANCH  34  35
ENDBRANCH  26  29
ENDBRANCH  24  25
ENDBRANCH  23  24
ENDBRANCH   1  23
TORSDOF 18
ENDMDL
