MODEL 1
REMARK VINA RESULT:     -10.8      0.000      0.000
REMARK SMILES CC(C)C[C@@H](NC(=O)Cn1nc(O)ccc1=O)C(=O)NCCCCNC(=O)c1ccc(-c2c3nc(c(-c4c(F)cc(S(=O)(=O)[O-])cc4F)c4ccc([nH]4)c(-c4c(F)cc(S(=O)(=O)[O-])cc4F)c4nc(c(-c5c(F)cc(S(=O)(=O)[O-])cc5F)c5ccc2[nH]5)C=C4)C=C3)cc1
REMARK SMILES IDX 22 1 21 2 20 3 18 4 19 5 5 7 4 8 2 9 1 10 3 11 6 12 7 13
REMARK SMILES IDX 8 15 9 16 10 17 11 18 16 19 12 20 15 21 17 22 14 23 13 24
REMARK SMILES IDX 23 26 24 27 25 28 26 29 27 31 28 32 29 33 93 34 30 35 92 36
REMARK SMILES IDX 31 37 32 38 33 39 86 40 34 41 91 42 85 43 87 44 35 45 90 46
REMARK SMILES IDX 84 47 83 48 36 50 70 51 49 52 69 53 50 54 53 55 68 56 88 57
REMARK SMILES IDX 51 58 52 59 67 61 89 62 54 63 37 64 38 65 47 66 39 67 40 68
REMARK SMILES IDX 46 69 48 70 41 71 42 72 43 73 44 74 45 75 71 76 72 77 81 78
REMARK SMILES IDX 73 79 74 80 80 81 82 82 75 83 76 84 77 85 78 86 79 87 55 88
REMARK SMILES IDX 56 89 65 90 57 91 58 92 64 93 66 94 59 95 60 96 61 97 62 98
REMARK SMILES IDX 63 99
REMARK H PARENT 20 6 6 14 13 25 25 30 87 49 53 60
REMARK Flexibility Score: inf
ROOT
ATOM      1  C   UNL A   1      32.423  26.338  26.135  1.00  0.00     0.023 C 
ENDROOT
BRANCH   1   2
ATOM      2  C   UNL A   1      33.696  25.657  25.639  1.00  0.00     0.116 C 
BRANCH   2   3
ATOM      3  N   UNL A   1      33.907  25.855  24.212  1.00  0.00    -0.354 N 
ATOM      4  C   UNL A   1      33.164  25.422  23.146  1.00  0.00     0.242 C 
ATOM      5  O   UNL A   1      33.632  25.594  22.014  1.00  0.00    -0.273 OA
ATOM      6  H   UNL A   1      34.706  26.380  23.978  1.00  0.00     0.163 HD
BRANCH   4   7
ATOM      7  C   UNL A   1      31.944  24.503  23.352  1.00  0.00     0.171 C 
BRANCH   7   8
ATOM      8  C   UNL A   1      30.811  25.386  22.763  1.00  0.00     0.038 C 
BRANCH   8   9
ATOM      9  C   UNL A   1      30.377  26.684  23.453  1.00  0.00    -0.015 C 
ATOM     10  C   UNL A   1      30.477  27.893  22.529  1.00  0.00     0.007 C 
ATOM     11  C   UNL A   1      28.916  26.498  23.899  1.00  0.00     0.007 C 
ENDBRANCH   8   9
ENDBRANCH   7   8
BRANCH   7  12
ATOM     12  N   UNL A   1      32.045  23.186  22.719  1.00  0.00    -0.343 N 
ATOM     13  C   UNL A   1      32.471  21.981  23.201  1.00  0.00     0.242 C 
ATOM     14  H   UNL A   1      31.753  23.167  21.778  1.00  0.00     0.164 HD
ATOM     15  O   UNL A   1      32.123  20.997  22.534  1.00  0.00    -0.273 OA
BRANCH  13  16
ATOM     16  C   UNL A   1      33.182  21.784  24.547  1.00  0.00     0.248 C 
BRANCH  16  17
ATOM     17  N   UNL A   1      34.547  22.281  24.662  1.00  0.00    -0.217 N 
ATOM     18  N   UNL A   1      35.158  22.690  23.491  1.00  0.00    -0.131 NA
ATOM     19  C   UNL A   1      35.128  22.435  25.919  1.00  0.00     0.267 A 
ATOM     20  C   UNL A   1      36.362  23.127  23.608  1.00  0.00     0.229 A 
ATOM     21  C   UNL A   1      36.512  22.975  25.946  1.00  0.00     0.079 A 
ATOM     22  O   UNL A   1      34.601  22.110  26.979  1.00  0.00    -0.268 OA
ATOM     23  C   UNL A   1      37.145  23.302  24.818  1.00  0.00     0.075 A 
BRANCH  20  24
ATOM     24  O   UNL A   1      37.069  23.423  22.515  1.00  0.00    -0.492 OA
ATOM     25  H   UNL A   1      37.205  22.773  21.853  1.00  0.00     0.295 HD
ENDBRANCH  20  24
ENDBRANCH  16  17
ENDBRANCH  13  16
ENDBRANCH   7  12
ENDBRANCH   4   7
ENDBRANCH   2   3
ENDBRANCH   1   2
BRANCH   1  26
ATOM     26  C   UNL A   1      32.506  27.861  26.242  1.00  0.00     0.023 C 
BRANCH  26  27
ATOM     27  C   UNL A   1      33.716  28.383  27.008  1.00  0.00     0.116 C 
BRANCH  27  28
ATOM     28  N   UNL A   1      33.577  29.766  27.425  1.00  0.00    -0.352 N 
ATOM     29  C   UNL A   1      34.520  30.561  28.035  1.00  0.00     0.251 C 
ATOM     30  H   UNL A   1      32.703  30.185  27.252  1.00  0.00     0.163 HD
ATOM     31  O   UNL A   1      34.231  31.694  28.411  1.00  0.00    -0.269 OA
BRANCH  29  32
ATOM     32  C   UNL A   1      35.872  30.012  28.285  1.00  0.00     0.039 A 
ATOM     33  C   UNL A   1      36.206  29.461  29.526  1.00  0.00     0.014 A 
ATOM     34  C   UNL A   1      36.829  30.099  27.272  1.00  0.00     0.014 A 
ATOM     35  C   UNL A   1      37.530  29.105  29.790  1.00  0.00     0.010 A 
ATOM     36  C   UNL A   1      38.142  29.696  27.524  1.00  0.00     0.010 A 
ATOM     37  C   UNL A   1      38.515  29.232  28.796  1.00  0.00    -0.014 A 
BRANCH  37  38
ATOM     38  C   UNL A   1      39.933  28.884  29.083  1.00  0.00     0.031 A 
ATOM     39  C   UNL A   1      40.845  29.871  29.762  1.00  0.00     0.074 A 
ATOM     40  C   UNL A   1      40.412  27.677  28.724  1.00  0.00     0.049 A 
ATOM     41  N   UNL A   1      42.118  29.759  30.048  1.00  0.00    -0.248 NA
ATOM     42  C   UNL A   1      40.251  31.154  30.170  1.00  0.00     0.031 C 
ATOM     43  C   UNL A   1      39.637  26.627  28.064  1.00  0.00     0.029 A 
ATOM     44  N   UNL A   1      41.663  27.132  28.863  1.00  0.00    -0.354 N 
ATOM     45  C   UNL A   1      42.484  30.957  30.649  1.00  0.00     0.074 A 
ATOM     46  C   UNL A   1      41.302  31.794  30.665  1.00  0.00     0.031 C 
ATOM     47  C   UNL A   1      40.422  25.557  27.875  1.00  0.00     0.029 A 
ATOM     48  C   UNL A   1      41.769  25.861  28.354  1.00  0.00     0.049 A 
ATOM     49  H   UNL A   1      42.414  27.607  29.287  1.00  0.00     0.167 HD
ATOM     50  C   UNL A   1      43.689  31.326  31.149  1.00  0.00     0.037 A 
ATOM     51  C   UNL A   1      42.830  25.036  28.263  1.00  0.00     0.037 A 
ATOM     52  C   UNL A   1      44.864  30.492  31.143  1.00  0.00     0.049 A 
ATOM     53  C   UNL A   1      44.167  25.478  28.783  1.00  0.00     0.074 A 
ATOM     54  C   UNL A   1      46.117  30.768  31.665  1.00  0.00     0.029 A 
ATOM     55  N   UNL A   1      44.939  29.226  30.581  1.00  0.00    -0.354 N 
ATOM     56  N   UNL A   1      44.489  26.608  29.366  1.00  0.00    -0.248 NA
ATOM     57  C   UNL A   1      45.287  24.541  28.623  1.00  0.00     0.031 C 
ATOM     58  C   UNL A   1      46.960  29.687  31.380  1.00  0.00     0.029 A 
ATOM     59  C   UNL A   1      46.222  28.718  30.720  1.00  0.00     0.049 A 
ATOM     60  H   UNL A   1      44.190  28.756  30.147  1.00  0.00     0.167 HD
ATOM     61  C   UNL A   1      45.847  26.514  29.651  1.00  0.00     0.074 A 
ATOM     62  C   UNL A   1      46.282  25.211  29.190  1.00  0.00     0.031 C 
ATOM     63  C   UNL A   1      46.655  27.428  30.242  1.00  0.00     0.037 A 
BRANCH  50  64
ATOM     64  C   UNL A   1      43.804  32.708  31.734  1.00  0.00     0.058 A 
ATOM     65  C   UNL A   1      43.504  32.966  33.080  1.00  0.00     0.135 A 
ATOM     66  C   UNL A   1      44.243  33.782  30.942  1.00  0.00     0.135 A 
ATOM     67  F   UNL A   1      43.068  31.979  33.878  1.00  0.00    -0.206 F 
ATOM     68  C   UNL A   1      43.601  34.248  33.613  1.00  0.00     0.059 A 
ATOM     69  C   UNL A   1      44.371  35.067  31.460  1.00  0.00     0.059 A 
ATOM     70  F   UNL A   1      44.547  33.589  29.649  1.00  0.00    -0.206 F 
ATOM     71  C   UNL A   1      44.029  35.294  32.793  1.00  0.00     0.060 A 
BRANCH  71  72
ATOM     72  S   UNL A   1      44.119  36.956  33.492  1.00  0.00     0.124 S 
ATOM     73  O   UNL A   1      42.733  37.174  33.898  1.00  0.00    -0.237 OA
ATOM     74  O   UNL A   1      45.077  36.784  34.580  1.00  0.00    -0.237 OA
ATOM     75  O   UNL A   1      44.581  37.772  32.375  1.00  0.00    -0.744 OA
ENDBRANCH  71  72
ENDBRANCH  50  64
BRANCH  51  76
ATOM     76  C   UNL A   1      42.645  23.693  27.654  1.00  0.00     0.058 A 
ATOM     77  C   UNL A   1      42.797  23.506  26.273  1.00  0.00     0.135 A 
ATOM     78  C   UNL A   1      42.401  22.562  28.449  1.00  0.00     0.135 A 
ATOM     79  F   UNL A   1      43.020  24.562  25.475  1.00  0.00    -0.206 F 
ATOM     80  C   UNL A   1      42.733  22.242  25.701  1.00  0.00     0.059 A 
ATOM     81  C   UNL A   1      42.354  21.284  27.902  1.00  0.00     0.059 A 
ATOM     82  F   UNL A   1      42.259  22.692  29.777  1.00  0.00    -0.206 F 
ATOM     83  C   UNL A   1      42.526  21.135  26.527  1.00  0.00     0.060 A 
BRANCH  83  84
ATOM     84  S   UNL A   1      42.563  19.487  25.786  1.00  0.00     0.124 S 
ATOM     85  O   UNL A   1      41.163  19.294  25.429  1.00  0.00    -0.237 OA
ATOM     86  O   UNL A   1      43.486  19.677  24.671  1.00  0.00    -0.237 OA
ATOM     87  O   UNL A   1      43.062  18.644  26.867  1.00  0.00    -0.744 OA
ENDBRANCH  83  84
ENDBRANCH  51  76
BRANCH  63  88
ATOM     88  C   UNL A   1      48.102  27.061  30.429  1.00  0.00     0.058 A 
ATOM     89  C   UNL A   1      49.083  27.455  29.507  1.00  0.00     0.135 A 
ATOM     90  C   UNL A   1      48.522  26.364  31.574  1.00  0.00     0.135 A 
ATOM     91  F   UNL A   1      48.734  28.116  28.391  1.00  0.00    -0.206 F 
ATOM     92  C   UNL A   1      50.428  27.164  29.706  1.00  0.00     0.059 A 
ATOM     93  C   UNL A   1      49.866  26.081  31.805  1.00  0.00     0.059 A 
ATOM     94  F   UNL A   1      47.626  25.969  32.492  1.00  0.00    -0.206 F 
ATOM     95  C   UNL A   1      50.811  26.480  30.861  1.00  0.00     0.060 A 
BRANCH  95  96
ATOM     96  S   UNL A   1      52.566  26.148  31.129  1.00  0.00     0.124 S 
ATOM     97  O   UNL A   1      52.942  27.245  32.014  1.00  0.00    -0.237 OA
ATOM     98  O   UNL A   1      52.544  24.821  31.739  1.00  0.00    -0.237 OA
ATOM     99  O   UNL A   1      53.133  26.203  29.785  1.00  0.00    -0.744 OA
ENDBRANCH  95  96
ENDBRANCH  63  88
ENDBRANCH  37  38
ENDBRANCH  29  32
ENDBRANCH  27  28
ENDBRANCH  26  27
ENDBRANCH   1  26
TORSDOF 20
ENDMDL
MODEL 2
REMARK VINA RESULT:     -10.5      2.691      3.454
REMARK SMILES CC(C)C[C@@H](NC(=O)Cn1nc(O)ccc1=O)C(=O)NCCCCNC(=O)c1ccc(-c2c3nc(c(-c4c(F)cc(S(=O)(=O)[O-])cc4F)c4ccc([nH]4)c(-c4c(F)cc(S(=O)(=O)[O-])cc4F)c4nc(c(-c5c(F)cc(S(=O)(=O)[O-])cc5F)c5ccc2[nH]5)C=C4)C=C3)cc1
REMARK SMILES IDX 22 1 21 2 20 3 18 4 19 5 5 7 4 8 2 9 1 10 3 11 6 12 7 13
REMARK SMILES IDX 8 15 9 16 10 17 11 18 16 19 12 20 15 21 17 22 14 23 13 24
REMARK SMILES IDX 23 26 24 27 25 28 26 29 27 31 28 32 29 33 93 34 30 35 92 36
REMARK SMILES IDX 31 37 32 38 33 39 86 40 34 41 91 42 85 43 87 44 35 45 90 46
REMARK SMILES IDX 84 47 83 48 36 50 70 51 49 52 69 53 50 54 53 55 68 56 88 57
REMARK SMILES IDX 51 58 52 59 67 61 89 62 54 63 37 64 38 65 47 66 39 67 40 68
REMARK SMILES IDX 46 69 48 70 41 71 42 72 43 73 44 74 45 75 71 76 72 77 81 78
REMARK SMILES IDX 73 79 74 80 80 81 82 82 75 83 76 84 77 85 78 86 79 87 55 88
REMARK SMILES IDX 56 89 65 90 57 91 58 92 64 93 66 94 59 95 60 96 61 97 62 98
REMARK SMILES IDX 63 99
REMARK H PARENT 20 6 6 14 13 25 25 30 87 49 53 60
REMARK Flexibility Score: inf
ROOT
ATOM      1  C   UNL A   1      34.031  28.448  26.000  1.00  0.00     0.023 C 
ENDROOT
BRANCH   1   2
ATOM      2  C   UNL A   1      33.163  29.102  24.928  1.00  0.00     0.116 C 
BRANCH   2   3
ATOM      3  N   UNL A   1      33.793  29.079  23.617  1.00  0.00    -0.354 N 
ATOM      4  C   UNL A   1      33.681  28.164  22.604  1.00  0.00     0.242 C 
ATOM      5  O   UNL A   1      34.438  28.288  21.633  1.00  0.00    -0.273 OA
ATOM      6  H   UNL A   1      34.392  29.837  23.428  1.00  0.00     0.163 HD
BRANCH   4   7
ATOM      7  C   UNL A   1      32.863  26.871  22.792  1.00  0.00     0.171 C 
BRANCH   7   8
ATOM      8  C   UNL A   1      31.456  27.349  22.341  1.00  0.00     0.038 C 
BRANCH   8   9
ATOM      9  C   UNL A   1      30.246  27.246  23.275  1.00  0.00    -0.015 C 
ATOM     10  C   UNL A   1      30.610  26.658  24.634  1.00  0.00     0.007 C 
ATOM     11  C   UNL A   1      29.690  28.669  23.464  1.00  0.00     0.007 C 
ENDBRANCH   8   9
ENDBRANCH   7   8
BRANCH   7  12
ATOM     12  N   UNL A   1      33.352  25.712  22.043  1.00  0.00    -0.343 N 
ATOM     13  C   UNL A   1      33.245  24.371  22.281  1.00  0.00     0.242 C 
ATOM     14  H   UNL A   1      33.844  25.940  21.221  1.00  0.00     0.164 HD
ATOM     15  O   UNL A   1      33.466  23.645  21.302  1.00  0.00    -0.273 OA
BRANCH  13  16
ATOM     16  C   UNL A   1      32.730  23.757  23.591  1.00  0.00     0.248 C 
BRANCH  16  17
ATOM     17  N   UNL A   1      33.710  23.114  24.458  1.00  0.00    -0.217 N 
ATOM     18  N   UNL A   1      33.742  21.732  24.438  1.00  0.00    -0.131 NA
ATOM     19  C   UNL A   1      34.628  23.889  25.163  1.00  0.00     0.267 A 
ATOM     20  C   UNL A   1      34.612  21.180  25.208  1.00  0.00     0.229 A 
ATOM     21  C   UNL A   1      35.610  23.151  26.000  1.00  0.00     0.079 A 
ATOM     22  O   UNL A   1      34.646  25.116  25.177  1.00  0.00    -0.268 OA
ATOM     23  C   UNL A   1      35.605  21.818  26.053  1.00  0.00     0.075 A 
BRANCH  20  24
ATOM     24  O   UNL A   1      34.626  19.852  25.346  1.00  0.00    -0.492 OA
ATOM     25  H   UNL A   1      34.949  19.465  26.137  1.00  0.00     0.295 HD
ENDBRANCH  20  24
ENDBRANCH  16  17
ENDBRANCH  13  16
ENDBRANCH   7  12
ENDBRANCH   4   7
ENDBRANCH   2   3
ENDBRANCH   1   2
BRANCH   1  26
ATOM     26  C   UNL A   1      34.009  29.145  27.361  1.00  0.00     0.023 C 
BRANCH  26  27
ATOM     27  C   UNL A   1      35.217  30.031  27.646  1.00  0.00     0.116 C 
BRANCH  27  28
ATOM     28  N   UNL A   1      35.182  30.641  28.961  1.00  0.00    -0.352 N 
ATOM     29  C   UNL A   1      36.184  30.665  29.904  1.00  0.00     0.251 C 
ATOM     30  H   UNL A   1      34.342  31.089  29.209  1.00  0.00     0.163 HD
ATOM     31  O   UNL A   1      35.982  31.148  31.016  1.00  0.00    -0.269 OA
BRANCH  29  32
ATOM     32  C   UNL A   1      37.491  30.051  29.584  1.00  0.00     0.039 A 
ATOM     33  C   UNL A   1      38.307  29.527  30.592  1.00  0.00     0.014 A 
ATOM     34  C   UNL A   1      37.922  30.046  28.255  1.00  0.00     0.014 A 
ATOM     35  C   UNL A   1      39.602  29.106  30.284  1.00  0.00     0.010 A 
ATOM     36  C   UNL A   1      39.200  29.578  27.944  1.00  0.00     0.010 A 
ATOM     37  C   UNL A   1      40.067  29.140  28.959  1.00  0.00    -0.014 A 
BRANCH  37  38
ATOM     38  C   UNL A   1      41.458  28.723  28.630  1.00  0.00     0.031 A 
ATOM     39  C   UNL A   1      42.589  29.716  28.670  1.00  0.00     0.074 A 
ATOM     40  C   UNL A   1      41.709  27.445  28.285  1.00  0.00     0.049 A 
ATOM     41  N   UNL A   1      43.852  29.542  28.371  1.00  0.00    -0.248 NA
ATOM     42  C   UNL A   1      42.258  31.083  29.100  1.00  0.00     0.031 C 
ATOM     43  C   UNL A   1      40.708  26.382  28.209  1.00  0.00     0.029 A 
ATOM     44  N   UNL A   1      42.881  26.827  27.930  1.00  0.00    -0.354 N 
ATOM     45  C   UNL A   1      44.463  30.777  28.553  1.00  0.00     0.074 A 
ATOM     46  C   UNL A   1      43.425  31.699  28.969  1.00  0.00     0.031 C 
ATOM     47  C   UNL A   1      41.311  25.238  27.855  1.00  0.00     0.029 A 
ATOM     48  C   UNL A   1      42.731  25.495  27.628  1.00  0.00     0.049 A 
ATOM     49  H   UNL A   1      43.748  27.293  27.896  1.00  0.00     0.167 HD
ATOM     50  C   UNL A   1      45.767  31.113  28.399  1.00  0.00     0.037 A 
ATOM     51  C   UNL A   1      43.627  24.585  27.200  1.00  0.00     0.037 A 
ATOM     52  C   UNL A   1      46.803  30.196  27.996  1.00  0.00     0.049 A 
ATOM     53  C   UNL A   1      45.059  24.986  26.993  1.00  0.00     0.074 A 
ATOM     54  C   UNL A   1      48.159  30.439  27.854  1.00  0.00     0.029 A 
ATOM     55  N   UNL A   1      46.601  28.865  27.661  1.00  0.00    -0.354 N 
ATOM     56  N   UNL A   1      45.623  26.153  27.191  1.00  0.00    -0.248 NA
ATOM     57  C   UNL A   1      45.975  23.950  26.495  1.00  0.00     0.031 C 
ATOM     58  C   UNL A   1      48.770  29.267  27.391  1.00  0.00     0.029 A 
ATOM     59  C   UNL A   1      47.803  28.281  27.287  1.00  0.00     0.049 A 
ATOM     60  H   UNL A   1      45.733  28.402  27.685  1.00  0.00     0.167 HD
ATOM     61  C   UNL A   1      46.961  25.992  26.849  1.00  0.00     0.074 A 
ATOM     62  C   UNL A   1      47.125  24.609  26.447  1.00  0.00     0.031 C 
ATOM     63  C   UNL A   1      47.959  26.909  26.870  1.00  0.00     0.037 A 
BRANCH  50  64
ATOM     64  C   UNL A   1      46.149  32.546  28.652  1.00  0.00     0.058 A 
ATOM     65  C   UNL A   1      46.129  33.506  27.629  1.00  0.00     0.135 A 
ATOM     66  C   UNL A   1      46.518  32.969  29.940  1.00  0.00     0.135 A 
ATOM     67  F   UNL A   1      45.796  33.154  26.377  1.00  0.00    -0.206 F 
ATOM     68  C   UNL A   1      46.494  34.828  27.865  1.00  0.00     0.059 A 
ATOM     69  C   UNL A   1      46.864  34.291  30.204  1.00  0.00     0.059 A 
ATOM     70  F   UNL A   1      46.551  32.092  30.956  1.00  0.00    -0.206 F 
ATOM     71  C   UNL A   1      46.867  35.209  29.155  1.00  0.00     0.060 A 
BRANCH  71  72
ATOM     72  S   UNL A   1      47.368  36.920  29.438  1.00  0.00     0.124 S 
ATOM     73  O   UNL A   1      48.622  36.981  28.691  1.00  0.00    -0.237 OA
ATOM     74  O   UNL A   1      46.254  37.670  28.864  1.00  0.00    -0.237 OA
ATOM     75  O   UNL A   1      47.497  37.003  30.888  1.00  0.00    -0.744 OA
ENDBRANCH  71  72
ENDBRANCH  50  64
BRANCH  51  76
ATOM     76  C   UNL A   1      43.172  23.192  26.951  1.00  0.00     0.058 A 
ATOM     77  C   UNL A   1      43.059  22.700  25.644  1.00  0.00     0.135 A 
ATOM     78  C   UNL A   1      42.928  22.307  28.012  1.00  0.00     0.135 A 
ATOM     79  F   UNL A   1      43.273  23.515  24.599  1.00  0.00    -0.206 F 
ATOM     80  C   UNL A   1      42.739  21.370  25.395  1.00  0.00     0.059 A 
ATOM     81  C   UNL A   1      42.626  20.968  27.789  1.00  0.00     0.059 A 
ATOM     82  F   UNL A   1      43.034  22.733  29.281  1.00  0.00    -0.206 F 
ATOM     83  C   UNL A   1      42.539  20.509  26.476  1.00  0.00     0.060 A 
BRANCH  83  84
ATOM     84  S   UNL A   1      42.240  18.759  26.139  1.00  0.00     0.124 S 
ATOM     85  O   UNL A   1      43.196  18.497  25.070  1.00  0.00    -0.237 OA
ATOM     86  O   UNL A   1      42.540  18.146  27.429  1.00  0.00    -0.237 OA
ATOM     87  O   UNL A   1      40.834  18.728  25.750  1.00  0.00    -0.744 OA
ENDBRANCH  83  84
ENDBRANCH  51  76
BRANCH  63  88
ATOM     88  C   UNL A   1      49.328  26.457  26.443  1.00  0.00     0.058 A 
ATOM     89  C   UNL A   1      49.822  26.726  25.158  1.00  0.00     0.135 A 
ATOM     90  C   UNL A   1      50.182  25.806  27.349  1.00  0.00     0.135 A 
ATOM     91  F   UNL A   1      49.044  27.338  24.250  1.00  0.00    -0.206 F 
ATOM     92  C   UNL A   1      51.109  26.358  24.780  1.00  0.00     0.059 A 
ATOM     93  C   UNL A   1      51.482  25.448  27.000  1.00  0.00     0.059 A 
ATOM     94  F   UNL A   1      49.763  25.531  28.594  1.00  0.00    -0.206 F 
ATOM     95  C   UNL A   1      51.934  25.722  25.710  1.00  0.00     0.060 A 
BRANCH  95  96
ATOM     96  S   UNL A   1      53.618  25.290  25.221  1.00  0.00     0.124 S 
ATOM     97  O   UNL A   1      53.635  25.705  23.823  1.00  0.00    -0.237 OA
ATOM     98  O   UNL A   1      54.425  26.097  26.132  1.00  0.00    -0.237 OA
ATOM     99  O   UNL A   1      53.680  23.849  25.449  1.00  0.00    -0.744 OA
ENDBRANCH  95  96
ENDBRANCH  63  88
ENDBRANCH  37  38
ENDBRANCH  29  32
ENDBRANCH  27  28
ENDBRANCH  26  27
ENDBRANCH   1  26
TORSDOF 20
ENDMDL
MODEL 3
REMARK VINA RESULT:     -10.3      1.261      3.083
REMARK SMILES CC(C)C[C@@H](NC(=O)Cn1nc(O)ccc1=O)C(=O)NCCCCNC(=O)c1ccc(-c2c3nc(c(-c4c(F)cc(S(=O)(=O)[O-])cc4F)c4ccc([nH]4)c(-c4c(F)cc(S(=O)(=O)[O-])cc4F)c4nc(c(-c5c(F)cc(S(=O)(=O)[O-])cc5F)c5ccc2[nH]5)C=C4)C=C3)cc1
REMARK SMILES IDX 22 1 21 2 20 3 18 4 19 5 5 7 4 8 2 9 1 10 3 11 6 12 7 13
REMARK SMILES IDX 8 15 9 16 10 17 11 18 16 19 12 20 15 21 17 22 14 23 13 24
REMARK SMILES IDX 23 26 24 27 25 28 26 29 27 31 28 32 29 33 93 34 30 35 92 36
REMARK SMILES IDX 31 37 32 38 33 39 86 40 34 41 91 42 85 43 87 44 35 45 90 46
REMARK SMILES IDX 84 47 83 48 36 50 70 51 49 52 69 53 50 54 53 55 68 56 88 57
REMARK SMILES IDX 51 58 52 59 67 61 89 62 54 63 37 64 38 65 47 66 39 67 40 68
REMARK SMILES IDX 46 69 48 70 41 71 42 72 43 73 44 74 45 75 71 76 72 77 81 78
REMARK SMILES IDX 73 79 74 80 80 81 82 82 75 83 76 84 77 85 78 86 79 87 55 88
REMARK SMILES IDX 56 89 65 90 57 91 58 92 64 93 66 94 59 95 60 96 61 97 62 98
REMARK SMILES IDX 63 99
REMARK H PARENT 20 6 6 14 13 25 25 30 87 49 53 60
REMARK Flexibility Score: inf
ROOT
ATOM      1  C   UNL A   1      33.157  27.163  24.836  1.00  0.00     0.023 C 
ENDROOT
BRANCH   1   2
ATOM      2  C   UNL A   1      33.932  25.884  25.140  1.00  0.00     0.116 C 
BRANCH   2   3
ATOM      3  N   UNL A   1      34.111  25.053  23.959  1.00  0.00    -0.354 N 
ATOM      4  C   UNL A   1      34.546  23.759  23.852  1.00  0.00     0.242 C 
ATOM      5  O   UNL A   1      34.755  23.316  22.715  1.00  0.00    -0.273 OA
ATOM      6  H   UNL A   1      33.883  25.487  23.105  1.00  0.00     0.163 HD
BRANCH   4   7
ATOM      7  C   UNL A   1      35.038  22.984  25.090  1.00  0.00     0.171 C 
BRANCH   7   8
ATOM      8  C   UNL A   1      36.421  23.651  25.321  1.00  0.00     0.038 C 
BRANCH   8   9
ATOM      9  C   UNL A   1      37.723  22.867  25.126  1.00  0.00    -0.015 C 
ATOM     10  C   UNL A   1      38.596  22.872  26.376  1.00  0.00     0.007 C 
ATOM     11  C   UNL A   1      37.336  21.418  24.776  1.00  0.00     0.007 C 
ENDBRANCH   8   9
ENDBRANCH   7   8
BRANCH   7  12
ATOM     12  N   UNL A   1      34.156  23.053  26.258  1.00  0.00    -0.343 N 
ATOM     13  C   UNL A   1      32.895  22.574  26.467  1.00  0.00     0.242 C 
ATOM     14  H   UNL A   1      34.542  23.530  27.028  1.00  0.00     0.164 HD
ATOM     15  O   UNL A   1      32.552  22.499  27.655  1.00  0.00    -0.273 OA
BRANCH  13  16
ATOM     16  C   UNL A   1      31.987  21.999  25.370  1.00  0.00     0.248 C 
BRANCH  16  17
ATOM     17  N   UNL A   1      32.283  20.653  24.895  1.00  0.00    -0.217 N 
ATOM     18  N   UNL A   1      32.452  19.678  25.861  1.00  0.00    -0.131 NA
ATOM     19  C   UNL A   1      32.269  20.379  23.529  1.00  0.00     0.267 A 
ATOM     20  C   UNL A   1      32.713  18.496  25.426  1.00  0.00     0.229 A 
ATOM     21  C   UNL A   1      32.553  18.975  23.133  1.00  0.00     0.079 A 
ATOM     22  O   UNL A   1      32.092  21.215  22.648  1.00  0.00    -0.268 OA
ATOM     23  C   UNL A   1      32.795  18.038  24.051  1.00  0.00     0.075 A 
BRANCH  20  24
ATOM     24  O   UNL A   1      33.014  17.524  26.290  1.00  0.00    -0.492 OA
ATOM     25  H   UNL A   1      33.807  17.568  26.788  1.00  0.00     0.295 HD
ENDBRANCH  20  24
ENDBRANCH  16  17
ENDBRANCH  13  16
ENDBRANCH   7  12
ENDBRANCH   4   7
ENDBRANCH   2   3
ENDBRANCH   1   2
BRANCH   1  26
ATOM     26  C   UNL A   1      32.647  27.915  26.066  1.00  0.00     0.023 C 
BRANCH  26  27
ATOM     27  C   UNL A   1      33.733  28.372  27.033  1.00  0.00     0.116 C 
BRANCH  27  28
ATOM     28  N   UNL A   1      33.536  29.725  27.518  1.00  0.00    -0.352 N 
ATOM     29  C   UNL A   1      34.450  30.533  28.156  1.00  0.00     0.251 C 
ATOM     30  H   UNL A   1      32.642  30.111  27.374  1.00  0.00     0.163 HD
ATOM     31  O   UNL A   1      34.113  31.632  28.589  1.00  0.00    -0.269 OA
BRANCH  29  32
ATOM     32  C   UNL A   1      35.827  30.036  28.365  1.00  0.00     0.039 A 
ATOM     33  C   UNL A   1      36.237  29.556  29.613  1.00  0.00     0.014 A 
ATOM     34  C   UNL A   1      36.732  30.101  27.303  1.00  0.00     0.014 A 
ATOM     35  C   UNL A   1      37.583  29.252  29.829  1.00  0.00     0.010 A 
ATOM     36  C   UNL A   1      38.068  29.748  27.510  1.00  0.00     0.010 A 
ATOM     37  C   UNL A   1      38.515  29.358  28.783  1.00  0.00    -0.014 A 
BRANCH  37  38
ATOM     38  C   UNL A   1      39.955  29.065  29.016  1.00  0.00     0.031 A 
ATOM     39  C   UNL A   1      40.871  30.114  29.589  1.00  0.00     0.074 A 
ATOM     40  C   UNL A   1      40.450  27.852  28.704  1.00  0.00     0.049 A 
ATOM     41  N   UNL A   1      42.159  30.053  29.816  1.00  0.00    -0.248 NA
ATOM     42  C   UNL A   1      40.260  31.402  29.952  1.00  0.00     0.031 C 
ATOM     43  C   UNL A   1      39.675  26.745  28.146  1.00  0.00     0.029 A 
ATOM     44  N   UNL A   1      41.723  27.349  28.809  1.00  0.00    -0.354 N 
ATOM     45  C   UNL A   1      42.519  31.294  30.326  1.00  0.00     0.074 A 
ATOM     46  C   UNL A   1      41.315  32.098  30.355  1.00  0.00     0.031 C 
ATOM     47  C   UNL A   1      40.481  25.686  27.979  1.00  0.00     0.029 A 
ATOM     48  C   UNL A   1      41.840  26.053  28.369  1.00  0.00     0.049 A 
ATOM     49  H   UNL A   1      42.479  27.868  29.166  1.00  0.00     0.167 HD
ATOM     50  C   UNL A   1      43.736  31.723  30.741  1.00  0.00     0.037 A 
ATOM     51  C   UNL A   1      42.919  25.252  28.272  1.00  0.00     0.037 A 
ATOM     52  C   UNL A   1      44.933  30.922  30.723  1.00  0.00     0.049 A 
ATOM     53  C   UNL A   1      44.267  25.760  28.696  1.00  0.00     0.074 A 
ATOM     54  C   UNL A   1      46.202  31.261  31.163  1.00  0.00     0.029 A 
ATOM     55  N   UNL A   1      45.017  29.627  30.232  1.00  0.00    -0.354 N 
ATOM     56  N   UNL A   1      44.585  26.930  29.196  1.00  0.00    -0.248 NA
ATOM     57  C   UNL A   1      45.405  24.845  28.534  1.00  0.00     0.031 C 
ATOM     58  C   UNL A   1      47.061  30.188  30.898  1.00  0.00     0.029 A 
ATOM     59  C   UNL A   1      46.320  29.162  30.334  1.00  0.00     0.049 A 
ATOM     60  H   UNL A   1      44.262  29.112  29.866  1.00  0.00     0.167 HD
ATOM     61  C   UNL A   1      45.957  26.890  29.416  1.00  0.00     0.074 A 
ATOM     62  C   UNL A   1      46.407  25.574  29.009  1.00  0.00     0.031 C 
ATOM     63  C   UNL A   1      46.767  27.858  29.911  1.00  0.00     0.037 A 
BRANCH  50  64
ATOM     64  C   UNL A   1      43.839  33.140  31.238  1.00  0.00     0.058 A 
ATOM     65  C   UNL A   1      44.020  34.219  30.359  1.00  0.00     0.135 A 
ATOM     66  C   UNL A   1      43.732  33.423  32.610  1.00  0.00     0.135 A 
ATOM     67  F   UNL A   1      44.141  34.003  29.040  1.00  0.00    -0.206 F 
ATOM     68  C   UNL A   1      44.127  35.525  30.824  1.00  0.00     0.059 A 
ATOM     69  C   UNL A   1      43.811  34.725  33.095  1.00  0.00     0.059 A 
ATOM     70  F   UNL A   1      43.554  32.429  33.494  1.00  0.00    -0.206 F 
ATOM     71  C   UNL A   1      44.028  35.768  32.195  1.00  0.00     0.060 A 
BRANCH  71  72
ATOM     72  S   UNL A   1      44.200  37.466  32.785  1.00  0.00     0.124 S 
ATOM     73  O   UNL A   1      44.129  38.215  31.533  1.00  0.00    -0.237 OA
ATOM     74  O   UNL A   1      43.048  37.606  33.671  1.00  0.00    -0.237 OA
ATOM     75  O   UNL A   1      45.501  37.469  33.444  1.00  0.00    -0.744 OA
ENDBRANCH  71  72
ENDBRANCH  50  64
BRANCH  51  76
ATOM     76  C   UNL A   1      42.744  23.872  27.752  1.00  0.00     0.058 A 
ATOM     77  C   UNL A   1      42.625  22.786  28.631  1.00  0.00     0.135 A 
ATOM     78  C   UNL A   1      42.606  23.625  26.378  1.00  0.00     0.135 A 
ATOM     79  F   UNL A   1      42.762  22.976  29.953  1.00  0.00    -0.206 F 
ATOM     80  C   UNL A   1      42.354  21.505  28.168  1.00  0.00     0.059 A 
ATOM     81  C   UNL A   1      42.315  22.354  25.891  1.00  0.00     0.059 A 
ATOM     82  F   UNL A   1      42.703  24.636  25.500  1.00  0.00    -0.206 F 
ATOM     83  C   UNL A   1      42.186  21.302  26.796  1.00  0.00     0.060 A 
BRANCH  83  84
ATOM     84  S   UNL A   1      41.719  19.654  26.219  1.00  0.00     0.124 S 
ATOM     85  O   UNL A   1      42.540  19.518  25.022  1.00  0.00    -0.237 OA
ATOM     86  O   UNL A   1      42.099  18.817  27.353  1.00  0.00    -0.237 OA
ATOM     87  O   UNL A   1      40.283  19.774  25.991  1.00  0.00    -0.744 OA
ENDBRANCH  83  84
ENDBRANCH  51  76
BRANCH  63  88
ATOM     88  C   UNL A   1      48.231  27.541  30.043  1.00  0.00     0.058 A 
ATOM     89  C   UNL A   1      49.155  27.915  29.056  1.00  0.00     0.135 A 
ATOM     90  C   UNL A   1      48.726  26.915  31.199  1.00  0.00     0.135 A 
ATOM     91  F   UNL A   1      48.733  28.508  27.927  1.00  0.00    -0.206 F 
ATOM     92  C   UNL A   1      50.516  27.672  29.203  1.00  0.00     0.059 A 
ATOM     93  C   UNL A   1      50.087  26.681  31.377  1.00  0.00     0.059 A 
ATOM     94  F   UNL A   1      47.887  26.542  32.179  1.00  0.00    -0.206 F 
ATOM     95  C   UNL A   1      50.974  27.058  30.370  1.00  0.00     0.060 A 
BRANCH  95  96
ATOM     96  S   UNL A   1      52.749  26.788  30.567  1.00  0.00     0.124 S 
ATOM     97  O   UNL A   1      53.133  26.358  29.227  1.00  0.00    -0.237 OA
ATOM     98  O   UNL A   1      53.222  28.110  30.969  1.00  0.00    -0.237 OA
ATOM     99  O   UNL A   1      52.825  25.762  31.603  1.00  0.00    -0.744 OA
ENDBRANCH  95  96
ENDBRANCH  63  88
ENDBRANCH  37  38
ENDBRANCH  29  32
ENDBRANCH  27  28
ENDBRANCH  26  27
ENDBRANCH   1  26
TORSDOF 20
ENDMDL
