MODEL 1
REMARK VINA RESULT:     -10.3      0.000      0.000
REMARK SMILES COc1ccc(OC)c(C[NH2+][C@@H](C(=O)NCCCCNC(=O)c2ccc(-c3c4nc(c(-c5c(F)cc(S(=O)(=O)[O-])cc5F)c5ccc([nH]5)c(-c5c(F)cc(S(=O)(=O)[O-])cc5F)c5nc(c(-c6c(F)cc(S(=O)(=O)[O-])cc6F)c6ccc3[nH]6)C=C5)C=C4)cc2)C(C)C)c1
REMARK SMILES IDX 17 1 16 2 15 3 13 4 14 5 12 7 11 8 10 11 9 12 3 13 4 14
REMARK SMILES IDX 92 15 5 16 6 17 2 18 1 19 7 20 8 21 89 22 90 23 91 24 18 25
REMARK SMILES IDX 19 26 20 27 21 28 22 30 23 31 24 32 88 33 25 34 87 35 26 36
REMARK SMILES IDX 27 37 28 38 81 39 29 40 86 41 80 42 82 43 30 44 85 45 79 46
REMARK SMILES IDX 78 47 31 49 65 50 44 51 64 52 45 53 48 54 63 55 83 56 46 57
REMARK SMILES IDX 47 58 62 60 84 61 49 62 32 63 33 64 42 65 34 66 35 67 41 68
REMARK SMILES IDX 43 69 36 70 37 71 38 72 39 73 40 74 66 75 67 76 76 77 68 78
REMARK SMILES IDX 69 79 75 80 77 81 70 82 71 83 72 84 73 85 74 86 50 87 51 88
REMARK SMILES IDX 60 89 52 90 53 91 59 92 61 93 54 94 55 95 56 96 57 97 58 98
REMARK H PARENT 15 6 11 9 11 10 20 29 82 48 48 59
REMARK Flexibility Score: inf
ROOT
ATOM      1  C   UNL A   1      32.168  27.703  27.241  1.00  0.00     0.023 C 
ENDROOT
BRANCH   1   2
ATOM      2  C   UNL A   1      31.508  26.824  26.167  1.00  0.00     0.116 C 
BRANCH   2   3
ATOM      3  N   UNL A   1      30.733  25.734  26.747  1.00  0.00    -0.351 N 
ATOM      4  C   UNL A   1      30.734  24.384  26.514  1.00  0.00     0.278 C 
ATOM      5  O   UNL A   1      29.873  23.718  27.099  1.00  0.00    -0.268 OA
ATOM      6  H   UNL A   1      30.090  26.022  27.434  1.00  0.00     0.163 HD
BRANCH   4   7
ATOM      7  C   UNL A   1      31.740  23.716  25.520  1.00  0.00     0.275 C 
BRANCH   7   8
ATOM      8  N   UNL A   1      31.021  23.101  24.356  1.00  0.00    -0.332 N 
ATOM      9  H   UNL A   1      31.656  22.473  23.862  1.00  0.00     0.347 HD
ATOM     10  H   UNL A   1      30.213  22.582  24.701  1.00  0.00     0.347 HD
BRANCH   8  11
ATOM     11  C   UNL A   1      30.563  24.132  23.443  1.00  0.00     0.302 C 
BRANCH  11  12
ATOM     12  C   UNL A   1      31.528  25.148  22.894  1.00  0.00     0.052 A 
ATOM     13  C   UNL A   1      31.913  27.565  22.644  1.00  0.00     0.119 A 
ATOM     14  C   UNL A   1      33.212  27.305  22.230  1.00  0.00     0.050 A 
ATOM     15  C   UNL A   1      31.077  26.493  22.941  1.00  0.00     0.059 A 
ATOM     16  C   UNL A   1      33.677  25.987  22.166  1.00  0.00     0.051 A 
ATOM     17  C   UNL A   1      32.857  24.909  22.526  1.00  0.00     0.127 A 
BRANCH  13  18
ATOM     18  O   UNL A   1      31.542  28.880  22.699  1.00  0.00    -0.497 OA
ATOM     19  C   UNL A   1      30.193  29.154  22.317  1.00  0.00     0.278 C 
ENDBRANCH  13  18
BRANCH  17  20
ATOM     20  O   UNL A   1      33.456  23.685  22.415  1.00  0.00    -0.496 OA
ATOM     21  C   UNL A   1      34.673  23.533  23.139  1.00  0.00     0.278 C 
ENDBRANCH  17  20
ENDBRANCH  11  12
ENDBRANCH   8  11
ENDBRANCH   7   8
BRANCH   7  22
ATOM     22  C   UNL A   1      32.539  22.593  26.247  1.00  0.00     0.051 C 
ATOM     23  C   UNL A   1      32.654  21.315  25.402  1.00  0.00     0.014 C 
ATOM     24  C   UNL A   1      33.952  23.057  26.622  1.00  0.00     0.014 C 
ENDBRANCH   7  22
ENDBRANCH   4   7
ENDBRANCH   2   3
ENDBRANCH   1   2
BRANCH   1  25
ATOM     25  C   UNL A   1      33.635  28.034  27.008  1.00  0.00     0.023 C 
BRANCH  25  26
ATOM     26  C   UNL A   1      33.859  29.371  26.326  1.00  0.00     0.116 C 
BRANCH  26  27
ATOM     27  N   UNL A   1      33.766  30.502  27.246  1.00  0.00    -0.352 N 
ATOM     28  C   UNL A   1      34.653  30.909  28.220  1.00  0.00     0.251 C 
ATOM     29  H   UNL A   1      32.955  31.051  27.158  1.00  0.00     0.163 HD
ATOM     30  O   UNL A   1      34.360  31.816  28.984  1.00  0.00    -0.269 OA
BRANCH  28  31
ATOM     31  C   UNL A   1      35.940  30.196  28.351  1.00  0.00     0.039 A 
ATOM     32  C   UNL A   1      36.846  30.228  27.290  1.00  0.00     0.014 A 
ATOM     33  C   UNL A   1      36.283  29.597  29.564  1.00  0.00     0.014 A 
ATOM     34  C   UNL A   1      38.145  29.757  27.488  1.00  0.00     0.010 A 
ATOM     35  C   UNL A   1      37.601  29.229  29.790  1.00  0.00     0.010 A 
ATOM     36  C   UNL A   1      38.549  29.317  28.758  1.00  0.00    -0.014 A 
BRANCH  36  37
ATOM     37  C   UNL A   1      39.959  28.966  29.056  1.00  0.00     0.031 A 
ATOM     38  C   UNL A   1      40.875  29.999  29.648  1.00  0.00     0.074 A 
ATOM     39  C   UNL A   1      40.439  27.759  28.691  1.00  0.00     0.049 A 
ATOM     40  N   UNL A   1      42.164  29.940  29.854  1.00  0.00    -0.248 NA
ATOM     41  C   UNL A   1      40.264  31.286  30.020  1.00  0.00     0.031 C 
ATOM     42  C   UNL A   1      39.661  26.691  28.059  1.00  0.00     0.029 A 
ATOM     43  N   UNL A   1      41.701  27.233  28.789  1.00  0.00    -0.354 N 
ATOM     44  C   UNL A   1      42.522  31.184  30.356  1.00  0.00     0.074 A 
ATOM     45  C   UNL A   1      41.326  31.998  30.363  1.00  0.00     0.031 C 
ATOM     46  C   UNL A   1      40.454  25.627  27.858  1.00  0.00     0.029 A 
ATOM     47  C   UNL A   1      41.806  25.951  28.301  1.00  0.00     0.049 A 
ATOM     48  H   UNL A   1      42.463  27.725  29.173  1.00  0.00     0.167 HD
ATOM     49  C   UNL A   1      43.733  31.603  30.796  1.00  0.00     0.037 A 
ATOM     50  C   UNL A   1      42.872  25.133  28.213  1.00  0.00     0.037 A 
ATOM     51  C   UNL A   1      44.908  30.777  30.817  1.00  0.00     0.049 A 
ATOM     52  C   UNL A   1      44.209  25.622  28.693  1.00  0.00     0.074 A 
ATOM     53  C   UNL A   1      46.164  31.075  31.314  1.00  0.00     0.029 A 
ATOM     54  N   UNL A   1      44.972  29.484  30.314  1.00  0.00    -0.354 N 
ATOM     55  N   UNL A   1      44.520  26.781  29.223  1.00  0.00    -0.248 NA
ATOM     56  C   UNL A   1      45.344  24.699  28.556  1.00  0.00     0.031 C 
ATOM     57  C   UNL A   1      46.998  29.977  31.078  1.00  0.00     0.029 A 
ATOM     58  C   UNL A   1      46.253  28.981  30.464  1.00  0.00     0.049 A 
ATOM     59  H   UNL A   1      44.218  28.997  29.910  1.00  0.00     0.167 HD
ATOM     60  C   UNL A   1      45.881  26.724  29.495  1.00  0.00     0.074 A 
ATOM     61  C   UNL A   1      46.333  25.410  29.082  1.00  0.00     0.031 C 
ATOM     62  C   UNL A   1      46.684  27.673  30.038  1.00  0.00     0.037 A 
BRANCH  49  63
ATOM     63  C   UNL A   1      43.826  33.020  31.293  1.00  0.00     0.058 A 
ATOM     64  C   UNL A   1      44.144  34.081  30.430  1.00  0.00     0.135 A 
ATOM     65  C   UNL A   1      43.622  33.316  32.650  1.00  0.00     0.135 A 
ATOM     66  F   UNL A   1      44.365  33.849  29.126  1.00  0.00    -0.206 F 
ATOM     67  C   UNL A   1      44.309  35.377  30.903  1.00  0.00     0.059 A 
ATOM     68  C   UNL A   1      43.754  34.612  33.140  1.00  0.00     0.059 A 
ATOM     69  F   UNL A   1      43.316  32.339  33.517  1.00  0.00    -0.206 F 
ATOM     70  C   UNL A   1      44.123  35.631  32.263  1.00  0.00     0.060 A 
BRANCH  70  71
ATOM     71  S   UNL A   1      44.385  37.309  32.873  1.00  0.00     0.124 S 
ATOM     72  O   UNL A   1      44.479  38.059  31.623  1.00  0.00    -0.237 OA
ATOM     73  O   UNL A   1      43.182  37.549  33.663  1.00  0.00    -0.237 OA
ATOM     74  O   UNL A   1      45.624  37.202  33.636  1.00  0.00    -0.744 OA
ENDBRANCH  70  71
ENDBRANCH  49  63
BRANCH  50  75
ATOM     75  C   UNL A   1      42.704  23.757  27.676  1.00  0.00     0.058 A 
ATOM     76  C   UNL A   1      42.523  22.672  28.546  1.00  0.00     0.135 A 
ATOM     77  C   UNL A   1      42.670  23.504  26.296  1.00  0.00     0.135 A 
ATOM     78  F   UNL A   1      42.555  22.865  29.873  1.00  0.00    -0.206 F 
ATOM     79  C   UNL A   1      42.311  21.384  28.068  1.00  0.00     0.059 A 
ATOM     80  C   UNL A   1      42.441  22.227  25.794  1.00  0.00     0.059 A 
ATOM     81  F   UNL A   1      42.823  24.513  25.424  1.00  0.00    -0.206 F 
ATOM     82  C   UNL A   1      42.264  21.172  26.690  1.00  0.00     0.060 A 
BRANCH  82  83
ATOM     83  S   UNL A   1      41.904  19.508  26.082  1.00  0.00     0.124 S 
ATOM     84  O   UNL A   1      42.794  19.418  24.930  1.00  0.00    -0.237 OA
ATOM     85  O   UNL A   1      42.260  18.681  27.231  1.00  0.00    -0.237 OA
ATOM     86  O   UNL A   1      40.477  19.565  25.779  1.00  0.00    -0.744 OA
ENDBRANCH  82  83
ENDBRANCH  50  75
BRANCH  62  87
ATOM     87  C   UNL A   1      48.133  27.327  30.219  1.00  0.00     0.058 A 
ATOM     88  C   UNL A   1      49.097  27.713  29.275  1.00  0.00     0.135 A 
ATOM     89  C   UNL A   1      48.572  26.671  31.379  1.00  0.00     0.135 A 
ATOM     90  F   UNL A   1      48.726  28.333  28.144  1.00  0.00    -0.206 F 
ATOM     91  C   UNL A   1      50.450  27.454  29.474  1.00  0.00     0.059 A 
ATOM     92  C   UNL A   1      49.921  26.422  31.609  1.00  0.00     0.059 A 
ATOM     93  F   UNL A   1      47.688  26.288  32.315  1.00  0.00    -0.206 F 
ATOM     94  C   UNL A   1      50.852  26.814  30.647  1.00  0.00     0.060 A 
BRANCH  94  95
ATOM     95  S   UNL A   1      52.615  26.538  30.921  1.00  0.00     0.124 S 
ATOM     96  O   UNL A   1      53.005  27.773  31.592  1.00  0.00    -0.237 OA
ATOM     97  O   UNL A   1      52.619  25.337  31.750  1.00  0.00    -0.237 OA
ATOM     98  O   UNL A   1      53.144  26.361  29.571  1.00  0.00    -0.744 OA
ENDBRANCH  94  95
ENDBRANCH  62  87
ENDBRANCH  36  37
ENDBRANCH  28  31
ENDBRANCH  26  27
ENDBRANCH  25  26
ENDBRANCH   1  25
TORSDOF 20
ENDMDL
MODEL 2
REMARK VINA RESULT:     -10.3      3.143      9.135
REMARK SMILES COc1ccc(OC)c(C[NH2+][C@@H](C(=O)NCCCCNC(=O)c2ccc(-c3c4nc(c(-c5c(F)cc(S(=O)(=O)[O-])cc5F)c5ccc([nH]5)c(-c5c(F)cc(S(=O)(=O)[O-])cc5F)c5nc(c(-c6c(F)cc(S(=O)(=O)[O-])cc6F)c6ccc3[nH]6)C=C5)C=C4)cc2)C(C)C)c1
REMARK SMILES IDX 17 1 16 2 15 3 13 4 14 5 12 7 11 8 10 11 9 12 3 13 4 14
REMARK SMILES IDX 92 15 5 16 6 17 2 18 1 19 7 20 8 21 89 22 90 23 91 24 18 25
REMARK SMILES IDX 19 26 20 27 21 28 22 30 23 31 24 32 88 33 25 34 87 35 26 36
REMARK SMILES IDX 27 37 28 38 81 39 29 40 86 41 80 42 82 43 30 44 85 45 79 46
REMARK SMILES IDX 78 47 31 49 65 50 44 51 64 52 45 53 48 54 63 55 83 56 46 57
REMARK SMILES IDX 47 58 62 60 84 61 49 62 32 63 33 64 42 65 34 66 35 67 41 68
REMARK SMILES IDX 43 69 36 70 37 71 38 72 39 73 40 74 66 75 67 76 76 77 68 78
REMARK SMILES IDX 69 79 75 80 77 81 70 82 71 83 72 84 73 85 74 86 50 87 51 88
REMARK SMILES IDX 60 89 52 90 53 91 59 92 61 93 54 94 55 95 56 96 57 97 58 98
REMARK H PARENT 15 6 11 9 11 10 20 29 82 48 48 59
REMARK Flexibility Score: inf
ROOT
ATOM      1  C   UNL A   1      35.319  23.516  23.956  1.00  0.00     0.023 C 
ENDROOT
BRANCH   1   2
ATOM      2  C   UNL A   1      34.649  23.834  25.302  1.00  0.00     0.116 C 
BRANCH   2   3
ATOM      3  N   UNL A   1      33.564  22.911  25.610  1.00  0.00    -0.351 N 
ATOM      4  C   UNL A   1      32.220  22.958  25.352  1.00  0.00     0.278 C 
ATOM      5  O   UNL A   1      31.528  22.058  25.840  1.00  0.00    -0.268 OA
ATOM      6  H   UNL A   1      33.852  22.104  26.094  1.00  0.00     0.163 HD
BRANCH   4   7
ATOM      7  C   UNL A   1      31.576  24.117  24.522  1.00  0.00     0.275 C 
BRANCH   7   8
ATOM      8  N   UNL A   1      30.152  24.350  24.934  1.00  0.00    -0.332 N 
ATOM      9  H   UNL A   1      29.560  24.365  24.103  1.00  0.00     0.347 HD
ATOM     10  H   UNL A   1      29.860  23.597  25.558  1.00  0.00     0.347 HD
BRANCH   8  11
ATOM     11  C   UNL A   1      30.028  25.615  25.632  1.00  0.00     0.302 C 
BRANCH  11  12
ATOM     12  C   UNL A   1      30.410  26.902  24.953  1.00  0.00     0.052 A 
ATOM     13  C   UNL A   1      29.760  28.449  23.153  1.00  0.00     0.119 A 
ATOM     14  C   UNL A   1      30.672  29.377  23.635  1.00  0.00     0.050 A 
ATOM     15  C   UNL A   1      29.658  27.217  23.791  1.00  0.00     0.059 A 
ATOM     16  C   UNL A   1      31.432  29.088  24.773  1.00  0.00     0.051 A 
ATOM     17  C   UNL A   1      31.285  27.872  25.455  1.00  0.00     0.127 A 
BRANCH  13  18
ATOM     18  O   UNL A   1      29.042  28.816  22.049  1.00  0.00    -0.497 OA
ATOM     19  C   UNL A   1      29.095  30.203  21.715  1.00  0.00     0.278 C 
ENDBRANCH  13  18
BRANCH  17  20
ATOM     20  O   UNL A   1      32.094  27.739  26.550  1.00  0.00    -0.496 OA
ATOM     21  C   UNL A   1      32.115  28.857  27.432  1.00  0.00     0.278 C 
ENDBRANCH  17  20
ENDBRANCH  11  12
ENDBRANCH   8  11
ENDBRANCH   7   8
BRANCH   7  22
ATOM     22  C   UNL A   1      31.591  23.758  23.006  1.00  0.00     0.051 C 
ATOM     23  C   UNL A   1      32.412  24.757  22.176  1.00  0.00     0.014 C 
ATOM     24  C   UNL A   1      32.150  22.350  22.765  1.00  0.00     0.014 C 
ENDBRANCH   7  22
ENDBRANCH   4   7
ENDBRANCH   2   3
ENDBRANCH   1   2
BRANCH   1  25
ATOM     25  C   UNL A   1      36.781  23.103  24.030  1.00  0.00     0.023 C 
BRANCH  25  26
ATOM     26  C   UNL A   1      37.377  23.214  25.420  1.00  0.00     0.116 C 
BRANCH  26  27
ATOM     27  N   UNL A   1      38.664  22.533  25.544  1.00  0.00    -0.352 N 
ATOM     28  C   UNL A   1      39.835  22.978  26.118  1.00  0.00     0.251 C 
ATOM     29  H   UNL A   1      38.699  21.626  25.164  1.00  0.00     0.163 HD
ATOM     30  O   UNL A   1      40.858  22.317  26.029  1.00  0.00    -0.269 OA
BRANCH  28  31
ATOM     31  C   UNL A   1      39.839  24.290  26.797  1.00  0.00     0.039 A 
ATOM     32  C   UNL A   1      39.179  24.424  28.020  1.00  0.00     0.014 A 
ATOM     33  C   UNL A   1      40.589  25.343  26.272  1.00  0.00     0.014 A 
ATOM     34  C   UNL A   1      39.369  25.584  28.773  1.00  0.00     0.010 A 
ATOM     35  C   UNL A   1      40.860  26.446  27.068  1.00  0.00     0.010 A 
ATOM     36  C   UNL A   1      40.263  26.572  28.332  1.00  0.00    -0.014 A 
BRANCH  36  37
ATOM     37  C   UNL A   1      40.622  27.739  29.176  1.00  0.00     0.031 A 
ATOM     38  C   UNL A   1      41.896  27.719  29.971  1.00  0.00     0.074 A 
ATOM     39  C   UNL A   1      39.750  28.759  29.310  1.00  0.00     0.049 A 
ATOM     40  N   UNL A   1      42.324  28.569  30.867  1.00  0.00    -0.248 NA
ATOM     41  C   UNL A   1      42.790  26.569  29.757  1.00  0.00     0.031 C 
ATOM     42  C   UNL A   1      38.456  28.866  28.633  1.00  0.00     0.029 A 
ATOM     43  N   UNL A   1      39.817  29.896  30.075  1.00  0.00    -0.354 N 
ATOM     44  C   UNL A   1      43.520  28.046  31.340  1.00  0.00     0.074 A 
ATOM     45  C   UNL A   1      43.718  26.774  30.678  1.00  0.00     0.031 C 
ATOM     46  C   UNL A   1      37.868  30.021  28.985  1.00  0.00     0.029 A 
ATOM     47  C   UNL A   1      38.717  30.713  29.948  1.00  0.00     0.049 A 
ATOM     48  H   UNL A   1      40.579  30.108  30.660  1.00  0.00     0.167 HD
ATOM     49  C   UNL A   1      44.390  28.587  32.226  1.00  0.00     0.037 A 
ATOM     50  C   UNL A   1      38.424  31.884  30.546  1.00  0.00     0.037 A 
ATOM     51  C   UNL A   1      44.202  29.866  32.853  1.00  0.00     0.049 A 
ATOM     52  C   UNL A   1      39.395  32.460  31.537  1.00  0.00     0.074 A 
ATOM     53  C   UNL A   1      45.056  30.543  33.704  1.00  0.00     0.029 A 
ATOM     54  N   UNL A   1      43.075  30.663  32.698  1.00  0.00    -0.354 N 
ATOM     55  N   UNL A   1      40.553  31.983  31.928  1.00  0.00    -0.248 NA
ATOM     56  C   UNL A   1      39.018  33.728  32.177  1.00  0.00     0.031 C 
ATOM     57  C   UNL A   1      44.431  31.733  34.094  1.00  0.00     0.029 A 
ATOM     58  C   UNL A   1      43.201  31.813  33.459  1.00  0.00     0.049 A 
ATOM     59  H   UNL A   1      42.302  30.443  32.131  1.00  0.00     0.167 HD
ATOM     60  C   UNL A   1      41.049  32.897  32.849  1.00  0.00     0.074 A 
ATOM     61  C   UNL A   1      40.072  33.962  32.949  1.00  0.00     0.031 C 
ATOM     62  C   UNL A   1      42.210  32.857  33.549  1.00  0.00     0.037 A 
BRANCH  49  63
ATOM     63  C   UNL A   1      45.620  27.786  32.553  1.00  0.00     0.058 A 
ATOM     64  C   UNL A   1      46.768  27.841  31.746  1.00  0.00     0.135 A 
ATOM     65  C   UNL A   1      45.642  26.934  33.668  1.00  0.00     0.135 A 
ATOM     66  F   UNL A   1      46.793  28.628  30.658  1.00  0.00    -0.206 F 
ATOM     67  C   UNL A   1      47.875  27.040  32.003  1.00  0.00     0.059 A 
ATOM     68  C   UNL A   1      46.751  26.145  33.960  1.00  0.00     0.059 A 
ATOM     69  F   UNL A   1      44.571  26.843  34.472  1.00  0.00    -0.206 F 
ATOM     70  C   UNL A   1      47.852  26.187  33.106  1.00  0.00     0.060 A 
BRANCH  70  71
ATOM     71  S   UNL A   1      49.277  25.119  33.402  1.00  0.00     0.124 S 
ATOM     72  O   UNL A   1      50.050  25.923  34.345  1.00  0.00    -0.237 OA
ATOM     73  O   UNL A   1      48.661  23.917  33.955  1.00  0.00    -0.237 OA
ATOM     74  O   UNL A   1      49.866  24.965  32.076  1.00  0.00    -0.744 OA
ENDBRANCH  70  71
ENDBRANCH  49  63
BRANCH  50  75
ATOM     75  C   UNL A   1      37.169  32.598  30.194  1.00  0.00     0.058 A 
ATOM     76  C   UNL A   1      36.005  32.405  30.954  1.00  0.00     0.135 A 
ATOM     77  C   UNL A   1      37.117  33.517  29.136  1.00  0.00     0.135 A 
ATOM     78  F   UNL A   1      36.006  31.532  31.971  1.00  0.00    -0.206 F 
ATOM     79  C   UNL A   1      34.833  33.101  30.678  1.00  0.00     0.059 A 
ATOM     80  C   UNL A   1      35.961  34.238  28.852  1.00  0.00     0.059 A 
ATOM     81  F   UNL A   1      38.209  33.746  28.390  1.00  0.00    -0.206 F 
ATOM     82  C   UNL A   1      34.823  34.022  29.629  1.00  0.00     0.060 A 
BRANCH  82  83
ATOM     83  S   UNL A   1      33.320  34.980  29.335  1.00  0.00     0.124 S 
ATOM     84  O   UNL A   1      32.657  34.180  28.312  1.00  0.00    -0.237 OA
ATOM     85  O   UNL A   1      32.693  34.978  30.653  1.00  0.00    -0.237 OA
ATOM     86  O   UNL A   1      33.830  36.275  28.895  1.00  0.00    -0.744 OA
ENDBRANCH  82  83
ENDBRANCH  50  75
BRANCH  62  87
ATOM     87  C   UNL A   1      42.491  33.998  34.484  1.00  0.00     0.058 A 
ATOM     88  C   UNL A   1      42.068  33.965  35.822  1.00  0.00     0.135 A 
ATOM     89  C   UNL A   1      43.250  35.099  34.060  1.00  0.00     0.135 A 
ATOM     90  F   UNL A   1      41.330  32.938  36.272  1.00  0.00    -0.206 F 
ATOM     91  C   UNL A   1      42.386  34.989  36.708  1.00  0.00     0.059 A 
ATOM     92  C   UNL A   1      43.598  36.124  34.933  1.00  0.00     0.059 A 
ATOM     93  F   UNL A   1      43.683  35.174  32.791  1.00  0.00    -0.206 F 
ATOM     94  C   UNL A   1      43.157  36.062  36.255  1.00  0.00     0.060 A 
BRANCH  94  95
ATOM     95  S   UNL A   1      43.613  37.354  37.430  1.00  0.00     0.124 S 
ATOM     96  O   UNL A   1      43.913  38.469  36.539  1.00  0.00    -0.237 OA
ATOM     97  O   UNL A   1      42.400  37.490  38.231  1.00  0.00    -0.237 OA
ATOM     98  O   UNL A   1      44.759  36.784  38.133  1.00  0.00    -0.744 OA
ENDBRANCH  94  95
ENDBRANCH  62  87
ENDBRANCH  36  37
ENDBRANCH  28  31
ENDBRANCH  26  27
ENDBRANCH  25  26
ENDBRANCH   1  25
TORSDOF 20
ENDMDL
MODEL 3
REMARK VINA RESULT:     -10.2      3.477      7.954
REMARK SMILES COc1ccc(OC)c(C[NH2+][C@@H](C(=O)NCCCCNC(=O)c2ccc(-c3c4nc(c(-c5c(F)cc(S(=O)(=O)[O-])cc5F)c5ccc([nH]5)c(-c5c(F)cc(S(=O)(=O)[O-])cc5F)c5nc(c(-c6c(F)cc(S(=O)(=O)[O-])cc6F)c6ccc3[nH]6)C=C5)C=C4)cc2)C(C)C)c1
REMARK SMILES IDX 17 1 16 2 15 3 13 4 14 5 12 7 11 8 10 11 9 12 3 13 4 14
REMARK SMILES IDX 92 15 5 16 6 17 2 18 1 19 7 20 8 21 89 22 90 23 91 24 18 25
REMARK SMILES IDX 19 26 20 27 21 28 22 30 23 31 24 32 88 33 25 34 87 35 26 36
REMARK SMILES IDX 27 37 28 38 81 39 29 40 86 41 80 42 82 43 30 44 85 45 79 46
REMARK SMILES IDX 78 47 31 49 65 50 44 51 64 52 45 53 48 54 63 55 83 56 46 57
REMARK SMILES IDX 47 58 62 60 84 61 49 62 32 63 33 64 42 65 34 66 35 67 41 68
REMARK SMILES IDX 43 69 36 70 37 71 38 72 39 73 40 74 66 75 67 76 76 77 68 78
REMARK SMILES IDX 69 79 75 80 77 81 70 82 71 83 72 84 73 85 74 86 50 87 51 88
REMARK SMILES IDX 60 89 52 90 53 91 59 92 61 93 54 94 55 95 56 96 57 97 58 98
REMARK H PARENT 15 6 11 9 11 10 20 29 82 48 48 59
REMARK Flexibility Score: inf
ROOT
ATOM      1  C   UNL A   1      37.528  22.569  24.779  1.00  0.00     0.023 C 
ENDROOT
BRANCH   1   2
ATOM      2  C   UNL A   1      37.068  23.622  25.799  1.00  0.00     0.116 C 
BRANCH   2   3
ATOM      3  N   UNL A   1      36.098  23.086  26.745  1.00  0.00    -0.351 N 
ATOM      4  C   UNL A   1      34.769  22.777  26.620  1.00  0.00     0.278 C 
ATOM      5  O   UNL A   1      34.179  22.432  27.649  1.00  0.00    -0.268 OA
ATOM      6  H   UNL A   1      36.467  22.913  27.641  1.00  0.00     0.163 HD
BRANCH   4   7
ATOM      7  C   UNL A   1      34.015  22.902  25.255  1.00  0.00     0.275 C 
BRANCH   7   8
ATOM      8  N   UNL A   1      33.013  24.018  25.291  1.00  0.00    -0.332 N 
ATOM      9  H   UNL A   1      32.429  23.973  24.455  1.00  0.00     0.347 HD
ATOM     10  H   UNL A   1      32.436  23.918  26.127  1.00  0.00     0.347 HD
BRANCH   8  11
ATOM     11  C   UNL A   1      33.686  25.302  25.335  1.00  0.00     0.302 C 
BRANCH  11  12
ATOM     12  C   UNL A   1      32.935  26.568  25.027  1.00  0.00     0.052 A 
ATOM     13  C   UNL A   1      32.929  28.999  25.412  1.00  0.00     0.119 A 
ATOM     14  C   UNL A   1      31.944  29.139  24.444  1.00  0.00     0.050 A 
ATOM     15  C   UNL A   1      33.392  27.722  25.715  1.00  0.00     0.059 A 
ATOM     16  C   UNL A   1      31.469  28.016  23.758  1.00  0.00     0.051 A 
ATOM     17  C   UNL A   1      31.980  26.737  24.018  1.00  0.00     0.127 A 
BRANCH  13  18
ATOM     18  O   UNL A   1      33.353  30.147  26.022  1.00  0.00    -0.497 OA
ATOM     19  C   UNL A   1      32.575  30.568  27.144  1.00  0.00     0.278 C 
ENDBRANCH  13  18
BRANCH  17  20
ATOM     20  O   UNL A   1      31.420  25.744  23.263  1.00  0.00    -0.496 OA
ATOM     21  C   UNL A   1      30.113  25.340  23.659  1.00  0.00     0.278 C 
ENDBRANCH  17  20
ENDBRANCH  11  12
ENDBRANCH   8  11
ENDBRANCH   7   8
BRANCH   7  22
ATOM     22  C   UNL A   1      33.257  21.577  24.943  1.00  0.00     0.051 C 
ATOM     23  C   UNL A   1      32.455  21.654  23.635  1.00  0.00     0.014 C 
ATOM     24  C   UNL A   1      34.219  20.384  24.855  1.00  0.00     0.014 C 
ENDBRANCH   7  22
ENDBRANCH   4   7
ENDBRANCH   2   3
ENDBRANCH   1   2
BRANCH   1  25
ATOM     25  C   UNL A   1      37.984  21.241  25.364  1.00  0.00     0.023 C 
BRANCH  25  26
ATOM     26  C   UNL A   1      39.340  21.306  26.042  1.00  0.00     0.116 C 
BRANCH  26  27
ATOM     27  N   UNL A   1      40.050  20.030  26.020  1.00  0.00    -0.352 N 
ATOM     28  C   UNL A   1      41.401  19.781  26.125  1.00  0.00     0.251 C 
ATOM     29  H   UNL A   1      39.481  19.234  25.915  1.00  0.00     0.163 HD
ATOM     30  O   UNL A   1      41.837  18.650  25.968  1.00  0.00    -0.269 OA
BRANCH  28  31
ATOM     31  C   UNL A   1      42.314  20.913  26.382  1.00  0.00     0.039 A 
ATOM     32  C   UNL A   1      42.810  21.646  25.303  1.00  0.00     0.014 A 
ATOM     33  C   UNL A   1      42.582  21.307  27.694  1.00  0.00     0.014 A 
ATOM     34  C   UNL A   1      43.481  22.846  25.543  1.00  0.00     0.010 A 
ATOM     35  C   UNL A   1      43.155  22.548  27.927  1.00  0.00     0.010 A 
ATOM     36  C   UNL A   1      43.599  23.336  26.853  1.00  0.00    -0.014 A 
BRANCH  36  37
ATOM     37  C   UNL A   1      44.155  24.682  27.141  1.00  0.00     0.031 A 
ATOM     38  C   UNL A   1      43.238  25.789  27.575  1.00  0.00     0.074 A 
ATOM     39  C   UNL A   1      45.459  24.930  26.903  1.00  0.00     0.049 A 
ATOM     40  N   UNL A   1      43.498  27.059  27.742  1.00  0.00    -0.248 NA
ATOM     41  C   UNL A   1      41.832  25.425  27.816  1.00  0.00     0.031 C 
ATOM     42  C   UNL A   1      46.438  23.950  26.427  1.00  0.00     0.029 A 
ATOM     43  N   UNL A   1      46.183  26.090  27.018  1.00  0.00    -0.354 N 
ATOM     44  C   UNL A   1      42.287  27.648  28.082  1.00  0.00     0.074 A 
ATOM     45  C   UNL A   1      41.282  26.609  28.037  1.00  0.00     0.031 C 
ATOM     46  C   UNL A   1      47.639  24.541  26.324  1.00  0.00     0.029 A 
ATOM     47  C   UNL A   1      47.509  25.950  26.678  1.00  0.00     0.049 A 
ATOM     48  H   UNL A   1      45.791  26.942  27.314  1.00  0.00     0.167 HD
ATOM     49  C   UNL A   1      42.039  28.934  28.429  1.00  0.00     0.037 A 
ATOM     50  C   UNL A   1      48.504  26.856  26.650  1.00  0.00     0.037 A 
ATOM     51  C   UNL A   1      43.050  29.953  28.505  1.00  0.00     0.049 A 
ATOM     52  C   UNL A   1      48.205  28.281  27.023  1.00  0.00     0.074 A 
ATOM     53  C   UNL A   1      42.922  31.266  28.920  1.00  0.00     0.029 A 
ATOM     54  N   UNL A   1      44.381  29.771  28.154  1.00  0.00    -0.354 N 
ATOM     55  N   UNL A   1      47.067  28.811  27.403  1.00  0.00    -0.248 NA
ATOM     56  C   UNL A   1      49.321  29.234  26.955  1.00  0.00     0.031 C 
ATOM     57  C   UNL A   1      44.167  31.889  28.785  1.00  0.00     0.029 A 
ATOM     58  C   UNL A   1      45.080  30.955  28.318  1.00  0.00     0.049 A 
ATOM     59  H   UNL A   1      44.771  28.925  27.836  1.00  0.00     0.167 HD
ATOM     60  C   UNL A   1      47.330  30.155  27.632  1.00  0.00     0.074 A 
ATOM     61  C   UNL A   1      48.739  30.356  27.359  1.00  0.00     0.031 C 
ATOM     62  C   UNL A   1      46.481  31.135  28.032  1.00  0.00     0.037 A 
BRANCH  49  63
ATOM     63  C   UNL A   1      40.615  29.292  28.753  1.00  0.00     0.058 A 
ATOM     64  C   UNL A   1      40.182  29.454  30.079  1.00  0.00     0.135 A 
ATOM     65  C   UNL A   1      39.667  29.448  27.730  1.00  0.00     0.135 A 
ATOM     66  F   UNL A   1      41.046  29.299  31.096  1.00  0.00    -0.206 F 
ATOM     67  C   UNL A   1      38.849  29.705  30.383  1.00  0.00     0.059 A 
ATOM     68  C   UNL A   1      38.332  29.728  28.010  1.00  0.00     0.059 A 
ATOM     69  F   UNL A   1      40.027  29.304  26.445  1.00  0.00    -0.206 F 
ATOM     70  C   UNL A   1      37.929  29.829  29.341  1.00  0.00     0.060 A 
BRANCH  70  71
ATOM     71  S   UNL A   1      36.194  30.110  29.750  1.00  0.00     0.124 S 
ATOM     72  O   UNL A   1      35.526  29.521  28.593  1.00  0.00    -0.237 OA
ATOM     73  O   UNL A   1      36.043  29.378  31.005  1.00  0.00    -0.237 OA
ATOM     74  O   UNL A   1      36.102  31.562  29.858  1.00  0.00    -0.744 OA
ENDBRANCH  70  71
ENDBRANCH  49  63
BRANCH  50  75
ATOM     75  C   UNL A   1      49.880  26.430  26.283  1.00  0.00     0.058 A 
ATOM     76  C   UNL A   1      50.342  26.575  24.967  1.00  0.00     0.135 A 
ATOM     77  C   UNL A   1      50.773  25.922  27.239  1.00  0.00     0.135 A 
ATOM     78  F   UNL A   1      49.523  27.051  24.018  1.00  0.00    -0.206 F 
ATOM     79  C   UNL A   1      51.642  26.233  24.610  1.00  0.00     0.059 A 
ATOM     80  C   UNL A   1      52.083  25.589  26.910  1.00  0.00     0.059 A 
ATOM     81  F   UNL A   1      50.381  25.778  28.515  1.00  0.00    -0.206 F 
ATOM     82  C   UNL A   1      52.508  25.748  25.591  1.00  0.00     0.060 A 
BRANCH  82  83
ATOM     83  S   UNL A   1      54.218  25.387  25.133  1.00  0.00     0.124 S 
ATOM     84  O   UNL A   1      54.360  26.153  23.900  1.00  0.00    -0.237 OA
ATOM     85  O   UNL A   1      54.956  25.891  26.287  1.00  0.00    -0.237 OA
ATOM     86  O   UNL A   1      54.223  23.935  24.981  1.00  0.00    -0.744 OA
ENDBRANCH  82  83
ENDBRANCH  50  75
BRANCH  62  87
ATOM     87  C   UNL A   1      47.052  32.513  28.201  1.00  0.00     0.058 A 
ATOM     88  C   UNL A   1      47.721  32.885  29.377  1.00  0.00     0.135 A 
ATOM     89  C   UNL A   1      46.993  33.445  27.153  1.00  0.00     0.135 A 
ATOM     90  F   UNL A   1      47.794  32.033  30.412  1.00  0.00    -0.206 F 
ATOM     91  C   UNL A   1      48.310  34.138  29.510  1.00  0.00     0.059 A 
ATOM     92  C   UNL A   1      47.593  34.695  27.255  1.00  0.00     0.059 A 
ATOM     93  F   UNL A   1      46.370  33.133  26.006  1.00  0.00    -0.206 F 
ATOM     94  C   UNL A   1      48.246  35.034  28.441  1.00  0.00     0.060 A 
BRANCH  94  95
ATOM     95  S   UNL A   1      49.066  36.634  28.604  1.00  0.00     0.124 S 
ATOM     96  O   UNL A   1      49.866  36.434  29.806  1.00  0.00    -0.237 OA
ATOM     97  O   UNL A   1      49.813  36.731  27.353  1.00  0.00    -0.237 OA
ATOM     98  O   UNL A   1      47.955  37.573  28.736  1.00  0.00    -0.744 OA
ENDBRANCH  94  95
ENDBRANCH  62  87
ENDBRANCH  36  37
ENDBRANCH  28  31
ENDBRANCH  26  27
ENDBRANCH  25  26
ENDBRANCH   1  25
TORSDOF 20
ENDMDL
