MODEL 1
REMARK VINA RESULT:     -13.5      0.000      0.000
REMARK SMILES Cc1cc2nc(NC(=O)[C@H]3[C@@H](C(=O)NCCCCNC(=O)c4ccc(-c5c6nc(c(-c7c(F)cc(S(=O)(=O)[O-])cc7F)c7ccc([nH]7)c(-c7c(F)cc(S(=O)(=O)[O-])cc7F)c7nc(c(-c8c(F)cc(S(=O)(=O)[O-])cc8F)c8ccc5[nH]8)C=C7)C=C6)cc4)[C@@H]4C=C[C@H]3C4)sc2cc1C
REMARK SMILES IDX 17 1 16 2 15 3 14 4 12 5 13 6 11 8 10 9 91 10 88 11 90 12
REMARK SMILES IDX 92 13 89 14 8 15 7 16 9 18 6 19 1 20 2 21 3 22 96 23 4 24
REMARK SMILES IDX 95 25 97 26 5 27 94 28 93 29 18 30 19 31 20 32 21 34 22 35
REMARK SMILES IDX 23 36 87 37 24 38 86 39 25 40 26 41 27 42 80 43 28 44 85 45
REMARK SMILES IDX 79 46 81 47 29 48 84 49 78 50 77 51 30 53 64 54 43 55 63 56
REMARK SMILES IDX 44 57 47 58 62 59 82 60 45 61 46 62 61 64 83 65 48 66 31 67
REMARK SMILES IDX 32 68 41 69 33 70 34 71 40 72 42 73 35 74 36 75 37 76 38 77
REMARK SMILES IDX 39 78 65 79 66 80 75 81 67 82 68 83 74 84 76 85 69 86 70 87
REMARK SMILES IDX 71 88 72 89 73 90 49 91 50 92 59 93 51 94 52 95 58 96 60 97
REMARK SMILES IDX 53 98 54 99 55 100 56 101 57 102
REMARK H PARENT 14 7 7 17 19 33 81 52 47 63
REMARK Flexibility Score: inf
ROOT
ATOM      1  C   UNL A   1      36.728  23.270  24.164  1.00  0.00     0.023 C 
ENDROOT
BRANCH   1   2
ATOM      2  C   UNL A   1      35.227  23.453  23.921  1.00  0.00     0.023 C 
BRANCH   2   3
ATOM      3  C   UNL A   1      34.503  24.695  24.435  1.00  0.00     0.116 C 
BRANCH   3   4
ATOM      4  N   UNL A   1      34.204  25.744  23.502  1.00  0.00    -0.356 N 
ATOM      5  C   UNL A   1      33.533  26.910  23.688  1.00  0.00     0.224 C 
ATOM      6  O   UNL A   1      33.268  27.544  22.656  1.00  0.00    -0.275 OA
ATOM      7  H   UNL A   1      34.536  25.595  22.587  1.00  0.00     0.163 HD
BRANCH   5   8
ATOM      8  C   UNL A   1      33.028  27.461  25.030  1.00  0.00     0.098 C 
ATOM      9  C   UNL A   1      31.532  27.859  25.302  1.00  0.00     0.099 C 
ATOM     10  C   UNL A   1      31.693  29.160  26.119  1.00  0.00     0.025 C 
ATOM     11  C   UNL A   1      33.827  28.652  25.636  1.00  0.00     0.025 C 
ATOM     12  C   UNL A   1      32.395  28.856  27.431  1.00  0.00    -0.027 C 
ATOM     13  C   UNL A   1      32.888  29.836  25.435  1.00  0.00     0.017 C 
ATOM     14  C   UNL A   1      33.678  28.580  27.148  1.00  0.00    -0.027 C 
BRANCH   9  15
ATOM     15  C   UNL A   1      30.549  27.656  24.139  1.00  0.00     0.230 C 
ATOM     16  N   UNL A   1      30.186  26.512  23.508  1.00  0.00    -0.302 N 
ATOM     17  H   UNL A   1      29.672  26.639  22.677  1.00  0.00     0.172 HD
ATOM     18  O   UNL A   1      29.995  28.679  23.695  1.00  0.00    -0.274 OA
BRANCH  16  19
ATOM     19  C   UNL A   1      30.421  25.212  23.845  1.00  0.00     0.190 A 
ATOM     20  C   UNL A   1      32.897  19.795  23.391  1.00  0.00     0.044 C 
ATOM     21  C   UNL A   1      32.369  21.039  24.051  1.00  0.00    -0.046 A 
ATOM     22  C   UNL A   1      31.756  21.998  23.234  1.00  0.00     0.033 A 
ATOM     23  C   UNL A   1      32.462  21.268  25.436  1.00  0.00    -0.047 A 
ATOM     24  C   UNL A   1      31.236  23.176  23.790  1.00  0.00     0.084 A 
ATOM     25  C   UNL A   1      31.921  22.445  26.005  1.00  0.00     0.025 A 
ATOM     26  C   UNL A   1      33.160  20.306  26.363  1.00  0.00     0.044 C 
ATOM     27  N   UNL A   1      30.707  24.217  23.066  1.00  0.00    -0.220 NA
ATOM     28  C   UNL A   1      31.293  23.374  25.163  1.00  0.00     0.057 A 
ATOM     29  S   UNL A   1      30.490  24.860  25.513  1.00  0.00    -0.097 S 
ENDBRANCH  16  19
ENDBRANCH   9  15
ENDBRANCH   5   8
ENDBRANCH   3   4
ENDBRANCH   2   3
ENDBRANCH   1   2
BRANCH   1  30
ATOM     30  C   UNL A   1      37.183  22.571  25.442  1.00  0.00     0.116 C 
BRANCH  30  31
ATOM     31  N   UNL A   1      38.567  22.146  25.460  1.00  0.00    -0.352 N 
ATOM     32  C   UNL A   1      39.550  22.275  26.409  1.00  0.00     0.251 C 
ATOM     33  H   UNL A   1      38.856  21.679  24.643  1.00  0.00     0.163 HD
ATOM     34  O   UNL A   1      40.268  21.297  26.625  1.00  0.00    -0.269 OA
BRANCH  32  35
ATOM     35  C   UNL A   1      39.926  23.589  26.975  1.00  0.00     0.039 A 
ATOM     36  C   UNL A   1      41.103  23.829  27.675  1.00  0.00     0.014 A 
ATOM     37  C   UNL A   1      38.960  24.609  26.866  1.00  0.00     0.014 A 
ATOM     38  C   UNL A   1      41.265  25.033  28.347  1.00  0.00     0.010 A 
ATOM     39  C   UNL A   1      39.129  25.822  27.519  1.00  0.00     0.010 A 
ATOM     40  C   UNL A   1      40.264  26.013  28.298  1.00  0.00    -0.014 A 
BRANCH  40  41
ATOM     41  C   UNL A   1      40.527  27.285  28.966  1.00  0.00     0.031 A 
ATOM     42  C   UNL A   1      41.652  28.058  28.363  1.00  0.00     0.074 A 
ATOM     43  C   UNL A   1      39.779  27.778  29.974  1.00  0.00     0.049 A 
ATOM     44  N   UNL A   1      42.786  28.360  28.905  1.00  0.00    -0.248 NA
ATOM     45  C   UNL A   1      41.565  28.400  26.933  1.00  0.00     0.031 C 
ATOM     46  C   UNL A   1      38.513  27.271  30.508  1.00  0.00     0.029 A 
ATOM     47  N   UNL A   1      39.971  28.919  30.693  1.00  0.00    -0.354 N 
ATOM     48  C   UNL A   1      43.492  29.089  27.949  1.00  0.00     0.074 A 
ATOM     49  C   UNL A   1      42.758  28.959  26.717  1.00  0.00     0.031 C 
ATOM     50  C   UNL A   1      37.947  28.218  31.292  1.00  0.00     0.029 A 
ATOM     51  C   UNL A   1      38.865  29.337  31.425  1.00  0.00     0.049 A 
ATOM     52  H   UNL A   1      40.825  29.408  30.695  1.00  0.00     0.167 HD
ATOM     53  C   UNL A   1      44.539  29.895  28.282  1.00  0.00     0.037 A 
ATOM     54  C   UNL A   1      38.706  30.541  32.034  1.00  0.00     0.037 A 
ATOM     55  C   UNL A   1      45.029  29.601  29.601  1.00  0.00     0.049 A 
ATOM     56  C   UNL A   1      40.067  31.110  32.231  1.00  0.00     0.074 A 
ATOM     57  C   UNL A   1      45.626  28.502  30.188  1.00  0.00     0.029 A 
ATOM     58  N   UNL A   1      44.600  30.395  30.637  1.00  0.00    -0.354 N 
ATOM     59  N   UNL A   1      40.953  30.600  33.043  1.00  0.00    -0.248 NA
ATOM     60  C   UNL A   1      40.607  31.958  31.177  1.00  0.00     0.031 C 
ATOM     61  C   UNL A   1      45.095  28.456  31.508  1.00  0.00     0.029 A 
ATOM     62  C   UNL A   1      44.256  29.560  31.670  1.00  0.00     0.049 A 
ATOM     63  H   UNL A   1      44.549  31.378  30.637  1.00  0.00     0.167 HD
ATOM     64  C   UNL A   1      42.160  30.702  32.367  1.00  0.00     0.074 A 
ATOM     65  C   UNL A   1      41.896  31.615  31.255  1.00  0.00     0.031 C 
ATOM     66  C   UNL A   1      43.181  29.826  32.599  1.00  0.00     0.037 A 
BRANCH  53  67
ATOM     67  C   UNL A   1      44.916  31.157  27.551  1.00  0.00     0.058 A 
ATOM     68  C   UNL A   1      46.111  31.202  26.804  1.00  0.00     0.135 A 
ATOM     69  C   UNL A   1      44.295  32.402  27.792  1.00  0.00     0.135 A 
ATOM     70  F   UNL A   1      46.786  30.077  26.523  1.00  0.00    -0.206 F 
ATOM     71  C   UNL A   1      46.685  32.405  26.390  1.00  0.00     0.059 A 
ATOM     72  C   UNL A   1      44.824  33.607  27.344  1.00  0.00     0.059 A 
ATOM     73  F   UNL A   1      43.202  32.514  28.557  1.00  0.00    -0.206 F 
ATOM     74  C   UNL A   1      46.041  33.604  26.682  1.00  0.00     0.060 A 
BRANCH  74  75
ATOM     75  S   UNL A   1      46.835  35.163  26.255  1.00  0.00     0.124 S 
ATOM     76  O   UNL A   1      45.678  36.037  26.071  1.00  0.00    -0.237 OA
ATOM     77  O   UNL A   1      47.646  35.422  27.442  1.00  0.00    -0.237 OA
ATOM     78  O   UNL A   1      47.581  34.844  25.048  1.00  0.00    -0.744 OA
ENDBRANCH  74  75
ENDBRANCH  53  67
BRANCH  54  79
ATOM     79  C   UNL A   1      37.471  31.373  32.119  1.00  0.00     0.058 A 
ATOM     80  C   UNL A   1      37.034  31.920  33.341  1.00  0.00     0.135 A 
ATOM     81  C   UNL A   1      36.851  31.887  30.961  1.00  0.00     0.135 A 
ATOM     82  F   UNL A   1      37.578  31.509  34.497  1.00  0.00    -0.206 F 
ATOM     83  C   UNL A   1      36.085  32.951  33.407  1.00  0.00     0.059 A 
ATOM     84  C   UNL A   1      35.898  32.904  31.001  1.00  0.00     0.059 A 
ATOM     85  F   UNL A   1      37.223  31.481  29.738  1.00  0.00    -0.206 F 
ATOM     86  C   UNL A   1      35.540  33.453  32.226  1.00  0.00     0.060 A 
BRANCH  86  87
ATOM     87  S   UNL A   1      34.457  34.902  32.286  1.00  0.00     0.124 S 
ATOM     88  O   UNL A   1      35.147  35.758  33.244  1.00  0.00    -0.237 OA
ATOM     89  O   UNL A   1      34.472  35.353  30.898  1.00  0.00    -0.237 OA
ATOM     90  O   UNL A   1      33.184  34.354  32.744  1.00  0.00    -0.744 OA
ENDBRANCH  86  87
ENDBRANCH  54  79
BRANCH  66  91
ATOM     91  C   UNL A   1      43.073  28.897  33.782  1.00  0.00     0.058 A 
ATOM     92  C   UNL A   1      43.379  29.264  35.104  1.00  0.00     0.135 A 
ATOM     93  C   UNL A   1      42.464  27.648  33.589  1.00  0.00     0.135 A 
ATOM     94  F   UNL A   1      43.865  30.480  35.388  1.00  0.00    -0.206 F 
ATOM     95  C   UNL A   1      43.124  28.413  36.182  1.00  0.00     0.059 A 
ATOM     96  C   UNL A   1      42.171  26.797  34.651  1.00  0.00     0.059 A 
ATOM     97  F   UNL A   1      42.089  27.267  32.356  1.00  0.00    -0.206 F 
ATOM     98  C   UNL A   1      42.513  27.182  35.945  1.00  0.00     0.060 A 
BRANCH  98  99
ATOM     99  S   UNL A   1      42.103  26.122  37.348  1.00  0.00     0.124 S 
ATOM    100  O   UNL A   1      43.134  26.481  38.316  1.00  0.00    -0.237 OA
ATOM    101  O   UNL A   1      40.747  26.549  37.682  1.00  0.00    -0.237 OA
ATOM    102  O   UNL A   1      42.204  24.772  36.800  1.00  0.00    -0.744 OA
ENDBRANCH  98  99
ENDBRANCH  66  91
ENDBRANCH  40  41
ENDBRANCH  32  35
ENDBRANCH  30  31
ENDBRANCH   1  30
TORSDOF 16
ENDMDL
MODEL 2
REMARK VINA RESULT:     -13.3      1.630      3.838
REMARK SMILES Cc1cc2nc(NC(=O)[C@H]3[C@@H](C(=O)NCCCCNC(=O)c4ccc(-c5c6nc(c(-c7c(F)cc(S(=O)(=O)[O-])cc7F)c7ccc([nH]7)c(-c7c(F)cc(S(=O)(=O)[O-])cc7F)c7nc(c(-c8c(F)cc(S(=O)(=O)[O-])cc8F)c8ccc5[nH]8)C=C7)C=C6)cc4)[C@@H]4C=C[C@H]3C4)sc2cc1C
REMARK SMILES IDX 17 1 16 2 15 3 14 4 12 5 13 6 11 8 10 9 91 10 88 11 90 12
REMARK SMILES IDX 92 13 89 14 8 15 7 16 9 18 6 19 1 20 2 21 3 22 96 23 4 24
REMARK SMILES IDX 95 25 97 26 5 27 94 28 93 29 18 30 19 31 20 32 21 34 22 35
REMARK SMILES IDX 23 36 87 37 24 38 86 39 25 40 26 41 27 42 80 43 28 44 85 45
REMARK SMILES IDX 79 46 81 47 29 48 84 49 78 50 77 51 30 53 64 54 43 55 63 56
REMARK SMILES IDX 44 57 47 58 62 59 82 60 45 61 46 62 61 64 83 65 48 66 31 67
REMARK SMILES IDX 32 68 41 69 33 70 34 71 40 72 42 73 35 74 36 75 37 76 38 77
REMARK SMILES IDX 39 78 65 79 66 80 75 81 67 82 68 83 74 84 76 85 69 86 70 87
REMARK SMILES IDX 71 88 72 89 73 90 49 91 50 92 59 93 51 94 52 95 58 96 60 97
REMARK SMILES IDX 53 98 54 99 55 100 56 101 57 102
REMARK H PARENT 14 7 7 17 19 33 81 52 47 63
REMARK Flexibility Score: inf
ROOT
ATOM      1  C   UNL A   1      35.590  22.593  25.673  1.00  0.00     0.023 C 
ENDROOT
BRANCH   1   2
ATOM      2  C   UNL A   1      34.698  23.186  26.767  1.00  0.00     0.023 C 
BRANCH   2   3
ATOM      3  C   UNL A   1      33.863  22.277  27.667  1.00  0.00     0.116 C 
BRANCH   3   4
ATOM      4  N   UNL A   1      32.444  22.487  27.718  1.00  0.00    -0.356 N 
ATOM      5  C   UNL A   1      31.635  23.181  26.876  1.00  0.00     0.224 C 
ATOM      6  O   UNL A   1      30.470  23.344  27.270  1.00  0.00    -0.275 OA
ATOM      7  H   UNL A   1      31.988  22.064  28.481  1.00  0.00     0.163 HD
BRANCH   5   8
ATOM      8  C   UNL A   1      32.050  23.822  25.544  1.00  0.00     0.098 C 
ATOM      9  C   UNL A   1      31.592  25.254  25.085  1.00  0.00     0.099 C 
ATOM     10  C   UNL A   1      31.298  25.029  23.585  1.00  0.00     0.025 C 
ATOM     11  C   UNL A   1      31.846  22.958  24.265  1.00  0.00     0.025 C 
ATOM     12  C   UNL A   1      32.579  24.639  22.867  1.00  0.00    -0.027 C 
ATOM     13  C   UNL A   1      30.663  23.633  23.578  1.00  0.00     0.017 C 
ATOM     14  C   UNL A   1      32.892  23.391  23.250  1.00  0.00    -0.027 C 
BRANCH   9  15
ATOM     15  C   UNL A   1      30.691  26.028  26.060  1.00  0.00     0.230 C 
ATOM     16  N   UNL A   1      30.967  27.138  26.791  1.00  0.00    -0.302 N 
ATOM     17  H   UNL A   1      30.297  27.361  27.478  1.00  0.00     0.172 HD
ATOM     18  O   UNL A   1      29.538  25.590  26.218  1.00  0.00    -0.274 OA
BRANCH  16  19
ATOM     19  C   UNL A   1      32.027  27.993  26.721  1.00  0.00     0.190 A 
ATOM     20  C   UNL A   1      35.281  32.808  28.099  1.00  0.00     0.044 C 
ATOM     21  C   UNL A   1      34.983  31.374  27.759  1.00  0.00    -0.046 A 
ATOM     22  C   UNL A   1      33.658  31.041  27.446  1.00  0.00     0.033 A 
ATOM     23  C   UNL A   1      35.971  30.372  27.740  1.00  0.00    -0.047 A 
ATOM     24  C   UNL A   1      33.317  29.723  27.114  1.00  0.00     0.084 A 
ATOM     25  C   UNL A   1      35.636  29.044  27.385  1.00  0.00     0.025 A 
ATOM     26  C   UNL A   1      37.402  30.649  28.122  1.00  0.00     0.044 C 
ATOM     27  N   UNL A   1      32.037  29.277  26.888  1.00  0.00    -0.220 NA
ATOM     28  C   UNL A   1      34.306  28.749  27.054  1.00  0.00     0.057 A 
ATOM     29  S   UNL A   1      33.565  27.282  26.531  1.00  0.00    -0.097 S 
ENDBRANCH  16  19
ENDBRANCH   9  15
ENDBRANCH   5   8
ENDBRANCH   3   4
ENDBRANCH   2   3
ENDBRANCH   1   2
BRANCH   1  30
ATOM     30  C   UNL A   1      36.689  23.465  25.072  1.00  0.00     0.116 C 
BRANCH  30  31
ATOM     31  N   UNL A   1      38.038  22.962  25.228  1.00  0.00    -0.352 N 
ATOM     32  C   UNL A   1      38.871  22.906  26.316  1.00  0.00     0.251 C 
ATOM     33  H   UNL A   1      38.428  22.593  24.403  1.00  0.00     0.163 HD
ATOM     34  O   UNL A   1      39.512  21.868  26.493  1.00  0.00    -0.269 OA
BRANCH  32  35
ATOM     35  C   UNL A   1      39.208  24.108  27.110  1.00  0.00     0.039 A 
ATOM     36  C   UNL A   1      38.412  25.246  27.180  1.00  0.00     0.014 A 
ATOM     37  C   UNL A   1      40.470  24.100  27.737  1.00  0.00     0.014 A 
ATOM     38  C   UNL A   1      38.914  26.396  27.774  1.00  0.00     0.010 A 
ATOM     39  C   UNL A   1      40.966  25.242  28.351  1.00  0.00     0.010 A 
ATOM     40  C   UNL A   1      40.202  26.403  28.327  1.00  0.00    -0.014 A 
BRANCH  40  41
ATOM     41  C   UNL A   1      40.643  27.622  29.002  1.00  0.00     0.031 A 
ATOM     42  C   UNL A   1      41.827  28.267  28.363  1.00  0.00     0.074 A 
ATOM     43  C   UNL A   1      40.001  28.181  30.047  1.00  0.00     0.049 A 
ATOM     44  N   UNL A   1      43.010  28.421  28.861  1.00  0.00    -0.248 NA
ATOM     45  C   UNL A   1      41.725  28.645  26.943  1.00  0.00     0.031 C 
ATOM     46  C   UNL A   1      38.705  27.819  30.626  1.00  0.00     0.029 A 
ATOM     47  N   UNL A   1      40.357  29.276  30.774  1.00  0.00    -0.354 N 
ATOM     48  C   UNL A   1      43.759  29.079  27.887  1.00  0.00     0.074 A 
ATOM     49  C   UNL A   1      42.966  29.062  26.685  1.00  0.00     0.031 C 
ATOM     50  C   UNL A   1      38.289  28.811  31.448  1.00  0.00     0.029 A 
ATOM     51  C   UNL A   1      39.339  29.809  31.558  1.00  0.00     0.049 A 
ATOM     52  H   UNL A   1      41.263  29.660  30.748  1.00  0.00     0.167 HD
ATOM     53  C   UNL A   1      44.908  29.747  28.188  1.00  0.00     0.037 A 
ATOM     54  C   UNL A   1      39.350  31.012  32.192  1.00  0.00     0.037 A 
ATOM     55  C   UNL A   1      45.412  29.370  29.480  1.00  0.00     0.049 A 
ATOM     56  C   UNL A   1      40.777  31.410  32.339  1.00  0.00     0.074 A 
ATOM     57  C   UNL A   1      45.896  28.197  30.025  1.00  0.00     0.029 A 
ATOM     58  N   UNL A   1      45.124  30.190  30.545  1.00  0.00    -0.354 N 
ATOM     59  N   UNL A   1      41.627  30.781  33.106  1.00  0.00    -0.248 NA
ATOM     60  C   UNL A   1      41.372  32.207  31.276  1.00  0.00     0.031 C 
ATOM     61  C   UNL A   1      45.416  28.188  31.365  1.00  0.00     0.029 A 
ATOM     62  C   UNL A   1      44.723  29.381  31.579  1.00  0.00     0.049 A 
ATOM     63  H   UNL A   1      45.191  31.171  30.562  1.00  0.00     0.167 HD
ATOM     64  C   UNL A   1      42.809  30.752  32.381  1.00  0.00     0.074 A 
ATOM     65  C   UNL A   1      42.613  31.711  31.295  1.00  0.00     0.031 C 
ATOM     66  C   UNL A   1      43.726  29.756  32.556  1.00  0.00     0.037 A 
BRANCH  53  67
ATOM     67  C   UNL A   1      45.404  30.968  27.460  1.00  0.00     0.058 A 
ATOM     68  C   UNL A   1      46.712  30.986  26.934  1.00  0.00     0.135 A 
ATOM     69  C   UNL A   1      44.747  32.217  27.513  1.00  0.00     0.135 A 
ATOM     70  F   UNL A   1      47.430  29.856  26.843  1.00  0.00    -0.206 F 
ATOM     71  C   UNL A   1      47.347  32.170  26.556  1.00  0.00     0.059 A 
ATOM     72  C   UNL A   1      45.343  33.401  27.094  1.00  0.00     0.059 A 
ATOM     73  F   UNL A   1      43.536  32.359  28.066  1.00  0.00    -0.206 F 
ATOM     74  C   UNL A   1      46.658  33.375  26.657  1.00  0.00     0.060 A 
BRANCH  74  75
ATOM     75  S   UNL A   1      47.511  34.918  26.284  1.00  0.00     0.124 S 
ATOM     76  O   UNL A   1      46.388  35.843  26.144  1.00  0.00    -0.237 OA
ATOM     77  O   UNL A   1      48.339  35.098  27.473  1.00  0.00    -0.237 OA
ATOM     78  O   UNL A   1      48.235  34.617  25.059  1.00  0.00    -0.744 OA
ENDBRANCH  74  75
ENDBRANCH  53  67
BRANCH  54  79
ATOM     79  C   UNL A   1      38.229  31.983  32.341  1.00  0.00     0.058 A 
ATOM     80  C   UNL A   1      37.800  32.784  31.266  1.00  0.00     0.135 A 
ATOM     81  C   UNL A   1      37.367  31.943  33.457  1.00  0.00     0.135 A 
ATOM     82  F   UNL A   1      38.543  32.871  30.151  1.00  0.00    -0.206 F 
ATOM     83  C   UNL A   1      36.569  33.456  31.273  1.00  0.00     0.059 A 
ATOM     84  C   UNL A   1      36.143  32.610  33.492  1.00  0.00     0.059 A 
ATOM     85  F   UNL A   1      37.644  31.172  34.519  1.00  0.00    -0.206 F 
ATOM     86  C   UNL A   1      35.736  33.342  32.385  1.00  0.00     0.060 A 
BRANCH  86  87
ATOM     87  S   UNL A   1      34.071  34.051  32.332  1.00  0.00     0.124 S 
ATOM     88  O   UNL A   1      33.802  34.087  30.899  1.00  0.00    -0.237 OA
ATOM     89  O   UNL A   1      33.301  33.082  33.104  1.00  0.00    -0.237 OA
ATOM     90  O   UNL A   1      34.239  35.356  32.967  1.00  0.00    -0.744 OA
ENDBRANCH  86  87
ENDBRANCH  54  79
BRANCH  66  91
ATOM     91  C   UNL A   1      43.555  28.823  33.729  1.00  0.00     0.058 A 
ATOM     92  C   UNL A   1      44.006  29.101  35.031  1.00  0.00     0.135 A 
ATOM     93  C   UNL A   1      42.744  27.690  33.561  1.00  0.00     0.135 A 
ATOM     94  F   UNL A   1      44.697  30.218  35.299  1.00  0.00    -0.206 F 
ATOM     95  C   UNL A   1      43.695  28.271  36.111  1.00  0.00     0.059 A 
ATOM     96  C   UNL A   1      42.394  26.867  34.627  1.00  0.00     0.059 A 
ATOM     97  F   UNL A   1      42.228  27.407  32.353  1.00  0.00    -0.206 F 
ATOM     98  C   UNL A   1      42.882  27.159  35.899  1.00  0.00     0.060 A 
BRANCH  98  99
ATOM     99  S   UNL A   1      42.408  26.138  37.312  1.00  0.00     0.124 S 
ATOM    100  O   UNL A   1      42.653  24.789  36.812  1.00  0.00    -0.237 OA
ATOM    101  O   UNL A   1      43.317  26.601  38.356  1.00  0.00    -0.237 OA
ATOM    102  O   UNL A   1      41.003  26.479  37.525  1.00  0.00    -0.744 OA
ENDBRANCH  98  99
ENDBRANCH  66  91
ENDBRANCH  40  41
ENDBRANCH  32  35
ENDBRANCH  30  31
ENDBRANCH   1  30
TORSDOF 16
ENDMDL
MODEL 3
REMARK VINA RESULT:     -13.2      2.845      9.190
REMARK SMILES Cc1cc2nc(NC(=O)[C@H]3[C@@H](C(=O)NCCCCNC(=O)c4ccc(-c5c6nc(c(-c7c(F)cc(S(=O)(=O)[O-])cc7F)c7ccc([nH]7)c(-c7c(F)cc(S(=O)(=O)[O-])cc7F)c7nc(c(-c8c(F)cc(S(=O)(=O)[O-])cc8F)c8ccc5[nH]8)C=C7)C=C6)cc4)[C@@H]4C=C[C@H]3C4)sc2cc1C
REMARK SMILES IDX 17 1 16 2 15 3 14 4 12 5 13 6 11 8 10 9 91 10 88 11 90 12
REMARK SMILES IDX 92 13 89 14 8 15 7 16 9 18 6 19 1 20 2 21 3 22 96 23 4 24
REMARK SMILES IDX 95 25 97 26 5 27 94 28 93 29 18 30 19 31 20 32 21 34 22 35
REMARK SMILES IDX 23 36 87 37 24 38 86 39 25 40 26 41 27 42 80 43 28 44 85 45
REMARK SMILES IDX 79 46 81 47 29 48 84 49 78 50 77 51 30 53 64 54 43 55 63 56
REMARK SMILES IDX 44 57 47 58 62 59 82 60 45 61 46 62 61 64 83 65 48 66 31 67
REMARK SMILES IDX 32 68 41 69 33 70 34 71 40 72 42 73 35 74 36 75 37 76 38 77
REMARK SMILES IDX 39 78 65 79 66 80 75 81 67 82 68 83 74 84 76 85 69 86 70 87
REMARK SMILES IDX 71 88 72 89 73 90 49 91 50 92 59 93 51 94 52 95 58 96 60 97
REMARK SMILES IDX 53 98 54 99 55 100 56 101 57 102
REMARK H PARENT 14 7 7 17 19 33 81 52 47 63
REMARK Flexibility Score: inf
ROOT
ATOM      1  C   UNL A   1      32.669  29.268  26.242  1.00  0.00     0.023 C 
ENDROOT
BRANCH   1   2
ATOM      2  C   UNL A   1      32.999  28.012  27.052  1.00  0.00     0.023 C 
BRANCH   2   3
ATOM      3  C   UNL A   1      32.581  26.632  26.550  1.00  0.00     0.116 C 
BRANCH   3   4
ATOM      4  N   UNL A   1      31.180  26.357  26.400  1.00  0.00    -0.356 N 
ATOM      5  C   UNL A   1      30.489  25.923  25.314  1.00  0.00     0.224 C 
ATOM      6  O   UNL A   1      29.254  25.946  25.424  1.00  0.00    -0.275 OA
ATOM      7  H   UNL A   1      30.637  26.506  27.208  1.00  0.00     0.163 HD
BRANCH   5   8
ATOM      8  C   UNL A   1      31.093  25.482  23.973  1.00  0.00     0.098 C 
ATOM      9  C   UNL A   1      31.713  24.060  23.722  1.00  0.00     0.099 C 
ATOM     10  C   UNL A   1      32.963  24.402  22.881  1.00  0.00     0.025 C 
ATOM     11  C   UNL A   1      32.139  26.442  23.334  1.00  0.00     0.025 C 
ATOM     12  C   UNL A   1      32.538  25.023  21.562  1.00  0.00    -0.027 C 
ATOM     13  C   UNL A   1      33.456  25.700  23.533  1.00  0.00     0.017 C 
ATOM     14  C   UNL A   1      32.072  26.253  21.826  1.00  0.00    -0.027 C 
BRANCH   9  15
ATOM     15  C   UNL A   1      31.679  23.081  24.905  1.00  0.00     0.230 C 
ATOM     16  N   UNL A   1      32.701  22.422  25.507  1.00  0.00    -0.302 N 
ATOM     17  H   UNL A   1      32.428  21.714  26.135  1.00  0.00     0.172 HD
ATOM     18  O   UNL A   1      30.561  22.840  25.396  1.00  0.00    -0.274 OA
BRANCH  16  19
ATOM     19  C   UNL A   1      34.048  22.590  25.379  1.00  0.00     0.190 A 
ATOM     20  C   UNL A   1      39.496  24.524  26.882  1.00  0.00     0.044 C 
ATOM     21  C   UNL A   1      38.438  23.583  26.377  1.00  0.00    -0.046 A 
ATOM     22  C   UNL A   1      37.129  24.072  26.268  1.00  0.00     0.033 A 
ATOM     23  C   UNL A   1      38.711  22.251  26.010  1.00  0.00    -0.047 A 
ATOM     24  C   UNL A   1      36.099  23.246  25.797  1.00  0.00     0.084 A 
ATOM     25  C   UNL A   1      37.680  21.420  25.514  1.00  0.00     0.025 A 
ATOM     26  C   UNL A   1      40.083  21.644  26.157  1.00  0.00     0.044 C 
ATOM     27  N   UNL A   1      34.772  23.599  25.747  1.00  0.00    -0.220 NA
ATOM     28  C   UNL A   1      36.386  21.948  25.396  1.00  0.00     0.057 A 
ATOM     29  S   UNL A   1      34.928  21.252  24.791  1.00  0.00    -0.097 S 
ENDBRANCH  16  19
ENDBRANCH   9  15
ENDBRANCH   5   8
ENDBRANCH   3   4
ENDBRANCH   2   3
ENDBRANCH   1   2
BRANCH   1  30
ATOM     30  C   UNL A   1      33.508  30.524  26.462  1.00  0.00     0.116 C 
BRANCH  30  31
ATOM     31  N   UNL A   1      33.645  30.948  27.840  1.00  0.00    -0.352 N 
ATOM     32  C   UNL A   1      34.692  31.514  28.521  1.00  0.00     0.251 C 
ATOM     33  H   UNL A   1      32.839  30.805  28.386  1.00  0.00     0.163 HD
ATOM     34  O   UNL A   1      34.439  32.448  29.285  1.00  0.00    -0.269 OA
BRANCH  32  35
ATOM     35  C   UNL A   1      36.031  30.887  28.563  1.00  0.00     0.039 A 
ATOM     36  C   UNL A   1      36.262  29.526  28.403  1.00  0.00     0.014 A 
ATOM     37  C   UNL A   1      37.103  31.742  28.889  1.00  0.00     0.014 A 
ATOM     38  C   UNL A   1      37.523  29.009  28.671  1.00  0.00     0.010 A 
ATOM     39  C   UNL A   1      38.370  31.231  29.136  1.00  0.00     0.010 A 
ATOM     40  C   UNL A   1      38.565  29.857  29.071  1.00  0.00    -0.014 A 
BRANCH  40  41
ATOM     41  C   UNL A   1      39.885  29.262  29.267  1.00  0.00     0.031 A 
ATOM     42  C   UNL A   1      40.291  29.159  30.699  1.00  0.00     0.074 A 
ATOM     43  C   UNL A   1      40.643  28.759  28.271  1.00  0.00     0.049 A 
ATOM     44  N   UNL A   1      41.267  29.765  31.291  1.00  0.00    -0.248 NA
ATOM     45  C   UNL A   1      39.409  28.416  31.615  1.00  0.00     0.031 C 
ATOM     46  C   UNL A   1      40.289  28.558  26.864  1.00  0.00     0.029 A 
ATOM     47  N   UNL A   1      41.898  28.237  28.342  1.00  0.00    -0.354 N 
ATOM     48  C   UNL A   1      41.240  29.343  32.619  1.00  0.00     0.074 A 
ATOM     49  C   UNL A   1      39.999  28.632  32.792  1.00  0.00     0.031 C 
ATOM     50  C   UNL A   1      41.211  27.755  26.282  1.00  0.00     0.029 A 
ATOM     51  C   UNL A   1      42.283  27.497  27.229  1.00  0.00     0.049 A 
ATOM     52  H   UNL A   1      42.488  28.374  29.118  1.00  0.00     0.167 HD
ATOM     53  C   UNL A   1      42.324  29.456  33.436  1.00  0.00     0.037 A 
ATOM     54  C   UNL A   1      43.370  26.687  27.131  1.00  0.00     0.037 A 
ATOM     55  C   UNL A   1      43.296  30.367  32.897  1.00  0.00     0.049 A 
ATOM     56  C   UNL A   1      44.329  27.121  28.184  1.00  0.00     0.074 A 
ATOM     57  C   UNL A   1      43.303  31.720  32.620  1.00  0.00     0.029 A 
ATOM     58  N   UNL A   1      44.362  29.836  32.212  1.00  0.00    -0.354 N 
ATOM     59  N   UNL A   1      44.945  28.272  28.169  1.00  0.00    -0.248 NA
ATOM     60  C   UNL A   1      44.238  26.482  29.489  1.00  0.00     0.031 C 
ATOM     61  C   UNL A   1      44.056  31.845  31.417  1.00  0.00     0.029 A 
ATOM     62  C   UNL A   1      44.514  30.575  31.066  1.00  0.00     0.049 A 
ATOM     63  H   UNL A   1      44.912  29.069  32.492  1.00  0.00     0.167 HD
ATOM     64  C   UNL A   1      44.939  28.699  29.489  1.00  0.00     0.074 A 
ATOM     65  C   UNL A   1      44.557  27.521  30.267  1.00  0.00     0.031 C 
ATOM     66  C   UNL A   1      44.966  30.026  29.807  1.00  0.00     0.037 A 
BRANCH  53  67
ATOM     67  C   UNL A   1      42.652  28.510  34.561  1.00  0.00     0.058 A 
ATOM     68  C   UNL A   1      42.803  29.006  35.872  1.00  0.00     0.135 A 
ATOM     69  C   UNL A   1      43.102  27.188  34.350  1.00  0.00     0.135 A 
ATOM     70  F   UNL A   1      42.413  30.253  36.182  1.00  0.00    -0.206 F 
ATOM     71  C   UNL A   1      43.424  28.269  36.881  1.00  0.00     0.059 A 
ATOM     72  C   UNL A   1      43.677  26.418  35.354  1.00  0.00     0.059 A 
ATOM     73  F   UNL A   1      43.096  26.621  33.137  1.00  0.00    -0.206 F 
ATOM     74  C   UNL A   1      43.874  26.981  36.605  1.00  0.00     0.060 A 
BRANCH  74  75
ATOM     75  S   UNL A   1      44.781  26.070  37.867  1.00  0.00     0.124 S 
ATOM     76  O   UNL A   1      44.041  26.433  39.074  1.00  0.00    -0.237 OA
ATOM     77  O   UNL A   1      44.621  24.690  37.414  1.00  0.00    -0.237 OA
ATOM     78  O   UNL A   1      46.129  26.606  37.769  1.00  0.00    -0.744 OA
ENDBRANCH  74  75
ENDBRANCH  53  67
BRANCH  54  79
ATOM     79  C   UNL A   1      43.473  25.364  26.451  1.00  0.00     0.058 A 
ATOM     80  C   UNL A   1      44.269  25.186  25.303  1.00  0.00     0.135 A 
ATOM     81  C   UNL A   1      43.024  24.181  27.075  1.00  0.00     0.135 A 
ATOM     82  F   UNL A   1      44.760  26.252  24.651  1.00  0.00    -0.206 F 
ATOM     83  C   UNL A   1      44.642  23.917  24.837  1.00  0.00     0.059 A 
ATOM     84  C   UNL A   1      43.374  22.909  26.625  1.00  0.00     0.059 A 
ATOM     85  F   UNL A   1      42.304  24.224  28.206  1.00  0.00    -0.206 F 
ATOM     86  C   UNL A   1      44.208  22.783  25.522  1.00  0.00     0.060 A 
BRANCH  86  87
ATOM     87  S   UNL A   1      44.832  21.154  25.041  1.00  0.00     0.124 S 
ATOM     88  O   UNL A   1      43.904  20.259  25.724  1.00  0.00    -0.237 OA
ATOM     89  O   UNL A   1      44.721  21.200  23.587  1.00  0.00    -0.237 OA
ATOM     90  O   UNL A   1      46.198  21.148  25.558  1.00  0.00    -0.744 OA
ENDBRANCH  86  87
ENDBRANCH  54  79
BRANCH  66  91
ATOM     91  C   UNL A   1      45.258  31.019  28.710  1.00  0.00     0.058 A 
ATOM     92  C   UNL A   1      44.296  31.502  27.806  1.00  0.00     0.135 A 
ATOM     93  C   UNL A   1      46.518  31.637  28.694  1.00  0.00     0.135 A 
ATOM     94  F   UNL A   1      43.038  31.040  27.825  1.00  0.00    -0.206 F 
ATOM     95  C   UNL A   1      44.583  32.528  26.904  1.00  0.00     0.059 A 
ATOM     96  C   UNL A   1      46.817  32.684  27.827  1.00  0.00     0.059 A 
ATOM     97  F   UNL A   1      47.459  31.265  29.578  1.00  0.00    -0.206 F 
ATOM     98  C   UNL A   1      45.847  33.118  26.926  1.00  0.00     0.060 A 
BRANCH  98  99
ATOM     99  S   UNL A   1      46.187  34.504  25.820  1.00  0.00     0.124 S 
ATOM    100  O   UNL A   1      45.871  35.653  26.661  1.00  0.00    -0.237 OA
ATOM    101  O   UNL A   1      47.601  34.319  25.506  1.00  0.00    -0.237 OA
ATOM    102  O   UNL A   1      45.276  34.281  24.700  1.00  0.00    -0.744 OA
ENDBRANCH  98  99
ENDBRANCH  66  91
ENDBRANCH  40  41
ENDBRANCH  32  35
ENDBRANCH  30  31
ENDBRANCH   1  30
TORSDOF 16
ENDMDL
