MODEL 1
REMARK VINA RESULT:     -11.5      0.000      0.000
REMARK SMILES O=C(NCCCCNC(=O)C1([NH+]2CCOCC2)CCC1)c1ccc(-c2c3nc(c(-c4c(F)cc(S(=O)(=O)[O-])cc4F)c4ccc([nH]4)c(-c4c(F)cc(S(=O)(=O)[O-])cc4F)c4nc(c(-c5c(F)cc(S(=O)(=O)[O-])cc5F)c5ccc2[nH]5)C=C4)C=C3)cc1
REMARK SMILES IDX 4 1 3 2 1 3 2 4 21 6 22 7 86 8 23 9 85 10 24 11 25 12 26 13
REMARK SMILES IDX 79 14 27 15 84 16 78 17 80 18 28 19 83 20 77 21 76 22 29 24
REMARK SMILES IDX 63 25 42 26 62 27 43 28 46 29 61 30 81 31 44 32 45 33 60 35
REMARK SMILES IDX 82 36 47 37 30 38 31 39 40 40 32 41 33 42 39 43 41 44 34 45
REMARK SMILES IDX 35 46 36 47 37 48 38 49 64 50 65 51 74 52 66 53 67 54 73 55
REMARK SMILES IDX 75 56 68 57 69 58 70 59 71 60 72 61 48 62 49 63 58 64 50 65
REMARK SMILES IDX 51 66 57 67 59 68 52 69 53 70 54 71 55 72 56 73 5 74 6 75
REMARK SMILES IDX 7 76 8 77 9 78 10 80 11 81 18 82 20 83 19 84 12 85 13 86
REMARK SMILES IDX 17 87 14 89 16 90 15 91
REMARK H PARENT 3 5 80 23 46 34 8 79 12 88
REMARK Flexibility Score: inf
ROOT
ATOM      1  C   UNL A   1      40.436  23.355  27.139  1.00  0.00     0.116 C 
ENDROOT
BRANCH   1   2
ATOM      2  N   UNL A   1      41.248  23.958  26.093  1.00  0.00    -0.352 N 
ATOM      3  O   UNL A   1      42.238  25.660  24.987  1.00  0.00    -0.269 OA
ATOM      4  C   UNL A   1      41.639  25.274  25.978  1.00  0.00     0.251 C 
ATOM      5  H   UNL A   1      41.555  23.351  25.381  1.00  0.00     0.163 HD
BRANCH   4   6
ATOM      6  C   UNL A   1      41.277  26.214  27.061  1.00  0.00     0.039 A 
ATOM      7  C   UNL A   1      41.929  27.444  27.170  1.00  0.00     0.014 A 
ATOM      8  C   UNL A   1      40.327  25.827  28.010  1.00  0.00     0.014 A 
ATOM      9  C   UNL A   1      41.742  28.218  28.307  1.00  0.00     0.010 A 
ATOM     10  C   UNL A   1      40.083  26.647  29.114  1.00  0.00     0.010 A 
ATOM     11  C   UNL A   1      40.818  27.829  29.292  1.00  0.00    -0.014 A 
BRANCH  11  12
ATOM     12  C   UNL A   1      40.627  28.695  30.482  1.00  0.00     0.031 A 
ATOM     13  C   UNL A   1      41.545  28.601  31.669  1.00  0.00     0.074 A 
ATOM     14  C   UNL A   1      39.638  29.610  30.458  1.00  0.00     0.049 A 
ATOM     15  N   UNL A   1      41.548  29.318  32.764  1.00  0.00    -0.248 NA
ATOM     16  C   UNL A   1      42.589  27.565  31.630  1.00  0.00     0.031 C 
ATOM     17  C   UNL A   1      38.680  29.783  29.363  1.00  0.00     0.029 A 
ATOM     18  N   UNL A   1      39.292  30.583  31.358  1.00  0.00    -0.354 N 
ATOM     19  C   UNL A   1      42.569  28.804  33.556  1.00  0.00     0.074 A 
ATOM     20  C   UNL A   1      43.157  27.705  32.820  1.00  0.00     0.031 C 
ATOM     21  C   UNL A   1      37.894  30.837  29.628  1.00  0.00     0.029 A 
ATOM     22  C   UNL A   1      38.256  31.380  30.932  1.00  0.00     0.049 A 
ATOM     23  H   UNL A   1      39.741  30.700  32.226  1.00  0.00     0.167 HD
ATOM     24  C   UNL A   1      42.978  29.215  34.780  1.00  0.00     0.037 A 
ATOM     25  C   UNL A   1      37.662  32.431  31.526  1.00  0.00     0.037 A 
ATOM     26  C   UNL A   1      42.408  30.332  35.490  1.00  0.00     0.049 A 
ATOM     27  C   UNL A   1      38.148  32.879  32.873  1.00  0.00     0.074 A 
ATOM     28  C   UNL A   1      42.781  30.855  36.717  1.00  0.00     0.029 A 
ATOM     29  N   UNL A   1      41.346  31.102  35.037  1.00  0.00    -0.354 N 
ATOM     30  N   UNL A   1      39.129  32.394  33.595  1.00  0.00    -0.248 NA
ATOM     31  C   UNL A   1      37.445  34.011  33.486  1.00  0.00     0.031 C 
ATOM     32  C   UNL A   1      41.923  31.920  37.020  1.00  0.00     0.029 A 
ATOM     33  C   UNL A   1      41.039  32.084  35.966  1.00  0.00     0.049 A 
ATOM     34  H   UNL A   1      40.878  30.969  34.181  1.00  0.00     0.167 HD
ATOM     35  C   UNL A   1      39.170  33.169  34.746  1.00  0.00     0.074 A 
ATOM     36  C   UNL A   1      38.125  34.167  34.614  1.00  0.00     0.031 C 
ATOM     37  C   UNL A   1      39.994  33.065  35.817  1.00  0.00     0.037 A 
BRANCH  24  38
ATOM     38  C   UNL A   1      44.082  28.441  35.445  1.00  0.00     0.058 A 
ATOM     39  C   UNL A   1      45.430  28.806  35.310  1.00  0.00     0.135 A 
ATOM     40  C   UNL A   1      43.782  27.333  36.256  1.00  0.00     0.135 A 
ATOM     41  F   UNL A   1      45.773  29.848  34.536  1.00  0.00    -0.206 F 
ATOM     42  C   UNL A   1      46.445  28.087  35.935  1.00  0.00     0.059 A 
ATOM     43  C   UNL A   1      44.780  26.612  36.907  1.00  0.00     0.059 A 
ATOM     44  F   UNL A   1      42.510  26.940  36.419  1.00  0.00    -0.206 F 
ATOM     45  C   UNL A   1      46.109  26.988  36.727  1.00  0.00     0.060 A 
BRANCH  45  46
ATOM     46  S   UNL A   1      47.435  26.057  37.527  1.00  0.00     0.124 S 
ATOM     47  O   UNL A   1      47.150  24.699  37.071  1.00  0.00    -0.237 OA
ATOM     48  O   UNL A   1      48.635  26.673  36.969  1.00  0.00    -0.237 OA
ATOM     49  O   UNL A   1      47.212  26.302  38.948  1.00  0.00    -0.744 OA
ENDBRANCH  45  46
ENDBRANCH  24  38
BRANCH  25  50
ATOM     50  C   UNL A   1      36.554  33.133  30.832  1.00  0.00     0.058 A 
ATOM     51  C   UNL A   1      35.224  32.959  31.240  1.00  0.00     0.135 A 
ATOM     52  C   UNL A   1      36.806  34.026  29.778  1.00  0.00     0.135 A 
ATOM     53  F   UNL A   1      34.935  32.114  32.242  1.00  0.00    -0.206 F 
ATOM     54  C   UNL A   1      34.179  33.640  30.625  1.00  0.00     0.059 A 
ATOM     55  C   UNL A   1      35.782  34.737  29.163  1.00  0.00     0.059 A 
ATOM     56  F   UNL A   1      38.065  34.240  29.365  1.00  0.00    -0.206 F 
ATOM     57  C   UNL A   1      34.470  34.532  29.590  1.00  0.00     0.060 A 
BRANCH  57  58
ATOM     58  S   UNL A   1      33.119  35.468  28.842  1.00  0.00     0.124 S 
ATOM     59  O   UNL A   1      32.435  34.434  28.077  1.00  0.00    -0.237 OA
ATOM     60  O   UNL A   1      32.406  35.973  30.013  1.00  0.00    -0.237 OA
ATOM     61  O   UNL A   1      33.813  36.484  28.057  1.00  0.00    -0.744 OA
ENDBRANCH  57  58
ENDBRANCH  25  50
BRANCH  37  62
ATOM     62  C   UNL A   1      39.808  34.069  36.916  1.00  0.00     0.058 A 
ATOM     63  C   UNL A   1      39.036  33.778  38.052  1.00  0.00     0.135 A 
ATOM     64  C   UNL A   1      40.419  35.331  36.839  1.00  0.00     0.135 A 
ATOM     65  F   UNL A   1      38.425  32.589  38.167  1.00  0.00    -0.206 F 
ATOM     66  C   UNL A   1      38.852  34.716  39.063  1.00  0.00     0.059 A 
ATOM     67  C   UNL A   1      40.267  36.275  37.848  1.00  0.00     0.059 A 
ATOM     68  F   UNL A   1      41.173  35.653  35.776  1.00  0.00    -0.206 F 
ATOM     69  C   UNL A   1      39.468  35.964  38.949  1.00  0.00     0.060 A 
BRANCH  69  70
ATOM     70  S   UNL A   1      39.234  37.173  40.269  1.00  0.00     0.124 S 
ATOM     71  O   UNL A   1      38.478  38.214  39.581  1.00  0.00    -0.237 OA
ATOM     72  O   UNL A   1      38.495  36.410  41.270  1.00  0.00    -0.237 OA
ATOM     73  O   UNL A   1      40.598  37.531  40.644  1.00  0.00    -0.744 OA
ENDBRANCH  69  70
ENDBRANCH  37  62
ENDBRANCH  11  12
ENDBRANCH   4   6
ENDBRANCH   1   2
BRANCH   1  74
ATOM     74  C   UNL A   1      40.026  21.922  26.834  1.00  0.00     0.023 C 
BRANCH  74  75
ATOM     75  C   UNL A   1      38.823  21.778  25.903  1.00  0.00     0.023 C 
BRANCH  75  76
ATOM     76  C   UNL A   1      37.895  22.992  25.864  1.00  0.00     0.116 C 
BRANCH  76  77
ATOM     77  N   UNL A   1      37.398  23.227  24.528  1.00  0.00    -0.351 N 
ATOM     78  C   UNL A   1      36.161  22.983  23.970  1.00  0.00     0.281 C 
ATOM     79  H   UNL A   1      38.051  23.630  23.912  1.00  0.00     0.163 HD
ATOM     80  O   UNL A   1      36.072  23.255  22.763  1.00  0.00    -0.268 OA
BRANCH  78  81
ATOM     81  C   UNL A   1      34.932  22.424  24.849  1.00  0.00     0.177 C 
ATOM     82  C   UNL A   1      33.685  22.138  23.930  1.00  0.00     0.079 C 
ATOM     83  C   UNL A   1      34.845  20.934  25.274  1.00  0.00     0.079 C 
ATOM     84  C   UNL A   1      33.446  20.811  24.664  1.00  0.00     0.014 C 
BRANCH  81  85
ATOM     85  N   UNL A   1      34.542  23.389  25.925  1.00  0.00    -0.318 N 
ATOM     86  C   UNL A   1      34.425  22.803  27.272  1.00  0.00     0.291 C 
ATOM     87  C   UNL A   1      33.482  24.384  25.722  1.00  0.00     0.291 C 
ATOM     88  H   UNL A   1      35.383  23.958  25.837  1.00  0.00     0.349 HD
ATOM     89  C   UNL A   1      33.003  22.357  27.636  1.00  0.00     0.221 C 
ATOM     90  C   UNL A   1      32.075  23.940  26.153  1.00  0.00     0.221 C 
ATOM     91  O   UNL A   1      32.064  23.428  27.491  1.00  0.00    -0.370 OA
ENDBRANCH  81  85
ENDBRANCH  78  81
ENDBRANCH  76  77
ENDBRANCH  75  76
ENDBRANCH  74  75
ENDBRANCH   1  74
TORSDOF 15
ENDMDL
MODEL 2
REMARK VINA RESULT:     -11.3      5.184     11.360
REMARK SMILES O=C(NCCCCNC(=O)C1([NH+]2CCOCC2)CCC1)c1ccc(-c2c3nc(c(-c4c(F)cc(S(=O)(=O)[O-])cc4F)c4ccc([nH]4)c(-c4c(F)cc(S(=O)(=O)[O-])cc4F)c4nc(c(-c5c(F)cc(S(=O)(=O)[O-])cc5F)c5ccc2[nH]5)C=C4)C=C3)cc1
REMARK SMILES IDX 4 1 3 2 1 3 2 4 21 6 22 7 86 8 23 9 85 10 24 11 25 12 26 13
REMARK SMILES IDX 79 14 27 15 84 16 78 17 80 18 28 19 83 20 77 21 76 22 29 24
REMARK SMILES IDX 63 25 42 26 62 27 43 28 46 29 61 30 81 31 44 32 45 33 60 35
REMARK SMILES IDX 82 36 47 37 30 38 31 39 40 40 32 41 33 42 39 43 41 44 34 45
REMARK SMILES IDX 35 46 36 47 37 48 38 49 64 50 65 51 74 52 66 53 67 54 73 55
REMARK SMILES IDX 75 56 68 57 69 58 70 59 71 60 72 61 48 62 49 63 58 64 50 65
REMARK SMILES IDX 51 66 57 67 59 68 52 69 53 70 54 71 55 72 56 73 5 74 6 75
REMARK SMILES IDX 7 76 8 77 9 78 10 80 11 81 18 82 20 83 19 84 12 85 13 86
REMARK SMILES IDX 17 87 14 89 16 90 15 91
REMARK H PARENT 3 5 80 23 46 34 8 79 12 88
REMARK Flexibility Score: inf
ROOT
ATOM      1  C   UNL A   1      34.403  32.334  28.306  1.00  0.00     0.116 C 
ENDROOT
BRANCH   1   2
ATOM      2  N   UNL A   1      33.798  31.042  28.024  1.00  0.00    -0.352 N 
ATOM      3  O   UNL A   1      33.797  28.821  27.612  1.00  0.00    -0.269 OA
ATOM      4  C   UNL A   1      34.418  29.813  27.961  1.00  0.00     0.251 C 
ATOM      5  H   UNL A   1      32.827  31.046  27.858  1.00  0.00     0.163 HD
BRANCH   4   6
ATOM      6  C   UNL A   1      35.859  29.733  28.282  1.00  0.00     0.039 A 
ATOM      7  C   UNL A   1      36.814  30.001  27.300  1.00  0.00     0.014 A 
ATOM      8  C   UNL A   1      36.250  29.320  29.559  1.00  0.00     0.014 A 
ATOM      9  C   UNL A   1      38.149  29.712  27.547  1.00  0.00     0.010 A 
ATOM     10  C   UNL A   1      37.604  29.105  29.828  1.00  0.00     0.010 A 
ATOM     11  C   UNL A   1      38.559  29.260  28.813  1.00  0.00    -0.014 A 
BRANCH  11  12
ATOM     12  C   UNL A   1      39.999  28.985  29.047  1.00  0.00     0.031 A 
ATOM     13  C   UNL A   1      40.619  27.680  28.629  1.00  0.00     0.074 A 
ATOM     14  C   UNL A   1      40.756  29.952  29.599  1.00  0.00     0.049 A 
ATOM     15  N   UNL A   1      41.869  27.301  28.713  1.00  0.00    -0.248 NA
ATOM     16  C   UNL A   1      39.725  26.665  28.050  1.00  0.00     0.031 C 
ATOM     17  C   UNL A   1      40.258  31.253  30.053  1.00  0.00     0.029 A 
ATOM     18  N   UNL A   1      42.102  30.009  29.845  1.00  0.00    -0.354 N 
ATOM     19  C   UNL A   1      41.909  25.998  28.229  1.00  0.00     0.074 A 
ATOM     20  C   UNL A   1      40.553  25.646  27.863  1.00  0.00     0.031 C 
ATOM     21  C   UNL A   1      41.291  32.001  30.466  1.00  0.00     0.029 A 
ATOM     22  C   UNL A   1      42.515  31.216  30.356  1.00  0.00     0.049 A 
ATOM     23  H   UNL A   1      42.715  29.258  29.672  1.00  0.00     0.167 HD
ATOM     24  C   UNL A   1      42.978  25.176  28.100  1.00  0.00     0.037 A 
ATOM     25  C   UNL A   1      43.744  31.644  30.701  1.00  0.00     0.037 A 
ATOM     26  C   UNL A   1      44.329  25.547  28.435  1.00  0.00     0.049 A 
ATOM     27  C   UNL A   1      44.913  30.721  30.528  1.00  0.00     0.074 A 
ATOM     28  C   UNL A   1      45.487  24.801  28.300  1.00  0.00     0.029 A 
ATOM     29  N   UNL A   1      44.705  26.770  28.972  1.00  0.00    -0.354 N 
ATOM     30  N   UNL A   1      44.933  29.501  30.047  1.00  0.00    -0.248 NA
ATOM     31  C   UNL A   1      46.224  31.229  30.947  1.00  0.00     0.031 C 
ATOM     32  C   UNL A   1      46.559  25.561  28.784  1.00  0.00     0.029 A 
ATOM     33  C   UNL A   1      46.074  26.795  29.188  1.00  0.00     0.049 A 
ATOM     34  H   UNL A   1      44.090  27.512  29.171  1.00  0.00     0.167 HD
ATOM     35  C   UNL A   1      46.261  29.097  30.095  1.00  0.00     0.074 A 
ATOM     36  C   UNL A   1      47.016  30.211  30.636  1.00  0.00     0.031 C 
ATOM     37  C   UNL A   1      46.806  27.912  29.729  1.00  0.00     0.037 A 
BRANCH  24  38
ATOM     38  C   UNL A   1      42.730  23.782  27.593  1.00  0.00     0.058 A 
ATOM     39  C   UNL A   1      42.705  23.484  26.221  1.00  0.00     0.135 A 
ATOM     40  C   UNL A   1      42.545  22.722  28.496  1.00  0.00     0.135 A 
ATOM     41  F   UNL A   1      42.861  24.463  25.315  1.00  0.00    -0.206 F 
ATOM     42  C   UNL A   1      42.482  22.190  25.762  1.00  0.00     0.059 A 
ATOM     43  C   UNL A   1      42.341  21.416  28.059  1.00  0.00     0.059 A 
ATOM     44  F   UNL A   1      42.560  22.951  29.818  1.00  0.00    -0.206 F 
ATOM     45  C   UNL A   1      42.296  21.163  26.689  1.00  0.00     0.060 A 
BRANCH  45  46
ATOM     46  S   UNL A   1      41.998  19.488  26.081  1.00  0.00     0.124 S 
ATOM     47  O   UNL A   1      42.905  19.430  24.938  1.00  0.00    -0.237 OA
ATOM     48  O   UNL A   1      42.371  18.665  27.228  1.00  0.00    -0.237 OA
ATOM     49  O   UNL A   1      40.576  19.494  25.755  1.00  0.00    -0.744 OA
ENDBRANCH  45  46
ENDBRANCH  24  38
BRANCH  25  50
ATOM     50  C   UNL A   1      43.918  33.021  31.228  1.00  0.00     0.058 A 
ATOM     51  C   UNL A   1      44.088  34.107  30.358  1.00  0.00     0.135 A 
ATOM     52  C   UNL A   1      43.873  33.284  32.606  1.00  0.00     0.135 A 
ATOM     53  F   UNL A   1      44.139  33.903  29.032  1.00  0.00    -0.206 F 
ATOM     54  C   UNL A   1      44.213  35.408  30.834  1.00  0.00     0.059 A 
ATOM     55  C   UNL A   1      43.971  34.577  33.105  1.00  0.00     0.059 A 
ATOM     56  F   UNL A   1      43.692  32.278  33.476  1.00  0.00    -0.206 F 
ATOM     57  C   UNL A   1      44.148  35.633  32.210  1.00  0.00     0.060 A 
BRANCH  57  58
ATOM     58  S   UNL A   1      44.238  37.330  32.821  1.00  0.00     0.124 S 
ATOM     59  O   UNL A   1      45.583  37.367  33.382  1.00  0.00    -0.237 OA
ATOM     60  O   UNL A   1      44.032  38.109  31.604  1.00  0.00    -0.237 OA
ATOM     61  O   UNL A   1      43.146  37.395  33.787  1.00  0.00    -0.744 OA
ENDBRANCH  57  58
ENDBRANCH  25  50
BRANCH  37  62
ATOM     62  C   UNL A   1      48.293  27.773  29.883  1.00  0.00     0.058 A 
ATOM     63  C   UNL A   1      49.174  28.152  28.859  1.00  0.00     0.135 A 
ATOM     64  C   UNL A   1      48.841  27.269  31.073  1.00  0.00     0.135 A 
ATOM     65  F   UNL A   1      48.697  28.632  27.700  1.00  0.00    -0.206 F 
ATOM     66  C   UNL A   1      50.550  28.009  28.998  1.00  0.00     0.059 A 
ATOM     67  C   UNL A   1      50.215  27.137  31.242  1.00  0.00     0.059 A 
ATOM     68  F   UNL A   1      48.039  26.900  32.084  1.00  0.00    -0.206 F 
ATOM     69  C   UNL A   1      51.060  27.495  30.192  1.00  0.00     0.060 A 
BRANCH  69  70
ATOM     70  S   UNL A   1      52.849  27.321  30.370  1.00  0.00     0.124 S 
ATOM     71  O   UNL A   1      52.958  26.812  31.734  1.00  0.00    -0.237 OA
ATOM     72  O   UNL A   1      53.182  26.372  29.312  1.00  0.00    -0.237 OA
ATOM     73  O   UNL A   1      53.343  28.678  30.164  1.00  0.00    -0.744 OA
ENDBRANCH  69  70
ENDBRANCH  37  62
ENDBRANCH  11  12
ENDBRANCH   4   6
ENDBRANCH   1   2
BRANCH   1  74
ATOM     74  C   UNL A   1      33.536  33.511  27.884  1.00  0.00     0.023 C 
BRANCH  74  75
ATOM     75  C   UNL A   1      33.348  34.590  28.949  1.00  0.00     0.023 C 
BRANCH  75  76
ATOM     76  C   UNL A   1      34.382  34.565  30.076  1.00  0.00     0.116 C 
BRANCH  76  77
ATOM     77  N   UNL A   1      33.805  34.069  31.304  1.00  0.00    -0.351 N 
ATOM     78  C   UNL A   1      34.396  33.507  32.415  1.00  0.00     0.281 C 
ATOM     79  H   UNL A   1      32.825  34.143  31.356  1.00  0.00     0.163 HD
ATOM     80  O   UNL A   1      33.604  33.131  33.292  1.00  0.00    -0.268 OA
BRANCH  78  81
ATOM     81  C   UNL A   1      35.997  33.397  32.557  1.00  0.00     0.177 C 
ATOM     82  C   UNL A   1      36.601  32.586  31.348  1.00  0.00     0.079 C 
ATOM     83  C   UNL A   1      36.935  34.556  32.129  1.00  0.00     0.079 C 
ATOM     84  C   UNL A   1      37.733  33.615  31.221  1.00  0.00     0.014 C 
BRANCH  81  85
ATOM     85  N   UNL A   1      36.392  32.735  33.841  1.00  0.00    -0.318 N 
ATOM     86  C   UNL A   1      36.663  33.658  34.957  1.00  0.00     0.291 C 
ATOM     87  C   UNL A   1      37.347  31.621  33.873  1.00  0.00     0.291 C 
ATOM     88  H   UNL A   1      35.502  32.251  33.963  1.00  0.00     0.349 HD
ATOM     89  C   UNL A   1      38.142  34.041  35.103  1.00  0.00     0.221 C 
ATOM     90  C   UNL A   1      38.816  32.023  34.084  1.00  0.00     0.221 C 
ATOM     91  O   UNL A   1      38.975  32.883  35.219  1.00  0.00    -0.370 OA
ENDBRANCH  81  85
ENDBRANCH  78  81
ENDBRANCH  76  77
ENDBRANCH  75  76
ENDBRANCH  74  75
ENDBRANCH   1  74
TORSDOF 15
ENDMDL
MODEL 3
REMARK VINA RESULT:     -11.3      6.277      8.524
REMARK SMILES O=C(NCCCCNC(=O)C1([NH+]2CCOCC2)CCC1)c1ccc(-c2c3nc(c(-c4c(F)cc(S(=O)(=O)[O-])cc4F)c4ccc([nH]4)c(-c4c(F)cc(S(=O)(=O)[O-])cc4F)c4nc(c(-c5c(F)cc(S(=O)(=O)[O-])cc5F)c5ccc2[nH]5)C=C4)C=C3)cc1
REMARK SMILES IDX 4 1 3 2 1 3 2 4 21 6 22 7 86 8 23 9 85 10 24 11 25 12 26 13
REMARK SMILES IDX 79 14 27 15 84 16 78 17 80 18 28 19 83 20 77 21 76 22 29 24
REMARK SMILES IDX 63 25 42 26 62 27 43 28 46 29 61 30 81 31 44 32 45 33 60 35
REMARK SMILES IDX 82 36 47 37 30 38 31 39 40 40 32 41 33 42 39 43 41 44 34 45
REMARK SMILES IDX 35 46 36 47 37 48 38 49 64 50 65 51 74 52 66 53 67 54 73 55
REMARK SMILES IDX 75 56 68 57 69 58 70 59 71 60 72 61 48 62 49 63 58 64 50 65
REMARK SMILES IDX 51 66 57 67 59 68 52 69 53 70 54 71 55 72 56 73 5 74 6 75
REMARK SMILES IDX 7 76 8 77 9 78 10 80 11 81 18 82 20 83 19 84 12 85 13 86
REMARK SMILES IDX 17 87 14 89 16 90 15 91
REMARK H PARENT 3 5 80 23 46 34 8 79 12 88
REMARK Flexibility Score: inf
ROOT
ATOM      1  C   UNL A   1      39.415  20.079  26.056  1.00  0.00     0.116 C 
ENDROOT
BRANCH   1   2
ATOM      2  N   UNL A   1      40.574  19.202  25.989  1.00  0.00    -0.352 N 
ATOM      3  O   UNL A   1      42.779  18.713  25.944  1.00  0.00    -0.269 OA
ATOM      4  C   UNL A   1      41.902  19.543  26.126  1.00  0.00     0.251 C 
ATOM      5  H   UNL A   1      40.386  18.249  25.827  1.00  0.00     0.163 HD
BRANCH   4   6
ATOM      6  C   UNL A   1      42.239  20.946  26.453  1.00  0.00     0.039 A 
ATOM      7  C   UNL A   1      42.355  21.896  25.437  1.00  0.00     0.014 A 
ATOM      8  C   UNL A   1      42.507  21.289  27.781  1.00  0.00     0.014 A 
ATOM      9  C   UNL A   1      42.884  23.146  25.727  1.00  0.00     0.010 A 
ATOM     10  C   UNL A   1      42.964  22.575  28.080  1.00  0.00     0.010 A 
ATOM     11  C   UNL A   1      43.195  23.499  27.051  1.00  0.00    -0.014 A 
BRANCH  11  12
ATOM     12  C   UNL A   1      43.735  24.855  27.326  1.00  0.00     0.031 A 
ATOM     13  C   UNL A   1      45.166  25.199  27.019  1.00  0.00     0.074 A 
ATOM     14  C   UNL A   1      42.899  25.792  27.812  1.00  0.00     0.049 A 
ATOM     15  N   UNL A   1      45.781  26.347  27.150  1.00  0.00    -0.248 NA
ATOM     16  C   UNL A   1      46.023  24.117  26.509  1.00  0.00     0.031 C 
ATOM     17  C   UNL A   1      41.492  25.568  28.156  1.00  0.00     0.029 A 
ATOM     18  N   UNL A   1      43.095  27.123  28.071  1.00  0.00    -0.354 N 
ATOM     19  C   UNL A   1      47.100  26.122  26.770  1.00  0.00     0.074 A 
ATOM     20  C   UNL A   1      47.199  24.722  26.413  1.00  0.00     0.031 C 
ATOM     21  C   UNL A   1      40.937  26.732  28.524  1.00  0.00     0.029 A 
ATOM     22  C   UNL A   1      41.959  27.772  28.492  1.00  0.00     0.049 A 
ATOM     23  H   UNL A   1      43.964  27.572  27.965  1.00  0.00     0.167 HD
ATOM     24  C   UNL A   1      48.127  27.003  26.719  1.00  0.00     0.037 A 
ATOM     25  C   UNL A   1      41.761  29.062  28.820  1.00  0.00     0.037 A 
ATOM     26  C   UNL A   1      48.010  28.402  27.044  1.00  0.00     0.049 A 
ATOM     27  C   UNL A   1      42.911  30.021  28.735  1.00  0.00     0.074 A 
ATOM     28  C   UNL A   1      48.982  29.386  26.983  1.00  0.00     0.029 A 
ATOM     29  N   UNL A   1      46.849  29.018  27.488  1.00  0.00    -0.354 N 
ATOM     30  N   UNL A   1      44.144  29.794  28.351  1.00  0.00    -0.248 NA
ATOM     31  C   UNL A   1      42.645  31.409  29.131  1.00  0.00     0.031 C 
ATOM     32  C   UNL A   1      48.417  30.590  27.421  1.00  0.00     0.029 A 
ATOM     33  C   UNL A   1      47.084  30.365  27.721  1.00  0.00     0.049 A 
ATOM     34  H   UNL A   1      45.985  28.565  27.620  1.00  0.00     0.167 HD
ATOM     35  C   UNL A   1      44.801  31.013  28.449  1.00  0.00     0.074 A 
ATOM     36  C   UNL A   1      43.822  31.978  28.912  1.00  0.00     0.031 C 
ATOM     37  C   UNL A   1      46.097  31.308  28.184  1.00  0.00     0.037 A 
BRANCH  24  38
ATOM     38  C   UNL A   1      49.478  26.478  26.319  1.00  0.00     0.058 A 
ATOM     39  C   UNL A   1      49.960  26.593  25.005  1.00  0.00     0.135 A 
ATOM     40  C   UNL A   1      50.317  25.879  27.274  1.00  0.00     0.135 A 
ATOM     41  F   UNL A   1      49.194  27.144  24.051  1.00  0.00    -0.206 F 
ATOM     42  C   UNL A   1      51.215  26.110  24.646  1.00  0.00     0.059 A 
ATOM     43  C   UNL A   1      51.585  25.408  26.941  1.00  0.00     0.059 A 
ATOM     44  F   UNL A   1      49.907  25.744  28.543  1.00  0.00    -0.206 F 
ATOM     45  C   UNL A   1      52.018  25.514  25.620  1.00  0.00     0.060 A 
BRANCH  45  46
ATOM     46  S   UNL A   1      53.641  24.884  25.141  1.00  0.00     0.124 S 
ATOM     47  O   UNL A   1      53.861  25.581  23.877  1.00  0.00    -0.237 OA
ATOM     48  O   UNL A   1      54.486  25.307  26.253  1.00  0.00    -0.237 OA
ATOM     49  O   UNL A   1      53.427  23.444  25.034  1.00  0.00    -0.744 OA
ENDBRANCH  45  46
ENDBRANCH  24  38
BRANCH  25  50
ATOM     50  C   UNL A   1      40.409  29.512  29.240  1.00  0.00     0.058 A 
ATOM     51  C   UNL A   1      40.127  29.780  30.586  1.00  0.00     0.135 A 
ATOM     52  C   UNL A   1      39.389  29.724  28.300  1.00  0.00     0.135 A 
ATOM     53  F   UNL A   1      41.072  29.590  31.521  1.00  0.00    -0.206 F 
ATOM     54  C   UNL A   1      38.878  30.239  30.990  1.00  0.00     0.059 A 
ATOM     55  C   UNL A   1      38.140  30.205  28.675  1.00  0.00     0.059 A 
ATOM     56  F   UNL A   1      39.619  29.499  26.996  1.00  0.00    -0.206 F 
ATOM     57  C   UNL A   1      37.892  30.454  30.025  1.00  0.00     0.060 A 
BRANCH  57  58
ATOM     58  S   UNL A   1      36.295  31.118  30.543  1.00  0.00     0.124 S 
ATOM     59  O   UNL A   1      35.527  31.031  29.306  1.00  0.00    -0.237 OA
ATOM     60  O   UNL A   1      35.904  30.194  31.603  1.00  0.00    -0.237 OA
ATOM     61  O   UNL A   1      36.625  32.467  30.991  1.00  0.00    -0.744 OA
ENDBRANCH  57  58
ENDBRANCH  25  50
BRANCH  37  62
ATOM     62  C   UNL A   1      46.520  32.736  28.369  1.00  0.00     0.058 A 
ATOM     63  C   UNL A   1      47.028  33.197  29.593  1.00  0.00     0.135 A 
ATOM     64  C   UNL A   1      46.428  33.648  27.306  1.00  0.00     0.135 A 
ATOM     65  F   UNL A   1      47.126  32.364  30.641  1.00  0.00    -0.206 F 
ATOM     66  C   UNL A   1      47.404  34.524  29.767  1.00  0.00     0.059 A 
ATOM     67  C   UNL A   1      46.819  34.975  27.451  1.00  0.00     0.059 A 
ATOM     68  F   UNL A   1      45.955  33.253  26.114  1.00  0.00    -0.206 F 
ATOM     69  C   UNL A   1      47.291  35.407  28.691  1.00  0.00     0.060 A 
BRANCH  69  70
ATOM     70  S   UNL A   1      47.792  37.127  28.919  1.00  0.00     0.124 S 
ATOM     71  O   UNL A   1      49.047  36.972  29.646  1.00  0.00    -0.237 OA
ATOM     72  O   UNL A   1      47.910  37.608  27.546  1.00  0.00    -0.237 OA
ATOM     73  O   UNL A   1      46.689  37.700  29.684  1.00  0.00    -0.744 OA
ENDBRANCH  69  70
ENDBRANCH  37  62
ENDBRANCH  11  12
ENDBRANCH   4   6
ENDBRANCH   1   2
BRANCH   1  74
ATOM     74  C   UNL A   1      38.365  19.771  24.998  1.00  0.00     0.023 C 
BRANCH  74  75
ATOM     75  C   UNL A   1      37.452  20.942  24.634  1.00  0.00     0.023 C 
BRANCH  75  76
ATOM     76  C   UNL A   1      36.241  21.119  25.551  1.00  0.00     0.116 C 
BRANCH  76  77
ATOM     77  N   UNL A   1      35.116  20.341  25.087  1.00  0.00    -0.351 N 
ATOM     78  C   UNL A   1      33.873  20.732  24.638  1.00  0.00     0.281 C 
ATOM     79  H   UNL A   1      35.260  19.367  25.092  1.00  0.00     0.163 HD
ATOM     80  O   UNL A   1      33.103  19.801  24.358  1.00  0.00    -0.268 OA
BRANCH  78  81
ATOM     81  C   UNL A   1      33.489  22.287  24.460  1.00  0.00     0.177 C 
ATOM     82  C   UNL A   1      34.446  22.973  23.412  1.00  0.00     0.079 C 
ATOM     83  C   UNL A   1      32.318  22.739  23.549  1.00  0.00     0.079 C 
ATOM     84  C   UNL A   1      33.243  23.684  22.777  1.00  0.00     0.014 C 
BRANCH  81  85
ATOM     85  N   UNL A   1      33.571  23.027  25.759  1.00  0.00    -0.318 N 
ATOM     86  C   UNL A   1      32.827  22.410  26.872  1.00  0.00     0.291 C 
ATOM     87  C   UNL A   1      33.445  24.488  25.825  1.00  0.00     0.291 C 
ATOM     88  H   UNL A   1      34.577  22.899  25.866  1.00  0.00     0.349 HD
ATOM     89  C   UNL A   1      31.404  22.957  27.048  1.00  0.00     0.221 C 
ATOM     90  C   UNL A   1      32.020  25.012  26.067  1.00  0.00     0.221 C 
ATOM     91  O   UNL A   1      31.404  24.381  27.196  1.00  0.00    -0.370 OA
ENDBRANCH  81  85
ENDBRANCH  78  81
ENDBRANCH  76  77
ENDBRANCH  75  76
ENDBRANCH  74  75
ENDBRANCH   1  74
TORSDOF 15
ENDMDL
