MODEL 1
REMARK VINA RESULT:     -11.5      0.000      0.000
REMARK SMILES CO[C@H](C)c1noc(C[C@](C)(C(=O)NCCCCNC(=O)c2ccc(-c3c4nc(c(-c5c(F)cc(S(=O)(=O)[O-])cc5F)c5ccc([nH]5)c(-c5c(F)cc(S(=O)(=O)[O-])cc5F)c5nc(c(-c6c(F)cc(S(=O)(=O)[O-])cc6F)c6ccc3[nH]6)C=C5)C=C4)cc2)c2ccccc2)n1
REMARK SMILES IDX 16 1 15 2 14 3 12 4 13 5 10 7 11 8 9 9 8 10 5 11 6 12 94 13
REMARK SMILES IDX 7 14 3 15 4 16 2 17 1 18 88 19 89 20 93 21 90 22 92 23 91 24
REMARK SMILES IDX 17 25 18 26 19 27 20 28 21 30 22 31 23 32 87 33 24 34 86 35
REMARK SMILES IDX 25 36 26 37 27 38 80 39 28 40 85 41 79 42 81 43 29 44 84 45
REMARK SMILES IDX 78 46 77 47 30 49 64 50 43 51 63 52 44 53 47 54 62 55 82 56
REMARK SMILES IDX 45 57 46 58 61 60 83 61 48 62 31 63 32 64 41 65 33 66 34 67
REMARK SMILES IDX 40 68 42 69 35 70 36 71 37 72 38 73 39 74 65 75 66 76 75 77
REMARK SMILES IDX 67 78 68 79 74 80 76 81 69 82 70 83 71 84 72 85 73 86 49 87
REMARK SMILES IDX 50 88 59 89 51 90 52 91 58 92 60 93 53 94 54 95 55 96 56 97
REMARK SMILES IDX 57 98
REMARK H PARENT 14 6 19 29 81 48 47 59
REMARK Flexibility Score: inf
ROOT
ATOM      1  C   UNL A   1      33.110  28.460  24.687  1.00  0.00     0.023 C 
ENDROOT
BRANCH   1   2
ATOM      2  C   UNL A   1      32.209  27.342  24.176  1.00  0.00     0.116 C 
BRANCH   2   3
ATOM      3  N   UNL A   1      32.719  26.729  22.961  1.00  0.00    -0.355 N 
ATOM      4  C   UNL A   1      33.053  25.453  22.614  1.00  0.00     0.230 C 
ATOM      5  O   UNL A   1      33.323  25.309  21.418  1.00  0.00    -0.274 OA
ATOM      6  H   UNL A   1      32.851  27.375  22.230  1.00  0.00     0.163 HD
BRANCH   4   7
ATOM      7  C   UNL A   1      33.056  24.264  23.629  1.00  0.00     0.080 C 
ATOM      8  C   UNL A   1      32.446  24.734  24.973  1.00  0.00     0.027 C 
BRANCH   7   9
ATOM      9  C   UNL A   1      32.193  23.131  23.004  1.00  0.00     0.122 C 
BRANCH   9  10
ATOM     10  C   UNL A   1      32.222  21.831  23.727  1.00  0.00     0.228 A 
ATOM     11  C   UNL A   1      32.418  19.849  24.360  1.00  0.00     0.200 A 
ATOM     12  N   UNL A   1      31.918  20.471  25.438  1.00  0.00    -0.060 NA
ATOM     13  N   UNL A   1      32.644  20.669  23.281  1.00  0.00    -0.193 NA
ATOM     14  O   UNL A   1      31.786  21.794  25.017  1.00  0.00    -0.339 OA
BRANCH  11  15
ATOM     15  C   UNL A   1      32.774  18.392  24.340  1.00  0.00     0.186 C 
ATOM     16  C   UNL A   1      34.282  18.153  24.393  1.00  0.00     0.047 C 
BRANCH  15  17
ATOM     17  O   UNL A   1      32.093  17.553  25.298  1.00  0.00    -0.374 OA
ATOM     18  C   UNL A   1      32.606  16.233  25.427  1.00  0.00     0.195 C 
ENDBRANCH  15  17
ENDBRANCH  11  15
ENDBRANCH   9  10
ENDBRANCH   7   9
BRANCH   7  19
ATOM     19  C   UNL A   1      34.487  23.775  24.028  1.00  0.00    -0.032 A 
ATOM     20  C   UNL A   1      34.933  23.810  25.361  1.00  0.00     0.005 A 
ATOM     21  C   UNL A   1      35.367  23.215  23.078  1.00  0.00     0.005 A 
ATOM     22  C   UNL A   1      36.228  23.408  25.707  1.00  0.00     0.000 A 
ATOM     23  C   UNL A   1      36.663  22.821  23.420  1.00  0.00     0.000 A 
ATOM     24  C   UNL A   1      37.099  22.931  24.734  1.00  0.00     0.000 A 
ENDBRANCH   7  19
ENDBRANCH   4   7
ENDBRANCH   2   3
ENDBRANCH   1   2
BRANCH   1  25
ATOM     25  C   UNL A   1      34.014  28.075  25.860  1.00  0.00     0.023 C 
BRANCH  25  26
ATOM     26  C   UNL A   1      33.462  28.389  27.247  1.00  0.00     0.116 C 
BRANCH  26  27
ATOM     27  N   UNL A   1      33.404  29.814  27.537  1.00  0.00    -0.352 N 
ATOM     28  C   UNL A   1      34.382  30.632  28.053  1.00  0.00     0.251 C 
ATOM     29  H   UNL A   1      32.546  30.253  27.337  1.00  0.00     0.163 HD
ATOM     30  O   UNL A   1      34.120  31.797  28.339  1.00  0.00    -0.269 OA
BRANCH  28  31
ATOM     31  C   UNL A   1      35.734  30.087  28.294  1.00  0.00     0.039 A 
ATOM     32  C   UNL A   1      36.669  30.116  27.257  1.00  0.00     0.014 A 
ATOM     33  C   UNL A   1      36.089  29.589  29.551  1.00  0.00     0.014 A 
ATOM     34  C   UNL A   1      37.984  29.716  27.502  1.00  0.00     0.010 A 
ATOM     35  C   UNL A   1      37.414  29.257  29.812  1.00  0.00     0.010 A 
ATOM     36  C   UNL A   1      38.376  29.322  28.792  1.00  0.00    -0.014 A 
BRANCH  36  37
ATOM     37  C   UNL A   1      39.789  28.983  29.099  1.00  0.00     0.031 A 
ATOM     38  C   UNL A   1      40.693  30.009  29.726  1.00  0.00     0.074 A 
ATOM     39  C   UNL A   1      40.276  27.775  28.750  1.00  0.00     0.049 A 
ATOM     40  N   UNL A   1      41.969  29.929  30.001  1.00  0.00    -0.248 NA
ATOM     41  C   UNL A   1      40.085  31.306  30.063  1.00  0.00     0.031 C 
ATOM     42  C   UNL A   1      39.512  26.712  28.093  1.00  0.00     0.029 A 
ATOM     43  N   UNL A   1      41.533  27.241  28.889  1.00  0.00    -0.354 N 
ATOM     44  C   UNL A   1      42.320  31.165  30.531  1.00  0.00     0.074 A 
ATOM     45  C   UNL A   1      41.135  31.994  30.488  1.00  0.00     0.031 C 
ATOM     46  C   UNL A   1      40.309  25.645  27.913  1.00  0.00     0.029 A 
ATOM     47  C   UNL A   1      41.646  25.960  28.404  1.00  0.00     0.049 A 
ATOM     48  H   UNL A   1      42.283  27.730  29.299  1.00  0.00     0.167 HD
ATOM     49  C   UNL A   1      43.513  31.564  31.032  1.00  0.00     0.037 A 
ATOM     50  C   UNL A   1      42.709  25.134  28.358  1.00  0.00     0.037 A 
ATOM     51  C   UNL A   1      44.683  30.727  31.093  1.00  0.00     0.049 A 
ATOM     52  C   UNL A   1      44.026  25.601  28.914  1.00  0.00     0.074 A 
ATOM     53  C   UNL A   1      45.925  31.020  31.625  1.00  0.00     0.029 A 
ATOM     54  N   UNL A   1      44.754  29.430  30.604  1.00  0.00    -0.354 N 
ATOM     55  N   UNL A   1      44.327  26.754  29.462  1.00  0.00    -0.248 NA
ATOM     56  C   UNL A   1      45.148  24.654  28.850  1.00  0.00     0.031 C 
ATOM     57  C   UNL A   1      46.760  29.914  31.427  1.00  0.00     0.029 A 
ATOM     58  C   UNL A   1      46.023  28.915  30.809  1.00  0.00     0.049 A 
ATOM     59  H   UNL A   1      44.011  28.947  30.175  1.00  0.00     0.167 HD
ATOM     60  C   UNL A   1      45.664  26.662  29.833  1.00  0.00     0.074 A 
ATOM     61  C   UNL A   1      46.111  25.337  29.455  1.00  0.00     0.031 C 
ATOM     62  C   UNL A   1      46.450  27.590  30.433  1.00  0.00     0.037 A 
BRANCH  49  63
ATOM     63  C   UNL A   1      43.605  32.968  31.562  1.00  0.00     0.058 A 
ATOM     64  C   UNL A   1      43.944  34.047  30.728  1.00  0.00     0.135 A 
ATOM     65  C   UNL A   1      43.344  33.244  32.913  1.00  0.00     0.135 A 
ATOM     66  F   UNL A   1      44.219  33.838  29.431  1.00  0.00    -0.206 F 
ATOM     67  C   UNL A   1      44.057  35.342  31.223  1.00  0.00     0.059 A 
ATOM     68  C   UNL A   1      43.424  34.537  33.424  1.00  0.00     0.059 A 
ATOM     69  F   UNL A   1      43.016  32.251  33.755  1.00  0.00    -0.206 F 
ATOM     70  C   UNL A   1      43.801  35.576  32.574  1.00  0.00     0.060 A 
BRANCH  70  71
ATOM     71  S   UNL A   1      43.966  37.259  33.204  1.00  0.00     0.124 S 
ATOM     72  O   UNL A   1      42.806  37.355  34.085  1.00  0.00    -0.237 OA
ATOM     73  O   UNL A   1      45.264  37.219  33.871  1.00  0.00    -0.237 OA
ATOM     74  O   UNL A   1      43.909  38.080  31.999  1.00  0.00    -0.744 OA
ENDBRANCH  70  71
ENDBRANCH  49  63
BRANCH  50  75
ATOM     75  C   UNL A   1      42.563  23.765  27.795  1.00  0.00     0.058 A 
ATOM     76  C   UNL A   1      42.597  23.554  26.408  1.00  0.00     0.135 A 
ATOM     77  C   UNL A   1      42.404  22.643  28.623  1.00  0.00     0.135 A 
ATOM     78  F   UNL A   1      42.741  24.597  25.575  1.00  0.00    -0.206 F 
ATOM     79  C   UNL A   1      42.465  22.283  25.861  1.00  0.00     0.059 A 
ATOM     80  C   UNL A   1      42.293  21.358  28.099  1.00  0.00     0.059 A 
ATOM     81  F   UNL A   1      42.381  22.790  29.957  1.00  0.00    -0.206 F 
ATOM     82  C   UNL A   1      42.316  21.190  26.715  1.00  0.00     0.060 A 
BRANCH  82  83
ATOM     83  S   UNL A   1      42.199  19.537  25.996  1.00  0.00     0.124 S 
ATOM     84  O   UNL A   1      40.774  19.443  25.704  1.00  0.00    -0.237 OA
ATOM     85  O   UNL A   1      43.083  19.643  24.839  1.00  0.00    -0.237 OA
ATOM     86  O   UNL A   1      42.684  18.671  27.067  1.00  0.00    -0.744 OA
ENDBRANCH  82  83
ENDBRANCH  50  75
BRANCH  62  87
ATOM     87  C   UNL A   1      47.864  27.195  30.752  1.00  0.00     0.058 A 
ATOM     88  C   UNL A   1      48.203  26.587  31.971  1.00  0.00     0.135 A 
ATOM     89  C   UNL A   1      48.884  27.381  29.805  1.00  0.00     0.135 A 
ATOM     90  F   UNL A   1      47.266  26.394  32.913  1.00  0.00    -0.206 F 
ATOM     91  C   UNL A   1      49.509  26.196  32.248  1.00  0.00     0.059 A 
ATOM     92  C   UNL A   1      50.191  26.975  30.050  1.00  0.00     0.059 A 
ATOM     93  F   UNL A   1      48.609  27.950  28.619  1.00  0.00    -0.206 F 
ATOM     94  C   UNL A   1      50.496  26.393  31.280  1.00  0.00     0.060 A 
BRANCH  94  95
ATOM     95  S   UNL A   1      52.180  25.849  31.637  1.00  0.00     0.124 S 
ATOM     96  O   UNL A   1      52.834  26.051  30.348  1.00  0.00    -0.237 OA
ATOM     97  O   UNL A   1      52.585  26.760  32.703  1.00  0.00    -0.237 OA
ATOM     98  O   UNL A   1      52.008  24.458  32.043  1.00  0.00    -0.744 OA
ENDBRANCH  94  95
ENDBRANCH  62  87
ENDBRANCH  36  37
ENDBRANCH  28  31
ENDBRANCH  26  27
ENDBRANCH  25  26
ENDBRANCH   1  25
TORSDOF 19
ENDMDL
MODEL 2
REMARK VINA RESULT:     -11.3      4.555      9.957
REMARK SMILES CO[C@H](C)c1noc(C[C@](C)(C(=O)NCCCCNC(=O)c2ccc(-c3c4nc(c(-c5c(F)cc(S(=O)(=O)[O-])cc5F)c5ccc([nH]5)c(-c5c(F)cc(S(=O)(=O)[O-])cc5F)c5nc(c(-c6c(F)cc(S(=O)(=O)[O-])cc6F)c6ccc3[nH]6)C=C5)C=C4)cc2)c2ccccc2)n1
REMARK SMILES IDX 16 1 15 2 14 3 12 4 13 5 10 7 11 8 9 9 8 10 5 11 6 12 94 13
REMARK SMILES IDX 7 14 3 15 4 16 2 17 1 18 88 19 89 20 93 21 90 22 92 23 91 24
REMARK SMILES IDX 17 25 18 26 19 27 20 28 21 30 22 31 23 32 87 33 24 34 86 35
REMARK SMILES IDX 25 36 26 37 27 38 80 39 28 40 85 41 79 42 81 43 29 44 84 45
REMARK SMILES IDX 78 46 77 47 30 49 64 50 43 51 63 52 44 53 47 54 62 55 82 56
REMARK SMILES IDX 45 57 46 58 61 60 83 61 48 62 31 63 32 64 41 65 33 66 34 67
REMARK SMILES IDX 40 68 42 69 35 70 36 71 37 72 38 73 39 74 65 75 66 76 75 77
REMARK SMILES IDX 67 78 68 79 74 80 76 81 69 82 70 83 71 84 72 85 73 86 49 87
REMARK SMILES IDX 50 88 59 89 51 90 52 91 58 92 60 93 53 94 54 95 55 96 56 97
REMARK SMILES IDX 57 98
REMARK H PARENT 14 6 19 29 81 48 47 59
REMARK Flexibility Score: inf
ROOT
ATOM      1  C   UNL A   1      38.340  23.722  26.204  1.00  0.00     0.023 C 
ENDROOT
BRANCH   1   2
ATOM      2  C   UNL A   1      37.130  23.127  25.494  1.00  0.00     0.116 C 
BRANCH   2   3
ATOM      3  N   UNL A   1      36.200  22.498  26.415  1.00  0.00    -0.355 N 
ATOM      4  C   UNL A   1      34.866  22.213  26.366  1.00  0.00     0.230 C 
ATOM      5  O   UNL A   1      34.461  21.531  27.313  1.00  0.00    -0.274 OA
ATOM      6  H   UNL A   1      36.624  22.215  27.257  1.00  0.00     0.163 HD
BRANCH   4   7
ATOM      7  C   UNL A   1      33.937  22.671  25.196  1.00  0.00     0.080 C 
ATOM      8  C   UNL A   1      34.636  22.385  23.843  1.00  0.00     0.027 C 
BRANCH   7   9
ATOM      9  C   UNL A   1      32.621  21.850  25.313  1.00  0.00     0.122 C 
BRANCH   9  10
ATOM     10  C   UNL A   1      32.572  20.599  24.508  1.00  0.00     0.228 A 
ATOM     11  C   UNL A   1      32.699  18.664  23.731  1.00  0.00     0.200 A 
ATOM     12  N   UNL A   1      32.128  19.361  22.736  1.00  0.00    -0.060 NA
ATOM     13  N   UNL A   1      32.969  19.397  24.861  1.00  0.00    -0.193 NA
ATOM     14  O   UNL A   1      32.044  20.653  23.254  1.00  0.00    -0.339 OA
BRANCH  11  15
ATOM     15  C   UNL A   1      32.964  17.189  23.657  1.00  0.00     0.186 C 
ATOM     16  C   UNL A   1      34.408  16.867  23.279  1.00  0.00     0.047 C 
BRANCH  15  17
ATOM     17  O   UNL A   1      32.551  16.407  24.800  1.00  0.00    -0.374 OA
ATOM     18  C   UNL A   1      33.595  15.718  25.475  1.00  0.00     0.195 C 
ENDBRANCH  15  17
ENDBRANCH  11  15
ENDBRANCH   9  10
ENDBRANCH   7   9
BRANCH   7  19
ATOM     19  C   UNL A   1      33.679  24.212  25.157  1.00  0.00    -0.032 A 
ATOM     20  C   UNL A   1      33.055  24.882  26.224  1.00  0.00     0.005 A 
ATOM     21  C   UNL A   1      34.123  25.008  24.080  1.00  0.00     0.005 A 
ATOM     22  C   UNL A   1      32.791  26.255  26.168  1.00  0.00     0.000 A 
ATOM     23  C   UNL A   1      33.853  26.378  24.019  1.00  0.00     0.000 A 
ATOM     24  C   UNL A   1      33.174  27.000  25.058  1.00  0.00     0.000 A 
ENDBRANCH   7  19
ENDBRANCH   4   7
ENDBRANCH   2   3
ENDBRANCH   1   2
BRANCH   1  25
ATOM     25  C   UNL A   1      39.375  22.701  26.681  1.00  0.00     0.023 C 
BRANCH  25  26
ATOM     26  C   UNL A   1      40.746  23.268  27.036  1.00  0.00     0.116 C 
BRANCH  26  27
ATOM     27  N   UNL A   1      41.343  24.049  25.963  1.00  0.00    -0.352 N 
ATOM     28  C   UNL A   1      41.730  25.369  25.967  1.00  0.00     0.251 C 
ATOM     29  H   UNL A   1      41.489  23.567  25.118  1.00  0.00     0.163 HD
ATOM     30  O   UNL A   1      42.116  25.899  24.928  1.00  0.00    -0.269 OA
BRANCH  28  31
ATOM     31  C   UNL A   1      41.641  26.150  27.218  1.00  0.00     0.039 A 
ATOM     32  C   UNL A   1      42.640  27.083  27.504  1.00  0.00     0.014 A 
ATOM     33  C   UNL A   1      40.554  25.991  28.083  1.00  0.00     0.014 A 
ATOM     34  C   UNL A   1      42.511  27.912  28.620  1.00  0.00     0.010 A 
ATOM     35  C   UNL A   1      40.392  26.865  29.153  1.00  0.00     0.010 A 
ATOM     36  C   UNL A   1      41.365  27.837  29.430  1.00  0.00    -0.014 A 
BRANCH  36  37
ATOM     37  C   UNL A   1      41.161  28.772  30.566  1.00  0.00     0.031 A 
ATOM     38  C   UNL A   1      42.029  28.673  31.790  1.00  0.00     0.074 A 
ATOM     39  C   UNL A   1      40.152  29.664  30.521  1.00  0.00     0.049 A 
ATOM     40  N   UNL A   1      41.959  29.347  32.909  1.00  0.00    -0.248 NA
ATOM     41  C   UNL A   1      43.099  27.663  31.762  1.00  0.00     0.031 C 
ATOM     42  C   UNL A   1      39.212  29.826  29.409  1.00  0.00     0.029 A 
ATOM     43  N   UNL A   1      39.740  30.598  31.439  1.00  0.00    -0.354 N 
ATOM     44  C   UNL A   1      42.965  28.836  33.721  1.00  0.00     0.074 A 
ATOM     45  C   UNL A   1      43.594  27.759  32.987  1.00  0.00     0.031 C 
ATOM     46  C   UNL A   1      38.354  30.817  29.699  1.00  0.00     0.029 A 
ATOM     47  C   UNL A   1      38.655  31.336  31.030  1.00  0.00     0.049 A 
ATOM     48  H   UNL A   1      40.182  30.727  32.310  1.00  0.00     0.167 HD
ATOM     49  C   UNL A   1      43.347  29.244  34.955  1.00  0.00     0.037 A 
ATOM     50  C   UNL A   1      37.978  32.317  31.657  1.00  0.00     0.037 A 
ATOM     51  C   UNL A   1      42.732  30.330  35.672  1.00  0.00     0.049 A 
ATOM     52  C   UNL A   1      38.415  32.748  33.030  1.00  0.00     0.074 A 
ATOM     53  C   UNL A   1      43.075  30.853  36.905  1.00  0.00     0.029 A 
ATOM     54  N   UNL A   1      41.644  31.062  35.217  1.00  0.00    -0.354 N 
ATOM     55  N   UNL A   1      39.403  32.291  33.761  1.00  0.00    -0.248 NA
ATOM     56  C   UNL A   1      37.649  33.831  33.661  1.00  0.00     0.031 C 
ATOM     57  C   UNL A   1      42.173  31.878  37.214  1.00  0.00     0.029 A 
ATOM     58  C   UNL A   1      41.294  32.022  36.152  1.00  0.00     0.049 A 
ATOM     59  H   UNL A   1      41.188  30.920  34.356  1.00  0.00     0.167 HD
ATOM     60  C   UNL A   1      39.396  33.049  34.928  1.00  0.00     0.074 A 
ATOM     61  C   UNL A   1      38.310  34.000  34.800  1.00  0.00     0.031 C 
ATOM     62  C   UNL A   1      40.214  32.966  36.006  1.00  0.00     0.037 A 
BRANCH  49  63
ATOM     63  C   UNL A   1      44.491  28.512  35.601  1.00  0.00     0.058 A 
ATOM     64  C   UNL A   1      45.824  28.908  35.398  1.00  0.00     0.135 A 
ATOM     65  C   UNL A   1      44.256  27.411  36.439  1.00  0.00     0.135 A 
ATOM     66  F   UNL A   1      46.106  29.945  34.594  1.00  0.00    -0.206 F 
ATOM     67  C   UNL A   1      46.884  28.215  35.973  1.00  0.00     0.059 A 
ATOM     68  C   UNL A   1      45.301  26.719  37.047  1.00  0.00     0.059 A 
ATOM     69  F   UNL A   1      43.003  26.989  36.668  1.00  0.00    -0.206 F 
ATOM     70  C   UNL A   1      46.612  27.118  36.791  1.00  0.00     0.060 A 
BRANCH  70  71
ATOM     71  S   UNL A   1      48.000  26.220  37.517  1.00  0.00     0.124 S 
ATOM     72  O   UNL A   1      48.235  26.986  38.737  1.00  0.00    -0.237 OA
ATOM     73  O   UNL A   1      47.444  24.884  37.708  1.00  0.00    -0.237 OA
ATOM     74  O   UNL A   1      49.041  26.323  36.500  1.00  0.00    -0.744 OA
ENDBRANCH  70  71
ENDBRANCH  49  63
BRANCH  50  75
ATOM     75  C   UNL A   1      36.835  32.983  30.977  1.00  0.00     0.058 A 
ATOM     76  C   UNL A   1      35.513  32.682  31.339  1.00  0.00     0.135 A 
ATOM     77  C   UNL A   1      37.035  33.940  29.971  1.00  0.00     0.135 A 
ATOM     78  F   UNL A   1      35.271  31.769  32.292  1.00  0.00    -0.206 F 
ATOM     79  C   UNL A   1      34.430  33.295  30.719  1.00  0.00     0.059 A 
ATOM     80  C   UNL A   1      35.969  34.584  29.352  1.00  0.00     0.059 A 
ATOM     81  F   UNL A   1      38.282  34.274  29.601  1.00  0.00    -0.206 F 
ATOM     82  C   UNL A   1      34.668  34.247  29.727  1.00  0.00     0.060 A 
BRANCH  82  83
ATOM     83  S   UNL A   1      33.256  35.077  28.965  1.00  0.00     0.124 S 
ATOM     84  O   UNL A   1      32.386  35.292  30.115  1.00  0.00    -0.237 OA
ATOM     85  O   UNL A   1      33.873  36.273  28.397  1.00  0.00    -0.237 OA
ATOM     86  O   UNL A   1      32.783  34.102  27.987  1.00  0.00    -0.744 OA
ENDBRANCH  82  83
ENDBRANCH  50  75
BRANCH  62  87
ATOM     87  C   UNL A   1      39.991  33.951  37.119  1.00  0.00     0.058 A 
ATOM     88  C   UNL A   1      40.532  35.246  37.077  1.00  0.00     0.135 A 
ATOM     89  C   UNL A   1      39.184  33.611  38.216  1.00  0.00     0.135 A 
ATOM     90  F   UNL A   1      41.316  35.617  36.053  1.00  0.00    -0.206 F 
ATOM     91  C   UNL A   1      40.297  36.163  38.096  1.00  0.00     0.059 A 
ATOM     92  C   UNL A   1      38.916  34.520  39.234  1.00  0.00     0.059 A 
ATOM     93  F   UNL A   1      38.636  32.388  38.299  1.00  0.00    -0.206 F 
ATOM     94  C   UNL A   1      39.486  35.791  39.170  1.00  0.00     0.060 A 
BRANCH  94  95
ATOM     95  S   UNL A   1      39.160  37.002  40.469  1.00  0.00     0.124 S 
ATOM     96  O   UNL A   1      38.409  36.203  41.433  1.00  0.00    -0.237 OA
ATOM     97  O   UNL A   1      40.504  37.391  40.880  1.00  0.00    -0.237 OA
ATOM     98  O   UNL A   1      38.396  38.039  39.782  1.00  0.00    -0.744 OA
ENDBRANCH  94  95
ENDBRANCH  62  87
ENDBRANCH  36  37
ENDBRANCH  28  31
ENDBRANCH  26  27
ENDBRANCH  25  26
ENDBRANCH   1  25
TORSDOF 19
ENDMDL
MODEL 3
REMARK VINA RESULT:     -11.1      2.698      3.771
REMARK SMILES CO[C@H](C)c1noc(C[C@](C)(C(=O)NCCCCNC(=O)c2ccc(-c3c4nc(c(-c5c(F)cc(S(=O)(=O)[O-])cc5F)c5ccc([nH]5)c(-c5c(F)cc(S(=O)(=O)[O-])cc5F)c5nc(c(-c6c(F)cc(S(=O)(=O)[O-])cc6F)c6ccc3[nH]6)C=C5)C=C4)cc2)c2ccccc2)n1
REMARK SMILES IDX 16 1 15 2 14 3 12 4 13 5 10 7 11 8 9 9 8 10 5 11 6 12 94 13
REMARK SMILES IDX 7 14 3 15 4 16 2 17 1 18 88 19 89 20 93 21 90 22 92 23 91 24
REMARK SMILES IDX 17 25 18 26 19 27 20 28 21 30 22 31 23 32 87 33 24 34 86 35
REMARK SMILES IDX 25 36 26 37 27 38 80 39 28 40 85 41 79 42 81 43 29 44 84 45
REMARK SMILES IDX 78 46 77 47 30 49 64 50 43 51 63 52 44 53 47 54 62 55 82 56
REMARK SMILES IDX 45 57 46 58 61 60 83 61 48 62 31 63 32 64 41 65 33 66 34 67
REMARK SMILES IDX 40 68 42 69 35 70 36 71 37 72 38 73 39 74 65 75 66 76 75 77
REMARK SMILES IDX 67 78 68 79 74 80 76 81 69 82 70 83 71 84 72 85 73 86 49 87
REMARK SMILES IDX 50 88 59 89 51 90 52 91 58 92 60 93 53 94 54 95 55 96 56 97
REMARK SMILES IDX 57 98
REMARK H PARENT 14 6 19 29 81 48 47 59
REMARK Flexibility Score: inf
ROOT
ATOM      1  C   UNL A   1      31.896  27.600  26.558  1.00  0.00     0.023 C 
ENDROOT
BRANCH   1   2
ATOM      2  C   UNL A   1      31.573  26.131  26.310  1.00  0.00     0.116 C 
BRANCH   2   3
ATOM      3  N   UNL A   1      32.712  25.392  25.793  1.00  0.00    -0.355 N 
ATOM      4  C   UNL A   1      33.081  24.972  24.548  1.00  0.00     0.230 C 
ATOM      5  O   UNL A   1      34.214  24.483  24.497  1.00  0.00    -0.274 OA
ATOM      6  H   UNL A   1      33.358  25.141  26.492  1.00  0.00     0.163 HD
BRANCH   4   7
ATOM      7  C   UNL A   1      32.172  25.132  23.287  1.00  0.00     0.080 C 
ATOM      8  C   UNL A   1      33.017  24.893  22.012  1.00  0.00     0.027 C 
BRANCH   7   9
ATOM      9  C   UNL A   1      31.045  24.066  23.403  1.00  0.00     0.122 C 
BRANCH   9  10
ATOM     10  C   UNL A   1      31.435  22.790  24.062  1.00  0.00     0.228 A 
ATOM     11  C   UNL A   1      32.159  20.904  24.596  1.00  0.00     0.200 A 
ATOM     12  N   UNL A   1      31.554  21.332  25.714  1.00  0.00    -0.060 NA
ATOM     13  N   UNL A   1      32.126  21.797  23.551  1.00  0.00    -0.193 NA
ATOM     14  O   UNL A   1      31.069  22.590  25.359  1.00  0.00    -0.339 OA
BRANCH  11  15
ATOM     15  C   UNL A   1      32.879  19.591  24.498  1.00  0.00     0.186 C 
ATOM     16  C   UNL A   1      32.492  18.798  23.251  1.00  0.00     0.047 C 
BRANCH  15  17
ATOM     17  O   UNL A   1      34.316  19.637  24.646  1.00  0.00    -0.374 OA
ATOM     18  C   UNL A   1      34.836  20.852  25.168  1.00  0.00     0.195 C 
ENDBRANCH  15  17
ENDBRANCH  11  15
ENDBRANCH   9  10
ENDBRANCH   7   9
BRANCH   7  19
ATOM     19  C   UNL A   1      31.610  26.577  23.090  1.00  0.00    -0.032 A 
ATOM     20  C   UNL A   1      32.460  27.673  22.857  1.00  0.00     0.005 A 
ATOM     21  C   UNL A   1      30.222  26.834  23.071  1.00  0.00     0.005 A 
ATOM     22  C   UNL A   1      31.955  28.971  22.721  1.00  0.00     0.000 A 
ATOM     23  C   UNL A   1      29.717  28.131  22.942  1.00  0.00     0.000 A 
ATOM     24  C   UNL A   1      30.585  29.202  22.781  1.00  0.00     0.000 A 
ENDBRANCH   7  19
ENDBRANCH   4   7
ENDBRANCH   2   3
ENDBRANCH   1   2
BRANCH   1  25
ATOM     25  C   UNL A   1      33.355  27.888  26.918  1.00  0.00     0.023 C 
BRANCH  25  26
ATOM     26  C   UNL A   1      34.036  28.975  26.093  1.00  0.00     0.116 C 
BRANCH  26  27
ATOM     27  N   UNL A   1      33.797  30.319  26.600  1.00  0.00    -0.352 N 
ATOM     28  C   UNL A   1      34.503  31.024  27.546  1.00  0.00     0.251 C 
ATOM     29  H   UNL A   1      33.022  30.787  26.213  1.00  0.00     0.163 HD
ATOM     30  O   UNL A   1      34.090  32.112  27.936  1.00  0.00    -0.269 OA
BRANCH  28  31
ATOM     31  C   UNL A   1      35.739  30.446  28.113  1.00  0.00     0.039 A 
ATOM     32  C   UNL A   1      36.964  30.752  27.516  1.00  0.00     0.014 A 
ATOM     33  C   UNL A   1      35.691  29.638  29.253  1.00  0.00     0.014 A 
ATOM     34  C   UNL A   1      38.150  30.311  28.108  1.00  0.00     0.010 A 
ATOM     35  C   UNL A   1      36.874  29.260  29.879  1.00  0.00     0.010 A 
ATOM     36  C   UNL A   1      38.115  29.596  29.317  1.00  0.00    -0.014 A 
BRANCH  36  37
ATOM     37  C   UNL A   1      39.365  29.200  30.014  1.00  0.00     0.031 A 
ATOM     38  C   UNL A   1      39.807  29.937  31.248  1.00  0.00     0.074 A 
ATOM     39  C   UNL A   1      40.135  28.222  29.497  1.00  0.00     0.049 A 
ATOM     40  N   UNL A   1      40.899  29.789  31.952  1.00  0.00    -0.248 NA
ATOM     41  C   UNL A   1      38.915  30.999  31.739  1.00  0.00     0.031 C 
ATOM     42  C   UNL A   1      39.838  27.464  28.279  1.00  0.00     0.029 A 
ATOM     43  N   UNL A   1      41.332  27.703  29.925  1.00  0.00    -0.354 N 
ATOM     44  C   UNL A   1      40.832  30.744  32.960  1.00  0.00     0.074 A 
ATOM     45  C   UNL A   1      39.619  31.502  32.742  1.00  0.00     0.031 C 
ATOM     46  C   UNL A   1      40.811  26.561  28.075  1.00  0.00     0.029 A 
ATOM     47  C   UNL A   1      41.818  26.699  29.121  1.00  0.00     0.049 A 
ATOM     48  H   UNL A   1      41.798  28.020  30.732  1.00  0.00     0.167 HD
ATOM     49  C   UNL A   1      41.689  30.954  33.988  1.00  0.00     0.037 A 
ATOM     50  C   UNL A   1      42.950  25.975  29.216  1.00  0.00     0.037 A 
ATOM     51  C   UNL A   1      42.883  30.182  34.212  1.00  0.00     0.049 A 
ATOM     52  C   UNL A   1      43.891  26.230  30.361  1.00  0.00     0.074 A 
ATOM     53  C   UNL A   1      43.792  30.283  35.249  1.00  0.00     0.029 A 
ATOM     54  N   UNL A   1      43.335  29.164  33.383  1.00  0.00    -0.354 N 
ATOM     55  N   UNL A   1      43.785  27.101  31.336  1.00  0.00    -0.248 NA
ATOM     56  C   UNL A   1      45.103  25.401  30.423  1.00  0.00     0.031 C 
ATOM     57  C   UNL A   1      44.813  29.350  35.030  1.00  0.00     0.029 A 
ATOM     58  C   UNL A   1      44.516  28.639  33.879  1.00  0.00     0.049 A 
ATOM     59  H   UNL A   1      42.881  28.860  32.564  1.00  0.00     0.167 HD
ATOM     60  C   UNL A   1      44.901  26.907  32.142  1.00  0.00     0.074 A 
ATOM     61  C   UNL A   1      45.664  25.830  31.546  1.00  0.00     0.031 C 
ATOM     62  C   UNL A   1      45.260  27.561  33.275  1.00  0.00     0.037 A 
BRANCH  49  63
ATOM     63  C   UNL A   1      41.356  32.060  34.950  1.00  0.00     0.058 A 
ATOM     64  C   UNL A   1      40.458  31.864  36.012  1.00  0.00     0.135 A 
ATOM     65  C   UNL A   1      41.946  33.327  34.819  1.00  0.00     0.135 A 
ATOM     66  F   UNL A   1      39.853  30.676  36.174  1.00  0.00    -0.206 F 
ATOM     67  C   UNL A   1      40.127  32.894  36.886  1.00  0.00     0.059 A 
ATOM     68  C   UNL A   1      41.651  34.365  35.699  1.00  0.00     0.059 A 
ATOM     69  F   UNL A   1      42.812  33.571  33.822  1.00  0.00    -0.206 F 
ATOM     70  C   UNL A   1      40.725  34.143  36.718  1.00  0.00     0.060 A 
BRANCH  70  71
ATOM     71  S   UNL A   1      40.275  35.474  37.851  1.00  0.00     0.124 S 
ATOM     72  O   UNL A   1      39.884  36.527  36.920  1.00  0.00    -0.237 OA
ATOM     73  O   UNL A   1      39.189  34.876  38.622  1.00  0.00    -0.237 OA
ATOM     74  O   UNL A   1      41.506  35.718  38.594  1.00  0.00    -0.744 OA
ENDBRANCH  70  71
ENDBRANCH  49  63
BRANCH  50  75
ATOM     75  C   UNL A   1      43.239  24.914  28.215  1.00  0.00     0.058 A 
ATOM     76  C   UNL A   1      43.904  25.220  27.019  1.00  0.00     0.135 A 
ATOM     77  C   UNL A   1      42.875  23.576  28.436  1.00  0.00     0.135 A 
ATOM     78  F   UNL A   1      44.268  26.486  26.759  1.00  0.00    -0.206 F 
ATOM     79  C   UNL A   1      44.188  24.243  26.071  1.00  0.00     0.059 A 
ATOM     80  C   UNL A   1      43.167  22.577  27.513  1.00  0.00     0.059 A 
ATOM     81  F   UNL A   1      42.250  23.230  29.573  1.00  0.00    -0.206 F 
ATOM     82  C   UNL A   1      43.817  22.922  26.328  1.00  0.00     0.060 A 
BRANCH  82  83
ATOM     83  S   UNL A   1      44.236  21.652  25.115  1.00  0.00     0.124 S 
ATOM     84  O   UNL A   1      44.030  22.364  23.860  1.00  0.00    -0.237 OA
ATOM     85  O   UNL A   1      45.623  21.348  25.456  1.00  0.00    -0.237 OA
ATOM     86  O   UNL A   1      43.281  20.586  25.403  1.00  0.00    -0.744 OA
ENDBRANCH  82  83
ENDBRANCH  50  75
BRANCH  62  87
ATOM     87  C   UNL A   1      46.517  27.108  33.964  1.00  0.00     0.058 A 
ATOM     88  C   UNL A   1      47.763  27.688  33.681  1.00  0.00     0.135 A 
ATOM     89  C   UNL A   1      46.464  26.116  34.956  1.00  0.00     0.135 A 
ATOM     90  F   UNL A   1      47.868  28.635  32.735  1.00  0.00    -0.206 F 
ATOM     91  C   UNL A   1      48.918  27.285  34.343  1.00  0.00     0.059 A 
ATOM     92  C   UNL A   1      47.602  25.716  35.649  1.00  0.00     0.059 A 
ATOM     93  F   UNL A   1      45.294  25.536  35.271  1.00  0.00    -0.206 F 
ATOM     94  C   UNL A   1      48.827  26.299  35.327  1.00  0.00     0.060 A 
BRANCH  94  95
ATOM     95  S   UNL A   1      50.326  25.810  36.205  1.00  0.00     0.124 S 
ATOM     96  O   UNL A   1      50.733  24.625  35.456  1.00  0.00    -0.237 OA
ATOM     97  O   UNL A   1      51.179  26.983  36.047  1.00  0.00    -0.237 OA
ATOM     98  O   UNL A   1      49.858  25.563  37.565  1.00  0.00    -0.744 OA
ENDBRANCH  94  95
ENDBRANCH  62  87
ENDBRANCH  36  37
ENDBRANCH  28  31
ENDBRANCH  26  27
ENDBRANCH  25  26
ENDBRANCH   1  25
TORSDOF 19
ENDMDL
