MODEL 1
REMARK VINA RESULT:     -11.0      0.000      0.000
REMARK SMILES CC[C@@](O)(C(=O)NCCCCNC(=O)c1ccc(-c2c3nc(c(-c4c(F)cc(S(=O)(=O)[O-])cc4F)c4ccc([nH]4)c(-c4c(F)cc(S(=O)(=O)[O-])cc4F)c4nc(c(-c5c(F)cc(S(=O)(=O)[O-])cc5F)c5ccc2[nH]5)C=C4)C=C3)cc1)[C@@H](C)c1ccc(OC)c(OC)c1
REMARK SMILES IDX 9 1 8 2 7 3 5 4 6 5 3 7 2 8 1 9 4 10 81 12 82 13 83 14 84 15
REMARK SMILES IDX 92 16 85 17 89 18 86 19 90 20 91 21 87 22 88 23 10 24 11 25
REMARK SMILES IDX 12 26 13 27 14 29 15 30 16 31 80 32 17 33 79 34 18 35 19 36
REMARK SMILES IDX 20 37 73 38 21 39 78 40 72 41 74 42 22 43 77 44 71 45 70 46
REMARK SMILES IDX 23 48 57 49 36 50 56 51 37 52 40 53 55 54 75 55 38 56 39 57
REMARK SMILES IDX 54 59 76 60 41 61 24 62 25 63 34 64 26 65 27 66 33 67 35 68
REMARK SMILES IDX 28 69 29 70 30 71 31 72 32 73 58 74 59 75 68 76 60 77 61 78
REMARK SMILES IDX 67 79 69 80 62 81 63 82 64 83 65 84 66 85 42 86 43 87 52 88
REMARK SMILES IDX 44 89 45 90 51 91 53 92 46 93 47 94 48 95 49 96 50 97
REMARK H PARENT 7 6 4 11 12 28 74 47 40 58
REMARK Flexibility Score: inf
ROOT
ATOM      1  C   UNL A   1      39.206  22.920  26.313  1.00  0.00     0.023 C 
ENDROOT
BRANCH   1   2
ATOM      2  C   UNL A   1      38.155  21.948  25.780  1.00  0.00     0.116 C 
BRANCH   2   3
ATOM      3  N   UNL A   1      37.779  22.261  24.414  1.00  0.00    -0.354 N 
ATOM      4  C   UNL A   1      36.584  22.644  23.868  1.00  0.00     0.252 C 
ATOM      5  O   UNL A   1      36.608  22.914  22.665  1.00  0.00    -0.272 OA
ATOM      6  H   UNL A   1      38.515  22.183  23.764  1.00  0.00     0.163 HD
BRANCH   4   7
ATOM      7  C   UNL A   1      35.278  22.740  24.732  1.00  0.00     0.149 C 
BRANCH   7   8
ATOM      8  C   UNL A   1      34.740  21.313  25.033  1.00  0.00     0.043 C 
ATOM      9  C   UNL A   1      34.181  21.049  26.427  1.00  0.00     0.007 C 
ENDBRANCH   7   8
BRANCH   7  10
ATOM     10  O   UNL A   1      35.750  23.381  25.940  1.00  0.00    -0.379 OA
ATOM     11  H   UNL A   1      35.104  24.045  26.227  1.00  0.00     0.212 HD
ENDBRANCH   7  10
BRANCH   7  12
ATOM     12  C   UNL A   1      34.209  23.690  24.032  1.00  0.00     0.058 C 
ATOM     13  C   UNL A   1      33.221  22.895  23.150  1.00  0.00     0.016 C 
BRANCH  12  14
ATOM     14  C   UNL A   1      33.477  24.611  25.033  1.00  0.00    -0.038 A 
ATOM     15  C   UNL A   1      33.825  25.947  25.256  1.00  0.00     0.008 A 
ATOM     16  C   UNL A   1      32.348  24.124  25.714  1.00  0.00     0.054 A 
ATOM     17  C   UNL A   1      32.990  26.781  26.005  1.00  0.00     0.051 A 
ATOM     18  C   UNL A   1      31.444  24.969  26.373  1.00  0.00     0.160 A 
ATOM     19  C   UNL A   1      31.772  26.321  26.521  1.00  0.00     0.160 A 
BRANCH  18  20
ATOM     20  O   UNL A   1      30.264  24.491  26.882  1.00  0.00    -0.493 OA
ATOM     21  C   UNL A   1      30.118  23.070  26.872  1.00  0.00     0.278 C 
ENDBRANCH  18  20
BRANCH  19  22
ATOM     22  O   UNL A   1      31.047  27.310  27.131  1.00  0.00    -0.493 OA
ATOM     23  C   UNL A   1      31.726  28.509  27.471  1.00  0.00     0.278 C 
ENDBRANCH  19  22
ENDBRANCH  12  14
ENDBRANCH   7  12
ENDBRANCH   4   7
ENDBRANCH   2   3
ENDBRANCH   1   2
BRANCH   1  24
ATOM     24  C   UNL A   1      40.225  22.287  27.252  1.00  0.00     0.023 C 
BRANCH  24  25
ATOM     25  C   UNL A   1      41.473  23.122  27.479  1.00  0.00     0.116 C 
BRANCH  25  26
ATOM     26  N   UNL A   1      41.889  23.846  26.288  1.00  0.00    -0.352 N 
ATOM     27  C   UNL A   1      41.916  25.203  26.077  1.00  0.00     0.251 C 
ATOM     28  H   UNL A   1      42.191  23.290  25.533  1.00  0.00     0.163 HD
ATOM     29  O   UNL A   1      42.144  25.647  24.961  1.00  0.00    -0.269 OA
BRANCH  27  30
ATOM     30  C   UNL A   1      41.643  26.111  27.212  1.00  0.00     0.039 A 
ATOM     31  C   UNL A   1      40.486  25.921  27.968  1.00  0.00     0.014 A 
ATOM     32  C   UNL A   1      42.540  27.133  27.537  1.00  0.00     0.014 A 
ATOM     33  C   UNL A   1      40.246  26.741  29.071  1.00  0.00     0.010 A 
ATOM     34  C   UNL A   1      42.350  27.880  28.692  1.00  0.00     0.010 A 
ATOM     35  C   UNL A   1      41.184  27.716  29.451  1.00  0.00    -0.014 A 
BRANCH  35  36
ATOM     36  C   UNL A   1      40.930  28.616  30.602  1.00  0.00     0.031 A 
ATOM     37  C   UNL A   1      41.772  28.492  31.846  1.00  0.00     0.074 A 
ATOM     38  C   UNL A   1      39.928  29.514  30.546  1.00  0.00     0.049 A 
ATOM     39  N   UNL A   1      41.708  29.172  32.960  1.00  0.00    -0.248 NA
ATOM     40  C   UNL A   1      42.806  27.441  31.849  1.00  0.00     0.031 C 
ATOM     41  C   UNL A   1      39.011  29.692  29.418  1.00  0.00     0.029 A 
ATOM     42  N   UNL A   1      39.513  30.450  31.459  1.00  0.00    -0.354 N 
ATOM     43  C   UNL A   1      42.671  28.621  33.797  1.00  0.00     0.074 A 
ATOM     44  C   UNL A   1      43.261  27.508  33.090  1.00  0.00     0.031 C 
ATOM     45  C   UNL A   1      38.171  30.704  29.689  1.00  0.00     0.029 A 
ATOM     46  C   UNL A   1      38.463  31.223  31.021  1.00  0.00     0.049 A 
ATOM     47  H   UNL A   1      39.928  30.558  32.346  1.00  0.00     0.167 HD
ATOM     48  C   UNL A   1      43.051  29.023  35.033  1.00  0.00     0.037 A 
ATOM     49  C   UNL A   1      37.819  32.240  31.624  1.00  0.00     0.037 A 
ATOM     50  C   UNL A   1      42.480  30.154  35.716  1.00  0.00     0.049 A 
ATOM     51  C   UNL A   1      38.269  32.680  32.993  1.00  0.00     0.074 A 
ATOM     52  C   UNL A   1      42.836  30.689  36.941  1.00  0.00     0.029 A 
ATOM     53  N   UNL A   1      41.432  30.923  35.232  1.00  0.00    -0.354 N 
ATOM     54  N   UNL A   1      39.231  32.194  33.742  1.00  0.00    -0.248 NA
ATOM     55  C   UNL A   1      37.557  33.816  33.590  1.00  0.00     0.031 C 
ATOM     56  C   UNL A   1      41.965  31.748  37.223  1.00  0.00     0.029 A 
ATOM     57  C   UNL A   1      41.113  31.915  36.143  1.00  0.00     0.049 A 
ATOM     58  H   UNL A   1      40.981  30.784  34.368  1.00  0.00     0.167 HD
ATOM     59  C   UNL A   1      39.269  32.995  34.880  1.00  0.00     0.074 A 
ATOM     60  C   UNL A   1      38.236  33.997  34.715  1.00  0.00     0.031 C 
ATOM     61  C   UNL A   1      40.090  32.914  35.957  1.00  0.00     0.037 A 
BRANCH  48  62
ATOM     62  C   UNL A   1      44.131  28.232  35.723  1.00  0.00     0.058 A 
ATOM     63  C   UNL A   1      43.835  27.162  36.585  1.00  0.00     0.135 A 
ATOM     64  C   UNL A   1      45.484  28.537  35.506  1.00  0.00     0.135 A 
ATOM     65  F   UNL A   1      42.558  26.834  36.844  1.00  0.00    -0.206 F 
ATOM     66  C   UNL A   1      44.838  26.451  37.236  1.00  0.00     0.059 A 
ATOM     67  C   UNL A   1      46.505  27.818  36.120  1.00  0.00     0.059 A 
ATOM     68  F   UNL A   1      45.828  29.550  34.694  1.00  0.00    -0.206 F 
ATOM     69  C   UNL A   1      46.171  26.788  36.998  1.00  0.00     0.060 A 
BRANCH  69  70
ATOM     70  S   UNL A   1      47.460  25.860  37.854  1.00  0.00     0.124 S 
ATOM     71  O   UNL A   1      47.025  25.970  39.243  1.00  0.00    -0.237 OA
ATOM     72  O   UNL A   1      47.339  24.534  37.256  1.00  0.00    -0.237 OA
ATOM     73  O   UNL A   1      48.682  26.586  37.521  1.00  0.00    -0.744 OA
ENDBRANCH  69  70
ENDBRANCH  48  62
BRANCH  49  74
ATOM     74  C   UNL A   1      36.717  32.949  30.919  1.00  0.00     0.058 A 
ATOM     75  C   UNL A   1      35.378  32.731  31.274  1.00  0.00     0.135 A 
ATOM     76  C   UNL A   1      36.978  33.862  29.886  1.00  0.00     0.135 A 
ATOM     77  F   UNL A   1      35.076  31.864  32.253  1.00  0.00    -0.206 F 
ATOM     78  C   UNL A   1      34.333  33.374  30.616  1.00  0.00     0.059 A 
ATOM     79  C   UNL A   1      35.953  34.539  29.232  1.00  0.00     0.059 A 
ATOM     80  F   UNL A   1      38.243  34.121  29.520  1.00  0.00    -0.206 F 
ATOM     81  C   UNL A   1      34.632  34.280  29.598  1.00  0.00     0.060 A 
BRANCH  81  82
ATOM     82  S   UNL A   1      33.271  35.143  28.783  1.00  0.00     0.124 S 
ATOM     83  O   UNL A   1      32.490  35.605  29.924  1.00  0.00    -0.237 OA
ATOM     84  O   UNL A   1      33.972  36.175  28.027  1.00  0.00    -0.237 OA
ATOM     85  O   UNL A   1      32.649  34.098  27.975  1.00  0.00    -0.744 OA
ENDBRANCH  81  82
ENDBRANCH  49  74
BRANCH  61  86
ATOM     86  C   UNL A   1      39.952  33.978  37.013  1.00  0.00     0.058 A 
ATOM     87  C   UNL A   1      40.547  35.243  36.883  1.00  0.00     0.135 A 
ATOM     88  C   UNL A   1      39.180  33.733  38.161  1.00  0.00     0.135 A 
ATOM     89  F   UNL A   1      41.296  35.530  35.807  1.00  0.00    -0.206 F 
ATOM     90  C   UNL A   1      40.418  36.211  37.874  1.00  0.00     0.059 A 
ATOM     91  C   UNL A   1      39.008  34.698  39.147  1.00  0.00     0.059 A 
ATOM     92  F   UNL A   1      38.574  32.547  38.329  1.00  0.00    -0.206 F 
ATOM     93  C   UNL A   1      39.647  35.928  39.004  1.00  0.00     0.060 A 
BRANCH  93  94
ATOM     94  S   UNL A   1      39.482  37.194  40.279  1.00  0.00     0.124 S 
ATOM     95  O   UNL A   1      39.103  38.361  39.487  1.00  0.00    -0.237 OA
ATOM     96  O   UNL A   1      38.436  36.641  41.134  1.00  0.00    -0.237 OA
ATOM     97  O   UNL A   1      40.811  37.248  40.880  1.00  0.00    -0.744 OA
ENDBRANCH  93  94
ENDBRANCH  61  86
ENDBRANCH  35  36
ENDBRANCH  27  30
ENDBRANCH  25  26
ENDBRANCH  24  25
ENDBRANCH   1  24
TORSDOF 20
ENDMDL
MODEL 2
REMARK VINA RESULT:     -10.7      6.189     10.831
REMARK SMILES CC[C@@](O)(C(=O)NCCCCNC(=O)c1ccc(-c2c3nc(c(-c4c(F)cc(S(=O)(=O)[O-])cc4F)c4ccc([nH]4)c(-c4c(F)cc(S(=O)(=O)[O-])cc4F)c4nc(c(-c5c(F)cc(S(=O)(=O)[O-])cc5F)c5ccc2[nH]5)C=C4)C=C3)cc1)[C@@H](C)c1ccc(OC)c(OC)c1
REMARK SMILES IDX 9 1 8 2 7 3 5 4 6 5 3 7 2 8 1 9 4 10 81 12 82 13 83 14 84 15
REMARK SMILES IDX 92 16 85 17 89 18 86 19 90 20 91 21 87 22 88 23 10 24 11 25
REMARK SMILES IDX 12 26 13 27 14 29 15 30 16 31 80 32 17 33 79 34 18 35 19 36
REMARK SMILES IDX 20 37 73 38 21 39 78 40 72 41 74 42 22 43 77 44 71 45 70 46
REMARK SMILES IDX 23 48 57 49 36 50 56 51 37 52 40 53 55 54 75 55 38 56 39 57
REMARK SMILES IDX 54 59 76 60 41 61 24 62 25 63 34 64 26 65 27 66 33 67 35 68
REMARK SMILES IDX 28 69 29 70 30 71 31 72 32 73 58 74 59 75 68 76 60 77 61 78
REMARK SMILES IDX 67 79 69 80 62 81 63 82 64 83 65 84 66 85 42 86 43 87 52 88
REMARK SMILES IDX 44 89 45 90 51 91 53 92 46 93 47 94 48 95 49 96 50 97
REMARK H PARENT 7 6 4 11 12 28 74 47 40 58
REMARK Flexibility Score: inf
ROOT
ATOM      1  C   UNL A   1      36.978  19.844  25.027  1.00  0.00     0.023 C 
ENDROOT
BRANCH   1   2
ATOM      2  C   UNL A   1      36.220  21.168  25.053  1.00  0.00     0.116 C 
BRANCH   2   3
ATOM      3  N   UNL A   1      35.414  21.302  26.252  1.00  0.00    -0.354 N 
ATOM      4  C   UNL A   1      34.059  21.255  26.444  1.00  0.00     0.252 C 
ATOM      5  O   UNL A   1      33.683  21.328  27.617  1.00  0.00    -0.272 OA
ATOM      6  H   UNL A   1      35.934  21.452  27.074  1.00  0.00     0.163 HD
BRANCH   4   7
ATOM      7  C   UNL A   1      33.063  21.107  25.243  1.00  0.00     0.149 C 
BRANCH   7   8
ATOM      8  C   UNL A   1      33.302  19.749  24.526  1.00  0.00     0.043 C 
ATOM      9  C   UNL A   1      32.873  18.481  25.256  1.00  0.00     0.007 C 
ENDBRANCH   7   8
BRANCH   7  10
ATOM     10  O   UNL A   1      31.775  21.126  25.900  1.00  0.00    -0.379 OA
ATOM     11  H   UNL A   1      31.223  21.822  25.510  1.00  0.00     0.212 HD
ENDBRANCH   7  10
BRANCH   7  12
ATOM     12  C   UNL A   1      33.161  22.366  24.272  1.00  0.00     0.058 C 
ATOM     13  C   UNL A   1      32.068  22.337  23.180  1.00  0.00     0.016 C 
BRANCH  12  14
ATOM     14  C   UNL A   1      33.183  23.710  25.031  1.00  0.00    -0.038 A 
ATOM     15  C   UNL A   1      34.277  24.581  25.035  1.00  0.00     0.008 A 
ATOM     16  C   UNL A   1      32.024  24.140  25.700  1.00  0.00     0.054 A 
ATOM     17  C   UNL A   1      34.153  25.873  25.555  1.00  0.00     0.051 A 
ATOM     18  C   UNL A   1      31.847  25.464  26.125  1.00  0.00     0.160 A 
ATOM     19  C   UNL A   1      32.931  26.345  26.052  1.00  0.00     0.160 A 
BRANCH  18  20
ATOM     20  O   UNL A   1      30.644  25.897  26.621  1.00  0.00    -0.493 OA
ATOM     21  C   UNL A   1      29.488  25.234  26.105  1.00  0.00     0.278 C 
ENDBRANCH  18  20
BRANCH  19  22
ATOM     22  O   UNL A   1      32.980  27.664  26.416  1.00  0.00    -0.493 OA
ATOM     23  C   UNL A   1      34.003  28.466  25.845  1.00  0.00     0.278 C 
ENDBRANCH  19  22
ENDBRANCH  12  14
ENDBRANCH   7  12
ENDBRANCH   4   7
ENDBRANCH   2   3
ENDBRANCH   1   2
BRANCH   1  24
ATOM     24  C   UNL A   1      38.466  19.980  24.729  1.00  0.00     0.023 C 
BRANCH  24  25
ATOM     25  C   UNL A   1      39.330  20.241  25.951  1.00  0.00     0.116 C 
BRANCH  25  26
ATOM     26  N   UNL A   1      40.361  19.231  26.137  1.00  0.00    -0.352 N 
ATOM     27  C   UNL A   1      41.710  19.410  26.322  1.00  0.00     0.251 C 
ATOM     28  H   UNL A   1      40.050  18.297  26.130  1.00  0.00     0.163 HD
ATOM     29  O   UNL A   1      42.466  18.448  26.304  1.00  0.00    -0.269 OA
BRANCH  27  30
ATOM     30  C   UNL A   1      42.233  20.780  26.516  1.00  0.00     0.039 A 
ATOM     31  C   UNL A   1      42.406  21.260  27.814  1.00  0.00     0.014 A 
ATOM     32  C   UNL A   1      42.566  21.576  25.416  1.00  0.00     0.014 A 
ATOM     33  C   UNL A   1      42.945  22.533  28.007  1.00  0.00     0.010 A 
ATOM     34  C   UNL A   1      43.195  22.798  25.612  1.00  0.00     0.010 A 
ATOM     35  C   UNL A   1      43.359  23.305  26.908  1.00  0.00    -0.014 A 
BRANCH  35  36
ATOM     36  C   UNL A   1      43.906  24.672  27.094  1.00  0.00     0.031 A 
ATOM     37  C   UNL A   1      42.996  25.781  27.554  1.00  0.00     0.074 A 
ATOM     38  C   UNL A   1      45.200  24.923  26.818  1.00  0.00     0.049 A 
ATOM     39  N   UNL A   1      43.271  27.041  27.769  1.00  0.00    -0.248 NA
ATOM     40  C   UNL A   1      41.580  25.436  27.773  1.00  0.00     0.031 C 
ATOM     41  C   UNL A   1      46.165  23.942  26.315  1.00  0.00     0.029 A 
ATOM     42  N   UNL A   1      45.929  26.080  26.923  1.00  0.00    -0.354 N 
ATOM     43  C   UNL A   1      42.067  27.637  28.125  1.00  0.00     0.074 A 
ATOM     44  C   UNL A   1      41.046  26.619  28.033  1.00  0.00     0.031 C 
ATOM     45  C   UNL A   1      47.367  24.529  26.197  1.00  0.00     0.029 A 
ATOM     46  C   UNL A   1      47.252  25.933  26.580  1.00  0.00     0.049 A 
ATOM     47  H   UNL A   1      45.540  26.936  27.216  1.00  0.00     0.167 HD
ATOM     48  C   UNL A   1      41.835  28.911  28.522  1.00  0.00     0.037 A 
ATOM     49  C   UNL A   1      48.258  26.828  26.584  1.00  0.00     0.037 A 
ATOM     50  C   UNL A   1      42.865  29.910  28.642  1.00  0.00     0.049 A 
ATOM     51  C   UNL A   1      47.980  28.236  27.043  1.00  0.00     0.074 A 
ATOM     52  C   UNL A   1      42.752  31.211  29.097  1.00  0.00     0.029 A 
ATOM     53  N   UNL A   1      44.196  29.717  28.302  1.00  0.00    -0.354 N 
ATOM     54  N   UNL A   1      46.849  28.765  27.446  1.00  0.00    -0.248 NA
ATOM     55  C   UNL A   1      49.118  29.162  27.062  1.00  0.00     0.031 C 
ATOM     56  C   UNL A   1      44.005  31.823  28.980  1.00  0.00     0.029 A 
ATOM     57  C   UNL A   1      44.912  30.883  28.518  1.00  0.00     0.049 A 
ATOM     58  H   UNL A   1      44.576  28.877  27.959  1.00  0.00     0.167 HD
ATOM     59  C   UNL A   1      47.150  30.075  27.811  1.00  0.00     0.074 A 
ATOM     60  C   UNL A   1      48.569  30.251  27.582  1.00  0.00     0.031 C 
ATOM     61  C   UNL A   1      46.329  31.038  28.298  1.00  0.00     0.037 A 
BRANCH  48  62
ATOM     62  C   UNL A   1      40.416  29.293  28.849  1.00  0.00     0.058 A 
ATOM     63  C   UNL A   1      39.972  29.445  30.173  1.00  0.00     0.135 A 
ATOM     64  C   UNL A   1      39.489  29.528  27.820  1.00  0.00     0.135 A 
ATOM     65  F   UNL A   1      40.809  29.219  31.199  1.00  0.00    -0.206 F 
ATOM     66  C   UNL A   1      38.652  29.776  30.466  1.00  0.00     0.059 A 
ATOM     67  C   UNL A   1      38.173  29.893  28.089  1.00  0.00     0.059 A 
ATOM     68  F   UNL A   1      39.855  29.396  26.535  1.00  0.00    -0.206 F 
ATOM     69  C   UNL A   1      37.760  29.997  29.416  1.00  0.00     0.060 A 
BRANCH  69  70
ATOM     70  S   UNL A   1      36.051  30.420  29.814  1.00  0.00     0.124 S 
ATOM     71  O   UNL A   1      36.085  31.877  29.727  1.00  0.00    -0.237 OA
ATOM     72  O   UNL A   1      35.308  29.741  28.758  1.00  0.00    -0.237 OA
ATOM     73  O   UNL A   1      35.868  29.876  31.156  1.00  0.00    -0.744 OA
ENDBRANCH  69  70
ENDBRANCH  48  62
BRANCH  49  74
ATOM     74  C   UNL A   1      49.631  26.410  26.193  1.00  0.00     0.058 A 
ATOM     75  C   UNL A   1      50.462  25.731  27.096  1.00  0.00     0.135 A 
ATOM     76  C   UNL A   1      50.138  26.670  24.910  1.00  0.00     0.135 A 
ATOM     77  F   UNL A   1      50.026  25.463  28.337  1.00  0.00    -0.206 F 
ATOM     78  C   UNL A   1      51.754  25.344  26.752  1.00  0.00     0.059 A 
ATOM     79  C   UNL A   1      51.415  26.268  24.532  1.00  0.00     0.059 A 
ATOM     80  F   UNL A   1      49.377  27.300  24.001  1.00  0.00    -0.206 F 
ATOM     81  C   UNL A   1      52.220  25.614  25.464  1.00  0.00     0.060 A 
BRANCH  81  82
ATOM     82  S   UNL A   1      53.881  25.066  25.016  1.00  0.00     0.124 S 
ATOM     83  O   UNL A   1      54.109  25.801  23.777  1.00  0.00    -0.237 OA
ATOM     84  O   UNL A   1      54.666  25.496  26.168  1.00  0.00    -0.237 OA
ATOM     85  O   UNL A   1      53.730  23.621  24.873  1.00  0.00    -0.744 OA
ENDBRANCH  81  82
ENDBRANCH  49  74
BRANCH  61  86
ATOM     86  C   UNL A   1      46.956  32.351  28.685  1.00  0.00     0.058 A 
ATOM     87  C   UNL A   1      47.474  32.584  29.968  1.00  0.00     0.135 A 
ATOM     88  C   UNL A   1      47.067  33.383  27.737  1.00  0.00     0.135 A 
ATOM     89  F   UNL A   1      47.394  31.633  30.913  1.00  0.00    -0.206 F 
ATOM     90  C   UNL A   1      48.041  33.807  30.311  1.00  0.00     0.059 A 
ATOM     91  C   UNL A   1      47.661  34.600  28.047  1.00  0.00     0.059 A 
ATOM     92  F   UNL A   1      46.602  33.209  26.489  1.00  0.00    -0.206 F 
ATOM     93  C   UNL A   1      48.128  34.810  29.343  1.00  0.00     0.060 A 
BRANCH  93  94
ATOM     94  S   UNL A   1      48.871  36.391  29.798  1.00  0.00     0.124 S 
ATOM     95  O   UNL A   1      47.699  37.258  29.864  1.00  0.00    -0.237 OA
ATOM     96  O   UNL A   1      49.505  36.082  31.075  1.00  0.00    -0.237 OA
ATOM     97  O   UNL A   1      49.791  36.664  28.698  1.00  0.00    -0.744 OA
ENDBRANCH  93  94
ENDBRANCH  61  86
ENDBRANCH  35  36
ENDBRANCH  27  30
ENDBRANCH  25  26
ENDBRANCH  24  25
ENDBRANCH   1  24
TORSDOF 20
ENDMDL
MODEL 3
REMARK VINA RESULT:     -10.2      6.676     12.083
REMARK SMILES CC[C@@](O)(C(=O)NCCCCNC(=O)c1ccc(-c2c3nc(c(-c4c(F)cc(S(=O)(=O)[O-])cc4F)c4ccc([nH]4)c(-c4c(F)cc(S(=O)(=O)[O-])cc4F)c4nc(c(-c5c(F)cc(S(=O)(=O)[O-])cc5F)c5ccc2[nH]5)C=C4)C=C3)cc1)[C@@H](C)c1ccc(OC)c(OC)c1
REMARK SMILES IDX 9 1 8 2 7 3 5 4 6 5 3 7 2 8 1 9 4 10 81 12 82 13 83 14 84 15
REMARK SMILES IDX 92 16 85 17 89 18 86 19 90 20 91 21 87 22 88 23 10 24 11 25
REMARK SMILES IDX 12 26 13 27 14 29 15 30 16 31 80 32 17 33 79 34 18 35 19 36
REMARK SMILES IDX 20 37 73 38 21 39 78 40 72 41 74 42 22 43 77 44 71 45 70 46
REMARK SMILES IDX 23 48 57 49 36 50 56 51 37 52 40 53 55 54 75 55 38 56 39 57
REMARK SMILES IDX 54 59 76 60 41 61 24 62 25 63 34 64 26 65 27 66 33 67 35 68
REMARK SMILES IDX 28 69 29 70 30 71 31 72 32 73 58 74 59 75 68 76 60 77 61 78
REMARK SMILES IDX 67 79 69 80 62 81 63 82 64 83 65 84 66 85 42 86 43 87 52 88
REMARK SMILES IDX 44 89 45 90 51 91 53 92 46 93 47 94 48 95 49 96 50 97
REMARK H PARENT 7 6 4 11 12 28 74 47 40 58
REMARK Flexibility Score: inf
ROOT
ATOM      1  C   UNL A   1      32.869  29.501  27.545  1.00  0.00     0.023 C 
ENDROOT
BRANCH   1   2
ATOM      2  C   UNL A   1      31.785  29.046  26.570  1.00  0.00     0.116 C 
BRANCH   2   3
ATOM      3  N   UNL A   1      31.447  27.648  26.757  1.00  0.00    -0.354 N 
ATOM      4  C   UNL A   1      31.180  26.651  25.858  1.00  0.00     0.252 C 
ATOM      5  O   UNL A   1      30.999  25.530  26.340  1.00  0.00    -0.272 OA
ATOM      6  H   UNL A   1      31.401  27.366  27.700  1.00  0.00     0.163 HD
BRANCH   4   7
ATOM      7  C   UNL A   1      31.124  26.930  24.316  1.00  0.00     0.149 C 
BRANCH   7   8
ATOM      8  C   UNL A   1      30.039  26.032  23.658  1.00  0.00     0.043 C 
ATOM      9  C   UNL A   1      28.581  26.328  23.992  1.00  0.00     0.007 C 
ENDBRANCH   7   8
BRANCH   7  10
ATOM     10  O   UNL A   1      30.744  28.325  24.264  1.00  0.00    -0.379 OA
ATOM     11  H   UNL A   1      31.542  28.876  24.230  1.00  0.00     0.212 HD
ENDBRANCH   7  10
BRANCH   7  12
ATOM     12  C   UNL A   1      32.568  26.768  23.662  1.00  0.00     0.058 C 
ATOM     13  C   UNL A   1      33.394  28.070  23.761  1.00  0.00     0.016 C 
BRANCH  12  14
ATOM     14  C   UNL A   1      33.342  25.549  24.208  1.00  0.00    -0.038 A 
ATOM     15  C   UNL A   1      34.240  25.616  25.278  1.00  0.00     0.008 A 
ATOM     16  C   UNL A   1      33.089  24.277  23.667  1.00  0.00     0.054 A 
ATOM     17  C   UNL A   1      34.736  24.446  25.862  1.00  0.00     0.051 A 
ATOM     18  C   UNL A   1      33.486  23.094  24.306  1.00  0.00     0.160 A 
ATOM     19  C   UNL A   1      34.325  23.181  25.422  1.00  0.00     0.160 A 
BRANCH  18  20
ATOM     20  O   UNL A   1      33.082  21.866  23.848  1.00  0.00    -0.493 OA
ATOM     21  C   UNL A   1      32.148  21.888  22.767  1.00  0.00     0.278 C 
ENDBRANCH  18  20
BRANCH  19  22
ATOM     22  O   UNL A   1      34.834  22.163  26.184  1.00  0.00    -0.493 OA
ATOM     23  C   UNL A   1      34.031  21.673  27.248  1.00  0.00     0.278 C 
ENDBRANCH  19  22
ENDBRANCH  12  14
ENDBRANCH   7  12
ENDBRANCH   4   7
ENDBRANCH   2   3
ENDBRANCH   1   2
BRANCH   1  24
ATOM     24  C   UNL A   1      34.262  28.978  27.221  1.00  0.00     0.023 C 
BRANCH  24  25
ATOM     25  C   UNL A   1      35.393  29.904  27.635  1.00  0.00     0.116 C 
BRANCH  25  26
ATOM     26  N   UNL A   1      35.342  30.257  29.046  1.00  0.00    -0.352 N 
ATOM     27  C   UNL A   1      36.325  30.122  29.997  1.00  0.00     0.251 C 
ATOM     28  H   UNL A   1      34.493  30.644  29.360  1.00  0.00     0.163 HD
ATOM     29  O   UNL A   1      36.069  30.321  31.176  1.00  0.00    -0.269 OA
BRANCH  27  30
ATOM     30  C   UNL A   1      37.681  29.712  29.575  1.00  0.00     0.039 A 
ATOM     31  C   UNL A   1      38.026  29.802  28.226  1.00  0.00     0.014 A 
ATOM     32  C   UNL A   1      38.611  29.257  30.514  1.00  0.00     0.014 A 
ATOM     33  C   UNL A   1      39.320  29.464  27.827  1.00  0.00     0.010 A 
ATOM     34  C   UNL A   1      39.924  29.019  30.130  1.00  0.00     0.010 A 
ATOM     35  C   UNL A   1      40.283  29.086  28.778  1.00  0.00    -0.014 A 
BRANCH  35  36
ATOM     36  C   UNL A   1      41.654  28.694  28.366  1.00  0.00     0.031 A 
ATOM     37  C   UNL A   1      42.746  29.732  28.329  1.00  0.00     0.074 A 
ATOM     38  C   UNL A   1      41.908  27.425  27.995  1.00  0.00     0.049 A 
ATOM     39  N   UNL A   1      44.002  29.600  27.992  1.00  0.00    -0.248 NA
ATOM     40  C   UNL A   1      42.369  31.110  28.690  1.00  0.00     0.031 C 
ATOM     41  C   UNL A   1      40.921  26.344  27.939  1.00  0.00     0.029 A 
ATOM     42  N   UNL A   1      43.076  26.827  27.596  1.00  0.00    -0.354 N 
ATOM     43  C   UNL A   1      44.555  30.872  28.080  1.00  0.00     0.074 A 
ATOM     44  C   UNL A   1      43.485  31.775  28.436  1.00  0.00     0.031 C 
ATOM     45  C   UNL A   1      41.534  25.207  27.571  1.00  0.00     0.029 A 
ATOM     46  C   UNL A   1      42.948  25.484  27.330  1.00  0.00     0.049 A 
ATOM     47  H   UNL A   1      43.927  27.314  27.507  1.00  0.00     0.167 HD
ATOM     48  C   UNL A   1      45.843  31.252  27.908  1.00  0.00     0.037 A 
ATOM     49  C   UNL A   1      43.868  24.579  26.946  1.00  0.00     0.037 A 
ATOM     50  C   UNL A   1      46.908  30.338  27.585  1.00  0.00     0.049 A 
ATOM     51  C   UNL A   1      45.298  25.021  26.775  1.00  0.00     0.074 A 
ATOM     52  C   UNL A   1      48.258  30.604  27.453  1.00  0.00     0.029 A 
ATOM     53  N   UNL A   1      46.740  28.983  27.342  1.00  0.00    -0.354 N 
ATOM     54  N   UNL A   1      45.818  26.215  26.933  1.00  0.00    -0.248 NA
ATOM     55  C   UNL A   1      46.268  23.988  26.390  1.00  0.00     0.031 C 
ATOM     56  C   UNL A   1      48.901  29.420  27.076  1.00  0.00     0.029 A 
ATOM     57  C   UNL A   1      47.961  28.403  27.040  1.00  0.00     0.049 A 
ATOM     58  H   UNL A   1      45.881  28.504  27.379  1.00  0.00     0.167 HD
ATOM     59  C   UNL A   1      47.184  26.068  26.710  1.00  0.00     0.074 A 
ATOM     60  C   UNL A   1      47.406  24.668  26.412  1.00  0.00     0.031 C 
ATOM     61  C   UNL A   1      48.166  27.003  26.758  1.00  0.00     0.037 A 
BRANCH  48  62
ATOM     62  C   UNL A   1      46.166  32.714  28.061  1.00  0.00     0.058 A 
ATOM     63  C   UNL A   1      46.600  33.257  29.283  1.00  0.00     0.135 A 
ATOM     64  C   UNL A   1      46.059  33.584  26.964  1.00  0.00     0.135 A 
ATOM     65  F   UNL A   1      46.707  32.477  30.371  1.00  0.00    -0.206 F 
ATOM     66  C   UNL A   1      46.874  34.614  29.421  1.00  0.00     0.059 A 
ATOM     67  C   UNL A   1      46.361  34.939  27.071  1.00  0.00     0.059 A 
ATOM     68  F   UNL A   1      45.648  33.123  25.772  1.00  0.00    -0.206 F 
ATOM     69  C   UNL A   1      46.750  35.447  28.308  1.00  0.00     0.060 A 
BRANCH  69  70
ATOM     70  S   UNL A   1      47.106  37.206  28.506  1.00  0.00     0.124 S 
ATOM     71  O   UNL A   1      46.895  37.386  29.938  1.00  0.00    -0.237 OA
ATOM     72  O   UNL A   1      48.490  37.297  28.052  1.00  0.00    -0.237 OA
ATOM     73  O   UNL A   1      46.122  37.851  27.641  1.00  0.00    -0.744 OA
ENDBRANCH  69  70
ENDBRANCH  48  62
BRANCH  49  74
ATOM     74  C   UNL A   1      43.479  23.157  26.750  1.00  0.00     0.058 A 
ATOM     75  C   UNL A   1      43.408  22.600  25.464  1.00  0.00     0.135 A 
ATOM     76  C   UNL A   1      43.181  22.322  27.839  1.00  0.00     0.135 A 
ATOM     77  F   UNL A   1      43.680  23.358  24.390  1.00  0.00    -0.206 F 
ATOM     78  C   UNL A   1      43.034  21.276  25.260  1.00  0.00     0.059 A 
ATOM     79  C   UNL A   1      42.832  20.987  27.663  1.00  0.00     0.059 A 
ATOM     80  F   UNL A   1      43.253  22.799  29.091  1.00  0.00    -0.206 F 
ATOM     81  C   UNL A   1      42.751  20.475  26.368  1.00  0.00     0.060 A 
BRANCH  81  82
ATOM     82  S   UNL A   1      42.311  18.746  26.093  1.00  0.00     0.124 S 
ATOM     83  O   UNL A   1      43.206  18.383  25.000  1.00  0.00    -0.237 OA
ATOM     84  O   UNL A   1      42.609  18.145  27.390  1.00  0.00    -0.237 OA
ATOM     85  O   UNL A   1      40.893  18.811  25.752  1.00  0.00    -0.744 OA
ENDBRANCH  81  82
ENDBRANCH  49  74
BRANCH  61  86
ATOM     86  C   UNL A   1      49.580  26.533  26.550  1.00  0.00     0.058 A 
ATOM     87  C   UNL A   1      50.398  26.126  27.616  1.00  0.00     0.135 A 
ATOM     88  C   UNL A   1      50.113  26.458  25.252  1.00  0.00     0.135 A 
ATOM     89  F   UNL A   1      49.941  26.178  28.878  1.00  0.00    -0.206 F 
ATOM     90  C   UNL A   1      51.707  25.704  27.407  1.00  0.00     0.059 A 
ATOM     91  C   UNL A   1      51.406  26.006  25.016  1.00  0.00     0.059 A 
ATOM     92  F   UNL A   1      49.369  26.819  24.194  1.00  0.00    -0.206 F 
ATOM     93  C   UNL A   1      52.203  25.649  26.102  1.00  0.00     0.060 A 
BRANCH  93  94
ATOM     94  S   UNL A   1      53.900  25.094  25.842  1.00  0.00     0.124 S 
ATOM     95  O   UNL A   1      53.692  23.732  25.358  1.00  0.00    -0.237 OA
ATOM     96  O   UNL A   1      54.393  26.049  24.855  1.00  0.00    -0.237 OA
ATOM     97  O   UNL A   1      54.501  25.204  27.167  1.00  0.00    -0.744 OA
ENDBRANCH  93  94
ENDBRANCH  61  86
ENDBRANCH  35  36
ENDBRANCH  27  30
ENDBRANCH  25  26
ENDBRANCH  24  25
ENDBRANCH   1  24
TORSDOF 20
ENDMDL
