MODEL 1
REMARK VINA RESULT:      -9.9      0.000      0.000
REMARK SMILES Cc1oc2c(C)c3oc(=O)c(CCC(=O)N[C@H](Cc4ccc(Cl)cc4)C(=O)NCCCCNC(=O)c4ccc(-c5c6nc(c(-c7c(F)cc(S(=O)(=O)[O-])cc7F)c7ccc([nH]7)c(-c7c(F)cc(S(=O)(=O)[O-])cc7F)c7nc(c(-c8c(F)cc(S(=O)(=O)[O-])cc8F)c8ccc5[nH]8)C=C7)C=C6)cc4)c(C)c3cc2c1C
REMARK SMILES IDX 30 1 29 2 28 3 26 4 27 5 17 7 16 8 14 9 15 10 13 12 12 13
REMARK SMILES IDX 11 14 1 15 2 16 3 17 107 18 4 19 106 20 108 21 5 22 105 23
REMARK SMILES IDX 6 24 7 25 104 26 8 27 102 28 9 29 103 30 10 31 18 32 19 33
REMARK SMILES IDX 20 34 25 35 21 36 24 37 22 38 23 39 31 40 32 41 33 42 34 43
REMARK SMILES IDX 35 45 36 46 37 47 101 48 38 49 100 50 39 51 40 52 41 53
REMARK SMILES IDX 94 54 42 55 99 56 93 57 95 58 43 59 98 60 92 61 91 62 44 64
REMARK SMILES IDX 78 65 57 66 77 67 58 68 61 69 76 70 96 71 59 72 60 73 75 75
REMARK SMILES IDX 97 76 62 77 45 78 46 79 55 80 47 81 48 82 54 83 56 84 49 85
REMARK SMILES IDX 50 86 51 87 52 88 53 89 79 90 80 91 89 92 81 93 82 94 88 95
REMARK SMILES IDX 90 96 83 97 84 98 85 99 86 100 87 101 63 102 64 103 73 104
REMARK SMILES IDX 65 105 66 106 72 107 74 108 67 109 68 110 69 111 70 112
REMARK SMILES IDX 71 113
REMARK H PARENT 28 6 16 11 33 44 95 63 61 74
REMARK Flexibility Score: inf
ROOT
ATOM      1  C   UNL A   1      41.514  27.046  34.964  1.00  0.00     0.023 C 
ENDROOT
BRANCH   1   2
ATOM      2  C   UNL A   1      41.818  28.522  35.030  1.00  0.00     0.116 C 
BRANCH   2   3
ATOM      3  N   UNL A   1      41.047  29.450  35.891  1.00  0.00    -0.354 N 
ATOM      4  C   UNL A   1      41.055  30.845  36.339  1.00  0.00     0.242 C 
ATOM      5  O   UNL A   1      39.775  30.947  36.381  1.00  0.00    -0.273 OA
ATOM      6  H   UNL A   1      40.281  28.976  36.291  1.00  0.00     0.163 HD
BRANCH   4   7
ATOM      7  C   UNL A   1      42.557  32.303  36.961  1.00  0.00     0.175 C 
BRANCH   7   8
ATOM      8  N   UNL A   1      42.393  33.735  37.872  1.00  0.00    -0.344 N 
ATOM      9  C   UNL A   1      41.375  34.632  38.085  1.00  0.00     0.220 C 
ATOM     10  O   UNL A   1      41.605  35.609  38.801  1.00  0.00    -0.275 OA
ATOM     11  H   UNL A   1      43.217  33.974  38.355  1.00  0.00     0.164 HD
BRANCH   9  12
ATOM     12  C   UNL A   1      40.021  34.479  37.394  1.00  0.00     0.105 C 
BRANCH  12  13
ATOM     13  C   UNL A   1      39.604  35.664  36.529  1.00  0.00     0.053 C 
BRANCH  13  14
ATOM     14  C   UNL A   1      40.173  35.411  35.183  1.00  0.00     0.042 A 
ATOM     15  C   UNL A   1      44.516  35.176  27.449  1.00  0.00     0.088 C 
ATOM     16  C   UNL A   1      44.119  34.973  28.859  1.00  0.00     0.105 A 
ATOM     17  O   UNL A   1      43.014  34.221  29.061  1.00  0.00    -0.461 OA
ATOM     18  C   UNL A   1      44.614  35.435  30.063  1.00  0.00    -0.002 A 
ATOM     19  C   UNL A   1      42.710  34.255  30.392  1.00  0.00     0.141 A 
ATOM     20  C   UNL A   1      43.653  35.073  31.080  1.00  0.00     0.025 A 
ATOM     21  C   UNL A   1      45.842  36.236  30.261  1.00  0.00     0.049 C 
ATOM     22  C   UNL A   1      41.611  33.538  30.889  1.00  0.00     0.036 A 
ATOM     23  C   UNL A   1      43.568  35.458  32.492  1.00  0.00     0.024 A 
ATOM     24  C   UNL A   1      40.700  32.640  30.141  1.00  0.00     0.052 C 
ATOM     25  C   UNL A   1      41.531  33.892  32.212  1.00  0.00     0.145 A 
ATOM     26  C   UNL A   1      42.433  35.076  33.151  1.00  0.00     0.022 A 
ATOM     27  O   UNL A   1      40.016  33.312  33.017  1.00  0.00    -0.422 OA
ATOM     28  C   UNL A   1      41.598  35.889  34.691  1.00  0.00    -0.030 A 
ATOM     29  C   UNL A   1      39.154  33.991  34.407  1.00  0.00     0.339 A 
ATOM     30  C   UNL A   1      42.359  36.888  35.558  1.00  0.00     0.046 C 
ATOM     31  O   UNL A   1      38.196  33.425  34.911  1.00  0.00    -0.246 OA
ENDBRANCH  13  14
ENDBRANCH  12  13
ENDBRANCH   9  12
ENDBRANCH   7   8
BRANCH   7  32
ATOM     32  C   UNL A   1      44.007  32.976  36.091  1.00  0.00     0.070 C 
BRANCH  32  33
ATOM     33  C   UNL A   1      45.074  32.242  35.244  1.00  0.00    -0.045 A 
ATOM     34  C   UNL A   1      46.440  32.152  35.569  1.00  0.00     0.005 A 
ATOM     35  C   UNL A   1      44.668  31.652  34.027  1.00  0.00     0.005 A 
ATOM     36  C   UNL A   1      47.372  31.648  34.635  1.00  0.00     0.021 A 
ATOM     37  C   UNL A   1      45.593  31.170  33.089  1.00  0.00     0.021 A 
ATOM     38  C   UNL A   1      46.947  31.191  33.388  1.00  0.00     0.041 A 
ATOM     39  Cl  UNL A   1      48.092  30.706  32.195  1.00  0.00    -0.084 Cl
ENDBRANCH  32  33
ENDBRANCH   7  32
ENDBRANCH   4   7
ENDBRANCH   2   3
ENDBRANCH   1   2
BRANCH   1  40
ATOM     40  C   UNL A   1      41.887  26.208  36.158  1.00  0.00     0.023 C 
BRANCH  40  41
ATOM     41  C   UNL A   1      43.260  26.676  36.579  1.00  0.00     0.116 C 
BRANCH  41  42
ATOM     42  N   UNL A   1      44.161  25.526  36.707  1.00  0.00    -0.352 N 
ATOM     43  C   UNL A   1      44.649  24.744  35.700  1.00  0.00     0.251 C 
ATOM     44  H   UNL A   1      44.444  25.290  37.621  1.00  0.00     0.163 HD
ATOM     45  O   UNL A   1      44.969  23.577  35.886  1.00  0.00    -0.269 OA
BRANCH  43  46
ATOM     46  C   UNL A   1      44.847  25.397  34.406  1.00  0.00     0.039 A 
ATOM     47  C   UNL A   1      45.720  26.475  34.289  1.00  0.00     0.014 A 
ATOM     48  C   UNL A   1      44.088  24.941  33.323  1.00  0.00     0.014 A 
ATOM     49  C   UNL A   1      45.863  27.074  33.049  1.00  0.00     0.010 A 
ATOM     50  C   UNL A   1      44.287  25.475  32.084  1.00  0.00     0.010 A 
ATOM     51  C   UNL A   1      45.165  26.548  31.954  1.00  0.00    -0.014 A 
BRANCH  51  52
ATOM     52  C   UNL A   1      45.357  27.147  30.634  1.00  0.00     0.031 A 
ATOM     53  C   UNL A   1      45.171  26.088  29.553  1.00  0.00     0.074 A 
ATOM     54  C   UNL A   1      44.764  28.350  30.483  1.00  0.00     0.049 A 
ATOM     55  N   UNL A   1      44.039  25.620  29.107  1.00  0.00    -0.248 NA
ATOM     56  C   UNL A   1      46.323  25.276  29.144  1.00  0.00     0.031 C 
ATOM     57  C   UNL A   1      43.481  28.818  31.022  1.00  0.00     0.029 A 
ATOM     58  N   UNL A   1      45.331  29.480  29.926  1.00  0.00    -0.354 N 
ATOM     59  C   UNL A   1      44.322  24.510  28.311  1.00  0.00     0.074 A 
ATOM     60  C   UNL A   1      45.750  24.318  28.399  1.00  0.00     0.031 C 
ATOM     61  C   UNL A   1      43.249  30.066  30.576  1.00  0.00     0.029 A 
ATOM     62  C   UNL A   1      44.387  30.511  29.776  1.00  0.00     0.049 A 
ATOM     63  H   UNL A   1      46.279  29.555  29.668  1.00  0.00     0.167 HD
ATOM     64  C   UNL A   1      43.374  23.849  27.586  1.00  0.00     0.037 A 
ATOM     65  C   UNL A   1      44.287  31.140  28.565  1.00  0.00     0.037 A 
ATOM     66  C   UNL A   1      42.048  24.380  27.711  1.00  0.00     0.049 A 
ATOM     67  C   UNL A   1      43.497  30.110  27.768  1.00  0.00     0.074 A 
ATOM     68  C   UNL A   1      40.841  24.047  28.281  1.00  0.00     0.029 A 
ATOM     69  N   UNL A   1      41.808  25.577  27.080  1.00  0.00    -0.354 N 
ATOM     70  N   UNL A   1      42.218  29.850  27.896  1.00  0.00    -0.248 NA
ATOM     71  C   UNL A   1      44.261  29.046  27.113  1.00  0.00     0.031 C 
ATOM     72  C   UNL A   1      40.118  25.280  28.372  1.00  0.00     0.029 A 
ATOM     73  C   UNL A   1      40.928  26.289  27.847  1.00  0.00     0.049 A 
ATOM     74  H   UNL A   1      42.202  25.871  26.226  1.00  0.00     0.167 HD
ATOM     75  C   UNL A   1      42.072  28.489  27.600  1.00  0.00     0.074 A 
ATOM     76  C   UNL A   1      43.367  28.063  27.108  1.00  0.00     0.031 C 
ATOM     77  C   UNL A   1      40.979  27.735  27.935  1.00  0.00     0.037 A 
BRANCH  64  78
ATOM     78  C   UNL A   1      43.641  22.896  26.473  1.00  0.00     0.058 A 
ATOM     79  C   UNL A   1      43.148  21.587  26.638  1.00  0.00     0.135 A 
ATOM     80  C   UNL A   1      44.535  23.121  25.419  1.00  0.00     0.135 A 
ATOM     81  F   UNL A   1      42.292  21.317  27.638  1.00  0.00    -0.206 F 
ATOM     82  C   UNL A   1      43.567  20.531  25.842  1.00  0.00     0.059 A 
ATOM     83  C   UNL A   1      44.956  22.074  24.587  1.00  0.00     0.059 A 
ATOM     84  F   UNL A   1      45.051  24.344  25.217  1.00  0.00    -0.206 F 
ATOM     85  C   UNL A   1      44.486  20.779  24.826  1.00  0.00     0.060 A 
BRANCH  85  86
ATOM     86  S   UNL A   1      45.064  19.364  23.861  1.00  0.00     0.124 S 
ATOM     87  O   UNL A   1      44.479  18.241  24.588  1.00  0.00    -0.237 OA
ATOM     88  O   UNL A   1      44.487  19.638  22.549  1.00  0.00    -0.237 OA
ATOM     89  O   UNL A   1      46.518  19.470  23.937  1.00  0.00    -0.744 OA
ENDBRANCH  85  86
ENDBRANCH  64  78
BRANCH  65  90
ATOM     90  C   UNL A   1      45.600  31.743  28.137  1.00  0.00     0.058 A 
ATOM     91  C   UNL A   1      46.425  32.312  29.137  1.00  0.00     0.135 A 
ATOM     92  C   UNL A   1      46.149  31.693  26.847  1.00  0.00     0.135 A 
ATOM     93  F   UNL A   1      45.947  32.512  30.378  1.00  0.00    -0.206 F 
ATOM     94  C   UNL A   1      47.764  32.606  28.924  1.00  0.00     0.059 A 
ATOM     95  C   UNL A   1      47.497  31.975  26.608  1.00  0.00     0.059 A 
ATOM     96  F   UNL A   1      45.405  31.324  25.796  1.00  0.00    -0.206 F 
ATOM     97  C   UNL A   1      48.308  32.381  27.666  1.00  0.00     0.060 A 
BRANCH  97  98
ATOM     98  S   UNL A   1      50.091  32.568  27.474  1.00  0.00     0.124 S 
ATOM     99  O   UNL A   1      50.596  31.400  28.188  1.00  0.00    -0.237 OA
ATOM    100  O   UNL A   1      50.232  32.533  26.020  1.00  0.00    -0.237 OA
ATOM    101  O   UNL A   1      50.368  33.857  28.097  1.00  0.00    -0.744 OA
ENDBRANCH  97  98
ENDBRANCH  65  90
BRANCH  77 102
ATOM    102  C   UNL A   1      39.834  28.459  28.567  1.00  0.00     0.058 A 
ATOM    103  C   UNL A   1      39.635  28.385  29.950  1.00  0.00     0.135 A 
ATOM    104  C   UNL A   1      38.992  29.313  27.829  1.00  0.00     0.135 A 
ATOM    105  F   UNL A   1      40.424  27.607  30.710  1.00  0.00    -0.206 F 
ATOM    106  C   UNL A   1      38.663  29.148  30.586  1.00  0.00     0.059 A 
ATOM    107  C   UNL A   1      38.036  30.112  28.450  1.00  0.00     0.059 A 
ATOM    108  F   UNL A   1      39.114  29.416  26.495  1.00  0.00    -0.206 F 
ATOM    109  C   UNL A   1      37.885  30.027  29.832  1.00  0.00     0.060 A 
BRANCH 109 110
ATOM    110  S   UNL A   1      36.735  31.110  30.704  1.00  0.00     0.124 S 
ATOM    111  O   UNL A   1      35.768  31.433  29.660  1.00  0.00    -0.237 OA
ATOM    112  O   UNL A   1      36.248  30.244  31.774  1.00  0.00    -0.237 OA
ATOM    113  O   UNL A   1      37.575  32.221  31.144  1.00  0.00    -0.744 OA
ENDBRANCH 109 110
ENDBRANCH  77 102
ENDBRANCH  51  52
ENDBRANCH  43  46
ENDBRANCH  41  42
ENDBRANCH  40  41
ENDBRANCH   1  40
TORSDOF 20
ENDMDL
MODEL 2
REMARK VINA RESULT:      -9.7      4.812      9.100
REMARK SMILES Cc1oc2c(C)c3oc(=O)c(CCC(=O)N[C@H](Cc4ccc(Cl)cc4)C(=O)NCCCCNC(=O)c4ccc(-c5c6nc(c(-c7c(F)cc(S(=O)(=O)[O-])cc7F)c7ccc([nH]7)c(-c7c(F)cc(S(=O)(=O)[O-])cc7F)c7nc(c(-c8c(F)cc(S(=O)(=O)[O-])cc8F)c8ccc5[nH]8)C=C7)C=C6)cc4)c(C)c3cc2c1C
REMARK SMILES IDX 30 1 29 2 28 3 26 4 27 5 17 7 16 8 14 9 15 10 13 12 12 13
REMARK SMILES IDX 11 14 1 15 2 16 3 17 107 18 4 19 106 20 108 21 5 22 105 23
REMARK SMILES IDX 6 24 7 25 104 26 8 27 102 28 9 29 103 30 10 31 18 32 19 33
REMARK SMILES IDX 20 34 25 35 21 36 24 37 22 38 23 39 31 40 32 41 33 42 34 43
REMARK SMILES IDX 35 45 36 46 37 47 101 48 38 49 100 50 39 51 40 52 41 53
REMARK SMILES IDX 94 54 42 55 99 56 93 57 95 58 43 59 98 60 92 61 91 62 44 64
REMARK SMILES IDX 78 65 57 66 77 67 58 68 61 69 76 70 96 71 59 72 60 73 75 75
REMARK SMILES IDX 97 76 62 77 45 78 46 79 55 80 47 81 48 82 54 83 56 84 49 85
REMARK SMILES IDX 50 86 51 87 52 88 53 89 79 90 80 91 89 92 81 93 82 94 88 95
REMARK SMILES IDX 90 96 83 97 84 98 85 99 86 100 87 101 63 102 64 103 73 104
REMARK SMILES IDX 65 105 66 106 72 107 74 108 67 109 68 110 69 111 70 112
REMARK SMILES IDX 71 113
REMARK H PARENT 28 6 16 11 33 44 95 63 61 74
REMARK Flexibility Score: inf
ROOT
ATOM      1  C   UNL A   1      46.777  24.603  38.451  1.00  0.00     0.023 C 
ENDROOT
BRANCH   1   2
ATOM      2  C   UNL A   1      47.154  23.352  39.206  1.00  0.00     0.116 C 
BRANCH   2   3
ATOM      3  N   UNL A   1      46.140  22.476  39.839  1.00  0.00    -0.354 N 
ATOM      4  C   UNL A   1      45.881  21.060  40.108  1.00  0.00     0.242 C 
ATOM      5  O   UNL A   1      45.296  21.273  41.232  1.00  0.00    -0.273 OA
ATOM      6  H   UNL A   1      45.401  23.023  40.194  1.00  0.00     0.163 HD
BRANCH   4   7
ATOM      7  C   UNL A   1      46.125  19.171  39.039  1.00  0.00     0.175 C 
BRANCH   7   8
ATOM      8  N   UNL A   1      45.680  18.737  37.450  1.00  0.00    -0.344 N 
ATOM      9  C   UNL A   1      45.927  19.257  36.204  1.00  0.00     0.220 C 
ATOM     10  O   UNL A   1      45.414  18.698  35.232  1.00  0.00    -0.275 OA
ATOM     11  H   UNL A   1      45.117  17.931  37.421  1.00  0.00     0.164 HD
BRANCH   9  12
ATOM     12  C   UNL A   1      46.742  20.536  36.021  1.00  0.00     0.105 C 
BRANCH  12  13
ATOM     13  C   UNL A   1      46.597  21.200  34.655  1.00  0.00     0.053 C 
BRANCH  13  14
ATOM     14  C   UNL A   1      47.966  21.597  34.243  1.00  0.00     0.042 A 
ATOM     15  C   UNL A   1      55.664  25.471  32.131  1.00  0.00     0.088 C 
ATOM     16  C   UNL A   1      54.560  24.818  32.868  1.00  0.00     0.105 A 
ATOM     17  O   UNL A   1      54.320  23.526  32.552  1.00  0.00    -0.461 OA
ATOM     18  C   UNL A   1      53.652  25.260  33.810  1.00  0.00    -0.002 A 
ATOM     19  C   UNL A   1      53.192  23.126  33.209  1.00  0.00     0.141 A 
ATOM     20  C   UNL A   1      52.673  24.210  33.976  1.00  0.00     0.025 A 
ATOM     21  C   UNL A   1      53.625  26.594  34.449  1.00  0.00     0.049 C 
ATOM     22  C   UNL A   1      52.721  21.811  33.077  1.00  0.00     0.036 A 
ATOM     23  C   UNL A   1      51.399  24.199  34.701  1.00  0.00     0.024 A 
ATOM     24  C   UNL A   1      53.340  20.696  32.322  1.00  0.00     0.052 C 
ATOM     25  C   UNL A   1      51.530  21.796  33.759  1.00  0.00     0.145 A 
ATOM     26  C   UNL A   1      50.618  23.090  34.527  1.00  0.00     0.022 A 
ATOM     27  O   UNL A   1      50.579  20.276  33.503  1.00  0.00    -0.422 OA
ATOM     28  C   UNL A   1      48.700  22.926  34.682  1.00  0.00    -0.030 A 
ATOM     29  C   UNL A   1      48.829  20.019  33.593  1.00  0.00     0.339 A 
ATOM     30  C   UNL A   1      47.876  24.006  35.378  1.00  0.00     0.046 C 
ATOM     31  O   UNL A   1      48.336  18.906  33.502  1.00  0.00    -0.246 OA
ENDBRANCH  13  14
ENDBRANCH  12  13
ENDBRANCH   9  12
ENDBRANCH   7   8
BRANCH   7  32
ATOM     32  C   UNL A   1      45.960  17.447  39.598  1.00  0.00     0.070 C 
BRANCH  32  33
ATOM     33  C   UNL A   1      44.764  16.746  40.286  1.00  0.00    -0.045 A 
ATOM     34  C   UNL A   1      44.607  16.600  41.677  1.00  0.00     0.005 A 
ATOM     35  C   UNL A   1      43.772  16.163  39.467  1.00  0.00     0.005 A 
ATOM     36  C   UNL A   1      43.598  15.766  42.205  1.00  0.00     0.021 A 
ATOM     37  C   UNL A   1      42.783  15.316  39.988  1.00  0.00     0.021 A 
ATOM     38  C   UNL A   1      42.713  15.102  41.356  1.00  0.00     0.041 A 
ATOM     39  Cl  UNL A   1      41.572  13.975  41.987  1.00  0.00    -0.084 Cl
ENDBRANCH  32  33
ENDBRANCH   7  32
ENDBRANCH   4   7
ENDBRANCH   2   3
ENDBRANCH   1   2
BRANCH   1  40
ATOM     40  C   UNL A   1      45.345  25.059  38.536  1.00  0.00     0.023 C 
BRANCH  40  41
ATOM     41  C   UNL A   1      44.874  25.213  37.109  1.00  0.00     0.116 C 
BRANCH  41  42
ATOM     42  N   UNL A   1      43.722  24.338  36.868  1.00  0.00    -0.352 N 
ATOM     43  C   UNL A   1      42.798  24.446  35.867  1.00  0.00     0.251 C 
ATOM     44  H   UNL A   1      43.600  23.590  37.497  1.00  0.00     0.163 HD
ATOM     45  O   UNL A   1      41.656  24.024  35.996  1.00  0.00    -0.269 OA
BRANCH  43  46
ATOM     46  C   UNL A   1      43.268  25.020  34.607  1.00  0.00     0.039 A 
ATOM     47  C   UNL A   1      44.060  24.268  33.743  1.00  0.00     0.014 A 
ATOM     48  C   UNL A   1      42.947  26.355  34.339  1.00  0.00     0.014 A 
ATOM     49  C   UNL A   1      44.497  24.858  32.569  1.00  0.00     0.010 A 
ATOM     50  C   UNL A   1      43.306  26.912  33.147  1.00  0.00     0.010 A 
ATOM     51  C   UNL A   1      44.090  26.165  32.271  1.00  0.00    -0.014 A 
BRANCH  51  52
ATOM     52  C   UNL A   1      44.507  26.769  31.007  1.00  0.00     0.031 A 
ATOM     53  C   UNL A   1      44.413  25.740  29.886  1.00  0.00     0.074 A 
ATOM     54  C   UNL A   1      44.018  28.010  30.801  1.00  0.00     0.049 A 
ATOM     55  N   UNL A   1      43.331  25.353  29.272  1.00  0.00    -0.248 NA
ATOM     56  C   UNL A   1      45.560  24.861  29.626  1.00  0.00     0.031 C 
ATOM     57  C   UNL A   1      42.702  28.552  31.163  1.00  0.00     0.029 A 
ATOM     58  N   UNL A   1      44.728  29.108  30.358  1.00  0.00    -0.354 N 
ATOM     59  C   UNL A   1      43.656  24.239  28.498  1.00  0.00     0.074 A 
ATOM     60  C   UNL A   1      45.042  23.953  28.784  1.00  0.00     0.031 C 
ATOM     61  C   UNL A   1      42.614  29.819  30.718  1.00  0.00     0.029 A 
ATOM     62  C   UNL A   1      43.881  30.201  30.099  1.00  0.00     0.049 A 
ATOM     63  H   UNL A   1      45.706  29.126  30.239  1.00  0.00     0.167 HD
ATOM     64  C   UNL A   1      42.783  23.651  27.629  1.00  0.00     0.037 A 
ATOM     65  C   UNL A   1      43.996  30.852  28.902  1.00  0.00     0.037 A 
ATOM     66  C   UNL A   1      41.488  24.265  27.577  1.00  0.00     0.049 A 
ATOM     67  C   UNL A   1      43.266  29.887  27.976  1.00  0.00     0.074 A 
ATOM     68  C   UNL A   1      40.194  24.002  27.960  1.00  0.00     0.029 A 
ATOM     69  N   UNL A   1      41.417  25.484  26.946  1.00  0.00    -0.354 N 
ATOM     70  N   UNL A   1      41.968  29.709  27.914  1.00  0.00    -0.248 NA
ATOM     71  C   UNL A   1      44.049  28.785  27.411  1.00  0.00     0.031 C 
ATOM     72  C   UNL A   1      39.543  25.278  27.976  1.00  0.00     0.029 A 
ATOM     73  C   UNL A   1      40.481  26.240  27.596  1.00  0.00     0.049 A 
ATOM     74  H   UNL A   1      41.947  25.764  26.164  1.00  0.00     0.167 HD
ATOM     75  C   UNL A   1      41.782  28.364  27.567  1.00  0.00     0.074 A 
ATOM     76  C   UNL A   1      43.106  27.863  27.256  1.00  0.00     0.031 C 
ATOM     77  C   UNL A   1      40.609  27.678  27.724  1.00  0.00     0.037 A 
BRANCH  64  78
ATOM     78  C   UNL A   1      43.148  22.699  26.544  1.00  0.00     0.058 A 
ATOM     79  C   UNL A   1      42.712  21.369  26.704  1.00  0.00     0.135 A 
ATOM     80  C   UNL A   1      44.079  22.955  25.530  1.00  0.00     0.135 A 
ATOM     81  F   UNL A   1      41.824  21.070  27.667  1.00  0.00    -0.206 F 
ATOM     82  C   UNL A   1      43.219  20.326  25.944  1.00  0.00     0.059 A 
ATOM     83  C   UNL A   1      44.589  21.919  24.733  1.00  0.00     0.059 A 
ATOM     84  F   UNL A   1      44.544  24.199  25.334  1.00  0.00    -0.206 F 
ATOM     85  C   UNL A   1      44.171  20.606  24.969  1.00  0.00     0.060 A 
BRANCH  85  86
ATOM     86  S   UNL A   1      44.862  19.210  24.051  1.00  0.00     0.124 S 
ATOM     87  O   UNL A   1      46.283  19.308  24.372  1.00  0.00    -0.237 OA
ATOM     88  O   UNL A   1      44.155  18.079  24.645  1.00  0.00    -0.237 OA
ATOM     89  O   UNL A   1      44.511  19.506  22.665  1.00  0.00    -0.744 OA
ENDBRANCH  85  86
ENDBRANCH  64  78
BRANCH  65  90
ATOM     90  C   UNL A   1      45.391  31.376  28.679  1.00  0.00     0.058 A 
ATOM     91  C   UNL A   1      45.972  32.166  29.701  1.00  0.00     0.135 A 
ATOM     92  C   UNL A   1      46.229  31.058  27.600  1.00  0.00     0.135 A 
ATOM     93  F   UNL A   1      45.220  32.620  30.718  1.00  0.00    -0.206 F 
ATOM     94  C   UNL A   1      47.333  32.435  29.756  1.00  0.00     0.059 A 
ATOM     95  C   UNL A   1      47.604  31.310  27.636  1.00  0.00     0.059 A 
ATOM     96  F   UNL A   1      45.745  30.454  26.507  1.00  0.00    -0.206 F 
ATOM     97  C   UNL A   1      48.153  31.953  28.743  1.00  0.00     0.060 A 
BRANCH  97  98
ATOM     98  S   UNL A   1      49.936  32.131  28.947  1.00  0.00     0.124 S 
ATOM     99  O   UNL A   1      50.408  32.036  27.570  1.00  0.00    -0.237 OA
ATOM    100  O   UNL A   1      50.027  33.454  29.559  1.00  0.00    -0.237 OA
ATOM    101  O   UNL A   1      50.293  31.015  29.815  1.00  0.00    -0.744 OA
ENDBRANCH  97  98
ENDBRANCH  65  90
BRANCH  77 102
ATOM    102  C   UNL A   1      39.431  28.465  28.204  1.00  0.00     0.058 A 
ATOM    103  C   UNL A   1      39.010  28.358  29.534  1.00  0.00     0.135 A 
ATOM    104  C   UNL A   1      38.780  29.407  27.385  1.00  0.00     0.135 A 
ATOM    105  F   UNL A   1      39.611  27.495  30.369  1.00  0.00    -0.206 F 
ATOM    106  C   UNL A   1      38.005  29.170  30.045  1.00  0.00     0.059 A 
ATOM    107  C   UNL A   1      37.796  30.256  27.886  1.00  0.00     0.059 A 
ATOM    108  F   UNL A   1      39.120  29.548  26.092  1.00  0.00    -0.206 F 
ATOM    109  C   UNL A   1      37.421  30.134  29.221  1.00  0.00     0.060 A 
BRANCH 109 110
ATOM    110  S   UNL A   1      36.227  31.271  29.953  1.00  0.00     0.124 S 
ATOM    111  O   UNL A   1      35.985  30.662  31.257  1.00  0.00    -0.237 OA
ATOM    112  O   UNL A   1      36.970  32.528  29.970  1.00  0.00    -0.237 OA
ATOM    113  O   UNL A   1      35.100  31.232  29.026  1.00  0.00    -0.744 OA
ENDBRANCH 109 110
ENDBRANCH  77 102
ENDBRANCH  51  52
ENDBRANCH  43  46
ENDBRANCH  41  42
ENDBRANCH  40  41
ENDBRANCH   1  40
TORSDOF 20
ENDMDL
MODEL 3
REMARK VINA RESULT:      -9.6      5.749     12.738
REMARK SMILES Cc1oc2c(C)c3oc(=O)c(CCC(=O)N[C@H](Cc4ccc(Cl)cc4)C(=O)NCCCCNC(=O)c4ccc(-c5c6nc(c(-c7c(F)cc(S(=O)(=O)[O-])cc7F)c7ccc([nH]7)c(-c7c(F)cc(S(=O)(=O)[O-])cc7F)c7nc(c(-c8c(F)cc(S(=O)(=O)[O-])cc8F)c8ccc5[nH]8)C=C7)C=C6)cc4)c(C)c3cc2c1C
REMARK SMILES IDX 30 1 29 2 28 3 26 4 27 5 17 7 16 8 14 9 15 10 13 12 12 13
REMARK SMILES IDX 11 14 1 15 2 16 3 17 107 18 4 19 106 20 108 21 5 22 105 23
REMARK SMILES IDX 6 24 7 25 104 26 8 27 102 28 9 29 103 30 10 31 18 32 19 33
REMARK SMILES IDX 20 34 25 35 21 36 24 37 22 38 23 39 31 40 32 41 33 42 34 43
REMARK SMILES IDX 35 45 36 46 37 47 101 48 38 49 100 50 39 51 40 52 41 53
REMARK SMILES IDX 94 54 42 55 99 56 93 57 95 58 43 59 98 60 92 61 91 62 44 64
REMARK SMILES IDX 78 65 57 66 77 67 58 68 61 69 76 70 96 71 59 72 60 73 75 75
REMARK SMILES IDX 97 76 62 77 45 78 46 79 55 80 47 81 48 82 54 83 56 84 49 85
REMARK SMILES IDX 50 86 51 87 52 88 53 89 79 90 80 91 89 92 81 93 82 94 88 95
REMARK SMILES IDX 90 96 83 97 84 98 85 99 86 100 87 101 63 102 64 103 73 104
REMARK SMILES IDX 65 105 66 106 72 107 74 108 67 109 68 110 69 111 70 112
REMARK SMILES IDX 71 113
REMARK H PARENT 28 6 16 11 33 44 95 63 61 74
REMARK Flexibility Score: inf
ROOT
ATOM      1  C   UNL A   1      39.061  23.348  26.575  1.00  0.00     0.023 C 
ENDROOT
BRANCH   1   2
ATOM      2  C   UNL A   1      37.671  23.535  26.019  1.00  0.00     0.116 C 
BRANCH   2   3
ATOM      3  N   UNL A   1      37.357  23.318  24.587  1.00  0.00    -0.354 N 
ATOM      4  C   UNL A   1      36.243  22.921  23.723  1.00  0.00     0.242 C 
ATOM      5  O   UNL A   1      36.589  23.685  22.750  1.00  0.00    -0.273 OA
ATOM      6  H   UNL A   1      38.155  23.499  24.039  1.00  0.00     0.163 HD
BRANCH   4   7
ATOM      7  C   UNL A   1      34.629  21.451  23.790  1.00  0.00     0.175 C 
BRANCH   7   8
ATOM      8  N   UNL A   1      33.062  21.502  23.120  1.00  0.00    -0.344 N 
ATOM      9  C   UNL A   1      32.074  22.454  23.049  1.00  0.00     0.220 C 
ATOM     10  O   UNL A   1      31.013  22.146  22.500  1.00  0.00    -0.275 OA
ATOM     11  H   UNL A   1      32.807  20.657  22.686  1.00  0.00     0.164 HD
BRANCH   9  12
ATOM     12  C   UNL A   1      32.241  23.826  23.699  1.00  0.00     0.105 C 
BRANCH  12  13
ATOM     13  C   UNL A   1      31.231  24.142  24.799  1.00  0.00     0.053 C 
BRANCH  13  14
ATOM     14  C   UNL A   1      31.587  25.489  25.310  1.00  0.00     0.042 A 
ATOM     15  C   UNL A   1      34.899  32.768  29.152  1.00  0.00     0.088 C 
ATOM     16  C   UNL A   1      34.638  31.652  28.217  1.00  0.00     0.105 A 
ATOM     17  O   UNL A   1      33.447  31.681  27.578  1.00  0.00    -0.461 OA
ATOM     18  C   UNL A   1      35.342  30.516  27.870  1.00  0.00    -0.002 A 
ATOM     19  C   UNL A   1      33.309  30.519  26.876  1.00  0.00     0.141 A 
ATOM     20  C   UNL A   1      34.455  29.696  27.076  1.00  0.00     0.025 A 
ATOM     21  C   UNL A   1      36.707  30.157  28.313  1.00  0.00     0.049 C 
ATOM     22  C   UNL A   1      32.164  30.291  26.097  1.00  0.00     0.036 A 
ATOM     23  C   UNL A   1      34.603  28.319  26.596  1.00  0.00     0.024 A 
ATOM     24  C   UNL A   1      31.028  31.212  25.861  1.00  0.00     0.052 C 
ATOM     25  C   UNL A   1      32.301  29.003  25.641  1.00  0.00     0.145 A 
ATOM     26  C   UNL A   1      33.501  27.769  26.002  1.00  0.00     0.022 A 
ATOM     27  O   UNL A   1      30.810  28.368  24.834  1.00  0.00    -0.422 OA
ATOM     28  C   UNL A   1      33.008  25.907  25.863  1.00  0.00    -0.030 A 
ATOM     29  C   UNL A   1      30.249  26.696  24.671  1.00  0.00     0.339 A 
ATOM     30  C   UNL A   1      34.029  24.804  26.125  1.00  0.00     0.046 C 
ATOM     31  O   UNL A   1      29.270  26.407  24.000  1.00  0.00    -0.246 OA
ENDBRANCH  13  14
ENDBRANCH  12  13
ENDBRANCH   9  12
ENDBRANCH   7   8
BRANCH   7  32
ATOM     32  C   UNL A   1      34.064  20.350  25.125  1.00  0.00     0.070 C 
BRANCH  32  33
ATOM     33  C   UNL A   1      33.664  18.856  25.065  1.00  0.00    -0.045 A 
ATOM     34  C   UNL A   1      32.528  18.300  25.681  1.00  0.00     0.005 A 
ATOM     35  C   UNL A   1      34.520  17.964  24.382  1.00  0.00     0.005 A 
ATOM     36  C   UNL A   1      32.357  16.900  25.751  1.00  0.00     0.021 A 
ATOM     37  C   UNL A   1      34.365  16.573  24.468  1.00  0.00     0.021 A 
ATOM     38  C   UNL A   1      33.295  16.044  25.173  1.00  0.00     0.041 A 
ATOM     39  Cl  UNL A   1      33.165  14.338  25.376  1.00  0.00    -0.084 Cl
ENDBRANCH  32  33
ENDBRANCH   7  32
ENDBRANCH   4   7
ENDBRANCH   2   3
ENDBRANCH   1   2
BRANCH   1  40
ATOM     40  C   UNL A   1      39.523  24.321  27.627  1.00  0.00     0.023 C 
BRANCH  40  41
ATOM     41  C   UNL A   1      41.027  24.185  27.686  1.00  0.00     0.116 C 
BRANCH  41  42
ATOM     42  N   UNL A   1      41.638  24.938  26.587  1.00  0.00    -0.352 N 
ATOM     43  C   UNL A   1      41.488  26.268  26.313  1.00  0.00     0.251 C 
ATOM     44  H   UNL A   1      42.221  24.430  25.977  1.00  0.00     0.163 HD
ATOM     45  O   UNL A   1      41.607  26.711  25.178  1.00  0.00    -0.269 OA
BRANCH  43  46
ATOM     46  C   UNL A   1      41.258  27.146  27.460  1.00  0.00     0.039 A 
ATOM     47  C   UNL A   1      40.048  27.822  27.598  1.00  0.00     0.014 A 
ATOM     48  C   UNL A   1      42.310  27.325  28.365  1.00  0.00     0.014 A 
ATOM     49  C   UNL A   1      39.881  28.656  28.691  1.00  0.00     0.010 A 
ATOM     50  C   UNL A   1      42.119  28.080  29.485  1.00  0.00     0.010 A 
ATOM     51  C   UNL A   1      40.910  28.753  29.637  1.00  0.00    -0.014 A 
BRANCH  51  52
ATOM     52  C   UNL A   1      40.713  29.591  30.818  1.00  0.00     0.031 A 
ATOM     53  C   UNL A   1      41.303  28.906  32.045  1.00  0.00     0.074 A 
ATOM     54  C   UNL A   1      40.967  30.901  30.613  1.00  0.00     0.049 A 
ATOM     55  N   UNL A   1      42.562  28.847  32.374  1.00  0.00    -0.248 NA
ATOM     56  C   UNL A   1      40.471  27.966  32.806  1.00  0.00     0.031 C 
ATOM     57  C   UNL A   1      42.003  31.517  29.774  1.00  0.00     0.029 A 
ATOM     58  N   UNL A   1      40.179  31.963  31.015  1.00  0.00    -0.354 N 
ATOM     59  C   UNL A   1      42.687  27.931  33.419  1.00  0.00     0.074 A 
ATOM     60  C   UNL A   1      41.365  27.385  33.622  1.00  0.00     0.031 C 
ATOM     61  C   UNL A   1      41.934  32.855  29.906  1.00  0.00     0.029 A 
ATOM     62  C   UNL A   1      40.816  33.195  30.783  1.00  0.00     0.049 A 
ATOM     63  H   UNL A   1      39.283  31.869  31.413  1.00  0.00     0.167 HD
ATOM     64  C   UNL A   1      43.855  27.714  34.090  1.00  0.00     0.037 A 
ATOM     65  C   UNL A   1      40.877  34.105  31.802  1.00  0.00     0.037 A 
ATOM     66  C   UNL A   1      44.962  28.500  33.629  1.00  0.00     0.049 A 
ATOM     67  C   UNL A   1      42.004  33.522  32.645  1.00  0.00     0.074 A 
ATOM     68  C   UNL A   1      46.141  28.338  32.940  1.00  0.00     0.029 A 
ATOM     69  N   UNL A   1      44.935  29.837  33.949  1.00  0.00    -0.354 N 
ATOM     70  N   UNL A   1      43.282  33.554  32.353  1.00  0.00    -0.248 NA
ATOM     71  C   UNL A   1      41.640  32.499  33.628  1.00  0.00     0.031 C 
ATOM     72  C   UNL A   1      46.484  29.648  32.472  1.00  0.00     0.029 A 
ATOM     73  C   UNL A   1      45.494  30.530  32.911  1.00  0.00     0.049 A 
ATOM     74  H   UNL A   1      44.576  30.227  34.779  1.00  0.00     0.167 HD
ATOM     75  C   UNL A   1      43.828  32.382  32.893  1.00  0.00     0.074 A 
ATOM     76  C   UNL A   1      42.762  31.792  33.679  1.00  0.00     0.031 C 
ATOM     77  C   UNL A   1      45.039  31.855  32.537  1.00  0.00     0.037 A 
BRANCH  64  78
ATOM     78  C   UNL A   1      43.987  27.026  35.404  1.00  0.00     0.058 A 
ATOM     79  C   UNL A   1      43.654  27.785  36.543  1.00  0.00     0.135 A 
ATOM     80  C   UNL A   1      44.637  25.804  35.609  1.00  0.00     0.135 A 
ATOM     81  F   UNL A   1      43.034  28.969  36.399  1.00  0.00    -0.206 F 
ATOM     82  C   UNL A   1      44.005  27.389  37.825  1.00  0.00     0.059 A 
ATOM     83  C   UNL A   1      44.981  25.372  36.898  1.00  0.00     0.059 A 
ATOM     84  F   UNL A   1      44.992  25.040  34.564  1.00  0.00    -0.206 F 
ATOM     85  C   UNL A   1      44.684  26.186  37.995  1.00  0.00     0.060 A 
BRANCH  85  86
ATOM     86  S   UNL A   1      45.189  25.743  39.673  1.00  0.00     0.124 S 
ATOM     87  O   UNL A   1      44.151  26.377  40.480  1.00  0.00    -0.237 OA
ATOM     88  O   UNL A   1      45.152  24.285  39.624  1.00  0.00    -0.237 OA
ATOM     89  O   UNL A   1      46.521  26.329  39.795  1.00  0.00    -0.744 OA
ENDBRANCH  85  86
ENDBRANCH  64  78
BRANCH  65  90
ATOM     90  C   UNL A   1      39.507  34.462  32.318  1.00  0.00     0.058 A 
ATOM     91  C   UNL A   1      38.454  34.577  31.377  1.00  0.00     0.135 A 
ATOM     92  C   UNL A   1      39.137  34.577  33.666  1.00  0.00     0.135 A 
ATOM     93  F   UNL A   1      38.721  34.597  30.060  1.00  0.00    -0.206 F 
ATOM     94  C   UNL A   1      37.117  34.586  31.749  1.00  0.00     0.059 A 
ATOM     95  C   UNL A   1      37.797  34.578  34.066  1.00  0.00     0.059 A 
ATOM     96  F   UNL A   1      40.065  34.643  34.631  1.00  0.00    -0.206 F 
ATOM     97  C   UNL A   1      36.796  34.530  33.099  1.00  0.00     0.060 A 
BRANCH  97  98
ATOM     98  S   UNL A   1      35.060  34.328  33.544  1.00  0.00     0.124 S 
ATOM     99  O   UNL A   1      34.779  35.580  34.239  1.00  0.00    -0.237 OA
ATOM    100  O   UNL A   1      34.439  34.178  32.231  1.00  0.00    -0.237 OA
ATOM    101  O   UNL A   1      35.059  33.130  34.376  1.00  0.00    -0.744 OA
ENDBRANCH  97  98
ENDBRANCH  65  90
BRANCH  77 102
ATOM    102  C   UNL A   1      45.863  32.655  31.580  1.00  0.00     0.058 A 
ATOM    103  C   UNL A   1      45.823  32.371  30.210  1.00  0.00     0.135 A 
ATOM    104  C   UNL A   1      46.613  33.772  31.994  1.00  0.00     0.135 A 
ATOM    105  F   UNL A   1      45.103  31.333  29.753  1.00  0.00    -0.206 F 
ATOM    106  C   UNL A   1      46.472  33.175  29.282  1.00  0.00     0.059 A 
ATOM    107  C   UNL A   1      47.242  34.612  31.078  1.00  0.00     0.059 A 
ATOM    108  F   UNL A   1      46.712  34.092  33.297  1.00  0.00    -0.206 F 
ATOM    109  C   UNL A   1      47.158  34.308  29.722  1.00  0.00     0.060 A 
BRANCH 109 110
ATOM    110  S   UNL A   1      47.863  35.413  28.482  1.00  0.00     0.124 S 
ATOM    111  O   UNL A   1      46.669  35.975  27.859  1.00  0.00    -0.237 OA
ATOM    112  O   UNL A   1      48.644  36.335  29.301  1.00  0.00    -0.237 OA
ATOM    113  O   UNL A   1      48.651  34.522  27.635  1.00  0.00    -0.744 OA
ENDBRANCH 109 110
ENDBRANCH  77 102
ENDBRANCH  51  52
ENDBRANCH  43  46
ENDBRANCH  41  42
ENDBRANCH  40  41
ENDBRANCH   1  40
TORSDOF 20
ENDMDL
