MODEL 1
REMARK VINA RESULT:     -11.6      0.000      0.000
REMARK SMILES Cc1c(C(=O)Nc2ccc(C(=O)Nc3ccccc3C(=O)NCCCCNC(=O)c3ccc(-c4c5nc(c(-c6c(F)cc(S(=O)(=O)[O-])cc6F)c6ccc([nH]6)c(-c6c(F)cc(S(=O)(=O)[O-])cc6F)c6nc(c(-c7c(F)cc(S(=O)(=O)[O-])cc7F)c7ccc4[nH]7)C=C6)C=C5)cc3)cc2)cccc1[N+](=O)[O-]
REMARK SMILES IDX 23 1 22 2 20 3 21 4 19 6 14 7 15 8 16 9 18 10 17 11 13 12
REMARK SMILES IDX 11 13 12 14 10 16 7 17 8 18 97 19 9 20 96 21 6 22 4 23 5 24
REMARK SMILES IDX 3 26 1 27 2 28 101 29 98 30 100 31 99 32 102 33 103 34
REMARK SMILES IDX 104 35 24 36 25 37 26 38 27 39 28 40 29 42 30 43 31 44 95 45
REMARK SMILES IDX 32 46 94 47 33 48 34 49 35 50 88 51 36 52 93 53 87 54 89 55
REMARK SMILES IDX 37 56 92 57 86 58 85 59 38 61 72 62 51 63 71 64 52 65 55 66
REMARK SMILES IDX 70 67 90 68 53 69 54 70 69 72 91 73 56 74 39 75 40 76 49 77
REMARK SMILES IDX 41 78 42 79 48 80 50 81 43 82 44 83 45 84 46 85 47 86 73 87
REMARK SMILES IDX 74 88 83 89 75 90 76 91 82 92 84 93 77 94 78 95 79 96 80 97
REMARK SMILES IDX 81 98 57 99 58 100 67 101 59 102 60 103 66 104 68 105 61 106
REMARK SMILES IDX 62 107 63 108 64 109 65 110
REMARK H PARENT 22 5 13 15 6 25 27 41 89 60 55 71
REMARK Flexibility Score: inf
ROOT
ATOM      1  C   UNL A   1      44.594  24.693  30.691  1.00  0.00     0.116 C 
ENDROOT
BRANCH   1   2
ATOM      2  N   UNL A   1      45.564  25.177  31.672  1.00  0.00    -0.352 N 
ATOM      3  C   UNL A   1      45.605  25.188  33.054  1.00  0.00     0.253 C 
ATOM      4  O   UNL A   1      46.661  25.512  33.595  1.00  0.00    -0.269 OA
ATOM      5  H   UNL A   1      46.360  25.585  31.259  1.00  0.00     0.163 HD
BRANCH   3   6
ATOM      6  C   UNL A   1      44.421  24.882  33.906  1.00  0.00     0.063 A 
ATOM      7  C   UNL A   1      44.090  23.559  34.299  1.00  0.00     0.054 A 
ATOM      8  C   UNL A   1      42.949  23.344  35.097  1.00  0.00     0.027 A 
ATOM      9  C   UNL A   1      42.178  24.411  35.551  1.00  0.00     0.002 A 
ATOM     10  C   UNL A   1      43.552  25.922  34.269  1.00  0.00     0.016 A 
ATOM     11  C   UNL A   1      42.470  25.699  35.125  1.00  0.00     0.001 A 
BRANCH   7  12
ATOM     12  N   UNL A   1      44.815  22.379  34.027  1.00  0.00    -0.321 N 
ATOM     13  C   UNL A   1      45.905  21.789  34.631  1.00  0.00     0.255 C 
ATOM     14  O   UNL A   1      46.445  20.831  34.073  1.00  0.00    -0.269 OA
ATOM     15  H   UNL A   1      44.476  21.876  33.251  1.00  0.00     0.170 HD
BRANCH  13  16
ATOM     16  C   UNL A   1      46.312  22.115  36.026  1.00  0.00     0.040 A 
ATOM     17  C   UNL A   1      47.433  22.566  38.567  1.00  0.00     0.041 A 
ATOM     18  C   UNL A   1      46.558  21.515  38.354  1.00  0.00     0.027 A 
ATOM     19  C   UNL A   1      47.618  23.501  37.545  1.00  0.00     0.027 A 
ATOM     20  C   UNL A   1      46.096  21.233  37.079  1.00  0.00     0.016 A 
ATOM     21  C   UNL A   1      47.054  23.277  36.277  1.00  0.00     0.016 A 
BRANCH  17  22
ATOM     22  N   UNL A   1      48.222  22.658  39.727  1.00  0.00    -0.322 N 
ATOM     23  C   UNL A   1      49.455  22.100  40.030  1.00  0.00     0.256 C 
ATOM     24  O   UNL A   1      49.947  22.275  41.144  1.00  0.00    -0.269 OA
ATOM     25  H   UNL A   1      47.835  23.210  40.444  1.00  0.00     0.170 HD
BRANCH  23  26
ATOM     26  C   UNL A   1      50.239  21.295  39.046  1.00  0.00     0.049 A 
ATOM     27  C   UNL A   1      51.291  23.320  37.914  1.00  0.00     0.053 C 
ATOM     28  C   UNL A   1      50.982  21.846  37.973  1.00  0.00     0.039 A 
ATOM     29  C   UNL A   1      51.389  20.955  36.954  1.00  0.00     0.273 A 
ATOM     30  C   UNL A   1      50.148  19.899  39.203  1.00  0.00     0.014 A 
ATOM     31  C   UNL A   1      51.273  19.562  37.104  1.00  0.00     0.086 A 
ATOM     32  C   UNL A   1      50.695  19.037  38.254  1.00  0.00     0.008 A 
BRANCH  29  33
ATOM     33  N   UNL A   1      51.844  21.440  35.645  1.00  0.00     0.063 N 
ATOM     34  O   UNL A   1      53.057  21.374  35.401  1.00  0.00    -0.258 OA
ATOM     35  O   UNL A   1      50.985  21.831  34.842  1.00  0.00    -0.258 OA
ENDBRANCH  29  33
ENDBRANCH  23  26
ENDBRANCH  17  22
ENDBRANCH  13  16
ENDBRANCH   7  12
ENDBRANCH   3   6
ENDBRANCH   1   2
BRANCH   1  36
ATOM     36  C   UNL A   1      43.999  25.719  29.713  1.00  0.00     0.023 C 
BRANCH  36  37
ATOM     37  C   UNL A   1      43.233  25.194  28.505  1.00  0.00     0.023 C 
BRANCH  37  38
ATOM     38  C   UNL A   1      42.054  24.310  28.871  1.00  0.00     0.116 C 
BRANCH  38  39
ATOM     39  N   UNL A   1      41.363  23.745  27.723  1.00  0.00    -0.352 N 
ATOM     40  C   UNL A   1      40.050  24.007  27.329  1.00  0.00     0.251 C 
ATOM     41  H   UNL A   1      41.873  23.111  27.167  1.00  0.00     0.163 HD
ATOM     42  O   UNL A   1      39.379  23.250  26.686  1.00  0.00    -0.269 OA
BRANCH  40  43
ATOM     43  C   UNL A   1      39.589  25.390  27.605  1.00  0.00     0.039 A 
ATOM     44  C   UNL A   1      40.084  26.397  26.765  1.00  0.00     0.014 A 
ATOM     45  C   UNL A   1      39.005  25.688  28.830  1.00  0.00     0.014 A 
ATOM     46  C   UNL A   1      40.178  27.697  27.246  1.00  0.00     0.010 A 
ATOM     47  C   UNL A   1      39.202  26.949  29.346  1.00  0.00     0.010 A 
ATOM     48  C   UNL A   1      39.829  27.937  28.571  1.00  0.00    -0.014 A 
BRANCH  48  49
ATOM     49  C   UNL A   1      40.081  29.189  29.271  1.00  0.00     0.031 A 
ATOM     50  C   UNL A   1      39.064  30.256  29.188  1.00  0.00     0.074 A 
ATOM     51  C   UNL A   1      41.144  29.292  30.094  1.00  0.00     0.049 A 
ATOM     52  N   UNL A   1      39.226  31.465  29.598  1.00  0.00    -0.248 NA
ATOM     53  C   UNL A   1      37.770  30.039  28.550  1.00  0.00     0.031 C 
ATOM     54  C   UNL A   1      41.366  30.286  31.139  1.00  0.00     0.029 A 
ATOM     55  N   UNL A   1      42.364  28.612  29.996  1.00  0.00    -0.354 N 
ATOM     56  C   UNL A   1      38.005  32.101  29.542  1.00  0.00     0.074 A 
ATOM     57  C   UNL A   1      37.163  31.203  28.794  1.00  0.00     0.031 C 
ATOM     58  C   UNL A   1      42.680  30.350  31.406  1.00  0.00     0.029 A 
ATOM     59  C   UNL A   1      43.356  29.518  30.425  1.00  0.00     0.049 A 
ATOM     60  H   UNL A   1      42.501  27.687  29.688  1.00  0.00     0.167 HD
ATOM     61  C   UNL A   1      37.842  33.256  30.252  1.00  0.00     0.037 A 
ATOM     62  C   UNL A   1      44.298  29.977  29.548  1.00  0.00     0.037 A 
ATOM     63  C   UNL A   1      39.154  33.759  30.683  1.00  0.00     0.049 A 
ATOM     64  C   UNL A   1      44.223  31.471  29.306  1.00  0.00     0.074 A 
ATOM     65  C   UNL A   1      39.849  33.702  31.879  1.00  0.00     0.029 A 
ATOM     66  N   UNL A   1      40.081  34.136  29.710  1.00  0.00    -0.354 N 
ATOM     67  N   UNL A   1      43.183  32.210  29.584  1.00  0.00    -0.248 NA
ATOM     68  C   UNL A   1      45.324  32.252  28.752  1.00  0.00     0.031 C 
ATOM     69  C   UNL A   1      41.224  33.933  31.597  1.00  0.00     0.029 A 
ATOM     70  C   UNL A   1      41.358  34.174  30.240  1.00  0.00     0.049 A 
ATOM     71  H   UNL A   1      39.856  34.346  28.776  1.00  0.00     0.167 HD
ATOM     72  C   UNL A   1      43.435  33.517  29.248  1.00  0.00     0.074 A 
ATOM     73  C   UNL A   1      44.802  33.492  28.757  1.00  0.00     0.031 C 
ATOM     74  C   UNL A   1      42.504  34.508  29.398  1.00  0.00     0.037 A 
BRANCH  61  75
ATOM     75  C   UNL A   1      36.509  33.787  30.774  1.00  0.00     0.058 A 
ATOM     76  C   UNL A   1      35.516  34.235  29.870  1.00  0.00     0.135 A 
ATOM     77  C   UNL A   1      36.171  33.992  32.130  1.00  0.00     0.135 A 
ATOM     78  F   UNL A   1      35.652  34.070  28.547  1.00  0.00    -0.206 F 
ATOM     79  C   UNL A   1      34.342  34.890  30.273  1.00  0.00     0.059 A 
ATOM     80  C   UNL A   1      35.019  34.660  32.556  1.00  0.00     0.059 A 
ATOM     81  F   UNL A   1      36.918  33.537  33.135  1.00  0.00    -0.206 F 
ATOM     82  C   UNL A   1      34.112  35.120  31.622  1.00  0.00     0.060 A 
BRANCH  82  83
ATOM     83  S   UNL A   1      32.630  36.002  32.143  1.00  0.00     0.124 S 
ATOM     84  O   UNL A   1      32.208  36.648  30.903  1.00  0.00    -0.237 OA
ATOM     85  O   UNL A   1      31.780  34.917  32.619  1.00  0.00    -0.237 OA
ATOM     86  O   UNL A   1      33.119  36.909  33.179  1.00  0.00    -0.744 OA
ENDBRANCH  82  83
ENDBRANCH  61  75
BRANCH  62  87
ATOM     87  C   UNL A   1      44.726  28.933  28.570  1.00  0.00     0.058 A 
ATOM     88  C   UNL A   1      44.145  28.984  27.286  1.00  0.00     0.135 A 
ATOM     89  C   UNL A   1      45.950  28.262  28.696  1.00  0.00     0.135 A 
ATOM     90  F   UNL A   1      42.961  29.594  27.109  1.00  0.00    -0.206 F 
ATOM     91  C   UNL A   1      44.832  28.564  26.151  1.00  0.00     0.059 A 
ATOM     92  C   UNL A   1      46.651  27.817  27.568  1.00  0.00     0.059 A 
ATOM     93  F   UNL A   1      46.549  28.166  29.891  1.00  0.00    -0.206 F 
ATOM     94  C   UNL A   1      46.118  28.052  26.299  1.00  0.00     0.060 A 
BRANCH  94  95
ATOM     95  S   UNL A   1      47.130  27.882  24.806  1.00  0.00     0.124 S 
ATOM     96  O   UNL A   1      46.645  28.986  23.984  1.00  0.00    -0.237 OA
ATOM     97  O   UNL A   1      48.484  28.043  25.339  1.00  0.00    -0.237 OA
ATOM     98  O   UNL A   1      46.798  26.546  24.328  1.00  0.00    -0.744 OA
ENDBRANCH  94  95
ENDBRANCH  62  87
BRANCH  74  99
ATOM     99  C   UNL A   1      42.611  35.916  28.844  1.00  0.00     0.058 A 
ATOM    100  C   UNL A   1      41.966  36.358  27.676  1.00  0.00     0.135 A 
ATOM    101  C   UNL A   1      43.278  36.927  29.581  1.00  0.00     0.135 A 
ATOM    102  F   UNL A   1      41.195  35.538  26.948  1.00  0.00    -0.206 F 
ATOM    103  C   UNL A   1      42.040  37.680  27.230  1.00  0.00     0.059 A 
ATOM    104  C   UNL A   1      43.311  38.263  29.189  1.00  0.00     0.059 A 
ATOM    105  F   UNL A   1      43.914  36.652  30.730  1.00  0.00    -0.206 F 
ATOM    106  C   UNL A   1      42.714  38.627  27.992  1.00  0.00     0.060 A 
BRANCH 106 107
ATOM    107  S   UNL A   1      42.760  40.347  27.458  1.00  0.00     0.124 S 
ATOM    108  O   UNL A   1      42.556  40.211  26.020  1.00  0.00    -0.237 OA
ATOM    109  O   UNL A   1      41.652  40.947  28.197  1.00  0.00    -0.237 OA
ATOM    110  O   UNL A   1      44.088  40.788  27.871  1.00  0.00    -0.744 OA
ENDBRANCH 106 107
ENDBRANCH  74  99
ENDBRANCH  48  49
ENDBRANCH  40  43
ENDBRANCH  38  39
ENDBRANCH  37  38
ENDBRANCH  36  37
ENDBRANCH   1  36
TORSDOF 19
ENDMDL
MODEL 2
REMARK VINA RESULT:     -11.4      5.887     11.405
REMARK SMILES Cc1c(C(=O)Nc2ccc(C(=O)Nc3ccccc3C(=O)NCCCCNC(=O)c3ccc(-c4c5nc(c(-c6c(F)cc(S(=O)(=O)[O-])cc6F)c6ccc([nH]6)c(-c6c(F)cc(S(=O)(=O)[O-])cc6F)c6nc(c(-c7c(F)cc(S(=O)(=O)[O-])cc7F)c7ccc4[nH]7)C=C6)C=C5)cc3)cc2)cccc1[N+](=O)[O-]
REMARK SMILES IDX 23 1 22 2 20 3 21 4 19 6 14 7 15 8 16 9 18 10 17 11 13 12
REMARK SMILES IDX 11 13 12 14 10 16 7 17 8 18 97 19 9 20 96 21 6 22 4 23 5 24
REMARK SMILES IDX 3 26 1 27 2 28 101 29 98 30 100 31 99 32 102 33 103 34
REMARK SMILES IDX 104 35 24 36 25 37 26 38 27 39 28 40 29 42 30 43 31 44 95 45
REMARK SMILES IDX 32 46 94 47 33 48 34 49 35 50 88 51 36 52 93 53 87 54 89 55
REMARK SMILES IDX 37 56 92 57 86 58 85 59 38 61 72 62 51 63 71 64 52 65 55 66
REMARK SMILES IDX 70 67 90 68 53 69 54 70 69 72 91 73 56 74 39 75 40 76 49 77
REMARK SMILES IDX 41 78 42 79 48 80 50 81 43 82 44 83 45 84 46 85 47 86 73 87
REMARK SMILES IDX 74 88 83 89 75 90 76 91 82 92 84 93 77 94 78 95 79 96 80 97
REMARK SMILES IDX 81 98 57 99 58 100 67 101 59 102 60 103 66 104 68 105 61 106
REMARK SMILES IDX 62 107 63 108 64 109 65 110
REMARK H PARENT 22 5 13 15 6 25 27 41 89 60 55 71
REMARK Flexibility Score: inf
ROOT
ATOM      1  C   UNL A   1      36.634  21.463  25.763  1.00  0.00     0.116 C 
ENDROOT
BRANCH   1   2
ATOM      2  N   UNL A   1      35.936  22.619  26.325  1.00  0.00    -0.352 N 
ATOM      3  C   UNL A   1      34.773  23.289  25.996  1.00  0.00     0.253 C 
ATOM      4  O   UNL A   1      34.351  24.131  26.787  1.00  0.00    -0.269 OA
ATOM      5  H   UNL A   1      36.395  23.005  27.106  1.00  0.00     0.163 HD
BRANCH   3   6
ATOM      6  C   UNL A   1      34.045  23.076  24.712  1.00  0.00     0.063 A 
ATOM      7  C   UNL A   1      32.662  22.763  24.666  1.00  0.00     0.054 A 
ATOM      8  C   UNL A   1      32.043  22.564  23.416  1.00  0.00     0.027 A 
ATOM      9  C   UNL A   1      32.753  22.725  22.229  1.00  0.00     0.002 A 
ATOM     10  C   UNL A   1      34.763  23.101  23.506  1.00  0.00     0.016 A 
ATOM     11  C   UNL A   1      34.117  22.979  22.274  1.00  0.00     0.001 A 
BRANCH   7  12
ATOM     12  N   UNL A   1      31.768  22.672  25.756  1.00  0.00    -0.321 N 
ATOM     13  C   UNL A   1      30.936  23.589  26.363  1.00  0.00     0.255 C 
ATOM     14  O   UNL A   1      30.381  23.275  27.419  1.00  0.00    -0.269 OA
ATOM     15  H   UNL A   1      31.731  21.777  26.163  1.00  0.00     0.170 HD
BRANCH  13  16
ATOM     16  C   UNL A   1      30.507  24.843  25.685  1.00  0.00     0.040 A 
ATOM     17  C   UNL A   1      30.014  27.159  24.165  1.00  0.00     0.041 A 
ATOM     18  C   UNL A   1      30.608  27.242  25.412  1.00  0.00     0.027 A 
ATOM     19  C   UNL A   1      29.507  25.925  23.746  1.00  0.00     0.027 A 
ATOM     20  C   UNL A   1      30.947  26.093  26.107  1.00  0.00     0.016 A 
ATOM     21  C   UNL A   1      29.751  24.770  24.508  1.00  0.00     0.016 A 
BRANCH  17  22
ATOM     22  N   UNL A   1      30.008  28.241  23.267  1.00  0.00    -0.322 N 
ATOM     23  C   UNL A   1      30.587  29.497  23.358  1.00  0.00     0.256 C 
ATOM     24  O   UNL A   1      30.409  30.318  22.459  1.00  0.00    -0.269 OA
ATOM     25  H   UNL A   1      29.508  28.079  22.434  1.00  0.00     0.170 HD
BRANCH  23  26
ATOM     26  C   UNL A   1      31.448  29.906  24.508  1.00  0.00     0.049 A 
ATOM     27  C   UNL A   1      33.464  28.544  23.753  1.00  0.00     0.053 C 
ATOM     28  C   UNL A   1      32.728  29.365  24.780  1.00  0.00     0.039 A 
ATOM     29  C   UNL A   1      33.265  29.609  26.066  1.00  0.00     0.273 A 
ATOM     30  C   UNL A   1      30.873  30.846  25.384  1.00  0.00     0.014 A 
ATOM     31  C   UNL A   1      32.673  30.530  26.948  1.00  0.00     0.086 A 
ATOM     32  C   UNL A   1      31.502  31.184  26.582  1.00  0.00     0.008 A 
BRANCH  29  33
ATOM     33  N   UNL A   1      34.394  28.829  26.588  1.00  0.00     0.063 N 
ATOM     34  O   UNL A   1      34.323  27.595  26.505  1.00  0.00    -0.258 OA
ATOM     35  O   UNL A   1      35.373  29.450  27.026  1.00  0.00    -0.258 OA
ENDBRANCH  29  33
ENDBRANCH  23  26
ENDBRANCH  17  22
ENDBRANCH  13  16
ENDBRANCH   7  12
ENDBRANCH   3   6
ENDBRANCH   1   2
BRANCH   1  36
ATOM     36  C   UNL A   1      38.042  21.692  25.190  1.00  0.00     0.023 C 
BRANCH  36  37
ATOM     37  C   UNL A   1      39.191  20.880  25.774  1.00  0.00     0.023 C 
BRANCH  37  38
ATOM     38  C   UNL A   1      40.005  21.637  26.809  1.00  0.00     0.116 C 
BRANCH  38  39
ATOM     39  N   UNL A   1      41.375  21.905  26.400  1.00  0.00    -0.352 N 
ATOM     40  C   UNL A   1      41.893  23.131  25.979  1.00  0.00     0.251 C 
ATOM     41  H   UNL A   1      42.000  21.145  26.422  1.00  0.00     0.163 HD
ATOM     42  O   UNL A   1      42.847  23.244  25.261  1.00  0.00    -0.269 OA
BRANCH  40  43
ATOM     43  C   UNL A   1      41.290  24.315  26.638  1.00  0.00     0.039 A 
ATOM     44  C   UNL A   1      41.214  25.488  25.875  1.00  0.00     0.014 A 
ATOM     45  C   UNL A   1      41.156  24.338  28.021  1.00  0.00     0.014 A 
ATOM     46  C   UNL A   1      41.206  26.718  26.522  1.00  0.00     0.010 A 
ATOM     47  C   UNL A   1      41.262  25.553  28.657  1.00  0.00     0.010 A 
ATOM     48  C   UNL A   1      41.334  26.737  27.906  1.00  0.00    -0.014 A 
BRANCH  48  49
ATOM     49  C   UNL A   1      41.560  27.942  28.692  1.00  0.00     0.031 A 
ATOM     50  C   UNL A   1      40.483  28.950  28.757  1.00  0.00     0.074 A 
ATOM     51  C   UNL A   1      42.665  28.042  29.458  1.00  0.00     0.049 A 
ATOM     52  N   UNL A   1      40.605  30.130  29.256  1.00  0.00    -0.248 NA
ATOM     53  C   UNL A   1      39.166  28.709  28.179  1.00  0.00     0.031 C 
ATOM     54  C   UNL A   1      42.898  28.961  30.568  1.00  0.00     0.029 A 
ATOM     55  N   UNL A   1      43.912  27.446  29.234  1.00  0.00    -0.354 N 
ATOM     56  C   UNL A   1      39.350  30.696  29.324  1.00  0.00     0.074 A 
ATOM     57  C   UNL A   1      38.513  29.811  28.553  1.00  0.00     0.031 C 
ATOM     58  C   UNL A   1      44.220  29.082  30.763  1.00  0.00     0.029 A 
ATOM     59  C   UNL A   1      44.878  28.372  29.680  1.00  0.00     0.049 A 
ATOM     60  H   UNL A   1      44.080  26.558  28.843  1.00  0.00     0.167 HD
ATOM     61  C   UNL A   1      39.169  31.778  30.135  1.00  0.00     0.037 A 
ATOM     62  C   UNL A   1      45.738  28.955  28.791  1.00  0.00     0.037 A 
ATOM     63  C   UNL A   1      40.475  32.322  30.530  1.00  0.00     0.049 A 
ATOM     64  C   UNL A   1      45.566  30.456  28.679  1.00  0.00     0.074 A 
ATOM     65  C   UNL A   1      41.245  32.211  31.676  1.00  0.00     0.029 A 
ATOM     66  N   UNL A   1      41.318  32.830  29.541  1.00  0.00    -0.354 N 
ATOM     67  N   UNL A   1      44.506  31.107  29.077  1.00  0.00    -0.248 NA
ATOM     68  C   UNL A   1      46.586  31.343  28.129  1.00  0.00     0.031 C 
ATOM     69  C   UNL A   1      42.585  32.546  31.335  1.00  0.00     0.029 A 
ATOM     70  C   UNL A   1      42.622  32.901  29.997  1.00  0.00     0.049 A 
ATOM     71  H   UNL A   1      41.025  33.100  28.641  1.00  0.00     0.167 HD
ATOM     72  C   UNL A   1      44.666  32.450  28.837  1.00  0.00     0.074 A 
ATOM     73  C   UNL A   1      45.999  32.545  28.267  1.00  0.00     0.031 C 
ATOM     74  C   UNL A   1      43.694  33.369  29.122  1.00  0.00     0.037 A 
BRANCH  61  75
ATOM     75  C   UNL A   1      37.844  32.186  30.776  1.00  0.00     0.058 A 
ATOM     76  C   UNL A   1      37.144  33.324  30.305  1.00  0.00     0.135 A 
ATOM     77  C   UNL A   1      37.253  31.591  31.912  1.00  0.00     0.135 A 
ATOM     78  F   UNL A   1      37.539  33.979  29.205  1.00  0.00    -0.206 F 
ATOM     79  C   UNL A   1      36.016  33.858  30.947  1.00  0.00     0.059 A 
ATOM     80  C   UNL A   1      36.143  32.115  32.581  1.00  0.00     0.059 A 
ATOM     81  F   UNL A   1      37.691  30.447  32.436  1.00  0.00    -0.206 F 
ATOM     82  C   UNL A   1      35.535  33.259  32.103  1.00  0.00     0.060 A 
BRANCH  82  83
ATOM     83  S   UNL A   1      34.116  33.967  32.957  1.00  0.00     0.124 S 
ATOM     84  O   UNL A   1      34.747  34.643  34.087  1.00  0.00    -0.237 OA
ATOM     85  O   UNL A   1      33.543  34.833  31.934  1.00  0.00    -0.237 OA
ATOM     86  O   UNL A   1      33.310  32.799  33.306  1.00  0.00    -0.744 OA
ENDBRANCH  82  83
ENDBRANCH  61  75
BRANCH  62  87
ATOM     87  C   UNL A   1      46.160  28.020  27.706  1.00  0.00     0.058 A 
ATOM     88  C   UNL A   1      45.454  28.094  26.487  1.00  0.00     0.135 A 
ATOM     89  C   UNL A   1      47.445  27.462  27.672  1.00  0.00     0.135 A 
ATOM     90  F   UNL A   1      44.209  28.597  26.463  1.00  0.00    -0.206 F 
ATOM     91  C   UNL A   1      46.063  27.812  25.268  1.00  0.00     0.059 A 
ATOM     92  C   UNL A   1      48.070  27.158  26.457  1.00  0.00     0.059 A 
ATOM     93  F   UNL A   1      48.164  27.351  28.798  1.00  0.00    -0.206 F 
ATOM     94  C   UNL A   1      47.397  27.419  25.261  1.00  0.00     0.060 A 
BRANCH  94  95
ATOM     95  S   UNL A   1      48.270  27.439  23.674  1.00  0.00     0.124 S 
ATOM     96  O   UNL A   1      49.547  28.045  24.040  1.00  0.00    -0.237 OA
ATOM     97  O   UNL A   1      48.324  26.015  23.340  1.00  0.00    -0.237 OA
ATOM     98  O   UNL A   1      47.406  28.251  22.828  1.00  0.00    -0.744 OA
ENDBRANCH  94  95
ENDBRANCH  62  87
BRANCH  74  99
ATOM     99  C   UNL A   1      43.689  34.821  28.681  1.00  0.00     0.058 A 
ATOM    100  C   UNL A   1      43.399  35.251  27.374  1.00  0.00     0.135 A 
ATOM    101  C   UNL A   1      43.844  35.858  29.635  1.00  0.00     0.135 A 
ATOM    102  F   UNL A   1      43.106  34.379  26.399  1.00  0.00    -0.206 F 
ATOM    103  C   UNL A   1      43.346  36.601  27.021  1.00  0.00     0.059 A 
ATOM    104  C   UNL A   1      43.732  37.210  29.318  1.00  0.00     0.059 A 
ATOM    105  F   UNL A   1      44.098  35.592  30.925  1.00  0.00    -0.206 F 
ATOM    106  C   UNL A   1      43.513  37.575  27.999  1.00  0.00     0.060 A 
BRANCH 106 107
ATOM    107  S   UNL A   1      43.381  39.319  27.565  1.00  0.00     0.124 S 
ATOM    108  O   UNL A   1      42.601  39.254  26.334  1.00  0.00    -0.237 OA
ATOM    109  O   UNL A   1      42.692  39.890  28.718  1.00  0.00    -0.237 OA
ATOM    110  O   UNL A   1      44.773  39.729  27.412  1.00  0.00    -0.744 OA
ENDBRANCH 106 107
ENDBRANCH  74  99
ENDBRANCH  48  49
ENDBRANCH  40  43
ENDBRANCH  38  39
ENDBRANCH  37  38
ENDBRANCH  36  37
ENDBRANCH   1  36
TORSDOF 19
ENDMDL
MODEL 3
REMARK VINA RESULT:     -10.9      4.132     12.538
REMARK SMILES Cc1c(C(=O)Nc2ccc(C(=O)Nc3ccccc3C(=O)NCCCCNC(=O)c3ccc(-c4c5nc(c(-c6c(F)cc(S(=O)(=O)[O-])cc6F)c6ccc([nH]6)c(-c6c(F)cc(S(=O)(=O)[O-])cc6F)c6nc(c(-c7c(F)cc(S(=O)(=O)[O-])cc7F)c7ccc4[nH]7)C=C6)C=C5)cc3)cc2)cccc1[N+](=O)[O-]
REMARK SMILES IDX 23 1 22 2 20 3 21 4 19 6 14 7 15 8 16 9 18 10 17 11 13 12
REMARK SMILES IDX 11 13 12 14 10 16 7 17 8 18 97 19 9 20 96 21 6 22 4 23 5 24
REMARK SMILES IDX 3 26 1 27 2 28 101 29 98 30 100 31 99 32 102 33 103 34
REMARK SMILES IDX 104 35 24 36 25 37 26 38 27 39 28 40 29 42 30 43 31 44 95 45
REMARK SMILES IDX 32 46 94 47 33 48 34 49 35 50 88 51 36 52 93 53 87 54 89 55
REMARK SMILES IDX 37 56 92 57 86 58 85 59 38 61 72 62 51 63 71 64 52 65 55 66
REMARK SMILES IDX 70 67 90 68 53 69 54 70 69 72 91 73 56 74 39 75 40 76 49 77
REMARK SMILES IDX 41 78 42 79 48 80 50 81 43 82 44 83 45 84 46 85 47 86 73 87
REMARK SMILES IDX 74 88 83 89 75 90 76 91 82 92 84 93 77 94 78 95 79 96 80 97
REMARK SMILES IDX 81 98 57 99 58 100 67 101 59 102 60 103 66 104 68 105 61 106
REMARK SMILES IDX 62 107 63 108 64 109 65 110
REMARK H PARENT 22 5 13 15 6 25 27 41 89 60 55 71
REMARK Flexibility Score: inf
ROOT
ATOM      1  C   UNL A   1      35.981  31.588  30.708  1.00  0.00     0.116 C 
ENDROOT
BRANCH   1   2
ATOM      2  N   UNL A   1      36.153  30.836  29.466  1.00  0.00    -0.352 N 
ATOM      3  C   UNL A   1      36.833  29.680  29.132  1.00  0.00     0.253 C 
ATOM      4  O   UNL A   1      36.633  29.197  28.019  1.00  0.00    -0.269 OA
ATOM      5  H   UNL A   1      35.683  31.242  28.701  1.00  0.00     0.163 HD
BRANCH   3   6
ATOM      6  C   UNL A   1      37.829  29.032  30.032  1.00  0.00     0.063 A 
ATOM      7  C   UNL A   1      39.162  28.765  29.625  1.00  0.00     0.054 A 
ATOM      8  C   UNL A   1      40.045  28.140  30.526  1.00  0.00     0.027 A 
ATOM      9  C   UNL A   1      39.647  27.831  31.825  1.00  0.00     0.002 A 
ATOM     10  C   UNL A   1      37.420  28.591  31.300  1.00  0.00     0.016 A 
ATOM     11  C   UNL A   1      38.330  28.044  32.208  1.00  0.00     0.001 A 
BRANCH   7  12
ATOM     12  N   UNL A   1      39.765  29.108  28.394  1.00  0.00    -0.321 N 
ATOM     13  C   UNL A   1      40.319  28.355  27.381  1.00  0.00     0.255 C 
ATOM     14  O   UNL A   1      40.934  28.934  26.483  1.00  0.00    -0.269 OA
ATOM     15  H   UNL A   1      39.796  30.078  28.226  1.00  0.00     0.170 HD
BRANCH  13  16
ATOM     16  C   UNL A   1      40.013  26.908  27.209  1.00  0.00     0.040 A 
ATOM     17  C   UNL A   1      39.730  24.109  27.150  1.00  0.00     0.041 A 
ATOM     18  C   UNL A   1      40.399  24.776  26.138  1.00  0.00     0.027 A 
ATOM     19  C   UNL A   1      39.051  24.861  28.112  1.00  0.00     0.027 A 
ATOM     20  C   UNL A   1      40.630  26.139  26.227  1.00  0.00     0.016 A 
ATOM     21  C   UNL A   1      39.190  26.259  28.138  1.00  0.00     0.016 A 
BRANCH  17  22
ATOM     22  N   UNL A   1      39.809  22.713  27.304  1.00  0.00    -0.322 N 
ATOM     23  C   UNL A   1      40.906  21.882  27.472  1.00  0.00     0.256 C 
ATOM     24  O   UNL A   1      40.743  20.664  27.538  1.00  0.00    -0.269 OA
ATOM     25  H   UNL A   1      38.941  22.250  27.290  1.00  0.00     0.170 HD
BRANCH  23  26
ATOM     26  C   UNL A   1      42.301  22.402  27.596  1.00  0.00     0.049 A 
ATOM     27  C   UNL A   1      42.778  22.311  25.095  1.00  0.00     0.053 C 
ATOM     28  C   UNL A   1      43.225  22.473  26.525  1.00  0.00     0.039 A 
ATOM     29  C   UNL A   1      44.583  22.674  26.866  1.00  0.00     0.273 A 
ATOM     30  C   UNL A   1      42.690  22.772  28.897  1.00  0.00     0.014 A 
ATOM     31  C   UNL A   1      44.971  23.018  28.173  1.00  0.00     0.086 A 
ATOM     32  C   UNL A   1      44.013  23.115  29.176  1.00  0.00     0.008 A 
BRANCH  29  33
ATOM     33  N   UNL A   1      45.663  22.418  25.904  1.00  0.00     0.063 N 
ATOM     34  O   UNL A   1      46.172  23.398  25.343  1.00  0.00    -0.258 OA
ATOM     35  O   UNL A   1      46.040  21.247  25.756  1.00  0.00    -0.258 OA
ENDBRANCH  29  33
ENDBRANCH  23  26
ENDBRANCH  17  22
ENDBRANCH  13  16
ENDBRANCH   7  12
ENDBRANCH   3   6
ENDBRANCH   1   2
BRANCH   1  36
ATOM     36  C   UNL A   1      35.897  33.119  30.607  1.00  0.00     0.023 C 
BRANCH  36  37
ATOM     37  C   UNL A   1      36.280  33.769  29.283  1.00  0.00     0.023 C 
BRANCH  37  38
ATOM     38  C   UNL A   1      37.778  33.950  29.107  1.00  0.00     0.116 C 
BRANCH  38  39
ATOM     39  N   UNL A   1      38.396  34.782  30.127  1.00  0.00    -0.352 N 
ATOM     40  C   UNL A   1      39.177  34.345  31.198  1.00  0.00     0.251 C 
ATOM     41  H   UNL A   1      38.248  35.753  30.056  1.00  0.00     0.163 HD
ATOM     42  O   UNL A   1      39.304  34.949  32.226  1.00  0.00    -0.269 OA
BRANCH  40  43
ATOM     43  C   UNL A   1      40.005  33.148  30.909  1.00  0.00     0.039 A 
ATOM     44  C   UNL A   1      39.691  31.981  31.619  1.00  0.00     0.014 A 
ATOM     45  C   UNL A   1      41.223  33.296  30.257  1.00  0.00     0.014 A 
ATOM     46  C   UNL A   1      40.685  31.037  31.846  1.00  0.00     0.010 A 
ATOM     47  C   UNL A   1      42.234  32.420  30.577  1.00  0.00     0.010 A 
ATOM     48  C   UNL A   1      41.975  31.318  31.408  1.00  0.00    -0.014 A 
BRANCH  48  49
ATOM     49  C   UNL A   1      43.150  30.535  31.762  1.00  0.00     0.031 A 
ATOM     50  C   UNL A   1      43.659  29.552  30.785  1.00  0.00     0.074 A 
ATOM     51  C   UNL A   1      43.832  30.826  32.889  1.00  0.00     0.049 A 
ATOM     52  N   UNL A   1      44.567  28.672  31.027  1.00  0.00    -0.248 NA
ATOM     53  C   UNL A   1      43.109  29.448  29.438  1.00  0.00     0.031 C 
ATOM     54  C   UNL A   1      45.195  30.432  33.231  1.00  0.00     0.029 A 
ATOM     55  N   UNL A   1      43.325  31.382  34.069  1.00  0.00    -0.354 N 
ATOM     56  C   UNL A   1      44.919  28.083  29.831  1.00  0.00     0.074 A 
ATOM     57  C   UNL A   1      43.916  28.532  28.899  1.00  0.00     0.031 C 
ATOM     58  C   UNL A   1      45.345  30.498  34.562  1.00  0.00     0.029 A 
ATOM     59  C   UNL A   1      44.037  30.779  35.127  1.00  0.00     0.049 A 
ATOM     60  H   UNL A   1      42.613  32.058  34.145  1.00  0.00     0.167 HD
ATOM     61  C   UNL A   1      46.094  27.391  29.770  1.00  0.00     0.037 A 
ATOM     62  C   UNL A   1      43.394  29.964  36.016  1.00  0.00     0.037 A 
ATOM     63  C   UNL A   1      46.592  27.145  31.130  1.00  0.00     0.049 A 
ATOM     64  C   UNL A   1      43.879  28.529  35.983  1.00  0.00     0.074 A 
ATOM     65  C   UNL A   1      47.561  27.752  31.912  1.00  0.00     0.029 A 
ATOM     66  N   UNL A   1      45.829  26.359  31.994  1.00  0.00    -0.354 N 
ATOM     67  N   UNL A   1      44.557  28.005  34.997  1.00  0.00    -0.248 NA
ATOM     68  C   UNL A   1      43.656  27.580  37.068  1.00  0.00     0.031 C 
ATOM     69  C   UNL A   1      47.300  27.415  33.270  1.00  0.00     0.029 A 
ATOM     70  C   UNL A   1      46.203  26.571  33.309  1.00  0.00     0.049 A 
ATOM     71  H   UNL A   1      45.121  25.739  31.707  1.00  0.00     0.167 HD
ATOM     72  C   UNL A   1      44.844  26.691  35.276  1.00  0.00     0.074 A 
ATOM     73  C   UNL A   1      44.280  26.484  36.598  1.00  0.00     0.031 C 
ATOM     74  C   UNL A   1      45.516  25.884  34.399  1.00  0.00     0.037 A 
BRANCH  61  75
ATOM     75  C   UNL A   1      46.916  27.164  28.504  1.00  0.00     0.058 A 
ATOM     76  C   UNL A   1      47.247  28.254  27.663  1.00  0.00     0.135 A 
ATOM     77  C   UNL A   1      47.320  25.913  27.989  1.00  0.00     0.135 A 
ATOM     78  F   UNL A   1      46.984  29.518  28.023  1.00  0.00    -0.206 F 
ATOM     79  C   UNL A   1      47.849  28.105  26.404  1.00  0.00     0.059 A 
ATOM     80  C   UNL A   1      47.901  25.736  26.730  1.00  0.00     0.059 A 
ATOM     81  F   UNL A   1      47.204  24.779  28.680  1.00  0.00    -0.206 F 
ATOM     82  C   UNL A   1      48.152  26.835  25.934  1.00  0.00     0.060 A 
BRANCH  82  83
ATOM     83  S   UNL A   1      48.881  26.633  24.299  1.00  0.00     0.124 S 
ATOM     84  O   UNL A   1      50.272  26.329  24.620  1.00  0.00    -0.237 OA
ATOM     85  O   UNL A   1      48.097  25.535  23.747  1.00  0.00    -0.237 OA
ATOM     86  O   UNL A   1      48.662  27.932  23.665  1.00  0.00    -0.744 OA
ENDBRANCH  82  83
ENDBRANCH  61  75
BRANCH  62  87
ATOM     87  C   UNL A   1      42.011  30.434  36.325  1.00  0.00     0.058 A 
ATOM     88  C   UNL A   1      41.890  31.555  37.173  1.00  0.00     0.135 A 
ATOM     89  C   UNL A   1      40.929  30.146  35.482  1.00  0.00     0.135 A 
ATOM     90  F   UNL A   1      42.886  31.865  38.019  1.00  0.00    -0.206 F 
ATOM     91  C   UNL A   1      40.838  32.457  37.053  1.00  0.00     0.059 A 
ATOM     92  C   UNL A   1      39.852  31.033  35.358  1.00  0.00     0.059 A 
ATOM     93  F   UNL A   1      40.974  29.088  34.661  1.00  0.00    -0.206 F 
ATOM     94  C   UNL A   1      39.864  32.224  36.087  1.00  0.00     0.060 A 
BRANCH  94  95
ATOM     95  S   UNL A   1      38.739  33.586  35.684  1.00  0.00     0.124 S 
ATOM     96  O   UNL A   1      38.015  33.050  34.536  1.00  0.00    -0.237 OA
ATOM     97  O   UNL A   1      37.960  33.709  36.916  1.00  0.00    -0.237 OA
ATOM     98  O   UNL A   1      39.643  34.693  35.399  1.00  0.00    -0.744 OA
ENDBRANCH  94  95
ENDBRANCH  62  87
BRANCH  74  99
ATOM     99  C   UNL A   1      45.670  24.379  34.519  1.00  0.00     0.058 A 
ATOM    100  C   UNL A   1      46.890  23.726  34.767  1.00  0.00     0.135 A 
ATOM    101  C   UNL A   1      44.527  23.541  34.527  1.00  0.00     0.135 A 
ATOM    102  F   UNL A   1      48.034  24.408  34.912  1.00  0.00    -0.206 F 
ATOM    103  C   UNL A   1      46.982  22.341  34.930  1.00  0.00     0.059 A 
ATOM    104  C   UNL A   1      44.588  22.168  34.751  1.00  0.00     0.059 A 
ATOM    105  F   UNL A   1      43.294  24.035  34.330  1.00  0.00    -0.206 F 
ATOM    106  C   UNL A   1      45.826  21.569  34.921  1.00  0.00     0.060 A 
BRANCH 106 107
ATOM    107  S   UNL A   1      45.928  19.791  35.197  1.00  0.00     0.124 S 
ATOM    108  O   UNL A   1      46.160  19.732  36.635  1.00  0.00    -0.237 OA
ATOM    109  O   UNL A   1      44.622  19.317  34.750  1.00  0.00    -0.237 OA
ATOM    110  O   UNL A   1      47.052  19.389  34.356  1.00  0.00    -0.744 OA
ENDBRANCH 106 107
ENDBRANCH  74  99
ENDBRANCH  48  49
ENDBRANCH  40  43
ENDBRANCH  38  39
ENDBRANCH  37  38
ENDBRANCH  36  37
ENDBRANCH   1  36
TORSDOF 19
ENDMDL
