MODEL 1
REMARK VINA RESULT:     -13.9      0.000      0.000
REMARK SMILES Cc1ccc(NC(=O)N2CCCC[C@@H]2C(=O)NCCCCNC(=O)c2ccc(-c3c4nc(c(-c5c(F)cc(S(=O)(=O)[O-])cc5F)c5ccc([nH]5)c(-c5c(F)cc(S(=O)(=O)[O-])cc5F)c5nc(c(-c6c(F)cc(S(=O)(=O)[O-])cc6F)c6ccc3[nH]6)C=C5)C=C4)cc2)cc1
REMARK SMILES IDX 20 1 19 2 18 3 17 4 15 5 16 6 14 8 9 9 10 10 11 11 13 12
REMARK SMILES IDX 12 13 7 14 6 15 8 17 5 18 1 19 2 20 3 21 92 22 4 23 91 24
REMARK SMILES IDX 21 25 22 26 23 27 24 29 25 30 26 31 90 32 27 33 89 34 28 35
REMARK SMILES IDX 29 36 30 37 83 38 31 39 88 40 82 41 84 42 32 43 87 44 81 45
REMARK SMILES IDX 80 46 33 48 67 49 46 50 66 51 47 52 50 53 65 54 85 55 48 56
REMARK SMILES IDX 49 57 64 59 86 60 51 61 34 62 35 63 44 64 36 65 37 66 43 67
REMARK SMILES IDX 45 68 38 69 39 70 40 71 41 72 42 73 68 74 69 75 78 76 70 77
REMARK SMILES IDX 71 78 77 79 79 80 72 81 73 82 74 83 75 84 76 85 52 86 53 87
REMARK SMILES IDX 62 88 54 89 55 90 61 91 63 92 56 93 57 94 58 95 59 96 60 97
REMARK H PARENT 17 7 6 16 22 28 84 47 50 58
REMARK Flexibility Score: inf
ROOT
ATOM      1  C   UNL A   1      32.990  30.128  26.804  1.00  0.00     0.023 C 
ENDROOT
BRANCH   1   2
ATOM      2  C   UNL A   1      32.851  29.506  25.410  1.00  0.00     0.023 C 
BRANCH   2   3
ATOM      3  C   UNL A   1      32.728  27.971  25.379  1.00  0.00     0.116 C 
BRANCH   3   4
ATOM      4  N   UNL A   1      31.406  27.550  24.939  1.00  0.00    -0.354 N 
ATOM      5  C   UNL A   1      30.861  26.308  24.818  1.00  0.00     0.242 C 
ATOM      6  O   UNL A   1      29.863  26.209  24.093  1.00  0.00    -0.273 OA
ATOM      7  H   UNL A   1      30.805  28.287  24.687  1.00  0.00     0.163 HD
BRANCH   5   8
ATOM      8  C   UNL A   1      31.522  25.040  25.416  1.00  0.00     0.176 C 
ATOM      9  N   UNL A   1      32.111  24.117  24.410  1.00  0.00    -0.313 N 
ATOM     10  C   UNL A   1      32.246  22.700  24.744  1.00  0.00     0.122 C 
ATOM     11  C   UNL A   1      31.135  22.127  25.603  1.00  0.00     0.022 C 
ATOM     12  C   UNL A   1      30.487  24.386  26.349  1.00  0.00     0.035 C 
ATOM     13  C   UNL A   1      30.901  23.004  26.819  1.00  0.00     0.004 C 
BRANCH   9  14
ATOM     14  C   UNL A   1      32.877  24.518  23.323  1.00  0.00     0.322 C 
ATOM     15  N   UNL A   1      34.199  24.792  23.479  1.00  0.00    -0.308 N 
ATOM     16  H   UNL A   1      34.505  25.632  23.065  1.00  0.00     0.171 HD
ATOM     17  O   UNL A   1      32.375  24.706  22.214  1.00  0.00    -0.248 OA
BRANCH  15  18
ATOM     18  C   UNL A   1      35.197  24.055  24.142  1.00  0.00     0.042 A 
ATOM     19  C   UNL A   1      38.603  22.049  25.836  1.00  0.00     0.044 C 
ATOM     20  C   UNL A   1      37.349  22.664  25.293  1.00  0.00    -0.051 A 
ATOM     21  C   UNL A   1      36.668  23.642  26.023  1.00  0.00     0.005 A 
ATOM     22  C   UNL A   1      36.894  22.335  24.010  1.00  0.00     0.005 A 
ATOM     23  C   UNL A   1      35.581  24.313  25.459  1.00  0.00     0.026 A 
ATOM     24  C   UNL A   1      35.811  23.014  23.446  1.00  0.00     0.026 A 
ENDBRANCH  15  18
ENDBRANCH   9  14
ENDBRANCH   5   8
ENDBRANCH   3   4
ENDBRANCH   2   3
ENDBRANCH   1   2
BRANCH   1  25
ATOM     25  C   UNL A   1      34.329  29.843  27.467  1.00  0.00     0.116 C 
BRANCH  25  26
ATOM     26  N   UNL A   1      34.809  30.909  28.327  1.00  0.00    -0.352 N 
ATOM     27  C   UNL A   1      35.937  30.895  29.133  1.00  0.00     0.251 C 
ATOM     28  H   UNL A   1      34.273  31.735  28.340  1.00  0.00     0.163 HD
ATOM     29  O   UNL A   1      36.154  31.750  29.962  1.00  0.00    -0.269 OA
BRANCH  27  30
ATOM     30  C   UNL A   1      36.926  29.821  28.871  1.00  0.00     0.039 A 
ATOM     31  C   UNL A   1      37.206  28.937  29.917  1.00  0.00     0.014 A 
ATOM     32  C   UNL A   1      37.720  29.852  27.726  1.00  0.00     0.014 A 
ATOM     33  C   UNL A   1      38.383  28.187  29.881  1.00  0.00     0.010 A 
ATOM     34  C   UNL A   1      38.922  29.162  27.727  1.00  0.00     0.010 A 
ATOM     35  C   UNL A   1      39.280  28.361  28.822  1.00  0.00    -0.014 A 
BRANCH  35  36
ATOM     36  C   UNL A   1      40.651  27.849  28.852  1.00  0.00     0.031 A 
ATOM     37  C   UNL A   1      40.979  26.477  28.388  1.00  0.00     0.074 A 
ATOM     38  C   UNL A   1      41.663  28.625  29.306  1.00  0.00     0.049 A 
ATOM     39  N   UNL A   1      41.987  25.793  28.825  1.00  0.00    -0.248 NA
ATOM     40  C   UNL A   1      40.173  25.753  27.410  1.00  0.00     0.031 C 
ATOM     41  C   UNL A   1      43.094  28.357  29.180  1.00  0.00     0.029 A 
ATOM     42  N   UNL A   1      41.590  29.717  30.177  1.00  0.00    -0.354 N 
ATOM     43  C   UNL A   1      42.105  24.672  28.041  1.00  0.00     0.074 A 
ATOM     44  C   UNL A   1      40.926  24.667  27.203  1.00  0.00     0.031 C 
ATOM     45  C   UNL A   1      43.749  29.046  30.124  1.00  0.00     0.029 A 
ATOM     46  C   UNL A   1      42.759  29.692  30.967  1.00  0.00     0.049 A 
ATOM     47  H   UNL A   1      40.861  30.376  30.228  1.00  0.00     0.167 HD
ATOM     48  C   UNL A   1      43.230  23.905  28.085  1.00  0.00     0.037 A 
ATOM     49  C   UNL A   1      42.696  29.598  32.326  1.00  0.00     0.037 A 
ATOM     50  C   UNL A   1      44.217  24.393  29.038  1.00  0.00     0.049 A 
ATOM     51  C   UNL A   1      43.321  28.349  32.908  1.00  0.00     0.074 A 
ATOM     52  C   UNL A   1      45.352  25.179  28.930  1.00  0.00     0.029 A 
ATOM     53  N   UNL A   1      43.949  24.294  30.391  1.00  0.00    -0.354 N 
ATOM     54  N   UNL A   1      43.905  27.416  32.208  1.00  0.00    -0.248 NA
ATOM     55  C   UNL A   1      43.248  28.012  34.332  1.00  0.00     0.031 C 
ATOM     56  C   UNL A   1      45.744  25.579  30.236  1.00  0.00     0.029 A 
ATOM     57  C   UNL A   1      44.845  25.038  31.134  1.00  0.00     0.049 A 
ATOM     58  H   UNL A   1      43.213  23.764  30.775  1.00  0.00     0.167 HD
ATOM     59  C   UNL A   1      44.177  26.351  33.026  1.00  0.00     0.074 A 
ATOM     60  C   UNL A   1      43.782  26.780  34.352  1.00  0.00     0.031 C 
ATOM     61  C   UNL A   1      44.650  25.160  32.565  1.00  0.00     0.037 A 
BRANCH  48  62
ATOM     62  C   UNL A   1      43.495  22.834  27.064  1.00  0.00     0.058 A 
ATOM     63  C   UNL A   1      42.780  21.620  27.080  1.00  0.00     0.135 A 
ATOM     64  C   UNL A   1      44.488  22.943  26.071  1.00  0.00     0.135 A 
ATOM     65  F   UNL A   1      41.782  21.408  27.947  1.00  0.00    -0.206 F 
ATOM     66  C   UNL A   1      43.091  20.556  26.236  1.00  0.00     0.059 A 
ATOM     67  C   UNL A   1      44.851  21.874  25.248  1.00  0.00     0.059 A 
ATOM     68  F   UNL A   1      45.149  24.098  25.888  1.00  0.00    -0.206 F 
ATOM     69  C   UNL A   1      44.151  20.676  25.346  1.00  0.00     0.060 A 
BRANCH  69  70
ATOM     70  S   UNL A   1      44.636  19.232  24.382  1.00  0.00     0.124 S 
ATOM     71  O   UNL A   1      43.732  18.202  24.886  1.00  0.00    -0.237 OA
ATOM     72  O   UNL A   1      44.387  19.682  23.017  1.00  0.00    -0.237 OA
ATOM     73  O   UNL A   1      46.040  19.044  24.739  1.00  0.00    -0.744 OA
ENDBRANCH  69  70
ENDBRANCH  48  62
BRANCH  49  74
ATOM     74  C   UNL A   1      41.530  30.316  32.903  1.00  0.00     0.058 A 
ATOM     75  C   UNL A   1      40.357  29.577  33.150  1.00  0.00     0.135 A 
ATOM     76  C   UNL A   1      41.678  31.545  33.555  1.00  0.00     0.135 A 
ATOM     77  F   UNL A   1      40.159  28.401  32.532  1.00  0.00    -0.206 F 
ATOM     78  C   UNL A   1      39.444  29.965  34.121  1.00  0.00     0.059 A 
ATOM     79  C   UNL A   1      40.767  31.961  34.526  1.00  0.00     0.059 A 
ATOM     80  F   UNL A   1      42.774  32.292  33.355  1.00  0.00    -0.206 F 
ATOM     81  C   UNL A   1      39.694  31.128  34.847  1.00  0.00     0.060 A 
BRANCH  81  82
ATOM     82  S   UNL A   1      38.697  31.431  36.321  1.00  0.00     0.124 S 
ATOM     83  O   UNL A   1      38.346  30.077  36.734  1.00  0.00    -0.237 OA
ATOM     84  O   UNL A   1      39.652  32.124  37.185  1.00  0.00    -0.237 OA
ATOM     85  O   UNL A   1      37.597  32.246  35.821  1.00  0.00    -0.744 OA
ENDBRANCH  81  82
ENDBRANCH  49  74
BRANCH  61  86
ATOM     86  C   UNL A   1      44.967  24.016  33.471  1.00  0.00     0.058 A 
ATOM     87  C   UNL A   1      46.230  23.882  34.068  1.00  0.00     0.135 A 
ATOM     88  C   UNL A   1      44.057  22.959  33.662  1.00  0.00     0.135 A 
ATOM     89  F   UNL A   1      47.163  24.836  33.910  1.00  0.00    -0.206 F 
ATOM     90  C   UNL A   1      46.572  22.765  34.828  1.00  0.00     0.059 A 
ATOM     91  C   UNL A   1      44.387  21.817  34.388  1.00  0.00     0.059 A 
ATOM     92  F   UNL A   1      42.815  23.021  33.158  1.00  0.00    -0.206 F 
ATOM     93  C   UNL A   1      45.645  21.734  34.979  1.00  0.00     0.060 A 
BRANCH  93  94
ATOM     94  S   UNL A   1      46.096  20.261  35.916  1.00  0.00     0.124 S 
ATOM     95  O   UNL A   1      45.750  20.629  37.286  1.00  0.00    -0.237 OA
ATOM     96  O   UNL A   1      45.241  19.251  35.301  1.00  0.00    -0.237 OA
ATOM     97  O   UNL A   1      47.525  20.125  35.655  1.00  0.00    -0.744 OA
ENDBRANCH  93  94
ENDBRANCH  61  86
ENDBRANCH  35  36
ENDBRANCH  27  30
ENDBRANCH  25  26
ENDBRANCH   1  25
TORSDOF 16
ENDMDL
MODEL 2
REMARK VINA RESULT:     -13.7      0.935      1.762
REMARK SMILES Cc1ccc(NC(=O)N2CCCC[C@@H]2C(=O)NCCCCNC(=O)c2ccc(-c3c4nc(c(-c5c(F)cc(S(=O)(=O)[O-])cc5F)c5ccc([nH]5)c(-c5c(F)cc(S(=O)(=O)[O-])cc5F)c5nc(c(-c6c(F)cc(S(=O)(=O)[O-])cc6F)c6ccc3[nH]6)C=C5)C=C4)cc2)cc1
REMARK SMILES IDX 20 1 19 2 18 3 17 4 15 5 16 6 14 8 9 9 10 10 11 11 13 12
REMARK SMILES IDX 12 13 7 14 6 15 8 17 5 18 1 19 2 20 3 21 92 22 4 23 91 24
REMARK SMILES IDX 21 25 22 26 23 27 24 29 25 30 26 31 90 32 27 33 89 34 28 35
REMARK SMILES IDX 29 36 30 37 83 38 31 39 88 40 82 41 84 42 32 43 87 44 81 45
REMARK SMILES IDX 80 46 33 48 67 49 46 50 66 51 47 52 50 53 65 54 85 55 48 56
REMARK SMILES IDX 49 57 64 59 86 60 51 61 34 62 35 63 44 64 36 65 37 66 43 67
REMARK SMILES IDX 45 68 38 69 39 70 40 71 41 72 42 73 68 74 69 75 78 76 70 77
REMARK SMILES IDX 71 78 77 79 79 80 72 81 73 82 74 83 75 84 76 85 52 86 53 87
REMARK SMILES IDX 62 88 54 89 55 90 61 91 63 92 56 93 57 94 58 95 59 96 60 97
REMARK H PARENT 17 7 6 16 22 28 84 47 50 58
REMARK Flexibility Score: inf
ROOT
ATOM      1  C   UNL A   1      34.312  29.063  26.562  1.00  0.00     0.023 C 
ENDROOT
BRANCH   1   2
ATOM      2  C   UNL A   1      33.630  27.765  26.116  1.00  0.00     0.023 C 
BRANCH   2   3
ATOM      3  C   UNL A   1      33.322  27.662  24.611  1.00  0.00     0.116 C 
BRANCH   3   4
ATOM      4  N   UNL A   1      31.920  27.349  24.372  1.00  0.00    -0.354 N 
ATOM      5  C   UNL A   1      31.237  26.178  24.490  1.00  0.00     0.242 C 
ATOM      6  O   UNL A   1      30.156  26.103  23.891  1.00  0.00    -0.273 OA
ATOM      7  H   UNL A   1      31.376  28.113  24.075  1.00  0.00     0.163 HD
BRANCH   5   8
ATOM      8  C   UNL A   1      31.824  24.931  25.200  1.00  0.00     0.176 C 
ATOM      9  N   UNL A   1      32.355  23.889  24.281  1.00  0.00    -0.313 N 
ATOM     10  C   UNL A   1      32.408  22.503  24.740  1.00  0.00     0.122 C 
ATOM     11  C   UNL A   1      31.268  22.074  25.645  1.00  0.00     0.022 C 
ATOM     12  C   UNL A   1      30.755  24.424  26.185  1.00  0.00     0.035 C 
ATOM     13  C   UNL A   1      31.089  23.068  26.777  1.00  0.00     0.004 C 
BRANCH   9  14
ATOM     14  C   UNL A   1      33.140  24.147  23.165  1.00  0.00     0.322 C 
ATOM     15  N   UNL A   1      34.462  24.429  23.305  1.00  0.00    -0.308 N 
ATOM     16  H   UNL A   1      34.781  25.208  22.795  1.00  0.00     0.171 HD
ATOM     17  O   UNL A   1      32.655  24.199  22.033  1.00  0.00    -0.248 OA
BRANCH  15  18
ATOM     18  C   UNL A   1      35.443  23.773  24.070  1.00  0.00     0.042 A 
ATOM     19  C   UNL A   1      38.805  21.957  26.044  1.00  0.00     0.044 C 
ATOM     20  C   UNL A   1      37.565  22.514  25.415  1.00  0.00    -0.051 A 
ATOM     21  C   UNL A   1      36.906  23.602  25.995  1.00  0.00     0.005 A 
ATOM     22  C   UNL A   1      37.102  22.014  24.191  1.00  0.00     0.005 A 
ATOM     23  C   UNL A   1      35.833  24.209  25.337  1.00  0.00     0.026 A 
ATOM     24  C   UNL A   1      36.034  22.630  23.532  1.00  0.00     0.026 A 
ENDBRANCH  15  18
ENDBRANCH   9  14
ENDBRANCH   5   8
ENDBRANCH   3   4
ENDBRANCH   2   3
ENDBRANCH   1   2
BRANCH   1  25
ATOM     25  C   UNL A   1      34.261  29.292  28.065  1.00  0.00     0.116 C 
BRANCH  25  26
ATOM     26  N   UNL A   1      34.826  30.557  28.497  1.00  0.00    -0.352 N 
ATOM     27  C   UNL A   1      36.089  30.776  29.027  1.00  0.00     0.251 C 
ATOM     28  H   UNL A   1      34.248  31.348  28.402  1.00  0.00     0.163 HD
ATOM     29  O   UNL A   1      36.405  31.827  29.539  1.00  0.00    -0.269 OA
BRANCH  27  30
ATOM     30  C   UNL A   1      37.078  29.684  28.858  1.00  0.00     0.039 A 
ATOM     31  C   UNL A   1      37.439  28.962  29.999  1.00  0.00     0.014 A 
ATOM     32  C   UNL A   1      37.797  29.557  27.671  1.00  0.00     0.014 A 
ATOM     33  C   UNL A   1      38.624  28.226  29.994  1.00  0.00     0.010 A 
ATOM     34  C   UNL A   1      39.009  28.884  27.692  1.00  0.00     0.010 A 
ATOM     35  C   UNL A   1      39.450  28.253  28.865  1.00  0.00    -0.014 A 
BRANCH  35  36
ATOM     36  C   UNL A   1      40.829  27.762  28.879  1.00  0.00     0.031 A 
ATOM     37  C   UNL A   1      41.178  26.411  28.372  1.00  0.00     0.074 A 
ATOM     38  C   UNL A   1      41.829  28.539  29.358  1.00  0.00     0.049 A 
ATOM     39  N   UNL A   1      42.198  25.730  28.787  1.00  0.00    -0.248 NA
ATOM     40  C   UNL A   1      40.384  25.706  27.371  1.00  0.00     0.031 C 
ATOM     41  C   UNL A   1      43.264  28.298  29.223  1.00  0.00     0.029 A 
ATOM     42  N   UNL A   1      41.738  29.601  30.263  1.00  0.00    -0.354 N 
ATOM     43  C   UNL A   1      42.334  24.636  27.968  1.00  0.00     0.074 A 
ATOM     44  C   UNL A   1      41.154  24.639  27.129  1.00  0.00     0.031 C 
ATOM     45  C   UNL A   1      43.907  28.968  30.189  1.00  0.00     0.029 A 
ATOM     46  C   UNL A   1      42.908  29.571  31.052  1.00  0.00     0.049 A 
ATOM     47  H   UNL A   1      40.998  30.247  30.335  1.00  0.00     0.167 HD
ATOM     48  C   UNL A   1      43.471  23.886  27.987  1.00  0.00     0.037 A 
ATOM     49  C   UNL A   1      42.846  29.432  32.407  1.00  0.00     0.037 A 
ATOM     50  C   UNL A   1      44.450  24.360  28.955  1.00  0.00     0.049 A 
ATOM     51  C   UNL A   1      43.492  28.176  32.949  1.00  0.00     0.074 A 
ATOM     52  C   UNL A   1      45.572  25.166  28.873  1.00  0.00     0.029 A 
ATOM     53  N   UNL A   1      44.184  24.213  30.304  1.00  0.00    -0.354 N 
ATOM     54  N   UNL A   1      44.091  27.275  32.220  1.00  0.00    -0.248 NA
ATOM     55  C   UNL A   1      43.424  27.792  34.362  1.00  0.00     0.031 C 
ATOM     56  C   UNL A   1      45.958  25.532  30.191  1.00  0.00     0.029 A 
ATOM     57  C   UNL A   1      45.068  24.948  31.071  1.00  0.00     0.049 A 
ATOM     58  H   UNL A   1      43.457  23.660  30.671  1.00  0.00     0.167 HD
ATOM     59  C   UNL A   1      44.380  26.189  33.003  1.00  0.00     0.074 A 
ATOM     60  C   UNL A   1      43.978  26.569  34.343  1.00  0.00     0.031 C 
ATOM     61  C   UNL A   1      44.872  25.021  32.505  1.00  0.00     0.037 A 
BRANCH  48  62
ATOM     62  C   UNL A   1      43.753  22.853  26.932  1.00  0.00     0.058 A 
ATOM     63  C   UNL A   1      43.035  21.641  26.891  1.00  0.00     0.135 A 
ATOM     64  C   UNL A   1      44.764  22.996  25.963  1.00  0.00     0.135 A 
ATOM     65  F   UNL A   1      42.020  21.400  27.731  1.00  0.00    -0.206 F 
ATOM     66  C   UNL A   1      43.360  20.607  26.015  1.00  0.00     0.059 A 
ATOM     67  C   UNL A   1      45.140  21.956  25.107  1.00  0.00     0.059 A 
ATOM     68  F   UNL A   1      45.430  24.155  25.834  1.00  0.00    -0.206 F 
ATOM     69  C   UNL A   1      44.435  20.758  25.149  1.00  0.00     0.060 A 
BRANCH  69  70
ATOM     70  S   UNL A   1      44.936  19.348  24.141  1.00  0.00     0.124 S 
ATOM     71  O   UNL A   1      46.392  19.390  24.249  1.00  0.00    -0.237 OA
ATOM     72  O   UNL A   1      44.281  18.240  24.826  1.00  0.00    -0.237 OA
ATOM     73  O   UNL A   1      44.410  19.674  22.819  1.00  0.00    -0.744 OA
ENDBRANCH  69  70
ENDBRANCH  48  62
BRANCH  49  74
ATOM     74  C   UNL A   1      41.670  30.112  33.007  1.00  0.00     0.058 A 
ATOM     75  C   UNL A   1      41.749  31.501  33.222  1.00  0.00     0.135 A 
ATOM     76  C   UNL A   1      40.400  29.524  32.993  1.00  0.00     0.135 A 
ATOM     77  F   UNL A   1      42.946  32.109  33.265  1.00  0.00    -0.206 F 
ATOM     78  C   UNL A   1      40.612  32.297  33.262  1.00  0.00     0.059 A 
ATOM     79  C   UNL A   1      39.244  30.302  33.044  1.00  0.00     0.059 A 
ATOM     80  F   UNL A   1      40.266  28.204  32.796  1.00  0.00    -0.206 F 
ATOM     81  C   UNL A   1      39.366  31.691  33.109  1.00  0.00     0.060 A 
BRANCH  81  82
ATOM     82  S   UNL A   1      37.941  32.760  32.819  1.00  0.00     0.124 S 
ATOM     83  O   UNL A   1      38.287  33.390  31.550  1.00  0.00    -0.237 OA
ATOM     84  O   UNL A   1      36.851  31.787  32.761  1.00  0.00    -0.237 OA
ATOM     85  O   UNL A   1      37.937  33.638  33.982  1.00  0.00    -0.744 OA
ENDBRANCH  81  82
ENDBRANCH  49  74
BRANCH  61  86
ATOM     86  C   UNL A   1      45.207  23.854  33.374  1.00  0.00     0.058 A 
ATOM     87  C   UNL A   1      44.248  22.880  33.694  1.00  0.00     0.135 A 
ATOM     88  C   UNL A   1      46.458  23.749  34.012  1.00  0.00     0.135 A 
ATOM     89  F   UNL A   1      43.022  22.926  33.147  1.00  0.00    -0.206 F 
ATOM     90  C   UNL A   1      44.517  21.845  34.589  1.00  0.00     0.059 A 
ATOM     91  C   UNL A   1      46.739  22.746  34.936  1.00  0.00     0.059 A 
ATOM     92  F   UNL A   1      47.444  24.616  33.737  1.00  0.00    -0.206 F 
ATOM     93  C   UNL A   1      45.765  21.789  35.208  1.00  0.00     0.060 A 
BRANCH  93  94
ATOM     94  S   UNL A   1      46.106  20.485  36.407  1.00  0.00     0.124 S 
ATOM     95  O   UNL A   1      47.548  20.298  36.284  1.00  0.00    -0.237 OA
ATOM     96  O   UNL A   1      45.656  21.106  37.648  1.00  0.00    -0.237 OA
ATOM     97  O   UNL A   1      45.295  19.371  35.926  1.00  0.00    -0.744 OA
ENDBRANCH  93  94
ENDBRANCH  61  86
ENDBRANCH  35  36
ENDBRANCH  27  30
ENDBRANCH  25  26
ENDBRANCH   1  25
TORSDOF 16
ENDMDL
MODEL 3
REMARK VINA RESULT:     -13.7      4.910     11.333
REMARK SMILES Cc1ccc(NC(=O)N2CCCC[C@@H]2C(=O)NCCCCNC(=O)c2ccc(-c3c4nc(c(-c5c(F)cc(S(=O)(=O)[O-])cc5F)c5ccc([nH]5)c(-c5c(F)cc(S(=O)(=O)[O-])cc5F)c5nc(c(-c6c(F)cc(S(=O)(=O)[O-])cc6F)c6ccc3[nH]6)C=C5)C=C4)cc2)cc1
REMARK SMILES IDX 20 1 19 2 18 3 17 4 15 5 16 6 14 8 9 9 10 10 11 11 13 12
REMARK SMILES IDX 12 13 7 14 6 15 8 17 5 18 1 19 2 20 3 21 92 22 4 23 91 24
REMARK SMILES IDX 21 25 22 26 23 27 24 29 25 30 26 31 90 32 27 33 89 34 28 35
REMARK SMILES IDX 29 36 30 37 83 38 31 39 88 40 82 41 84 42 32 43 87 44 81 45
REMARK SMILES IDX 80 46 33 48 67 49 46 50 66 51 47 52 50 53 65 54 85 55 48 56
REMARK SMILES IDX 49 57 64 59 86 60 51 61 34 62 35 63 44 64 36 65 37 66 43 67
REMARK SMILES IDX 45 68 38 69 39 70 40 71 41 72 42 73 68 74 69 75 78 76 70 77
REMARK SMILES IDX 71 78 77 79 79 80 72 81 73 82 74 83 75 84 76 85 52 86 53 87
REMARK SMILES IDX 62 88 54 89 55 90 61 91 63 92 56 93 57 94 58 95 59 96 60 97
REMARK H PARENT 17 7 6 16 22 28 84 47 50 58
REMARK Flexibility Score: inf
ROOT
ATOM      1  C   UNL A   1      36.951  23.155  26.027  1.00  0.00     0.023 C 
ENDROOT
BRANCH   1   2
ATOM      2  C   UNL A   1      35.683  23.978  25.777  1.00  0.00     0.023 C 
BRANCH   2   3
ATOM      3  C   UNL A   1      34.383  23.383  26.351  1.00  0.00     0.116 C 
BRANCH   3   4
ATOM      4  N   UNL A   1      33.625  22.672  25.332  1.00  0.00    -0.354 N 
ATOM      5  C   UNL A   1      32.865  23.134  24.302  1.00  0.00     0.242 C 
ATOM      6  O   UNL A   1      32.051  22.340  23.813  1.00  0.00    -0.273 OA
ATOM      7  H   UNL A   1      33.670  21.691  25.400  1.00  0.00     0.163 HD
BRANCH   5   8
ATOM      8  C   UNL A   1      32.881  24.616  23.847  1.00  0.00     0.176 C 
ATOM      9  N   UNL A   1      31.709  25.414  24.295  1.00  0.00    -0.313 N 
ATOM     10  C   UNL A   1      31.313  26.587  23.519  1.00  0.00     0.122 C 
ATOM     11  C   UNL A   1      31.501  26.466  22.018  1.00  0.00     0.022 C 
ATOM     12  C   UNL A   1      33.107  24.620  22.324  1.00  0.00     0.035 C 
ATOM     13  C   UNL A   1      32.904  25.987  21.697  1.00  0.00     0.004 C 
BRANCH   9  14
ATOM     14  C   UNL A   1      31.168  25.373  25.574  1.00  0.00     0.322 C 
ATOM     15  N   UNL A   1      31.809  25.976  26.610  1.00  0.00    -0.308 N 
ATOM     16  H   UNL A   1      31.892  25.432  27.426  1.00  0.00     0.171 HD
ATOM     17  O   UNL A   1      30.144  24.735  25.821  1.00  0.00    -0.248 OA
BRANCH  15  18
ATOM     18  C   UNL A   1      32.369  27.264  26.691  1.00  0.00     0.042 A 
ATOM     19  C   UNL A   1      34.017  31.157  27.480  1.00  0.00     0.044 C 
ATOM     20  C   UNL A   1      33.426  29.836  27.093  1.00  0.00    -0.051 A 
ATOM     21  C   UNL A   1      34.249  28.792  26.662  1.00  0.00     0.005 A 
ATOM     22  C   UNL A   1      32.054  29.598  27.248  1.00  0.00     0.005 A 
ATOM     23  C   UNL A   1      33.717  27.521  26.435  1.00  0.00     0.026 A 
ATOM     24  C   UNL A   1      31.527  28.322  27.028  1.00  0.00     0.026 A 
ENDBRANCH  15  18
ENDBRANCH   9  14
ENDBRANCH   5   8
ENDBRANCH   3   4
ENDBRANCH   2   3
ENDBRANCH   1   2
BRANCH   1  25
ATOM     25  C   UNL A   1      38.205  23.772  25.427  1.00  0.00     0.116 C 
BRANCH  25  26
ATOM     26  N   UNL A   1      39.443  23.323  26.036  1.00  0.00    -0.352 N 
ATOM     27  C   UNL A   1      40.337  24.079  26.779  1.00  0.00     0.251 C 
ATOM     28  H   UNL A   1      39.674  22.374  25.907  1.00  0.00     0.163 HD
ATOM     29  O   UNL A   1      41.436  23.672  27.083  1.00  0.00    -0.269 OA
BRANCH  27  30
ATOM     30  C   UNL A   1      39.849  25.391  27.269  1.00  0.00     0.039 A 
ATOM     31  C   UNL A   1      40.361  26.537  26.655  1.00  0.00     0.014 A 
ATOM     32  C   UNL A   1      39.114  25.477  28.450  1.00  0.00     0.014 A 
ATOM     33  C   UNL A   1      40.267  27.764  27.313  1.00  0.00     0.010 A 
ATOM     34  C   UNL A   1      39.087  26.683  29.134  1.00  0.00     0.010 A 
ATOM     35  C   UNL A   1      39.701  27.821  28.590  1.00  0.00    -0.014 A 
BRANCH  35  36
ATOM     36  C   UNL A   1      39.829  28.990  29.463  1.00  0.00     0.031 A 
ATOM     37  C   UNL A   1      38.776  30.034  29.522  1.00  0.00     0.074 A 
ATOM     38  C   UNL A   1      40.922  29.144  30.247  1.00  0.00     0.049 A 
ATOM     39  N   UNL A   1      39.006  31.269  29.837  1.00  0.00    -0.248 NA
ATOM     40  C   UNL A   1      37.376  29.774  29.202  1.00  0.00     0.031 C 
ATOM     41  C   UNL A   1      41.091  30.109  31.331  1.00  0.00     0.029 A 
ATOM     42  N   UNL A   1      42.195  28.595  30.069  1.00  0.00    -0.354 N 
ATOM     43  C   UNL A   1      37.794  31.896  29.992  1.00  0.00     0.074 A 
ATOM     44  C   UNL A   1      36.809  30.937  29.542  1.00  0.00     0.031 C 
ATOM     45  C   UNL A   1      42.401  30.298  31.542  1.00  0.00     0.029 A 
ATOM     46  C   UNL A   1      43.125  29.553  30.529  1.00  0.00     0.049 A 
ATOM     47  H   UNL A   1      42.404  27.709  29.694  1.00  0.00     0.167 HD
ATOM     48  C   UNL A   1      37.712  33.119  30.585  1.00  0.00     0.037 A 
ATOM     49  C   UNL A   1      44.083  30.065  29.704  1.00  0.00     0.037 A 
ATOM     50  C   UNL A   1      39.009  33.649  30.982  1.00  0.00     0.049 A 
ATOM     51  C   UNL A   1      43.982  31.555  29.460  1.00  0.00     0.074 A 
ATOM     52  C   UNL A   1      39.718  33.668  32.172  1.00  0.00     0.029 A 
ATOM     53  N   UNL A   1      39.899  34.047  30.001  1.00  0.00    -0.354 N 
ATOM     54  N   UNL A   1      43.080  32.335  29.989  1.00  0.00    -0.248 NA
ATOM     55  C   UNL A   1      44.845  32.267  28.512  1.00  0.00     0.031 C 
ATOM     56  C   UNL A   1      41.056  34.051  31.888  1.00  0.00     0.029 A 
ATOM     57  C   UNL A   1      41.159  34.262  30.527  1.00  0.00     0.049 A 
ATOM     58  H   UNL A   1      39.666  34.162  29.052  1.00  0.00     0.167 HD
ATOM     59  C   UNL A   1      43.161  33.571  29.404  1.00  0.00     0.074 A 
ATOM     60  C   UNL A   1      44.301  33.494  28.512  1.00  0.00     0.031 C 
ATOM     61  C   UNL A   1      42.259  34.565  29.632  1.00  0.00     0.037 A 
BRANCH  48  62
ATOM     62  C   UNL A   1      36.393  33.709  31.000  1.00  0.00     0.058 A 
ATOM     63  C   UNL A   1      35.490  34.216  30.045  1.00  0.00     0.135 A 
ATOM     64  C   UNL A   1      35.994  33.838  32.344  1.00  0.00     0.135 A 
ATOM     65  F   UNL A   1      35.732  34.116  28.731  1.00  0.00    -0.206 F 
ATOM     66  C   UNL A   1      34.322  34.888  30.400  1.00  0.00     0.059 A 
ATOM     67  C   UNL A   1      34.854  34.551  32.727  1.00  0.00     0.059 A 
ATOM     68  F   UNL A   1      36.720  33.285  33.330  1.00  0.00    -0.206 F 
ATOM     69  C   UNL A   1      34.028  35.083  31.743  1.00  0.00     0.060 A 
BRANCH  69  70
ATOM     70  S   UNL A   1      32.599  36.096  32.176  1.00  0.00     0.124 S 
ATOM     71  O   UNL A   1      31.629  35.095  32.610  1.00  0.00    -0.237 OA
ATOM     72  O   UNL A   1      33.142  36.951  33.225  1.00  0.00    -0.237 OA
ATOM     73  O   UNL A   1      32.269  36.766  30.922  1.00  0.00    -0.744 OA
ENDBRANCH  69  70
ENDBRANCH  48  62
BRANCH  49  74
ATOM     74  C   UNL A   1      44.595  29.074  28.723  1.00  0.00     0.058 A 
ATOM     75  C   UNL A   1      44.011  29.051  27.442  1.00  0.00     0.135 A 
ATOM     76  C   UNL A   1      45.846  28.467  28.883  1.00  0.00     0.135 A 
ATOM     77  F   UNL A   1      42.803  29.602  27.243  1.00  0.00    -0.206 F 
ATOM     78  C   UNL A   1      44.707  28.587  26.335  1.00  0.00     0.059 A 
ATOM     79  C   UNL A   1      46.558  27.983  27.786  1.00  0.00     0.059 A 
ATOM     80  F   UNL A   1      46.447  28.457  30.082  1.00  0.00    -0.206 F 
ATOM     81  C   UNL A   1      46.006  28.113  26.511  1.00  0.00     0.060 A 
BRANCH  81  82
ATOM     82  S   UNL A   1      47.010  27.842  25.036  1.00  0.00     0.124 S 
ATOM     83  O   UNL A   1      46.420  26.627  24.485  1.00  0.00    -0.237 OA
ATOM     84  O   UNL A   1      46.756  29.065  24.278  1.00  0.00    -0.237 OA
ATOM     85  O   UNL A   1      48.360  27.702  25.571  1.00  0.00    -0.744 OA
ENDBRANCH  81  82
ENDBRANCH  49  74
BRANCH  61  86
ATOM     86  C   UNL A   1      42.374  35.915  29.007  1.00  0.00     0.058 A 
ATOM     87  C   UNL A   1      41.740  36.216  27.791  1.00  0.00     0.135 A 
ATOM     88  C   UNL A   1      43.224  36.901  29.542  1.00  0.00     0.135 A 
ATOM     89  F   UNL A   1      40.934  35.316  27.202  1.00  0.00    -0.206 F 
ATOM     90  C   UNL A   1      41.926  37.435  27.143  1.00  0.00     0.059 A 
ATOM     91  C   UNL A   1      43.454  38.114  28.896  1.00  0.00     0.059 A 
ATOM     92  F   UNL A   1      43.841  36.712  30.718  1.00  0.00    -0.206 F 
ATOM     93  C   UNL A   1      42.789  38.378  27.702  1.00  0.00     0.060 A 
BRANCH  93  94
ATOM     94  S   UNL A   1      43.078  39.939  26.846  1.00  0.00     0.124 S 
ATOM     95  O   UNL A   1      43.123  40.906  27.938  1.00  0.00    -0.237 OA
ATOM     96  O   UNL A   1      44.352  39.677  26.185  1.00  0.00    -0.237 OA
ATOM     97  O   UNL A   1      41.920  40.055  25.966  1.00  0.00    -0.744 OA
ENDBRANCH  93  94
ENDBRANCH  61  86
ENDBRANCH  35  36
ENDBRANCH  27  30
ENDBRANCH  25  26
ENDBRANCH   1  25
TORSDOF 16
ENDMDL
