MODEL 1
REMARK VINA RESULT:     -10.6      0.000      0.000
REMARK SMILES C[C@@H](C(=O)NCCCCNC(=O)c1ccc(-c2c3nc(c(-c4c(F)cc(S(=O)(=O)[O-])cc4F)c4ccc([nH]4)c(-c4c(F)cc(S(=O)(=O)[O-])cc4F)c4nc(c(-c5c(F)cc(S(=O)(=O)[O-])cc5F)c5ccc2[nH]5)C=C4)C=C3)cc1)c1cccc(C(=O)c2ccccc2)c1
REMARK SMILES IDX 7 1 6 2 5 3 3 4 4 5 2 7 1 8 79 9 80 10 92 11 81 12 83 13
REMARK SMILES IDX 82 14 84 15 85 16 86 17 87 18 91 19 88 20 90 21 89 22 8 23
REMARK SMILES IDX 9 24 10 25 11 26 12 28 13 29 14 30 78 31 15 32 77 33 16 34
REMARK SMILES IDX 17 35 18 36 71 37 19 38 76 39 70 40 72 41 20 42 75 43 69 44
REMARK SMILES IDX 68 45 21 47 55 48 34 49 54 50 35 51 38 52 53 53 73 54 36 55
REMARK SMILES IDX 37 56 52 58 74 59 39 60 22 61 23 62 32 63 24 64 25 65 31 66
REMARK SMILES IDX 33 67 26 68 27 69 28 70 29 71 30 72 56 73 57 74 66 75 58 76
REMARK SMILES IDX 59 77 65 78 67 79 60 80 61 81 62 82 63 83 64 84 40 85 41 86
REMARK SMILES IDX 50 87 42 88 43 89 49 90 51 91 44 92 45 93 46 94 47 95 48 96
REMARK H PARENT 5 6 10 27 72 46 38 57
REMARK Flexibility Score: inf
ROOT
ATOM      1  C   UNL A   1      33.159  35.012  28.913  1.00  0.00     0.023 C 
ENDROOT
BRANCH   1   2
ATOM      2  C   UNL A   1      33.357  36.168  29.900  1.00  0.00     0.116 C 
BRANCH   2   3
ATOM      3  N   UNL A   1      32.190  36.310  30.747  1.00  0.00    -0.356 N 
ATOM      4  C   UNL A   1      32.084  36.187  32.104  1.00  0.00     0.227 C 
ATOM      5  O   UNL A   1      30.957  35.953  32.544  1.00  0.00    -0.274 OA
ATOM      6  H   UNL A   1      31.351  36.525  30.278  1.00  0.00     0.163 HD
BRANCH   4   7
ATOM      7  C   UNL A   1      33.333  36.367  32.999  1.00  0.00     0.105 C 
ATOM      8  C   UNL A   1      33.985  37.712  32.645  1.00  0.00     0.023 C 
BRANCH   7   9
ATOM      9  C   UNL A   1      34.342  35.206  32.903  1.00  0.00    -0.035 A 
ATOM     10  C   UNL A   1      33.923  33.866  32.838  1.00  0.00     0.004 A 
ATOM     11  C   UNL A   1      35.728  35.449  32.871  1.00  0.00     0.016 A 
ATOM     12  C   UNL A   1      34.843  32.816  32.870  1.00  0.00     0.001 A 
ATOM     13  C   UNL A   1      36.658  34.404  32.980  1.00  0.00     0.023 A 
ATOM     14  C   UNL A   1      36.204  33.084  32.973  1.00  0.00     0.012 A 
BRANCH  13  15
ATOM     15  C   UNL A   1      38.125  34.649  33.098  1.00  0.00     0.193 C 
ATOM     16  O   UNL A   1      38.615  34.901  34.198  1.00  0.00    -0.289 OA
BRANCH  15  17
ATOM     17  C   UNL A   1      39.030  34.565  31.927  1.00  0.00     0.022 A 
ATOM     18  C   UNL A   1      40.407  34.524  32.167  1.00  0.00     0.012 A 
ATOM     19  C   UNL A   1      38.546  34.526  30.615  1.00  0.00     0.012 A 
ATOM     20  C   UNL A   1      41.296  34.391  31.099  1.00  0.00     0.001 A 
ATOM     21  C   UNL A   1      39.439  34.386  29.551  1.00  0.00     0.001 A 
ATOM     22  C   UNL A   1      40.811  34.311  29.794  1.00  0.00     0.000 A 
ENDBRANCH  15  17
ENDBRANCH  13  15
ENDBRANCH   7   9
ENDBRANCH   4   7
ENDBRANCH   2   3
ENDBRANCH   1   2
BRANCH   1  23
ATOM     23  C   UNL A   1      34.433  34.232  28.572  1.00  0.00     0.023 C 
BRANCH  23  24
ATOM     24  C   UNL A   1      34.465  32.795  29.073  1.00  0.00     0.116 C 
BRANCH  24  25
ATOM     25  N   UNL A   1      34.001  31.848  28.072  1.00  0.00    -0.352 N 
ATOM     26  C   UNL A   1      34.613  30.720  27.589  1.00  0.00     0.251 C 
ATOM     27  H   UNL A   1      33.118  32.045  27.685  1.00  0.00     0.163 HD
ATOM     28  O   UNL A   1      34.125  30.139  26.620  1.00  0.00    -0.269 OA
BRANCH  26  29
ATOM     29  C   UNL A   1      35.862  30.223  28.203  1.00  0.00     0.039 A 
ATOM     30  C   UNL A   1      37.078  30.532  27.587  1.00  0.00     0.014 A 
ATOM     31  C   UNL A   1      35.847  29.455  29.372  1.00  0.00     0.014 A 
ATOM     32  C   UNL A   1      38.275  30.120  28.173  1.00  0.00     0.010 A 
ATOM     33  C   UNL A   1      37.045  29.111  29.996  1.00  0.00     0.010 A 
ATOM     34  C   UNL A   1      38.273  29.441  29.403  1.00  0.00    -0.014 A 
BRANCH  34  35
ATOM     35  C   UNL A   1      39.550  29.099  30.080  1.00  0.00     0.031 A 
ATOM     36  C   UNL A   1      39.994  29.844  31.311  1.00  0.00     0.074 A 
ATOM     37  C   UNL A   1      40.327  28.125  29.561  1.00  0.00     0.049 A 
ATOM     38  N   UNL A   1      41.075  29.676  32.029  1.00  0.00    -0.248 NA
ATOM     39  C   UNL A   1      39.123  30.930  31.786  1.00  0.00     0.031 C 
ATOM     40  C   UNL A   1      40.036  27.374  28.337  1.00  0.00     0.029 A 
ATOM     41  N   UNL A   1      41.518  27.599  29.995  1.00  0.00    -0.354 N 
ATOM     42  C   UNL A   1      41.011  30.627  33.041  1.00  0.00     0.074 A 
ATOM     43  C   UNL A   1      39.818  31.411  32.808  1.00  0.00     0.031 C 
ATOM     44  C   UNL A   1      41.003  26.465  28.136  1.00  0.00     0.029 A 
ATOM     45  C   UNL A   1      42.002  26.592  29.191  1.00  0.00     0.049 A 
ATOM     46  H   UNL A   1      41.982  27.911  30.804  1.00  0.00     0.167 HD
ATOM     47  C   UNL A   1      41.854  30.809  34.086  1.00  0.00     0.037 A 
ATOM     48  C   UNL A   1      43.126  25.856  29.289  1.00  0.00     0.037 A 
ATOM     49  C   UNL A   1      43.035  30.018  34.319  1.00  0.00     0.049 A 
ATOM     50  C   UNL A   1      44.047  26.086  30.458  1.00  0.00     0.074 A 
ATOM     51  C   UNL A   1      43.933  30.100  35.372  1.00  0.00     0.029 A 
ATOM     52  N   UNL A   1      43.487  29.000  33.492  1.00  0.00    -0.354 N 
ATOM     53  N   UNL A   1      43.933  26.945  31.443  1.00  0.00    -0.248 NA
ATOM     54  C   UNL A   1      45.244  25.237  30.535  1.00  0.00     0.031 C 
ATOM     55  C   UNL A   1      44.949  29.164  35.156  1.00  0.00     0.029 A 
ATOM     56  C   UNL A   1      44.658  28.460  33.999  1.00  0.00     0.049 A 
ATOM     57  H   UNL A   1      43.041  28.704  32.666  1.00  0.00     0.167 HD
ATOM     58  C   UNL A   1      45.031  26.725  32.267  1.00  0.00     0.074 A 
ATOM     59  C   UNL A   1      45.780  25.632  31.681  1.00  0.00     0.031 C 
ATOM     60  C   UNL A   1      45.394  27.372  33.404  1.00  0.00     0.037 A 
BRANCH  47  61
ATOM     61  C   UNL A   1      41.523  31.894  35.076  1.00  0.00     0.058 A 
ATOM     62  C   UNL A   1      42.105  33.169  34.986  1.00  0.00     0.135 A 
ATOM     63  C   UNL A   1      40.563  31.685  36.080  1.00  0.00     0.135 A 
ATOM     64  F   UNL A   1      43.042  33.421  34.058  1.00  0.00    -0.206 F 
ATOM     65  C   UNL A   1      41.757  34.193  35.861  1.00  0.00     0.059 A 
ATOM     66  C   UNL A   1      40.178  32.702  36.948  1.00  0.00     0.059 A 
ATOM     67  F   UNL A   1      39.977  30.484  36.214  1.00  0.00    -0.206 F 
ATOM     68  C   UNL A   1      40.786  33.951  36.834  1.00  0.00     0.060 A 
BRANCH  68  69
ATOM     69  S   UNL A   1      40.319  35.305  37.934  1.00  0.00     0.124 S 
ATOM     70  O   UNL A   1      39.088  34.790  38.525  1.00  0.00    -0.237 OA
ATOM     71  O   UNL A   1      41.466  35.386  38.831  1.00  0.00    -0.237 OA
ATOM     72  O   UNL A   1      40.152  36.439  37.029  1.00  0.00    -0.744 OA
ENDBRANCH  68  69
ENDBRANCH  47  61
BRANCH  48  73
ATOM     73  C   UNL A   1      43.446  24.832  28.258  1.00  0.00     0.058 A 
ATOM     74  C   UNL A   1      44.199  25.155  27.119  1.00  0.00     0.135 A 
ATOM     75  C   UNL A   1      42.984  23.512  28.381  1.00  0.00     0.135 A 
ATOM     76  F   UNL A   1      44.660  26.404  26.952  1.00  0.00    -0.206 F 
ATOM     77  C   UNL A   1      44.450  24.219  26.121  1.00  0.00     0.059 A 
ATOM     78  C   UNL A   1      43.251  22.550  27.413  1.00  0.00     0.059 A 
ATOM     79  F   UNL A   1      42.279  23.143  29.462  1.00  0.00    -0.206 F 
ATOM     80  C   UNL A   1      43.969  22.917  26.276  1.00  0.00     0.060 A 
BRANCH  80  81
ATOM     81  S   UNL A   1      44.310  21.705  24.983  1.00  0.00     0.124 S 
ATOM     82  O   UNL A   1      43.298  20.693  25.256  1.00  0.00    -0.237 OA
ATOM     83  O   UNL A   1      44.118  22.491  23.768  1.00  0.00    -0.237 OA
ATOM     84  O   UNL A   1      45.689  21.310  25.252  1.00  0.00    -0.744 OA
ENDBRANCH  80  81
ENDBRANCH  48  73
BRANCH  60  85
ATOM     85  C   UNL A   1      46.641  26.894  34.097  1.00  0.00     0.058 A 
ATOM     86  C   UNL A   1      46.603  25.882  35.069  1.00  0.00     0.135 A 
ATOM     87  C   UNL A   1      47.891  27.448  33.778  1.00  0.00     0.135 A 
ATOM     88  F   UNL A   1      45.434  25.319  35.415  1.00  0.00    -0.206 F 
ATOM     89  C   UNL A   1      47.753  25.468  35.734  1.00  0.00     0.059 A 
ATOM     90  C   UNL A   1      49.059  27.026  34.406  1.00  0.00     0.059 A 
ATOM     91  F   UNL A   1      47.988  28.409  32.845  1.00  0.00    -0.206 F 
ATOM     92  C   UNL A   1      48.976  26.051  35.398  1.00  0.00     0.060 A 
BRANCH  92  93
ATOM     93  S   UNL A   1      50.459  25.510  36.273  1.00  0.00     0.124 S 
ATOM     94  O   UNL A   1      50.899  24.395  35.441  1.00  0.00    -0.237 OA
ATOM     95  O   UNL A   1      51.300  26.702  36.230  1.00  0.00    -0.237 OA
ATOM     96  O   UNL A   1      49.961  25.148  37.597  1.00  0.00    -0.744 OA
ENDBRANCH  92  93
ENDBRANCH  60  85
ENDBRANCH  34  35
ENDBRANCH  26  29
ENDBRANCH  24  25
ENDBRANCH  23  24
ENDBRANCH   1  23
TORSDOF 17
ENDMDL
MODEL 2
REMARK VINA RESULT:     -10.6      2.758      4.467
REMARK SMILES C[C@@H](C(=O)NCCCCNC(=O)c1ccc(-c2c3nc(c(-c4c(F)cc(S(=O)(=O)[O-])cc4F)c4ccc([nH]4)c(-c4c(F)cc(S(=O)(=O)[O-])cc4F)c4nc(c(-c5c(F)cc(S(=O)(=O)[O-])cc5F)c5ccc2[nH]5)C=C4)C=C3)cc1)c1cccc(C(=O)c2ccccc2)c1
REMARK SMILES IDX 7 1 6 2 5 3 3 4 4 5 2 7 1 8 79 9 80 10 92 11 81 12 83 13
REMARK SMILES IDX 82 14 84 15 85 16 86 17 87 18 91 19 88 20 90 21 89 22 8 23
REMARK SMILES IDX 9 24 10 25 11 26 12 28 13 29 14 30 78 31 15 32 77 33 16 34
REMARK SMILES IDX 17 35 18 36 71 37 19 38 76 39 70 40 72 41 20 42 75 43 69 44
REMARK SMILES IDX 68 45 21 47 55 48 34 49 54 50 35 51 38 52 53 53 73 54 36 55
REMARK SMILES IDX 37 56 52 58 74 59 39 60 22 61 23 62 32 63 24 64 25 65 31 66
REMARK SMILES IDX 33 67 26 68 27 69 28 70 29 71 30 72 56 73 57 74 66 75 58 76
REMARK SMILES IDX 59 77 65 78 67 79 60 80 61 81 62 82 63 83 64 84 40 85 41 86
REMARK SMILES IDX 50 87 42 88 43 89 49 90 51 91 44 92 45 93 46 94 47 95 48 96
REMARK H PARENT 5 6 10 27 72 46 38 57
REMARK Flexibility Score: inf
ROOT
ATOM      1  C   UNL A   1      36.491  33.832  28.515  1.00  0.00     0.023 C 
ENDROOT
BRANCH   1   2
ATOM      2  C   UNL A   1      37.562  33.310  29.479  1.00  0.00     0.116 C 
BRANCH   2   3
ATOM      3  N   UNL A   1      37.660  34.175  30.637  1.00  0.00    -0.356 N 
ATOM      4  C   UNL A   1      37.251  33.953  31.922  1.00  0.00     0.227 C 
ATOM      5  O   UNL A   1      37.072  34.952  32.619  1.00  0.00    -0.274 OA
ATOM      6  H   UNL A   1      38.082  35.050  30.476  1.00  0.00     0.163 HD
BRANCH   4   7
ATOM      7  C   UNL A   1      37.063  32.505  32.437  1.00  0.00     0.105 C 
ATOM      8  C   UNL A   1      35.920  32.508  33.463  1.00  0.00     0.023 C 
BRANCH   7   9
ATOM      9  C   UNL A   1      38.345  31.879  33.020  1.00  0.00    -0.035 A 
ATOM     10  C   UNL A   1      39.297  32.651  33.710  1.00  0.00     0.004 A 
ATOM     11  C   UNL A   1      38.609  30.504  32.884  1.00  0.00     0.016 A 
ATOM     12  C   UNL A   1      40.509  32.101  34.131  1.00  0.00     0.001 A 
ATOM     13  C   UNL A   1      39.853  29.958  33.233  1.00  0.00     0.023 A 
ATOM     14  C   UNL A   1      40.800  30.766  33.865  1.00  0.00     0.012 A 
BRANCH  13  15
ATOM     15  C   UNL A   1      40.206  28.533  32.961  1.00  0.00     0.193 C 
ATOM     16  O   UNL A   1      39.444  27.833  32.296  1.00  0.00    -0.289 OA
BRANCH  15  17
ATOM     17  C   UNL A   1      41.474  27.935  33.441  1.00  0.00     0.022 A 
ATOM     18  C   UNL A   1      41.533  27.507  34.771  1.00  0.00     0.012 A 
ATOM     19  C   UNL A   1      42.590  27.793  32.610  1.00  0.00     0.012 A 
ATOM     20  C   UNL A   1      42.688  26.889  35.253  1.00  0.00     0.001 A 
ATOM     21  C   UNL A   1      43.741  27.169  33.095  1.00  0.00     0.001 A 
ATOM     22  C   UNL A   1      43.786  26.711  34.412  1.00  0.00     0.000 A 
ENDBRANCH  15  17
ENDBRANCH  13  15
ENDBRANCH   7   9
ENDBRANCH   4   7
ENDBRANCH   2   3
ENDBRANCH   1   2
BRANCH   1  23
ATOM     23  C   UNL A   1      35.053  33.729  29.035  1.00  0.00     0.023 C 
BRANCH  23  24
ATOM     24  C   UNL A   1      34.691  32.397  29.677  1.00  0.00     0.116 C 
BRANCH  24  25
ATOM     25  N   UNL A   1      34.017  31.501  28.753  1.00  0.00    -0.352 N 
ATOM     26  C   UNL A   1      34.520  30.442  28.041  1.00  0.00     0.251 C 
ATOM     27  H   UNL A   1      33.058  31.678  28.620  1.00  0.00     0.163 HD
ATOM     28  O   UNL A   1      33.819  29.906  27.183  1.00  0.00    -0.269 OA
BRANCH  26  29
ATOM     29  C   UNL A   1      35.901  29.969  28.276  1.00  0.00     0.039 A 
ATOM     30  C   UNL A   1      36.834  30.093  27.244  1.00  0.00     0.014 A 
ATOM     31  C   UNL A   1      36.281  29.402  29.497  1.00  0.00     0.014 A 
ATOM     32  C   UNL A   1      38.157  29.703  27.456  1.00  0.00     0.010 A 
ATOM     33  C   UNL A   1      37.618  29.084  29.732  1.00  0.00     0.010 A 
ATOM     34  C   UNL A   1      38.570  29.232  28.713  1.00  0.00    -0.014 A 
BRANCH  34  35
ATOM     35  C   UNL A   1      40.000  28.920  28.970  1.00  0.00     0.031 A 
ATOM     36  C   UNL A   1      40.913  29.944  29.590  1.00  0.00     0.074 A 
ATOM     37  C   UNL A   1      40.481  27.710  28.615  1.00  0.00     0.049 A 
ATOM     38  N   UNL A   1      42.184  29.841  29.887  1.00  0.00    -0.248 NA
ATOM     39  C   UNL A   1      40.333  31.260  29.899  1.00  0.00     0.031 C 
ATOM     40  C   UNL A   1      39.710  26.656  27.950  1.00  0.00     0.029 A 
ATOM     41  N   UNL A   1      41.730  27.161  28.763  1.00  0.00    -0.354 N 
ATOM     42  C   UNL A   1      42.551  31.070  30.421  1.00  0.00     0.074 A 
ATOM     43  C   UNL A   1      41.387  31.925  30.349  1.00  0.00     0.031 C 
ATOM     44  C   UNL A   1      40.493  25.580  27.775  1.00  0.00     0.029 A 
ATOM     45  C   UNL A   1      41.829  25.876  28.280  1.00  0.00     0.049 A 
ATOM     46  H   UNL A   1      42.484  27.639  29.176  1.00  0.00     0.167 HD
ATOM     47  C   UNL A   1      43.741  31.441  30.951  1.00  0.00     0.037 A 
ATOM     48  C   UNL A   1      42.879  25.033  28.242  1.00  0.00     0.037 A 
ATOM     49  C   UNL A   1      44.895  30.581  31.030  1.00  0.00     0.049 A 
ATOM     50  C   UNL A   1      44.190  25.475  28.833  1.00  0.00     0.074 A 
ATOM     51  C   UNL A   1      46.135  30.853  31.584  1.00  0.00     0.029 A 
ATOM     52  N   UNL A   1      44.954  29.284  30.542  1.00  0.00    -0.354 N 
ATOM     53  N   UNL A   1      44.499  26.620  29.396  1.00  0.00    -0.248 NA
ATOM     54  C   UNL A   1      45.295  24.508  28.793  1.00  0.00     0.031 C 
ATOM     55  C   UNL A   1      46.957  29.738  31.391  1.00  0.00     0.029 A 
ATOM     56  C   UNL A   1      46.214  28.750  30.764  1.00  0.00     0.049 A 
ATOM     57  H   UNL A   1      44.211  28.812  30.102  1.00  0.00     0.167 HD
ATOM     58  C   UNL A   1      45.824  26.500  29.797  1.00  0.00     0.074 A 
ATOM     59  C   UNL A   1      46.250  25.163  29.439  1.00  0.00     0.031 C 
ATOM     60  C   UNL A   1      46.623  27.416  30.401  1.00  0.00     0.037 A 
BRANCH  47  61
ATOM     61  C   UNL A   1      43.859  32.834  31.511  1.00  0.00     0.058 A 
ATOM     62  C   UNL A   1      43.941  33.956  30.671  1.00  0.00     0.135 A 
ATOM     63  C   UNL A   1      43.814  33.059  32.897  1.00  0.00     0.135 A 
ATOM     64  F   UNL A   1      44.006  33.800  29.338  1.00  0.00    -0.206 F 
ATOM     65  C   UNL A   1      43.988  35.248  31.183  1.00  0.00     0.059 A 
ATOM     66  C   UNL A   1      43.831  34.344  33.430  1.00  0.00     0.059 A 
ATOM     67  F   UNL A   1      43.738  32.022  33.747  1.00  0.00    -0.206 F 
ATOM     68  C   UNL A   1      43.925  35.433  32.564  1.00  0.00     0.060 A 
BRANCH  68  69
ATOM     69  S   UNL A   1      43.946  37.120  33.207  1.00  0.00     0.124 S 
ATOM     70  O   UNL A   1      44.045  37.899  31.977  1.00  0.00    -0.237 OA
ATOM     71  O   UNL A   1      42.668  37.201  33.907  1.00  0.00    -0.237 OA
ATOM     72  O   UNL A   1      45.129  37.145  34.062  1.00  0.00    -0.744 OA
ENDBRANCH  68  69
ENDBRANCH  47  61
BRANCH  48  73
ATOM     73  C   UNL A   1      42.737  23.684  27.628  1.00  0.00     0.058 A 
ATOM     74  C   UNL A   1      42.453  22.554  28.410  1.00  0.00     0.135 A 
ATOM     75  C   UNL A   1      42.906  23.496  26.247  1.00  0.00     0.135 A 
ATOM     76  F   UNL A   1      42.287  22.679  29.735  1.00  0.00    -0.206 F 
ATOM     77  C   UNL A   1      42.380  21.281  27.852  1.00  0.00     0.059 A 
ATOM     78  C   UNL A   1      42.804  22.239  25.662  1.00  0.00     0.059 A 
ATOM     79  F   UNL A   1      43.157  24.546  25.450  1.00  0.00    -0.206 F 
ATOM     80  C   UNL A   1      42.560  21.133  26.475  1.00  0.00     0.060 A 
BRANCH  80  81
ATOM     81  S   UNL A   1      42.450  19.480  25.758  1.00  0.00     0.124 S 
ATOM     82  O   UNL A   1      43.398  19.576  24.655  1.00  0.00    -0.237 OA
ATOM     83  O   UNL A   1      42.852  18.633  26.877  1.00  0.00    -0.237 OA
ATOM     84  O   UNL A   1      41.044  19.375  25.377  1.00  0.00    -0.744 OA
ENDBRANCH  80  81
ENDBRANCH  48  73
BRANCH  60  85
ATOM     85  C   UNL A   1      48.027  26.988  30.734  1.00  0.00     0.058 A 
ATOM     86  C   UNL A   1      48.338  26.359  31.950  1.00  0.00     0.135 A 
ATOM     87  C   UNL A   1      49.072  27.201  29.821  1.00  0.00     0.135 A 
ATOM     88  F   UNL A   1      47.377  26.133  32.861  1.00  0.00    -0.206 F 
ATOM     89  C   UNL A   1      49.643  25.999  32.270  1.00  0.00     0.059 A 
ATOM     90  C   UNL A   1      50.379  26.818  30.105  1.00  0.00     0.059 A 
ATOM     91  F   UNL A   1      48.830  27.785  28.637  1.00  0.00    -0.206 F 
ATOM     92  C   UNL A   1      50.658  26.237  31.341  1.00  0.00     0.060 A 
BRANCH  92  93
ATOM     93  S   UNL A   1      52.348  25.770  31.770  1.00  0.00     0.124 S 
ATOM     94  O   UNL A   1      53.048  26.019  30.515  1.00  0.00    -0.237 OA
ATOM     95  O   UNL A   1      52.659  26.687  32.862  1.00  0.00    -0.237 OA
ATOM     96  O   UNL A   1      52.226  24.366  32.154  1.00  0.00    -0.744 OA
ENDBRANCH  92  93
ENDBRANCH  60  85
ENDBRANCH  34  35
ENDBRANCH  26  29
ENDBRANCH  24  25
ENDBRANCH  23  24
ENDBRANCH   1  23
TORSDOF 17
ENDMDL
MODEL 3
REMARK VINA RESULT:     -10.6      3.079      8.996
REMARK SMILES C[C@@H](C(=O)NCCCCNC(=O)c1ccc(-c2c3nc(c(-c4c(F)cc(S(=O)(=O)[O-])cc4F)c4ccc([nH]4)c(-c4c(F)cc(S(=O)(=O)[O-])cc4F)c4nc(c(-c5c(F)cc(S(=O)(=O)[O-])cc5F)c5ccc2[nH]5)C=C4)C=C3)cc1)c1cccc(C(=O)c2ccccc2)c1
REMARK SMILES IDX 7 1 6 2 5 3 3 4 4 5 2 7 1 8 79 9 80 10 92 11 81 12 83 13
REMARK SMILES IDX 82 14 84 15 85 16 86 17 87 18 91 19 88 20 90 21 89 22 8 23
REMARK SMILES IDX 9 24 10 25 11 26 12 28 13 29 14 30 78 31 15 32 77 33 16 34
REMARK SMILES IDX 17 35 18 36 71 37 19 38 76 39 70 40 72 41 20 42 75 43 69 44
REMARK SMILES IDX 68 45 21 47 55 48 34 49 54 50 35 51 38 52 53 53 73 54 36 55
REMARK SMILES IDX 37 56 52 58 74 59 39 60 22 61 23 62 32 63 24 64 25 65 31 66
REMARK SMILES IDX 33 67 26 68 27 69 28 70 29 71 30 72 56 73 57 74 66 75 58 76
REMARK SMILES IDX 59 77 65 78 67 79 60 80 61 81 62 82 63 83 64 84 40 85 41 86
REMARK SMILES IDX 50 87 42 88 43 89 49 90 51 91 44 92 45 93 46 94 47 95 48 96
REMARK H PARENT 5 6 10 27 72 46 38 57
REMARK Flexibility Score: inf
ROOT
ATOM      1  C   UNL A   1      36.454  33.940  28.620  1.00  0.00     0.023 C 
ENDROOT
BRANCH   1   2
ATOM      2  C   UNL A   1      37.539  33.401  29.560  1.00  0.00     0.116 C 
BRANCH   2   3
ATOM      3  N   UNL A   1      37.696  34.280  30.701  1.00  0.00    -0.356 N 
ATOM      4  C   UNL A   1      37.349  34.075  32.007  1.00  0.00     0.227 C 
ATOM      5  O   UNL A   1      37.208  35.084  32.699  1.00  0.00    -0.274 OA
ATOM      6  H   UNL A   1      38.113  35.151  30.509  1.00  0.00     0.163 HD
BRANCH   4   7
ATOM      7  C   UNL A   1      37.181  32.635  32.548  1.00  0.00     0.105 C 
ATOM      8  C   UNL A   1      36.095  32.657  33.635  1.00  0.00     0.023 C 
BRANCH   7   9
ATOM      9  C   UNL A   1      38.489  32.007  33.067  1.00  0.00    -0.035 A 
ATOM     10  C   UNL A   1      39.534  32.795  33.581  1.00  0.00     0.004 A 
ATOM     11  C   UNL A   1      38.683  30.613  33.051  1.00  0.00     0.016 A 
ATOM     12  C   UNL A   1      40.760  32.229  33.938  1.00  0.00     0.001 A 
ATOM     13  C   UNL A   1      39.932  30.043  33.333  1.00  0.00     0.023 A 
ATOM     14  C   UNL A   1      40.969  30.862  33.785  1.00  0.00     0.012 A 
BRANCH  13  15
ATOM     15  C   UNL A   1      40.199  28.583  33.178  1.00  0.00     0.193 C 
ATOM     16  O   UNL A   1      39.294  27.833  32.814  1.00  0.00    -0.289 OA
BRANCH  15  17
ATOM     17  C   UNL A   1      41.542  28.002  33.415  1.00  0.00     0.022 A 
ATOM     18  C   UNL A   1      41.823  27.508  34.693  1.00  0.00     0.012 A 
ATOM     19  C   UNL A   1      42.513  27.939  32.411  1.00  0.00     0.012 A 
ATOM     20  C   UNL A   1      43.055  26.904  34.951  1.00  0.00     0.001 A 
ATOM     21  C   UNL A   1      43.742  27.328  32.671  1.00  0.00     0.001 A 
ATOM     22  C   UNL A   1      44.008  26.805  33.937  1.00  0.00     0.000 A 
ENDBRANCH  15  17
ENDBRANCH  13  15
ENDBRANCH   7   9
ENDBRANCH   4   7
ENDBRANCH   2   3
ENDBRANCH   1   2
BRANCH   1  23
ATOM     23  C   UNL A   1      35.022  33.809  29.149  1.00  0.00     0.023 C 
BRANCH  23  24
ATOM     24  C   UNL A   1      34.686  32.464  29.778  1.00  0.00     0.116 C 
BRANCH  24  25
ATOM     25  N   UNL A   1      34.020  31.567  28.847  1.00  0.00    -0.352 N 
ATOM     26  C   UNL A   1      34.536  30.524  28.121  1.00  0.00     0.251 C 
ATOM     27  H   UNL A   1      33.058  31.732  28.721  1.00  0.00     0.163 HD
ATOM     28  O   UNL A   1      33.838  29.987  27.261  1.00  0.00    -0.269 OA
BRANCH  26  29
ATOM     29  C   UNL A   1      35.924  30.069  28.345  1.00  0.00     0.039 A 
ATOM     30  C   UNL A   1      36.828  30.136  27.281  1.00  0.00     0.014 A 
ATOM     31  C   UNL A   1      36.341  29.575  29.585  1.00  0.00     0.014 A 
ATOM     32  C   UNL A   1      38.158  29.762  27.478  1.00  0.00     0.010 A 
ATOM     33  C   UNL A   1      37.685  29.275  29.800  1.00  0.00     0.010 A 
ATOM     34  C   UNL A   1      38.608  29.366  28.749  1.00  0.00    -0.014 A 
BRANCH  34  35
ATOM     35  C   UNL A   1      40.046  29.074  28.982  1.00  0.00     0.031 A 
ATOM     36  C   UNL A   1      40.620  27.722  28.653  1.00  0.00     0.074 A 
ATOM     37  C   UNL A   1      40.831  30.030  29.520  1.00  0.00     0.049 A 
ATOM     38  N   UNL A   1      41.850  27.294  28.789  1.00  0.00    -0.248 NA
ATOM     39  C   UNL A   1      39.693  26.710  28.122  1.00  0.00     0.031 C 
ATOM     40  C   UNL A   1      40.377  31.359  29.939  1.00  0.00     0.029 A 
ATOM     41  N   UNL A   1      42.173  30.035  29.806  1.00  0.00    -0.354 N 
ATOM     42  C   UNL A   1      41.846  25.974  28.355  1.00  0.00     0.074 A 
ATOM     43  C   UNL A   1      40.479  25.648  28.013  1.00  0.00     0.031 C 
ATOM     44  C   UNL A   1      41.426  32.059  30.399  1.00  0.00     0.029 A 
ATOM     45  C   UNL A   1      42.618  31.221  30.345  1.00  0.00     0.049 A 
ATOM     46  H   UNL A   1      42.762  29.265  29.642  1.00  0.00     0.167 HD
ATOM     47  C   UNL A   1      42.890  25.121  28.226  1.00  0.00     0.037 A 
ATOM     48  C   UNL A   1      43.848  31.591  30.754  1.00  0.00     0.037 A 
ATOM     49  C   UNL A   1      44.252  25.455  28.559  1.00  0.00     0.049 A 
ATOM     50  C   UNL A   1      44.988  30.620  30.603  1.00  0.00     0.074 A 
ATOM     51  C   UNL A   1      45.387  24.672  28.427  1.00  0.00     0.029 A 
ATOM     52  N   UNL A   1      44.666  26.668  29.090  1.00  0.00    -0.354 N 
ATOM     53  N   UNL A   1      44.975  29.397  30.127  1.00  0.00    -0.248 NA
ATOM     54  C   UNL A   1      46.313  31.082  31.037  1.00  0.00     0.031 C 
ATOM     55  C   UNL A   1      46.479  25.394  28.920  1.00  0.00     0.029 A 
ATOM     56  C   UNL A   1      46.035  26.648  29.309  1.00  0.00     0.049 A 
ATOM     57  H   UNL A   1      44.076  27.431  29.283  1.00  0.00     0.167 HD
ATOM     58  C   UNL A   1      46.291  28.954  30.184  1.00  0.00     0.074 A 
ATOM     59  C   UNL A   1      47.078  30.050  30.711  1.00  0.00     0.031 C 
ATOM     60  C   UNL A   1      46.805  27.747  29.836  1.00  0.00     0.037 A 
BRANCH  47  61
ATOM     61  C   UNL A   1      42.613  23.746  27.682  1.00  0.00     0.058 A 
ATOM     62  C   UNL A   1      42.652  23.483  26.302  1.00  0.00     0.135 A 
ATOM     63  C   UNL A   1      42.381  22.662  28.545  1.00  0.00     0.135 A 
ATOM     64  F   UNL A   1      42.852  24.484  25.428  1.00  0.00    -0.206 F 
ATOM     65  C   UNL A   1      42.458  22.202  25.798  1.00  0.00     0.059 A 
ATOM     66  C   UNL A   1      42.212  21.367  28.064  1.00  0.00     0.059 A 
ATOM     67  F   UNL A   1      42.330  22.856  29.873  1.00  0.00    -0.206 F 
ATOM     68  C   UNL A   1      42.246  21.148  26.688  1.00  0.00     0.060 A 
BRANCH  68  69
ATOM     69  S   UNL A   1      42.037  19.485  26.016  1.00  0.00     0.124 S 
ATOM     70  O   UNL A   1      42.942  19.518  24.871  1.00  0.00    -0.237 OA
ATOM     71  O   UNL A   1      42.456  18.645  27.132  1.00  0.00    -0.237 OA
ATOM     72  O   UNL A   1      40.615  19.426  25.688  1.00  0.00    -0.744 OA
ENDBRANCH  68  69
ENDBRANCH  47  61
BRANCH  48  73
ATOM     73  C   UNL A   1      44.069  32.941  31.340  1.00  0.00     0.058 A 
ATOM     74  C   UNL A   1      44.156  33.127  32.728  1.00  0.00     0.135 A 
ATOM     75  C   UNL A   1      44.175  34.077  30.522  1.00  0.00     0.135 A 
ATOM     76  F   UNL A   1      44.058  32.074  33.553  1.00  0.00    -0.206 F 
ATOM     77  C   UNL A   1      44.302  34.393  33.286  1.00  0.00     0.059 A 
ATOM     78  C   UNL A   1      44.355  35.349  31.055  1.00  0.00     0.059 A 
ATOM     79  F   UNL A   1      44.121  33.953  29.186  1.00  0.00    -0.206 F 
ATOM     80  C   UNL A   1      44.399  35.500  32.440  1.00  0.00     0.060 A 
BRANCH  80  81
ATOM     81  S   UNL A   1      44.601  37.138  33.172  1.00  0.00     0.124 S 
ATOM     82  O   UNL A   1      44.089  37.997  32.112  1.00  0.00    -0.237 OA
ATOM     83  O   UNL A   1      43.777  37.041  34.372  1.00  0.00    -0.237 OA
ATOM     84  O   UNL A   1      46.039  37.219  33.413  1.00  0.00    -0.744 OA
ENDBRANCH  80  81
ENDBRANCH  48  73
BRANCH  60  85
ATOM     85  C   UNL A   1      48.290  27.563  29.994  1.00  0.00     0.058 A 
ATOM     86  C   UNL A   1      49.192  27.941  28.986  1.00  0.00     0.135 A 
ATOM     87  C   UNL A   1      48.819  27.011  31.171  1.00  0.00     0.135 A 
ATOM     88  F   UNL A   1      48.740  28.471  27.837  1.00  0.00    -0.206 F 
ATOM     89  C   UNL A   1      50.561  27.735  29.120  1.00  0.00     0.059 A 
ATOM     90  C   UNL A   1      50.188  26.827  31.341  1.00  0.00     0.059 A 
ATOM     91  F   UNL A   1      48.005  26.646  32.174  1.00  0.00    -0.206 F 
ATOM     92  C   UNL A   1      51.049  27.173  30.301  1.00  0.00     0.060 A 
BRANCH  92  93
ATOM     93  S   UNL A   1      52.827  26.906  30.460  1.00  0.00     0.124 S 
ATOM     94  O   UNL A   1      52.885  25.986  31.592  1.00  0.00    -0.237 OA
ATOM     95  O   UNL A   1      53.176  26.337  29.163  1.00  0.00    -0.237 OA
ATOM     96  O   UNL A   1      53.351  28.245  30.712  1.00  0.00    -0.744 OA
ENDBRANCH  92  93
ENDBRANCH  60  85
ENDBRANCH  34  35
ENDBRANCH  26  29
ENDBRANCH  24  25
ENDBRANCH  23  24
ENDBRANCH   1  23
TORSDOF 17
ENDMDL
