MODEL 1
REMARK VINA RESULT:     -12.8      0.000      0.000
REMARK SMILES O=C(NCCCCNC(=O)[C@@H](Cc1ccc(O)cc1)Nc1c2ccccc2nc2ccccc12)c1ccc(-c2c3nc(c(-c4c(F)cc(S(=O)(=O)[O-])cc4F)c4ccc([nH]4)c(-c4c(F)cc(S(=O)(=O)[O-])cc4F)c4nc(c(-c5c(F)cc(S(=O)(=O)[O-])cc5F)c5ccc2[nH]5)C=C4)C=C3)cc1
REMARK SMILES IDX 5 1 4 2 3 3 1 4 2 5 35 7 36 8 100 9 37 10 99 11 38 12 39 13
REMARK SMILES IDX 40 14 93 15 41 16 98 17 92 18 94 19 42 20 97 21 91 22 90 23
REMARK SMILES IDX 43 25 77 26 56 27 76 28 57 29 60 30 75 31 95 32 58 33 59 34
REMARK SMILES IDX 74 36 96 37 61 38 44 39 45 40 54 41 46 42 47 43 53 44 55 45
REMARK SMILES IDX 48 46 49 47 50 48 51 49 52 50 78 51 79 52 88 53 80 54 81 55
REMARK SMILES IDX 87 56 89 57 82 58 83 59 84 60 85 61 86 62 62 63 63 64 72 65
REMARK SMILES IDX 64 66 65 67 71 68 73 69 66 70 67 71 68 72 69 73 70 74 6 75
REMARK SMILES IDX 7 76 8 77 9 78 10 80 11 81 12 82 13 83 14 84 19 85 15 86
REMARK SMILES IDX 18 87 16 88 17 89 20 91 21 93 22 94 34 95 23 96 27 97 29 98
REMARK SMILES IDX 33 99 24 100 26 101 28 102 30 103 32 104 25 105 31 106
REMARK H PARENT 3 6 94 24 60 35 8 79 17 90 20 92
REMARK Flexibility Score: inf
ROOT
ATOM      1  C   UNL A   1      32.345  27.878  27.192  1.00  0.00     0.023 C 
ENDROOT
BRANCH   1   2
ATOM      2  C   UNL A   1      33.637  28.675  27.073  1.00  0.00     0.116 C 
BRANCH   2   3
ATOM      3  N   UNL A   1      33.619  29.979  27.720  1.00  0.00    -0.352 N 
ATOM      4  O   UNL A   1      34.500  31.725  28.873  1.00  0.00    -0.269 OA
ATOM      5  C   UNL A   1      34.671  30.637  28.332  1.00  0.00     0.251 C 
ATOM      6  H   UNL A   1      32.754  30.448  27.723  1.00  0.00     0.163 HD
BRANCH   5   7
ATOM      7  C   UNL A   1      35.999  29.979  28.389  1.00  0.00     0.039 A 
ATOM      8  C   UNL A   1      36.424  29.350  29.559  1.00  0.00     0.014 A 
ATOM      9  C   UNL A   1      36.872  30.102  27.304  1.00  0.00     0.014 A 
ATOM     10  C   UNL A   1      37.775  29.065  29.726  1.00  0.00     0.010 A 
ATOM     11  C   UNL A   1      38.207  29.705  27.436  1.00  0.00     0.010 A 
ATOM     12  C   UNL A   1      38.688  29.242  28.671  1.00  0.00    -0.014 A 
BRANCH  12  13
ATOM     13  C   UNL A   1      40.127  28.922  28.891  1.00  0.00     0.031 A 
ATOM     14  C   UNL A   1      40.712  27.595  28.469  1.00  0.00     0.074 A 
ATOM     15  C   UNL A   1      40.924  29.867  29.429  1.00  0.00     0.049 A 
ATOM     16  N   UNL A   1      41.939  27.159  28.603  1.00  0.00    -0.248 NA
ATOM     17  C   UNL A   1      39.807  26.629  27.822  1.00  0.00     0.031 C 
ATOM     18  C   UNL A   1      40.474  31.186  29.885  1.00  0.00     0.029 A 
ATOM     19  N   UNL A   1      42.274  29.882  29.663  1.00  0.00    -0.354 N 
ATOM     20  C   UNL A   1      41.947  25.861  28.101  1.00  0.00     0.074 A 
ATOM     21  C   UNL A   1      40.600  25.577  27.657  1.00  0.00     0.031 C 
ATOM     22  C   UNL A   1      41.533  31.902  30.282  1.00  0.00     0.029 A 
ATOM     23  C   UNL A   1      42.726  31.069  30.191  1.00  0.00     0.049 A 
ATOM     24  H   UNL A   1      42.864  29.118  29.472  1.00  0.00     0.167 HD
ATOM     25  C   UNL A   1      42.984  24.991  28.018  1.00  0.00     0.037 A 
ATOM     26  C   UNL A   1      43.956  31.444  30.587  1.00  0.00     0.037 A 
ATOM     27  C   UNL A   1      44.335  25.300  28.420  1.00  0.00     0.049 A 
ATOM     28  C   UNL A   1      45.088  30.466  30.469  1.00  0.00     0.074 A 
ATOM     29  C   UNL A   1      45.461  24.498  28.339  1.00  0.00     0.029 A 
ATOM     30  N   UNL A   1      44.744  26.506  28.968  1.00  0.00    -0.354 N 
ATOM     31  N   UNL A   1      45.067  29.243  29.996  1.00  0.00    -0.248 NA
ATOM     32  C   UNL A   1      46.400  30.910  30.951  1.00  0.00     0.031 C 
ATOM     33  C   UNL A   1      46.544  25.207  28.870  1.00  0.00     0.029 A 
ATOM     34  C   UNL A   1      46.101  26.465  29.244  1.00  0.00     0.049 A 
ATOM     35  H   UNL A   1      44.157  27.279  29.135  1.00  0.00     0.167 HD
ATOM     36  C   UNL A   1      46.366  28.769  30.127  1.00  0.00     0.074 A 
ATOM     37  C   UNL A   1      47.151  29.847  30.695  1.00  0.00     0.031 C 
ATOM     38  C   UNL A   1      46.862  27.547  29.816  1.00  0.00     0.037 A 
BRANCH  25  39
ATOM     39  C   UNL A   1      42.715  23.607  27.490  1.00  0.00     0.058 A 
ATOM     40  C   UNL A   1      42.834  23.296  26.127  1.00  0.00     0.135 A 
ATOM     41  C   UNL A   1      42.424  22.556  28.376  1.00  0.00     0.135 A 
ATOM     42  F   UNL A   1      43.097  24.263  25.235  1.00  0.00    -0.206 F 
ATOM     43  C   UNL A   1      42.667  21.995  25.660  1.00  0.00     0.059 A 
ATOM     44  C   UNL A   1      42.271  21.244  27.935  1.00  0.00     0.059 A 
ATOM     45  F   UNL A   1      42.301  22.797  29.691  1.00  0.00    -0.206 F 
ATOM     46  C   UNL A   1      42.388  20.974  26.572  1.00  0.00     0.060 A 
BRANCH  46  47
ATOM     47  S   UNL A   1      42.206  19.285  25.956  1.00  0.00     0.124 S 
ATOM     48  O   UNL A   1      43.063  19.315  24.774  1.00  0.00    -0.237 OA
ATOM     49  O   UNL A   1      42.700  18.489  27.075  1.00  0.00    -0.237 OA
ATOM     50  O   UNL A   1      40.776  19.172  25.692  1.00  0.00    -0.744 OA
ENDBRANCH  46  47
ENDBRANCH  25  39
BRANCH  26  51
ATOM     51  C   UNL A   1      44.163  32.796  31.165  1.00  0.00     0.058 A 
ATOM     52  C   UNL A   1      44.151  33.003  32.551  1.00  0.00     0.135 A 
ATOM     53  C   UNL A   1      44.416  33.902  30.337  1.00  0.00     0.135 A 
ATOM     54  F   UNL A   1      43.910  31.977  33.381  1.00  0.00    -0.206 F 
ATOM     55  C   UNL A   1      44.376  34.262  33.099  1.00  0.00     0.059 A 
ATOM     56  C   UNL A   1      44.672  35.163  30.862  1.00  0.00     0.059 A 
ATOM     57  F   UNL A   1      44.457  33.750  29.005  1.00  0.00    -0.206 F 
ATOM     58  C   UNL A   1      44.640  35.336  32.245  1.00  0.00     0.060 A 
BRANCH  58  59
ATOM     59  S   UNL A   1      44.996  36.955  32.959  1.00  0.00     0.124 S 
ATOM     60  O   UNL A   1      45.844  36.595  34.089  1.00  0.00    -0.237 OA
ATOM     61  O   UNL A   1      45.661  37.642  31.856  1.00  0.00    -0.237 OA
ATOM     62  O   UNL A   1      43.672  37.467  33.297  1.00  0.00    -0.744 OA
ENDBRANCH  58  59
ENDBRANCH  26  51
BRANCH  38  63
ATOM     63  C   UNL A   1      48.322  27.322  30.076  1.00  0.00     0.058 A 
ATOM     64  C   UNL A   1      49.288  27.592  29.095  1.00  0.00     0.135 A 
ATOM     65  C   UNL A   1      48.760  26.849  31.322  1.00  0.00     0.135 A 
ATOM     66  F   UNL A   1      48.916  28.037  27.884  1.00  0.00    -0.206 F 
ATOM     67  C   UNL A   1      50.641  27.374  29.330  1.00  0.00     0.059 A 
ATOM     68  C   UNL A   1      50.111  26.644  31.587  1.00  0.00     0.059 A 
ATOM     69  F   UNL A   1      47.874  26.582  32.294  1.00  0.00    -0.206 F 
ATOM     70  C   UNL A   1      51.041  26.897  30.580  1.00  0.00     0.060 A 
BRANCH  70  71
ATOM     71  S   UNL A   1      52.801  26.629  30.883  1.00  0.00     0.124 S 
ATOM     72  O   UNL A   1      53.173  27.867  31.560  1.00  0.00    -0.237 OA
ATOM     73  O   UNL A   1      52.798  25.429  31.714  1.00  0.00    -0.237 OA
ATOM     74  O   UNL A   1      53.352  26.455  29.544  1.00  0.00    -0.744 OA
ENDBRANCH  70  71
ENDBRANCH  38  63
ENDBRANCH  12  13
ENDBRANCH   5   7
ENDBRANCH   2   3
ENDBRANCH   1   2
BRANCH   1  75
ATOM     75  C   UNL A   1      32.080  26.852  26.092  1.00  0.00     0.023 C 
BRANCH  75  76
ATOM     76  C   UNL A   1      32.350  25.401  26.497  1.00  0.00     0.116 C 
BRANCH  76  77
ATOM     77  N   UNL A   1      31.149  24.694  26.888  1.00  0.00    -0.354 N 
ATOM     78  C   UNL A   1      30.691  23.428  26.753  1.00  0.00     0.242 C 
ATOM     79  H   UNL A   1      30.512  25.274  27.364  1.00  0.00     0.163 HD
ATOM     80  O   UNL A   1      29.585  23.225  27.277  1.00  0.00    -0.273 OA
BRANCH  78  81
ATOM     81  C   UNL A   1      31.399  22.268  26.011  1.00  0.00     0.173 C 
BRANCH  81  82
ATOM     82  C   UNL A   1      31.441  22.389  24.469  1.00  0.00     0.070 C 
BRANCH  82  83
ATOM     83  C   UNL A   1      31.903  23.604  23.676  1.00  0.00    -0.045 A 
ATOM     84  C   UNL A   1      33.263  23.645  23.306  1.00  0.00     0.007 A 
ATOM     85  C   UNL A   1      31.081  24.630  23.193  1.00  0.00     0.007 A 
ATOM     86  C   UNL A   1      33.763  24.632  22.451  1.00  0.00     0.046 A 
ATOM     87  C   UNL A   1      31.571  25.614  22.330  1.00  0.00     0.046 A 
ATOM     88  C   UNL A   1      32.901  25.594  21.948  1.00  0.00     0.115 A 
BRANCH  88  89
ATOM     89  O   UNL A   1      33.320  26.537  21.061  1.00  0.00    -0.508 OA
ATOM     90  H   UNL A   1      33.742  26.278  20.265  1.00  0.00     0.293 HD
ENDBRANCH  88  89
ENDBRANCH  82  83
ENDBRANCH  81  82
BRANCH  81  91
ATOM     91  N   UNL A   1      32.667  21.858  26.619  1.00  0.00    -0.372 N 
ATOM     92  H   UNL A   1      32.783  22.055  27.577  1.00  0.00     0.161 HD
BRANCH  91  93
ATOM     93  C   UNL A   1      33.735  21.213  25.975  1.00  0.00     0.054 A 
ATOM     94  C   UNL A   1      33.666  19.875  25.465  1.00  0.00     0.024 A 
ATOM     95  C   UNL A   1      34.960  21.945  25.814  1.00  0.00     0.024 A 
ATOM     96  C   UNL A   1      32.514  19.041  25.442  1.00  0.00     0.012 A 
ATOM     97  C   UNL A   1      34.836  19.347  24.877  1.00  0.00     0.073 A 
ATOM     98  C   UNL A   1      36.023  21.305  25.149  1.00  0.00     0.073 A 
ATOM     99  C   UNL A   1      35.183  23.273  26.276  1.00  0.00     0.012 A 
ATOM    100  C   UNL A   1      32.547  17.727  24.970  1.00  0.00     0.001 A 
ATOM    101  C   UNL A   1      34.850  18.042  24.401  1.00  0.00     0.029 A 
ATOM    102  N   UNL A   1      35.964  20.044  24.718  1.00  0.00    -0.248 NA
ATOM    103  C   UNL A   1      37.204  21.998  24.916  1.00  0.00     0.029 A 
ATOM    104  C   UNL A   1      36.379  23.949  26.036  1.00  0.00     0.001 A 
ATOM    105  C   UNL A   1      33.727  17.219  24.457  1.00  0.00     0.002 A 
ATOM    106  C   UNL A   1      37.392  23.312  25.341  1.00  0.00     0.002 A 
ENDBRANCH  91  93
ENDBRANCH  81  91
ENDBRANCH  78  81
ENDBRANCH  76  77
ENDBRANCH  75  76
ENDBRANCH   1  75
TORSDOF 19
ENDMDL
MODEL 2
REMARK VINA RESULT:     -12.6      3.072      9.415
REMARK SMILES O=C(NCCCCNC(=O)[C@@H](Cc1ccc(O)cc1)Nc1c2ccccc2nc2ccccc12)c1ccc(-c2c3nc(c(-c4c(F)cc(S(=O)(=O)[O-])cc4F)c4ccc([nH]4)c(-c4c(F)cc(S(=O)(=O)[O-])cc4F)c4nc(c(-c5c(F)cc(S(=O)(=O)[O-])cc5F)c5ccc2[nH]5)C=C4)C=C3)cc1
REMARK SMILES IDX 5 1 4 2 3 3 1 4 2 5 35 7 36 8 100 9 37 10 99 11 38 12 39 13
REMARK SMILES IDX 40 14 93 15 41 16 98 17 92 18 94 19 42 20 97 21 91 22 90 23
REMARK SMILES IDX 43 25 77 26 56 27 76 28 57 29 60 30 75 31 95 32 58 33 59 34
REMARK SMILES IDX 74 36 96 37 61 38 44 39 45 40 54 41 46 42 47 43 53 44 55 45
REMARK SMILES IDX 48 46 49 47 50 48 51 49 52 50 78 51 79 52 88 53 80 54 81 55
REMARK SMILES IDX 87 56 89 57 82 58 83 59 84 60 85 61 86 62 62 63 63 64 72 65
REMARK SMILES IDX 64 66 65 67 71 68 73 69 66 70 67 71 68 72 69 73 70 74 6 75
REMARK SMILES IDX 7 76 8 77 9 78 10 80 11 81 12 82 13 83 14 84 19 85 15 86
REMARK SMILES IDX 18 87 16 88 17 89 20 91 21 93 22 94 34 95 23 96 27 97 29 98
REMARK SMILES IDX 33 99 24 100 26 101 28 102 30 103 32 104 25 105 31 106
REMARK H PARENT 3 6 94 24 60 35 8 79 17 90 20 92
REMARK Flexibility Score: inf
ROOT
ATOM      1  C   UNL A   1      36.338  22.930  24.169  1.00  0.00     0.023 C 
ENDROOT
BRANCH   1   2
ATOM      2  C   UNL A   1      37.324  23.507  25.175  1.00  0.00     0.116 C 
BRANCH   2   3
ATOM      3  N   UNL A   1      38.530  22.718  25.380  1.00  0.00    -0.352 N 
ATOM      4  O   UNL A   1      40.609  22.295  26.189  1.00  0.00    -0.269 OA
ATOM      5  C   UNL A   1      39.640  23.047  26.136  1.00  0.00     0.251 C 
ATOM      6  H   UNL A   1      38.558  21.846  24.926  1.00  0.00     0.163 HD
BRANCH   5   7
ATOM      7  C   UNL A   1      39.680  24.358  26.829  1.00  0.00     0.039 A 
ATOM      8  C   UNL A   1      40.395  25.423  26.282  1.00  0.00     0.014 A 
ATOM      9  C   UNL A   1      39.100  24.482  28.095  1.00  0.00     0.014 A 
ATOM     10  C   UNL A   1      40.729  26.505  27.089  1.00  0.00     0.010 A 
ATOM     11  C   UNL A   1      39.341  25.627  28.862  1.00  0.00     0.010 A 
ATOM     12  C   UNL A   1      40.212  26.622  28.392  1.00  0.00    -0.014 A 
BRANCH  12  13
ATOM     13  C   UNL A   1      40.591  27.800  29.223  1.00  0.00     0.031 A 
ATOM     14  C   UNL A   1      39.642  28.955  29.433  1.00  0.00     0.074 A 
ATOM     15  C   UNL A   1      41.790  27.794  29.842  1.00  0.00     0.049 A 
ATOM     16  N   UNL A   1      39.828  30.057  30.115  1.00  0.00    -0.248 NA
ATOM     17  C   UNL A   1      38.320  28.872  28.789  1.00  0.00     0.031 C 
ATOM     18  C   UNL A   1      42.798  26.737  29.711  1.00  0.00     0.029 A 
ATOM     19  N   UNL A   1      42.357  28.683  30.717  1.00  0.00    -0.354 N 
ATOM     20  C   UNL A   1      38.672  30.815  29.951  1.00  0.00     0.074 A 
ATOM     21  C   UNL A   1      37.787  30.048  29.103  1.00  0.00     0.031 C 
ATOM     22  C   UNL A   1      43.828  27.006  30.524  1.00  0.00     0.029 A 
ATOM     23  C   UNL A   1      43.596  28.292  31.169  1.00  0.00     0.049 A 
ATOM     24  H   UNL A   1      41.922  29.520  30.996  1.00  0.00     0.167 HD
ATOM     25  C   UNL A   1      38.380  32.036  30.462  1.00  0.00     0.037 A 
ATOM     26  C   UNL A   1      44.467  28.907  31.990  1.00  0.00     0.037 A 
ATOM     27  C   UNL A   1      39.250  32.774  31.346  1.00  0.00     0.049 A 
ATOM     28  C   UNL A   1      44.111  30.250  32.554  1.00  0.00     0.074 A 
ATOM     29  C   UNL A   1      39.026  34.001  31.947  1.00  0.00     0.029 A 
ATOM     30  N   UNL A   1      40.503  32.350  31.763  1.00  0.00    -0.354 N 
ATOM     31  N   UNL A   1      43.014  30.948  32.379  1.00  0.00    -0.248 NA
ATOM     32  C   UNL A   1      45.111  30.896  33.411  1.00  0.00     0.031 C 
ATOM     33  C   UNL A   1      40.158  34.336  32.699  1.00  0.00     0.029 A 
ATOM     34  C   UNL A   1      41.070  33.298  32.599  1.00  0.00     0.049 A 
ATOM     35  H   UNL A   1      40.927  31.501  31.503  1.00  0.00     0.167 HD
ATOM     36  C   UNL A   1      43.194  32.119  33.103  1.00  0.00     0.074 A 
ATOM     37  C   UNL A   1      44.491  32.022  33.741  1.00  0.00     0.031 C 
ATOM     38  C   UNL A   1      42.365  33.184  33.219  1.00  0.00     0.037 A 
BRANCH  25  39
ATOM     39  C   UNL A   1      37.074  32.679  30.077  1.00  0.00     0.058 A 
ATOM     40  C   UNL A   1      35.888  32.431  30.783  1.00  0.00     0.135 A 
ATOM     41  C   UNL A   1      37.031  33.628  29.041  1.00  0.00     0.135 A 
ATOM     42  F   UNL A   1      35.867  31.525  31.774  1.00  0.00    -0.206 F 
ATOM     43  C   UNL A   1      34.704  33.095  30.473  1.00  0.00     0.059 A 
ATOM     44  C   UNL A   1      35.864  34.318  28.726  1.00  0.00     0.059 A 
ATOM     45  F   UNL A   1      38.138  33.904  28.334  1.00  0.00    -0.206 F 
ATOM     46  C   UNL A   1      34.701  34.040  29.443  1.00  0.00     0.060 A 
BRANCH  46  47
ATOM     47  S   UNL A   1      33.166  34.917  29.074  1.00  0.00     0.124 S 
ATOM     48  O   UNL A   1      33.675  36.195  28.583  1.00  0.00    -0.237 OA
ATOM     49  O   UNL A   1      32.546  34.056  28.072  1.00  0.00    -0.237 OA
ATOM     50  O   UNL A   1      32.484  34.966  30.363  1.00  0.00    -0.744 OA
ENDBRANCH  46  47
ENDBRANCH  25  39
BRANCH  26  51
ATOM     51  C   UNL A   1      45.773  28.267  32.289  1.00  0.00     0.058 A 
ATOM     52  C   UNL A   1      46.916  28.560  31.533  1.00  0.00     0.135 A 
ATOM     53  C   UNL A   1      45.909  27.377  33.368  1.00  0.00     0.135 A 
ATOM     54  F   UNL A   1      46.834  29.401  30.490  1.00  0.00    -0.206 F 
ATOM     55  C   UNL A   1      48.149  27.987  31.829  1.00  0.00     0.059 A 
ATOM     56  C   UNL A   1      47.136  26.816  33.701  1.00  0.00     0.059 A 
ATOM     57  F   UNL A   1      44.848  27.081  34.134  1.00  0.00    -0.206 F 
ATOM     58  C   UNL A   1      48.249  27.119  32.919  1.00  0.00     0.060 A 
BRANCH  58  59
ATOM     59  S   UNL A   1      49.862  26.428  33.342  1.00  0.00     0.124 S 
ATOM     60  O   UNL A   1      49.484  25.178  33.988  1.00  0.00    -0.237 OA
ATOM     61  O   UNL A   1      50.501  26.305  32.035  1.00  0.00    -0.237 OA
ATOM     62  O   UNL A   1      50.439  27.445  34.217  1.00  0.00    -0.744 OA
ENDBRANCH  58  59
ENDBRANCH  26  51
BRANCH  38  63
ATOM     63  C   UNL A   1      42.839  34.320  34.077  1.00  0.00     0.058 A 
ATOM     64  C   UNL A   1      42.518  34.387  35.441  1.00  0.00     0.135 A 
ATOM     65  C   UNL A   1      43.634  35.341  33.535  1.00  0.00     0.135 A 
ATOM     66  F   UNL A   1      41.751  33.439  36.003  1.00  0.00    -0.206 F 
ATOM     67  C   UNL A   1      42.947  35.445  36.236  1.00  0.00     0.059 A 
ATOM     68  C   UNL A   1      44.092  36.397  34.316  1.00  0.00     0.059 A 
ATOM     69  F   UNL A   1      43.972  35.317  32.236  1.00  0.00    -0.206 F 
ATOM     70  C   UNL A   1      43.731  36.447  35.662  1.00  0.00     0.060 A 
BRANCH  70  71
ATOM     71  S   UNL A   1      44.296  37.810  36.702  1.00  0.00     0.124 S 
ATOM     72  O   UNL A   1      45.660  37.397  37.011  1.00  0.00    -0.237 OA
ATOM     73  O   UNL A   1      44.168  38.960  35.812  1.00  0.00    -0.237 OA
ATOM     74  O   UNL A   1      43.363  37.788  37.823  1.00  0.00    -0.744 OA
ENDBRANCH  70  71
ENDBRANCH  38  63
ENDBRANCH  12  13
ENDBRANCH   5   7
ENDBRANCH   2   3
ENDBRANCH   1   2
BRANCH   1  75
ATOM     75  C   UNL A   1      35.353  21.893  24.704  1.00  0.00     0.023 C 
BRANCH  75  76
ATOM     76  C   UNL A   1      34.775  22.218  26.083  1.00  0.00     0.116 C 
BRANCH  76  77
ATOM     77  N   UNL A   1      33.369  22.556  26.039  1.00  0.00    -0.354 N 
ATOM     78  C   UNL A   1      32.653  23.704  26.056  1.00  0.00     0.242 C 
ATOM     79  H   UNL A   1      32.795  21.758  25.985  1.00  0.00     0.163 HD
ATOM     80  O   UNL A   1      31.426  23.544  25.967  1.00  0.00    -0.273 OA
BRANCH  78  81
ATOM     81  C   UNL A   1      33.220  25.138  26.193  1.00  0.00     0.173 C 
BRANCH  81  82
ATOM     82  C   UNL A   1      34.107  25.621  25.021  1.00  0.00     0.070 C 
BRANCH  82  83
ATOM     83  C   UNL A   1      33.697  25.697  23.557  1.00  0.00    -0.045 A 
ATOM     84  C   UNL A   1      33.352  24.482  22.928  1.00  0.00     0.007 A 
ATOM     85  C   UNL A   1      33.534  26.869  22.809  1.00  0.00     0.007 A 
ATOM     86  C   UNL A   1      32.817  24.450  21.636  1.00  0.00     0.046 A 
ATOM     87  C   UNL A   1      32.990  26.845  21.522  1.00  0.00     0.046 A 
ATOM     88  C   UNL A   1      32.615  25.640  20.955  1.00  0.00     0.115 A 
BRANCH  88  89
ATOM     89  O   UNL A   1      32.037  25.670  19.724  1.00  0.00    -0.508 OA
ATOM     90  H   UNL A   1      31.818  26.491  19.329  1.00  0.00     0.293 HD
ENDBRANCH  88  89
ENDBRANCH  82  83
ENDBRANCH  81  82
BRANCH  81  91
ATOM     91  N   UNL A   1      32.239  26.124  26.654  1.00  0.00    -0.372 N 
ATOM     92  H   UNL A   1      31.642  25.845  27.386  1.00  0.00     0.161 HD
BRANCH  91  93
ATOM     93  C   UNL A   1      32.064  27.426  26.158  1.00  0.00     0.054 A 
ATOM     94  C   UNL A   1      32.824  28.557  26.602  1.00  0.00     0.024 A 
ATOM     95  C   UNL A   1      31.069  27.626  25.142  1.00  0.00     0.024 A 
ATOM     96  C   UNL A   1      33.912  28.532  27.518  1.00  0.00     0.012 A 
ATOM     97  C   UNL A   1      32.506  29.811  26.038  1.00  0.00     0.073 A 
ATOM     98  C   UNL A   1      30.909  28.927  24.630  1.00  0.00     0.073 A 
ATOM     99  C   UNL A   1      30.230  26.606  24.609  1.00  0.00     0.012 A 
ATOM    100  C   UNL A   1      34.569  29.692  27.936  1.00  0.00     0.001 A 
ATOM    101  C   UNL A   1      33.177  30.954  26.455  1.00  0.00     0.029 A 
ATOM    102  N   UNL A   1      31.590  29.982  25.081  1.00  0.00    -0.248 NA
ATOM    103  C   UNL A   1      30.002  29.154  23.602  1.00  0.00     0.029 A 
ATOM    104  C   UNL A   1      29.322  26.856  23.581  1.00  0.00     0.001 A 
ATOM    105  C   UNL A   1      34.190  30.913  27.410  1.00  0.00     0.002 A 
ATOM    106  C   UNL A   1      29.216  28.135  23.065  1.00  0.00     0.002 A 
ENDBRANCH  91  93
ENDBRANCH  81  91
ENDBRANCH  78  81
ENDBRANCH  76  77
ENDBRANCH  75  76
ENDBRANCH   1  75
TORSDOF 19
ENDMDL
MODEL 3
REMARK VINA RESULT:     -12.5      0.842      2.079
REMARK SMILES O=C(NCCCCNC(=O)[C@@H](Cc1ccc(O)cc1)Nc1c2ccccc2nc2ccccc12)c1ccc(-c2c3nc(c(-c4c(F)cc(S(=O)(=O)[O-])cc4F)c4ccc([nH]4)c(-c4c(F)cc(S(=O)(=O)[O-])cc4F)c4nc(c(-c5c(F)cc(S(=O)(=O)[O-])cc5F)c5ccc2[nH]5)C=C4)C=C3)cc1
REMARK SMILES IDX 5 1 4 2 3 3 1 4 2 5 35 7 36 8 100 9 37 10 99 11 38 12 39 13
REMARK SMILES IDX 40 14 93 15 41 16 98 17 92 18 94 19 42 20 97 21 91 22 90 23
REMARK SMILES IDX 43 25 77 26 56 27 76 28 57 29 60 30 75 31 95 32 58 33 59 34
REMARK SMILES IDX 74 36 96 37 61 38 44 39 45 40 54 41 46 42 47 43 53 44 55 45
REMARK SMILES IDX 48 46 49 47 50 48 51 49 52 50 78 51 79 52 88 53 80 54 81 55
REMARK SMILES IDX 87 56 89 57 82 58 83 59 84 60 85 61 86 62 62 63 63 64 72 65
REMARK SMILES IDX 64 66 65 67 71 68 73 69 66 70 67 71 68 72 69 73 70 74 6 75
REMARK SMILES IDX 7 76 8 77 9 78 10 80 11 81 12 82 13 83 14 84 19 85 15 86
REMARK SMILES IDX 18 87 16 88 17 89 20 91 21 93 22 94 34 95 23 96 27 97 29 98
REMARK SMILES IDX 33 99 24 100 26 101 28 102 30 103 32 104 25 105 31 106
REMARK H PARENT 3 6 94 24 60 35 8 79 17 90 20 92
REMARK Flexibility Score: inf
ROOT
ATOM      1  C   UNL A   1      33.062  28.128  27.235  1.00  0.00     0.023 C 
ENDROOT
BRANCH   1   2
ATOM      2  C   UNL A   1      33.809  29.384  26.806  1.00  0.00     0.116 C 
BRANCH   2   3
ATOM      3  N   UNL A   1      33.730  30.497  27.740  1.00  0.00    -0.352 N 
ATOM      4  O   UNL A   1      34.494  31.894  29.360  1.00  0.00    -0.269 OA
ATOM      5  C   UNL A   1      34.715  30.960  28.594  1.00  0.00     0.251 C 
ATOM      6  H   UNL A   1      32.872  30.979  27.767  1.00  0.00     0.163 HD
BRANCH   5   7
ATOM      7  C   UNL A   1      36.026  30.267  28.627  1.00  0.00     0.039 A 
ATOM      8  C   UNL A   1      36.478  29.669  29.803  1.00  0.00     0.014 A 
ATOM      9  C   UNL A   1      36.860  30.326  27.506  1.00  0.00     0.014 A 
ATOM     10  C   UNL A   1      37.826  29.353  29.931  1.00  0.00     0.010 A 
ATOM     11  C   UNL A   1      38.188  29.895  27.604  1.00  0.00     0.010 A 
ATOM     12  C   UNL A   1      38.703  29.465  28.837  1.00  0.00    -0.014 A 
BRANCH  12  13
ATOM     13  C   UNL A   1      40.140  29.112  29.016  1.00  0.00     0.031 A 
ATOM     14  C   UNL A   1      40.682  27.771  28.581  1.00  0.00     0.074 A 
ATOM     15  C   UNL A   1      40.974  30.040  29.527  1.00  0.00     0.049 A 
ATOM     16  N   UNL A   1      41.902  27.307  28.681  1.00  0.00    -0.248 NA
ATOM     17  C   UNL A   1      39.736  26.824  27.965  1.00  0.00     0.031 C 
ATOM     18  C   UNL A   1      40.568  31.370  29.991  1.00  0.00     0.029 A 
ATOM     19  N   UNL A   1      42.330  30.025  29.721  1.00  0.00    -0.354 N 
ATOM     20  C   UNL A   1      41.865  26.008  28.183  1.00  0.00     0.074 A 
ATOM     21  C   UNL A   1      40.500  25.753  27.780  1.00  0.00     0.031 C 
ATOM     22  C   UNL A   1      41.655  32.062  30.354  1.00  0.00     0.029 A 
ATOM     23  C   UNL A   1      42.825  31.202  30.231  1.00  0.00     0.049 A 
ATOM     24  H   UNL A   1      42.897  29.246  29.515  1.00  0.00     0.167 HD
ATOM     25  C   UNL A   1      42.878  25.114  28.073  1.00  0.00     0.037 A 
ATOM     26  C   UNL A   1      44.075  31.550  30.589  1.00  0.00     0.037 A 
ATOM     27  C   UNL A   1      44.247  25.392  28.433  1.00  0.00     0.049 A 
ATOM     28  C   UNL A   1      45.179  30.546  30.441  1.00  0.00     0.074 A 
ATOM     29  C   UNL A   1      45.352  24.565  28.323  1.00  0.00     0.029 A 
ATOM     30  N   UNL A   1      44.701  26.591  28.965  1.00  0.00    -0.354 N 
ATOM     31  N   UNL A   1      45.117  29.322  29.973  1.00  0.00    -0.248 NA
ATOM     32  C   UNL A   1      46.516  30.960  30.882  1.00  0.00     0.031 C 
ATOM     33  C   UNL A   1      46.467  25.250  28.819  1.00  0.00     0.029 A 
ATOM     34  C   UNL A   1      46.064  26.519  29.201  1.00  0.00     0.049 A 
ATOM     35  H   UNL A   1      44.137  27.377  29.146  1.00  0.00     0.167 HD
ATOM     36  C   UNL A   1      46.408  28.818  30.067  1.00  0.00     0.074 A 
ATOM     37  C   UNL A   1      47.233  29.879  30.608  1.00  0.00     0.031 C 
ATOM     38  C   UNL A   1      46.866  27.584  29.746  1.00  0.00     0.037 A 
BRANCH  25  39
ATOM     39  C   UNL A   1      42.562  23.735  27.558  1.00  0.00     0.058 A 
ATOM     40  C   UNL A   1      42.516  23.447  26.186  1.00  0.00     0.135 A 
ATOM     41  C   UNL A   1      42.395  22.666  28.455  1.00  0.00     0.135 A 
ATOM     42  F   UNL A   1      42.656  24.432  25.284  1.00  0.00    -0.206 F 
ATOM     43  C   UNL A   1      42.307  22.151  25.720  1.00  0.00     0.059 A 
ATOM     44  C   UNL A   1      42.204  21.360  28.013  1.00  0.00     0.059 A 
ATOM     45  F   UNL A   1      42.431  22.885  29.779  1.00  0.00    -0.206 F 
ATOM     46  C   UNL A   1      42.154  21.113  26.641  1.00  0.00     0.060 A 
BRANCH  46  47
ATOM     47  S   UNL A   1      41.918  19.432  26.023  1.00  0.00     0.124 S 
ATOM     48  O   UNL A   1      42.777  19.435  24.842  1.00  0.00    -0.237 OA
ATOM     49  O   UNL A   1      42.383  18.618  27.142  1.00  0.00    -0.237 OA
ATOM     50  O   UNL A   1      40.484  19.366  25.757  1.00  0.00    -0.744 OA
ENDBRANCH  46  47
ENDBRANCH  25  39
BRANCH  26  51
ATOM     51  C   UNL A   1      44.329  32.899  31.156  1.00  0.00     0.058 A 
ATOM     52  C   UNL A   1      44.245  33.135  32.535  1.00  0.00     0.135 A 
ATOM     53  C   UNL A   1      44.703  33.969  30.327  1.00  0.00     0.135 A 
ATOM     54  F   UNL A   1      43.888  32.142  33.365  1.00  0.00    -0.206 F 
ATOM     55  C   UNL A   1      44.513  34.388  33.075  1.00  0.00     0.059 A 
ATOM     56  C   UNL A   1      45.004  35.222  30.846  1.00  0.00     0.059 A 
ATOM     57  F   UNL A   1      44.817  33.787  29.003  1.00  0.00    -0.206 F 
ATOM     58  C   UNL A   1      44.897  35.426  32.221  1.00  0.00     0.060 A 
BRANCH  58  59
ATOM     59  S   UNL A   1      45.309  37.034  32.929  1.00  0.00     0.124 S 
ATOM     60  O   UNL A   1      45.619  36.675  34.307  1.00  0.00    -0.237 OA
ATOM     61  O   UNL A   1      46.441  37.455  32.108  1.00  0.00    -0.237 OA
ATOM     62  O   UNL A   1      44.086  37.806  32.733  1.00  0.00    -0.744 OA
ENDBRANCH  58  59
ENDBRANCH  26  51
BRANCH  38  63
ATOM     63  C   UNL A   1      48.328  27.326  29.964  1.00  0.00     0.058 A 
ATOM     64  C   UNL A   1      49.287  27.719  29.018  1.00  0.00     0.135 A 
ATOM     65  C   UNL A   1      48.774  26.698  31.136  1.00  0.00     0.135 A 
ATOM     66  F   UNL A   1      48.906  28.315  27.876  1.00  0.00    -0.206 F 
ATOM     67  C   UNL A   1      50.641  27.471  29.213  1.00  0.00     0.059 A 
ATOM     68  C   UNL A   1      50.126  26.459  31.361  1.00  0.00     0.059 A 
ATOM     69  F   UNL A   1      47.895  26.310  32.073  1.00  0.00    -0.206 F 
ATOM     70  C   UNL A   1      51.050  26.838  30.388  1.00  0.00     0.060 A 
BRANCH  70  71
ATOM     71  S   UNL A   1      52.811  26.532  30.641  1.00  0.00     0.124 S 
ATOM     72  O   UNL A   1      53.261  27.820  31.155  1.00  0.00    -0.237 OA
ATOM     73  O   UNL A   1      52.805  25.433  31.602  1.00  0.00    -0.237 OA
ATOM     74  O   UNL A   1      53.289  26.185  29.307  1.00  0.00    -0.744 OA
ENDBRANCH  70  71
ENDBRANCH  38  63
ENDBRANCH  12  13
ENDBRANCH   5   7
ENDBRANCH   2   3
ENDBRANCH   1   2
BRANCH   1  75
ATOM     75  C   UNL A   1      32.438  27.297  26.115  1.00  0.00     0.023 C 
BRANCH  75  76
ATOM     76  C   UNL A   1      33.145  25.968  25.840  1.00  0.00     0.116 C 
BRANCH  76  77
ATOM     77  N   UNL A   1      32.668  24.892  26.682  1.00  0.00    -0.354 N 
ATOM     78  C   UNL A   1      32.171  23.652  26.471  1.00  0.00     0.242 C 
ATOM     79  H   UNL A   1      32.716  25.118  27.639  1.00  0.00     0.163 HD
ATOM     80  O   UNL A   1      31.902  23.023  27.506  1.00  0.00    -0.273 OA
BRANCH  78  81
ATOM     81  C   UNL A   1      31.902  22.992  25.096  1.00  0.00     0.173 C 
BRANCH  81  82
ATOM     82  C   UNL A   1      30.699  23.560  24.305  1.00  0.00     0.070 C 
BRANCH  82  83
ATOM     83  C   UNL A   1      30.675  24.866  23.523  1.00  0.00    -0.045 A 
ATOM     84  C   UNL A   1      29.769  25.855  23.960  1.00  0.00     0.007 A 
ATOM     85  C   UNL A   1      31.540  25.214  22.478  1.00  0.00     0.007 A 
ATOM     86  C   UNL A   1      29.768  27.143  23.416  1.00  0.00     0.046 A 
ATOM     87  C   UNL A   1      31.551  26.502  21.936  1.00  0.00     0.046 A 
ATOM     88  C   UNL A   1      30.682  27.462  22.425  1.00  0.00     0.115 A 
BRANCH  88  89
ATOM     89  O   UNL A   1      30.768  28.717  21.907  1.00  0.00    -0.508 OA
ATOM     90  H   UNL A   1      30.985  28.838  21.004  1.00  0.00     0.293 HD
ENDBRANCH  88  89
ENDBRANCH  82  83
ENDBRANCH  81  82
BRANCH  81  91
ATOM     91  N   UNL A   1      33.107  22.781  24.291  1.00  0.00    -0.372 N 
ATOM     92  H   UNL A   1      33.201  23.333  23.481  1.00  0.00     0.161 HD
BRANCH  91  93
ATOM     93  C   UNL A   1      34.143  21.870  24.557  1.00  0.00     0.054 A 
ATOM     94  C   UNL A   1      35.446  22.257  25.013  1.00  0.00     0.024 A 
ATOM     95  C   UNL A   1      33.870  20.473  24.366  1.00  0.00     0.024 A 
ATOM     96  C   UNL A   1      35.862  23.574  25.353  1.00  0.00     0.012 A 
ATOM     97  C   UNL A   1      36.396  21.229  25.199  1.00  0.00     0.073 A 
ATOM     98  C   UNL A   1      34.902  19.560  24.654  1.00  0.00     0.073 A 
ATOM     99  C   UNL A   1      32.632  19.939  23.909  1.00  0.00     0.012 A 
ATOM    100  C   UNL A   1      37.170  23.870  25.743  1.00  0.00     0.001 A 
ATOM    101  C   UNL A   1      37.689  21.539  25.600  1.00  0.00     0.029 A 
ATOM    102  N   UNL A   1      36.125  19.932  25.035  1.00  0.00    -0.248 NA
ATOM    103  C   UNL A   1      34.662  18.195  24.544  1.00  0.00     0.029 A 
ATOM    104  C   UNL A   1      32.414  18.566  23.800  1.00  0.00     0.001 A 
ATOM    105  C   UNL A   1      38.094  22.847  25.856  1.00  0.00     0.002 A 
ATOM    106  C   UNL A   1      33.431  17.688  24.132  1.00  0.00     0.002 A 
ENDBRANCH  91  93
ENDBRANCH  81  91
ENDBRANCH  78  81
ENDBRANCH  76  77
ENDBRANCH  75  76
ENDBRANCH   1  75
TORSDOF 19
ENDMDL
