MODEL 1
REMARK VINA RESULT:     -12.2      0.000      0.000
REMARK SMILES CCc1cc(OC(F)(F)F)cc2c1O[C@H](C(F)(F)F)C(C(=O)NCCCCNC(=O)c1ccc(-c3c4nc(c(-c5c(F)cc(S(=O)(=O)[O-])cc5F)c5ccc([nH]5)c(-c5c(F)cc(S(=O)(=O)[O-])cc5F)c5nc(c(-c6c(F)cc(S(=O)(=O)[O-])cc6F)c6ccc3[nH]6)C=C5)C=C4)cc1)=C2
REMARK SMILES IDX 26 1 25 2 24 3 23 4 21 5 22 6 20 8 3 9 4 10 13 11 5 12 12 13
REMARK SMILES IDX 14 14 11 15 97 16 15 17 2 18 1 19 6 20 7 21 8 22 9 23 10 24
REMARK SMILES IDX 16 25 17 26 18 27 19 28 27 29 28 30 29 31 30 33 31 34 32 35
REMARK SMILES IDX 96 36 33 37 95 38 34 39 35 40 36 41 89 42 37 43 94 44 88 45
REMARK SMILES IDX 90 46 38 47 93 48 87 49 86 50 39 52 73 53 52 54 72 55 53 56
REMARK SMILES IDX 56 57 71 58 91 59 54 60 55 61 70 63 92 64 57 65 40 66 41 67
REMARK SMILES IDX 50 68 42 69 43 70 49 71 51 72 44 73 45 74 46 75 47 76 48 77
REMARK SMILES IDX 74 78 75 79 84 80 76 81 77 82 83 83 85 84 78 85 79 86 80 87
REMARK SMILES IDX 81 88 82 89 58 90 59 91 68 92 60 93 61 94 67 95 69 96 62 97
REMARK SMILES IDX 63 98 64 99 65 100 66 101
REMARK H PARENT 23 7 28 32 90 51 56 62
REMARK Flexibility Score: inf
ROOT
ATOM      1  C   UNL A   1      39.654  22.576  27.070  1.00  0.00     0.023 C 
ENDROOT
BRANCH   1   2
ATOM      2  C   UNL A   1      38.562  23.479  26.490  1.00  0.00     0.023 C 
BRANCH   2   3
ATOM      3  C   UNL A   1      37.660  22.786  25.465  1.00  0.00     0.116 C 
BRANCH   3   4
ATOM      4  N   UNL A   1      36.618  22.037  26.137  1.00  0.00    -0.352 N 
ATOM      5  C   UNL A   1      35.290  22.264  26.290  1.00  0.00     0.251 C 
ATOM      6  O   UNL A   1      34.643  21.465  26.963  1.00  0.00    -0.270 OA
ATOM      7  H   UNL A   1      36.934  21.208  26.563  1.00  0.00     0.163 HD
BRANCH   5   8
ATOM      8  C   UNL A   1      34.565  23.370  25.605  1.00  0.00     0.067 C 
ATOM      9  C   UNL A   1      33.086  26.435  23.115  1.00  0.00    -0.002 A 
ATOM     10  C   UNL A   1      32.389  27.503  23.726  1.00  0.00     0.054 A 
ATOM     11  C   UNL A   1      33.573  25.407  23.936  1.00  0.00     0.131 A 
ATOM     12  C   UNL A   1      32.181  27.549  25.106  1.00  0.00     0.130 A 
ATOM     13  C   UNL A   1      33.365  25.443  25.321  1.00  0.00     0.021 A 
ATOM     14  O   UNL A   1      34.328  24.417  23.371  1.00  0.00    -0.475 OA
ATOM     15  C   UNL A   1      32.668  26.510  25.896  1.00  0.00     0.058 A 
ATOM     16  C   UNL A   1      33.963  24.422  26.176  1.00  0.00     0.025 C 
ATOM     17  C   UNL A   1      34.450  23.171  24.105  1.00  0.00     0.314 C 
BRANCH   9  18
ATOM     18  C   UNL A   1      33.266  26.533  21.611  1.00  0.00     0.036 C 
ATOM     19  C   UNL A   1      32.523  25.573  20.691  1.00  0.00     0.009 C 
ENDBRANCH   9  18
BRANCH  12  20
ATOM     20  O   UNL A   1      31.550  28.538  25.804  1.00  0.00    -0.406 OA
BRANCH  20  21
ATOM     21  C   UNL A   1      32.334  29.617  26.285  1.00  0.00     0.573 C 
ATOM     22  F   UNL A   1      32.480  29.557  27.625  1.00  0.00    -0.132 F 
ATOM     23  F   UNL A   1      33.551  29.630  25.699  1.00  0.00    -0.132 F 
ATOM     24  F   UNL A   1      31.709  30.776  25.983  1.00  0.00    -0.132 F 
ENDBRANCH  20  21
ENDBRANCH  12  20
BRANCH  17  25
ATOM     25  C   UNL A   1      33.318  22.186  23.730  1.00  0.00     0.429 C 
ATOM     26  F   UNL A   1      32.192  22.381  24.457  1.00  0.00    -0.167 F 
ATOM     27  F   UNL A   1      32.957  22.312  22.426  1.00  0.00    -0.167 F 
ATOM     28  F   UNL A   1      33.690  20.895  23.892  1.00  0.00    -0.167 F 
ENDBRANCH  17  25
ENDBRANCH   5   8
ENDBRANCH   3   4
ENDBRANCH   2   3
ENDBRANCH   1   2
BRANCH   1  29
ATOM     29  C   UNL A   1      40.999  23.262  27.279  1.00  0.00     0.116 C 
BRANCH  29  30
ATOM     30  N   UNL A   1      41.424  24.047  26.132  1.00  0.00    -0.352 N 
ATOM     31  C   UNL A   1      41.590  25.407  26.041  1.00  0.00     0.251 C 
ATOM     32  H   UNL A   1      41.617  23.536  25.312  1.00  0.00     0.163 HD
ATOM     33  O   UNL A   1      41.845  25.923  24.961  1.00  0.00    -0.269 OA
BRANCH  31  34
ATOM     34  C   UNL A   1      41.412  26.239  27.250  1.00  0.00     0.039 A 
ATOM     35  C   UNL A   1      42.336  27.252  27.506  1.00  0.00     0.014 A 
ATOM     36  C   UNL A   1      40.330  26.033  28.111  1.00  0.00     0.014 A 
ATOM     37  C   UNL A   1      42.149  28.093  28.603  1.00  0.00     0.010 A 
ATOM     38  C   UNL A   1      40.105  26.917  29.161  1.00  0.00     0.010 A 
ATOM     39  C   UNL A   1      41.018  27.948  29.424  1.00  0.00    -0.014 A 
BRANCH  39  40
ATOM     40  C   UNL A   1      40.792  28.857  30.575  1.00  0.00     0.031 A 
ATOM     41  C   UNL A   1      41.633  28.722  31.816  1.00  0.00     0.074 A 
ATOM     42  C   UNL A   1      39.804  29.770  30.518  1.00  0.00     0.049 A 
ATOM     43  N   UNL A   1      41.576  29.407  32.929  1.00  0.00    -0.248 NA
ATOM     44  C   UNL A   1      42.651  27.660  31.818  1.00  0.00     0.031 C 
ATOM     45  C   UNL A   1      38.883  29.952  29.392  1.00  0.00     0.029 A 
ATOM     46  N   UNL A   1      39.406  30.716  31.427  1.00  0.00    -0.354 N 
ATOM     47  C   UNL A   1      42.539  28.854  33.764  1.00  0.00     0.074 A 
ATOM     48  C   UNL A   1      43.124  27.738  33.053  1.00  0.00     0.031 C 
ATOM     49  C   UNL A   1      38.047  30.967  29.668  1.00  0.00     0.029 A 
ATOM     50  C   UNL A   1      38.355  31.490  30.995  1.00  0.00     0.049 A 
ATOM     51  H   UNL A   1      39.833  30.830  32.308  1.00  0.00     0.167 HD
ATOM     52  C   UNL A   1      42.922  29.256  34.999  1.00  0.00     0.037 A 
ATOM     53  C   UNL A   1      37.717  32.510  31.599  1.00  0.00     0.037 A 
ATOM     54  C   UNL A   1      42.357  30.386  35.687  1.00  0.00     0.049 A 
ATOM     55  C   UNL A   1      38.181  32.959  32.959  1.00  0.00     0.074 A 
ATOM     56  C   UNL A   1      42.712  30.914  36.916  1.00  0.00     0.029 A 
ATOM     57  N   UNL A   1      41.318  31.168  35.202  1.00  0.00    -0.354 N 
ATOM     58  N   UNL A   1      39.140  32.468  33.706  1.00  0.00    -0.248 NA
ATOM     59  C   UNL A   1      37.486  34.111  33.549  1.00  0.00     0.031 C 
ATOM     60  C   UNL A   1      41.865  31.993  37.190  1.00  0.00     0.029 A 
ATOM     61  C   UNL A   1      41.011  32.165  36.112  1.00  0.00     0.049 A 
ATOM     62  H   UNL A   1      40.865  31.032  34.339  1.00  0.00     0.167 HD
ATOM     63  C   UNL A   1      39.183  33.266  34.844  1.00  0.00     0.074 A 
ATOM     64  C   UNL A   1      38.161  34.281  34.678  1.00  0.00     0.031 C 
ATOM     65  C   UNL A   1      39.994  33.171  35.926  1.00  0.00     0.037 A 
BRANCH  52  66
ATOM     66  C   UNL A   1      44.013  28.472  35.677  1.00  0.00     0.058 A 
ATOM     67  C   UNL A   1      43.722  27.413  36.552  1.00  0.00     0.135 A 
ATOM     68  C   UNL A   1      45.364  28.768  35.435  1.00  0.00     0.135 A 
ATOM     69  F   UNL A   1      42.448  27.097  36.832  1.00  0.00    -0.206 F 
ATOM     70  C   UNL A   1      44.730  26.697  37.189  1.00  0.00     0.059 A 
ATOM     71  C   UNL A   1      46.390  28.046  36.040  1.00  0.00     0.059 A 
ATOM     72  F   UNL A   1      45.700  29.771  34.608  1.00  0.00    -0.206 F 
ATOM     73  C   UNL A   1      46.062  27.023  36.928  1.00  0.00     0.060 A 
BRANCH  73  74
ATOM     74  S   UNL A   1      47.359  26.087  37.766  1.00  0.00     0.124 S 
ATOM     75  O   UNL A   1      47.392  24.863  36.972  1.00  0.00    -0.237 OA
ATOM     76  O   UNL A   1      48.518  26.964  37.626  1.00  0.00    -0.237 OA
ATOM     77  O   UNL A   1      46.849  25.940  39.125  1.00  0.00    -0.744 OA
ENDBRANCH  73  74
ENDBRANCH  52  66
BRANCH  53  78
ATOM     78  C   UNL A   1      36.601  33.205  30.904  1.00  0.00     0.058 A 
ATOM     79  C   UNL A   1      35.273  33.028  31.318  1.00  0.00     0.135 A 
ATOM     80  C   UNL A   1      36.839  34.070  29.825  1.00  0.00     0.135 A 
ATOM     81  F   UNL A   1      34.994  32.209  32.344  1.00  0.00    -0.206 F 
ATOM     82  C   UNL A   1      34.217  33.667  30.677  1.00  0.00     0.059 A 
ATOM     83  C   UNL A   1      35.802  34.739  29.182  1.00  0.00     0.059 A 
ATOM     84  F   UNL A   1      38.095  34.288  29.402  1.00  0.00    -0.206 F 
ATOM     85  C   UNL A   1      34.493  34.522  29.609  1.00  0.00     0.060 A 
BRANCH  85  86
ATOM     86  S   UNL A   1      33.120  35.385  28.812  1.00  0.00     0.124 S 
ATOM     87  O   UNL A   1      32.377  35.880  29.965  1.00  0.00    -0.237 OA
ATOM     88  O   UNL A   1      33.811  36.394  28.015  1.00  0.00    -0.237 OA
ATOM     89  O   UNL A   1      32.465  34.330  28.043  1.00  0.00    -0.744 OA
ENDBRANCH  85  86
ENDBRANCH  53  78
BRANCH  65  90
ATOM     90  C   UNL A   1      39.834  34.210  36.999  1.00  0.00     0.058 A 
ATOM     91  C   UNL A   1      40.465  35.460  36.917  1.00  0.00     0.135 A 
ATOM     92  C   UNL A   1      39.009  33.963  38.109  1.00  0.00     0.135 A 
ATOM     93  F   UNL A   1      41.268  35.745  35.879  1.00  0.00    -0.206 F 
ATOM     94  C   UNL A   1      40.310  36.419  37.913  1.00  0.00     0.059 A 
ATOM     95  C   UNL A   1      38.818  34.916  39.103  1.00  0.00     0.059 A 
ATOM     96  F   UNL A   1      38.372  32.786  38.229  1.00  0.00    -0.206 F 
ATOM     97  C   UNL A   1      39.486  36.136  39.003  1.00  0.00     0.060 A 
BRANCH  97  98
ATOM     98  S   UNL A   1      39.277  37.393  40.282  1.00  0.00     0.124 S 
ATOM     99  O   UNL A   1      40.642  37.885  40.434  1.00  0.00    -0.237 OA
ATOM    100  O   UNL A   1      38.335  38.320  39.661  1.00  0.00    -0.237 OA
ATOM    101  O   UNL A   1      38.751  36.640  41.415  1.00  0.00    -0.744 OA
ENDBRANCH  97  98
ENDBRANCH  65  90
ENDBRANCH  39  40
ENDBRANCH  31  34
ENDBRANCH  29  30
ENDBRANCH   1  29
TORSDOF 18
ENDMDL
MODEL 2
REMARK VINA RESULT:     -12.2      1.140      1.992
REMARK SMILES CCc1cc(OC(F)(F)F)cc2c1O[C@H](C(F)(F)F)C(C(=O)NCCCCNC(=O)c1ccc(-c3c4nc(c(-c5c(F)cc(S(=O)(=O)[O-])cc5F)c5ccc([nH]5)c(-c5c(F)cc(S(=O)(=O)[O-])cc5F)c5nc(c(-c6c(F)cc(S(=O)(=O)[O-])cc6F)c6ccc3[nH]6)C=C5)C=C4)cc1)=C2
REMARK SMILES IDX 26 1 25 2 24 3 23 4 21 5 22 6 20 8 3 9 4 10 13 11 5 12 12 13
REMARK SMILES IDX 14 14 11 15 97 16 15 17 2 18 1 19 6 20 7 21 8 22 9 23 10 24
REMARK SMILES IDX 16 25 17 26 18 27 19 28 27 29 28 30 29 31 30 33 31 34 32 35
REMARK SMILES IDX 96 36 33 37 95 38 34 39 35 40 36 41 89 42 37 43 94 44 88 45
REMARK SMILES IDX 90 46 38 47 93 48 87 49 86 50 39 52 73 53 52 54 72 55 53 56
REMARK SMILES IDX 56 57 71 58 91 59 54 60 55 61 70 63 92 64 57 65 40 66 41 67
REMARK SMILES IDX 50 68 42 69 43 70 49 71 51 72 44 73 45 74 46 75 47 76 48 77
REMARK SMILES IDX 74 78 75 79 84 80 76 81 77 82 83 83 85 84 78 85 79 86 80 87
REMARK SMILES IDX 81 88 82 89 58 90 59 91 68 92 60 93 61 94 67 95 69 96 62 97
REMARK SMILES IDX 63 98 64 99 65 100 66 101
REMARK H PARENT 23 7 28 32 90 51 56 62
REMARK Flexibility Score: inf
ROOT
ATOM      1  C   UNL A   1      37.281  23.971  25.775  1.00  0.00     0.023 C 
ENDROOT
BRANCH   1   2
ATOM      2  C   UNL A   1      36.336  22.815  26.115  1.00  0.00     0.023 C 
BRANCH   2   3
ATOM      3  C   UNL A   1      34.917  22.987  25.565  1.00  0.00     0.116 C 
BRANCH   3   4
ATOM      4  N   UNL A   1      34.920  22.863  24.121  1.00  0.00    -0.352 N 
ATOM      5  C   UNL A   1      34.309  23.581  23.146  1.00  0.00     0.251 C 
ATOM      6  O   UNL A   1      34.456  23.212  21.982  1.00  0.00    -0.270 OA
ATOM      7  H   UNL A   1      35.468  22.117  23.785  1.00  0.00     0.163 HD
BRANCH   5   8
ATOM      8  C   UNL A   1      33.558  24.840  23.406  1.00  0.00     0.067 C 
ATOM      9  C   UNL A   1      31.195  28.332  23.379  1.00  0.00    -0.002 A 
ATOM     10  C   UNL A   1      31.587  29.401  24.219  1.00  0.00     0.054 A 
ATOM     11  C   UNL A   1      31.971  27.163  23.389  1.00  0.00     0.131 A 
ATOM     12  C   UNL A   1      32.711  29.312  25.042  1.00  0.00     0.130 A 
ATOM     13  C   UNL A   1      33.098  27.064  24.216  1.00  0.00     0.021 A 
ATOM     14  O   UNL A   1      31.658  26.160  22.516  1.00  0.00    -0.475 OA
ATOM     15  C   UNL A   1      33.458  28.136  25.038  1.00  0.00     0.058 A 
ATOM     16  C   UNL A   1      33.955  25.885  24.144  1.00  0.00     0.025 C 
ATOM     17  C   UNL A   1      32.157  24.831  22.820  1.00  0.00     0.314 C 
BRANCH   9  18
ATOM     18  C   UNL A   1      29.971  28.580  22.515  1.00  0.00     0.036 C 
ATOM     19  C   UNL A   1      29.674  29.982  22.001  1.00  0.00     0.009 C 
ENDBRANCH   9  18
BRANCH  12  20
ATOM     20  O   UNL A   1      33.197  30.284  25.867  1.00  0.00    -0.406 OA
BRANCH  20  21
ATOM     21  C   UNL A   1      32.469  30.582  27.047  1.00  0.00     0.573 C 
ATOM     22  F   UNL A   1      31.841  29.487  27.525  1.00  0.00    -0.132 F 
ATOM     23  F   UNL A   1      33.279  31.089  28.001  1.00  0.00    -0.132 F 
ATOM     24  F   UNL A   1      31.531  31.509  26.756  1.00  0.00    -0.132 F 
ENDBRANCH  20  21
ENDBRANCH  12  20
BRANCH  17  25
ATOM     25  C   UNL A   1      31.159  24.045  23.702  1.00  0.00     0.429 C 
ATOM     26  F   UNL A   1      31.509  22.744  23.857  1.00  0.00    -0.167 F 
ATOM     27  F   UNL A   1      31.075  24.568  24.952  1.00  0.00    -0.167 F 
ATOM     28  F   UNL A   1      29.903  24.072  23.199  1.00  0.00    -0.167 F 
ENDBRANCH  17  25
ENDBRANCH   5   8
ENDBRANCH   3   4
ENDBRANCH   2   3
ENDBRANCH   1   2
BRANCH   1  29
ATOM     29  C   UNL A   1      38.478  24.107  26.708  1.00  0.00     0.116 C 
BRANCH  29  30
ATOM     30  N   UNL A   1      39.740  24.250  26.001  1.00  0.00    -0.352 N 
ATOM     31  C   UNL A   1      40.768  25.123  26.258  1.00  0.00     0.251 C 
ATOM     32  H   UNL A   1      39.873  23.643  25.237  1.00  0.00     0.163 HD
ATOM     33  O   UNL A   1      41.719  25.192  25.492  1.00  0.00    -0.269 OA
BRANCH  31  34
ATOM     34  C   UNL A   1      40.689  26.005  27.442  1.00  0.00     0.039 A 
ATOM     35  C   UNL A   1      41.508  27.133  27.490  1.00  0.00     0.014 A 
ATOM     36  C   UNL A   1      39.799  25.730  28.483  1.00  0.00     0.014 A 
ATOM     37  C   UNL A   1      41.400  28.016  28.566  1.00  0.00     0.010 A 
ATOM     38  C   UNL A   1      39.640  26.648  29.517  1.00  0.00     0.010 A 
ATOM     39  C   UNL A   1      40.447  27.793  29.574  1.00  0.00    -0.014 A 
BRANCH  39  40
ATOM     40  C   UNL A   1      40.302  28.742  30.706  1.00  0.00     0.031 A 
ATOM     41  C   UNL A   1      41.161  28.589  31.931  1.00  0.00     0.074 A 
ATOM     42  C   UNL A   1      39.367  29.709  30.646  1.00  0.00     0.049 A 
ATOM     43  N   UNL A   1      41.171  29.303  33.027  1.00  0.00    -0.248 NA
ATOM     44  C   UNL A   1      42.116  27.469  31.938  1.00  0.00     0.031 C 
ATOM     45  C   UNL A   1      38.432  29.917  29.537  1.00  0.00     0.029 A 
ATOM     46  N   UNL A   1      39.046  30.700  31.539  1.00  0.00    -0.354 N 
ATOM     47  C   UNL A   1      42.119  28.715  33.855  1.00  0.00     0.074 A 
ATOM     48  C   UNL A   1      42.621  27.549  33.160  1.00  0.00     0.031 C 
ATOM     49  C   UNL A   1      37.664  30.986  29.804  1.00  0.00     0.029 A 
ATOM     50  C   UNL A   1      38.032  31.523  31.110  1.00  0.00     0.049 A 
ATOM     51  H   UNL A   1      39.499  30.811  32.407  1.00  0.00     0.167 HD
ATOM     52  C   UNL A   1      42.554  29.124  35.070  1.00  0.00     0.037 A 
ATOM     53  C   UNL A   1      37.469  32.594  31.701  1.00  0.00     0.037 A 
ATOM     54  C   UNL A   1      42.071  30.302  35.740  1.00  0.00     0.049 A 
ATOM     55  C   UNL A   1      37.989  33.048  33.038  1.00  0.00     0.074 A 
ATOM     56  C   UNL A   1      42.485  30.839  36.947  1.00  0.00     0.029 A 
ATOM     57  N   UNL A   1      41.068  31.131  35.259  1.00  0.00    -0.354 N 
ATOM     58  N   UNL A   1      38.935  32.520  33.777  1.00  0.00    -0.248 NA
ATOM     59  C   UNL A   1      37.377  34.253  33.613  1.00  0.00     0.031 C 
ATOM     60  C   UNL A   1      41.709  31.972  37.211  1.00  0.00     0.029 A 
ATOM     61  C   UNL A   1      40.841  32.167  36.149  1.00  0.00     0.049 A 
ATOM     62  H   UNL A   1      40.588  31.001  34.410  1.00  0.00     0.167 HD
ATOM     63  C   UNL A   1      39.051  33.342  34.892  1.00  0.00     0.074 A 
ATOM     64  C   UNL A   1      38.087  34.411  34.723  1.00  0.00     0.031 C 
ATOM     65  C   UNL A   1      39.881  33.226  35.958  1.00  0.00     0.037 A 
BRANCH  52  66
ATOM     66  C   UNL A   1      43.613  28.294  35.744  1.00  0.00     0.058 A 
ATOM     67  C   UNL A   1      44.980  28.521  35.516  1.00  0.00     0.135 A 
ATOM     68  C   UNL A   1      43.260  27.276  36.643  1.00  0.00     0.135 A 
ATOM     69  F   UNL A   1      45.374  29.472  34.654  1.00  0.00    -0.206 F 
ATOM     70  C   UNL A   1      45.958  27.746  36.129  1.00  0.00     0.059 A 
ATOM     71  C   UNL A   1      44.223  26.505  37.289  1.00  0.00     0.059 A 
ATOM     72  F   UNL A   1      41.968  27.014  36.897  1.00  0.00    -0.206 F 
ATOM     73  C   UNL A   1      45.570  26.738  37.012  1.00  0.00     0.060 A 
BRANCH  73  74
ATOM     74  S   UNL A   1      46.852  25.738  37.797  1.00  0.00     0.124 S 
ATOM     75  O   UNL A   1      47.968  25.920  36.874  1.00  0.00    -0.237 OA
ATOM     76  O   UNL A   1      46.996  26.379  39.100  1.00  0.00    -0.237 OA
ATOM     77  O   UNL A   1      46.271  24.399  37.822  1.00  0.00    -0.744 OA
ENDBRANCH  73  74
ENDBRANCH  52  66
BRANCH  53  78
ATOM     78  C   UNL A   1      36.379  33.335  31.012  1.00  0.00     0.058 A 
ATOM     79  C   UNL A   1      35.057  33.270  31.477  1.00  0.00     0.135 A 
ATOM     80  C   UNL A   1      36.637  34.135  29.889  1.00  0.00     0.135 A 
ATOM     81  F   UNL A   1      34.760  32.515  32.547  1.00  0.00    -0.206 F 
ATOM     82  C   UNL A   1      34.026  33.954  30.844  1.00  0.00     0.059 A 
ATOM     83  C   UNL A   1      35.627  34.849  29.251  1.00  0.00     0.059 A 
ATOM     84  F   UNL A   1      37.890  34.247  29.417  1.00  0.00    -0.206 F 
ATOM     85  C   UNL A   1      34.322  34.742  29.730  1.00  0.00     0.060 A 
BRANCH  85  86
ATOM     86  S   UNL A   1      32.984  35.665  28.941  1.00  0.00     0.124 S 
ATOM     87  O   UNL A   1      32.425  34.661  28.043  1.00  0.00    -0.237 OA
ATOM     88  O   UNL A   1      32.152  36.036  30.083  1.00  0.00    -0.237 OA
ATOM     89  O   UNL A   1      33.679  36.775  28.296  1.00  0.00    -0.744 OA
ENDBRANCH  85  86
ENDBRANCH  53  78
BRANCH  65  90
ATOM     90  C   UNL A   1      39.806  34.299  37.008  1.00  0.00     0.058 A 
ATOM     91  C   UNL A   1      40.487  35.518  36.866  1.00  0.00     0.135 A 
ATOM     92  C   UNL A   1      39.015  34.117  38.154  1.00  0.00     0.135 A 
ATOM     93  F   UNL A   1      41.260  35.741  35.792  1.00  0.00    -0.206 F 
ATOM     94  C   UNL A   1      40.411  36.509  37.840  1.00  0.00     0.059 A 
ATOM     95  C   UNL A   1      38.903  35.104  39.127  1.00  0.00     0.059 A 
ATOM     96  F   UNL A   1      38.334  32.973  38.330  1.00  0.00    -0.206 F 
ATOM     97  C   UNL A   1      39.618  36.291  38.968  1.00  0.00     0.060 A 
BRANCH  97  98
ATOM     98  S   UNL A   1      39.512  37.589  40.218  1.00  0.00     0.124 S 
ATOM     99  O   UNL A   1      38.527  38.487  39.626  1.00  0.00    -0.237 OA
ATOM    100  O   UNL A   1      39.070  36.853  41.400  1.00  0.00    -0.237 OA
ATOM    101  O   UNL A   1      40.875  38.107  40.286  1.00  0.00    -0.744 OA
ENDBRANCH  97  98
ENDBRANCH  65  90
ENDBRANCH  39  40
ENDBRANCH  31  34
ENDBRANCH  29  30
ENDBRANCH   1  29
TORSDOF 18
ENDMDL
MODEL 3
REMARK VINA RESULT:     -12.2      4.797     10.286
REMARK SMILES CCc1cc(OC(F)(F)F)cc2c1O[C@H](C(F)(F)F)C(C(=O)NCCCCNC(=O)c1ccc(-c3c4nc(c(-c5c(F)cc(S(=O)(=O)[O-])cc5F)c5ccc([nH]5)c(-c5c(F)cc(S(=O)(=O)[O-])cc5F)c5nc(c(-c6c(F)cc(S(=O)(=O)[O-])cc6F)c6ccc3[nH]6)C=C5)C=C4)cc1)=C2
REMARK SMILES IDX 26 1 25 2 24 3 23 4 21 5 22 6 20 8 3 9 4 10 13 11 5 12 12 13
REMARK SMILES IDX 14 14 11 15 97 16 15 17 2 18 1 19 6 20 7 21 8 22 9 23 10 24
REMARK SMILES IDX 16 25 17 26 18 27 19 28 27 29 28 30 29 31 30 33 31 34 32 35
REMARK SMILES IDX 96 36 33 37 95 38 34 39 35 40 36 41 89 42 37 43 94 44 88 45
REMARK SMILES IDX 90 46 38 47 93 48 87 49 86 50 39 52 73 53 52 54 72 55 53 56
REMARK SMILES IDX 56 57 71 58 91 59 54 60 55 61 70 63 92 64 57 65 40 66 41 67
REMARK SMILES IDX 50 68 42 69 43 70 49 71 51 72 44 73 45 74 46 75 47 76 48 77
REMARK SMILES IDX 74 78 75 79 84 80 76 81 77 82 83 83 85 84 78 85 79 86 80 87
REMARK SMILES IDX 81 88 82 89 58 90 59 91 68 92 60 93 61 94 67 95 69 96 62 97
REMARK SMILES IDX 63 98 64 99 65 100 66 101
REMARK H PARENT 23 7 28 32 90 51 56 62
REMARK Flexibility Score: inf
ROOT
ATOM      1  C   UNL A   1      32.568  27.763  26.519  1.00  0.00     0.023 C 
ENDROOT
BRANCH   1   2
ATOM      2  C   UNL A   1      32.659  27.424  25.029  1.00  0.00     0.023 C 
BRANCH   2   3
ATOM      3  C   UNL A   1      31.343  26.929  24.421  1.00  0.00     0.116 C 
BRANCH   3   4
ATOM      4  N   UNL A   1      30.508  26.336  25.446  1.00  0.00    -0.352 N 
ATOM      5  C   UNL A   1      30.489  25.098  25.999  1.00  0.00     0.251 C 
ATOM      6  O   UNL A   1      29.622  24.854  26.835  1.00  0.00    -0.270 OA
ATOM      7  H   UNL A   1      29.827  26.947  25.810  1.00  0.00     0.163 HD
BRANCH   5   8
ATOM      8  C   UNL A   1      31.520  24.060  25.718  1.00  0.00     0.067 C 
ATOM      9  C   UNL A   1      33.834  20.606  25.018  1.00  0.00    -0.002 A 
ATOM     10  C   UNL A   1      35.202  20.644  25.378  1.00  0.00     0.054 A 
ATOM     11  C   UNL A   1      33.060  21.755  25.240  1.00  0.00     0.131 A 
ATOM     12  C   UNL A   1      35.782  21.784  25.938  1.00  0.00     0.130 A 
ATOM     13  C   UNL A   1      33.635  22.905  25.797  1.00  0.00     0.021 A 
ATOM     14  O   UNL A   1      31.719  21.702  24.984  1.00  0.00    -0.475 OA
ATOM     15  C   UNL A   1      34.991  22.914  26.138  1.00  0.00     0.058 A 
ATOM     16  C   UNL A   1      32.799  24.058  26.116  1.00  0.00     0.025 C 
ATOM     17  C   UNL A   1      31.026  22.962  24.794  1.00  0.00     0.314 C 
BRANCH   9  18
ATOM     18  C   UNL A   1      33.333  19.290  24.451  1.00  0.00     0.036 C 
ATOM     19  C   UNL A   1      32.807  18.210  25.386  1.00  0.00     0.009 C 
ENDBRANCH   9  18
BRANCH  12  20
ATOM     20  O   UNL A   1      37.076  21.925  26.347  1.00  0.00    -0.406 OA
BRANCH  20  21
ATOM     21  C   UNL A   1      37.952  22.688  25.535  1.00  0.00     0.573 C 
ATOM     22  F   UNL A   1      37.593  22.628  24.235  1.00  0.00    -0.132 F 
ATOM     23  F   UNL A   1      37.983  23.977  25.934  1.00  0.00    -0.132 F 
ATOM     24  F   UNL A   1      39.200  22.183  25.648  1.00  0.00    -0.132 F 
ENDBRANCH  20  21
ENDBRANCH  12  20
BRANCH  17  25
ATOM     25  C   UNL A   1      31.044  23.395  23.308  1.00  0.00     0.429 C 
ATOM     26  F   UNL A   1      31.117  22.342  22.457  1.00  0.00    -0.167 F 
ATOM     27  F   UNL A   1      29.920  24.080  22.972  1.00  0.00    -0.167 F 
ATOM     28  F   UNL A   1      32.082  24.217  23.029  1.00  0.00    -0.167 F 
ENDBRANCH  17  25
ENDBRANCH   5   8
ENDBRANCH   3   4
ENDBRANCH   2   3
ENDBRANCH   1   2
BRANCH   1  29
ATOM     29  C   UNL A   1      33.823  28.402  27.100  1.00  0.00     0.116 C 
BRANCH  29  30
ATOM     30  N   UNL A   1      33.615  29.772  27.540  1.00  0.00    -0.352 N 
ATOM     31  C   UNL A   1      34.499  30.609  28.176  1.00  0.00     0.251 C 
ATOM     32  H   UNL A   1      32.723  30.148  27.359  1.00  0.00     0.163 HD
ATOM     33  O   UNL A   1      34.126  31.700  28.582  1.00  0.00    -0.269 OA
BRANCH  31  34
ATOM     34  C   UNL A   1      35.889  30.156  28.402  1.00  0.00     0.039 A 
ATOM     35  C   UNL A   1      36.802  30.255  27.351  1.00  0.00     0.014 A 
ATOM     36  C   UNL A   1      36.289  29.657  29.644  1.00  0.00     0.014 A 
ATOM     37  C   UNL A   1      38.134  29.897  27.563  1.00  0.00     0.010 A 
ATOM     38  C   UNL A   1      37.630  29.371  29.874  1.00  0.00     0.010 A 
ATOM     39  C   UNL A   1      38.563  29.477  28.833  1.00  0.00    -0.014 A 
BRANCH  39  40
ATOM     40  C   UNL A   1      39.984  29.125  29.077  1.00  0.00     0.031 A 
ATOM     41  C   UNL A   1      40.920  30.141  29.674  1.00  0.00     0.074 A 
ATOM     42  C   UNL A   1      40.439  27.909  28.718  1.00  0.00     0.049 A 
ATOM     43  N   UNL A   1      42.194  30.030  29.946  1.00  0.00    -0.248 NA
ATOM     44  C   UNL A   1      40.355  31.465  29.982  1.00  0.00     0.031 C 
ATOM     45  C   UNL A   1      39.641  26.863  28.072  1.00  0.00     0.029 A 
ATOM     46  N   UNL A   1      41.683  27.346  28.844  1.00  0.00    -0.354 N 
ATOM     47  C   UNL A   1      42.585  31.268  30.442  1.00  0.00     0.074 A 
ATOM     48  C   UNL A   1      41.428  32.133  30.379  1.00  0.00     0.031 C 
ATOM     49  C   UNL A   1      40.409  25.777  27.885  1.00  0.00     0.029 A 
ATOM     50  C   UNL A   1      41.756  26.057  28.373  1.00  0.00     0.049 A 
ATOM     51  H   UNL A   1      42.453  27.822  29.234  1.00  0.00     0.167 HD
ATOM     52  C   UNL A   1      43.790  31.641  30.934  1.00  0.00     0.037 A 
ATOM     53  C   UNL A   1      42.791  25.196  28.345  1.00  0.00     0.037 A 
ATOM     54  C   UNL A   1      44.928  30.765  31.022  1.00  0.00     0.049 A 
ATOM     55  C   UNL A   1      44.113  25.623  28.925  1.00  0.00     0.074 A 
ATOM     56  C   UNL A   1      46.178  31.025  31.556  1.00  0.00     0.029 A 
ATOM     57  N   UNL A   1      44.954  29.454  30.567  1.00  0.00    -0.354 N 
ATOM     58  N   UNL A   1      44.446  26.776  29.454  1.00  0.00    -0.248 NA
ATOM     59  C   UNL A   1      45.193  24.628  28.917  1.00  0.00     0.031 C 
ATOM     60  C   UNL A   1      46.970  29.883  31.393  1.00  0.00     0.029 A 
ATOM     61  C   UNL A   1      46.200  28.897  30.797  1.00  0.00     0.049 A 
ATOM     62  H   UNL A   1      44.197  28.990  30.142  1.00  0.00     0.167 HD
ATOM     63  C   UNL A   1      45.766  26.637  29.868  1.00  0.00     0.074 A 
ATOM     64  C   UNL A   1      46.165  25.282  29.540  1.00  0.00     0.031 C 
ATOM     65  C   UNL A   1      46.575  27.544  30.468  1.00  0.00     0.037 A 
BRANCH  52  66
ATOM     66  C   UNL A   1      43.931  33.057  31.424  1.00  0.00     0.058 A 
ATOM     67  C   UNL A   1      43.662  33.403  32.758  1.00  0.00     0.135 A 
ATOM     68  C   UNL A   1      44.360  34.075  30.559  1.00  0.00     0.135 A 
ATOM     69  F   UNL A   1      43.233  32.472  33.626  1.00  0.00    -0.206 F 
ATOM     70  C   UNL A   1      43.779  34.713  33.209  1.00  0.00     0.059 A 
ATOM     71  C   UNL A   1      44.511  35.389  30.994  1.00  0.00     0.059 A 
ATOM     72  F   UNL A   1      44.630  33.802  29.272  1.00  0.00    -0.206 F 
ATOM     73  C   UNL A   1      44.202  35.701  32.318  1.00  0.00     0.060 A 
BRANCH  73  74
ATOM     74  S   UNL A   1      44.346  37.398  32.916  1.00  0.00     0.124 S 
ATOM     75  O   UNL A   1      43.155  37.513  33.752  1.00  0.00    -0.237 OA
ATOM     76  O   UNL A   1      45.620  37.372  33.629  1.00  0.00    -0.237 OA
ATOM     77  O   UNL A   1      44.333  38.192  31.692  1.00  0.00    -0.744 OA
ENDBRANCH  73  74
ENDBRANCH  52  66
BRANCH  53  78
ATOM     78  C   UNL A   1      42.607  23.830  27.787  1.00  0.00     0.058 A 
ATOM     79  C   UNL A   1      42.617  23.610  26.401  1.00  0.00     0.135 A 
ATOM     80  C   UNL A   1      42.433  22.717  28.623  1.00  0.00     0.135 A 
ATOM     81  F   UNL A   1      42.777  24.643  25.560  1.00  0.00    -0.206 F 
ATOM     82  C   UNL A   1      42.442  22.340  25.862  1.00  0.00     0.059 A 
ATOM     83  C   UNL A   1      42.281  21.433  28.110  1.00  0.00     0.059 A 
ATOM     84  F   UNL A   1      42.436  22.872  29.957  1.00  0.00    -0.206 F 
ATOM     85  C   UNL A   1      42.275  21.256  26.727  1.00  0.00     0.060 A 
BRANCH  85  86
ATOM     86  S   UNL A   1      42.097  19.603  26.019  1.00  0.00     0.124 S 
ATOM     87  O   UNL A   1      43.009  19.670  24.884  1.00  0.00    -0.237 OA
ATOM     88  O   UNL A   1      42.515  18.748  27.127  1.00  0.00    -0.237 OA
ATOM     89  O   UNL A   1      40.677  19.534  25.688  1.00  0.00    -0.744 OA
ENDBRANCH  85  86
ENDBRANCH  53  78
BRANCH  65  90
ATOM     90  C   UNL A   1      47.960  27.093  30.839  1.00  0.00     0.058 A 
ATOM     91  C   UNL A   1      48.215  26.393  32.028  1.00  0.00     0.135 A 
ATOM     92  C   UNL A   1      49.040  27.334  29.974  1.00  0.00     0.135 A 
ATOM     93  F   UNL A   1      47.218  26.141  32.891  1.00  0.00    -0.206 F 
ATOM     94  C   UNL A   1      49.499  25.976  32.364  1.00  0.00     0.059 A 
ATOM     95  C   UNL A   1      50.327  26.902  30.276  1.00  0.00     0.059 A 
ATOM     96  F   UNL A   1      48.847  27.989  28.817  1.00  0.00    -0.206 F 
ATOM     97  C   UNL A   1      50.548  26.237  31.481  1.00  0.00     0.060 A 
BRANCH  97  98
ATOM     98  S   UNL A   1      52.208  25.676  31.917  1.00  0.00     0.124 S 
ATOM     99  O   UNL A   1      52.541  26.574  33.018  1.00  0.00    -0.237 OA
ATOM    100  O   UNL A   1      51.982  24.281  32.284  1.00  0.00    -0.237 OA
ATOM    101  O   UNL A   1      52.969  25.879  30.688  1.00  0.00    -0.744 OA
ENDBRANCH  97  98
ENDBRANCH  65  90
ENDBRANCH  39  40
ENDBRANCH  31  34
ENDBRANCH  29  30
ENDBRANCH   1  29
TORSDOF 18
ENDMDL
