MODEL 1
REMARK VINA RESULT:     -11.6      0.000      0.000
REMARK SMILES COc1ccc2c(c1)C=C(C(=O)NCCCCNC(=O)c1ccc(-c3c4nc(c(-c5c(F)cc(S(=O)(=O)[O-])cc5F)c5ccc([nH]5)c(-c5c(F)cc(S(=O)(=O)[O-])cc5F)c5nc(c(-c6c(F)cc(S(=O)(=O)[O-])cc6F)c6ccc3[nH]6)C=C5)C=C4)cc1)[C@H](C(F)(F)F)O2
REMARK SMILES IDX 16 1 15 2 14 3 13 4 11 5 12 6 10 8 3 9 4 10 8 11 5 12 7 13
REMARK SMILES IDX 6 14 9 15 92 16 87 17 2 18 1 19 88 20 89 21 90 22 91 23
REMARK SMILES IDX 17 24 18 25 19 26 20 28 21 29 22 30 86 31 23 32 85 33 24 34
REMARK SMILES IDX 25 35 26 36 79 37 27 38 84 39 78 40 80 41 28 42 83 43 77 44
REMARK SMILES IDX 76 45 29 47 63 48 42 49 62 50 43 51 46 52 61 53 81 54 44 55
REMARK SMILES IDX 45 56 60 58 82 59 47 60 30 61 31 62 40 63 32 64 33 65 39 66
REMARK SMILES IDX 41 67 34 68 35 69 36 70 37 71 38 72 64 73 65 74 74 75 66 76
REMARK SMILES IDX 67 77 73 78 75 79 68 80 69 81 70 82 71 83 72 84 48 85 49 86
REMARK SMILES IDX 58 87 50 88 51 89 57 90 59 91 52 92 53 93 54 94 55 95 56 96
REMARK H PARENT 13 7 18 27 80 46 46 57
REMARK Flexibility Score: inf
ROOT
ATOM      1  C   UNL A   1      33.117  28.064  25.639  1.00  0.00     0.023 C 
ENDROOT
BRANCH   1   2
ATOM      2  C   UNL A   1      31.607  28.225  25.852  1.00  0.00     0.023 C 
BRANCH   2   3
ATOM      3  C   UNL A   1      30.766  27.081  25.271  1.00  0.00     0.116 C 
BRANCH   3   4
ATOM      4  N   UNL A   1      30.627  26.019  26.253  1.00  0.00    -0.352 N 
ATOM      5  C   UNL A   1      31.248  24.821  26.411  1.00  0.00     0.251 C 
ATOM      6  O   UNL A   1      30.795  24.045  27.251  1.00  0.00    -0.270 OA
ATOM      7  H   UNL A   1      29.948  26.206  26.942  1.00  0.00     0.163 HD
BRANCH   5   8
ATOM      8  C   UNL A   1      32.485  24.438  25.676  1.00  0.00     0.067 C 
ATOM      9  C   UNL A   1      37.203  23.450  25.377  1.00  0.00     0.119 A 
ATOM     10  C   UNL A   1      37.028  22.957  24.086  1.00  0.00     0.050 A 
ATOM     11  C   UNL A   1      36.115  23.972  26.073  1.00  0.00     0.058 A 
ATOM     12  C   UNL A   1      35.762  22.997  23.493  1.00  0.00     0.051 A 
ATOM     13  C   UNL A   1      34.850  24.019  25.478  1.00  0.00     0.021 A 
ATOM     14  C   UNL A   1      34.676  23.526  24.189  1.00  0.00     0.128 A 
ATOM     15  C   UNL A   1      33.703  24.487  26.232  1.00  0.00     0.025 C 
ATOM     16  O   UNL A   1      33.463  23.462  23.573  1.00  0.00    -0.475 OA
ATOM     17  C   UNL A   1      32.321  24.133  24.187  1.00  0.00     0.314 C 
BRANCH   9  18
ATOM     18  O   UNL A   1      38.375  23.375  26.077  1.00  0.00    -0.497 OA
ATOM     19  C   UNL A   1      38.940  22.070  26.126  1.00  0.00     0.278 C 
ENDBRANCH   9  18
BRANCH  17  20
ATOM     20  C   UNL A   1      31.056  23.341  23.776  1.00  0.00     0.429 C 
ATOM     21  F   UNL A   1      31.275  22.493  22.747  1.00  0.00    -0.167 F 
ATOM     22  F   UNL A   1      30.626  22.554  24.801  1.00  0.00    -0.167 F 
ATOM     23  F   UNL A   1      30.022  24.150  23.451  1.00  0.00    -0.167 F 
ENDBRANCH  17  20
ENDBRANCH   5   8
ENDBRANCH   3   4
ENDBRANCH   2   3
ENDBRANCH   1   2
BRANCH   1  24
ATOM     24  C   UNL A   1      33.970  28.294  26.883  1.00  0.00     0.116 C 
BRANCH  24  25
ATOM     25  N   UNL A   1      33.790  29.617  27.459  1.00  0.00    -0.352 N 
ATOM     26  C   UNL A   1      34.688  30.386  28.161  1.00  0.00     0.251 C 
ATOM     27  H   UNL A   1      32.901  30.017  27.329  1.00  0.00     0.163 HD
ATOM     28  O   UNL A   1      34.321  31.431  28.674  1.00  0.00    -0.269 OA
BRANCH  26  29
ATOM     29  C   UNL A   1      36.084  29.918  28.324  1.00  0.00     0.039 A 
ATOM     30  C   UNL A   1      36.966  30.076  27.253  1.00  0.00     0.014 A 
ATOM     31  C   UNL A   1      36.522  29.338  29.517  1.00  0.00     0.014 A 
ATOM     32  C   UNL A   1      38.303  29.709  27.401  1.00  0.00     0.010 A 
ATOM     33  C   UNL A   1      37.871  29.036  29.686  1.00  0.00     0.010 A 
ATOM     34  C   UNL A   1      38.776  29.219  28.630  1.00  0.00    -0.014 A 
BRANCH  34  35
ATOM     35  C   UNL A   1      40.219  28.925  28.823  1.00  0.00     0.031 A 
ATOM     36  C   UNL A   1      40.786  27.585  28.441  1.00  0.00     0.074 A 
ATOM     37  C   UNL A   1      41.007  29.859  29.392  1.00  0.00     0.049 A 
ATOM     38  N   UNL A   1      42.018  27.156  28.537  1.00  0.00    -0.248 NA
ATOM     39  C   UNL A   1      39.847  26.586  27.905  1.00  0.00     0.031 C 
ATOM     40  C   UNL A   1      40.556  31.166  29.877  1.00  0.00     0.029 A 
ATOM     41  N   UNL A   1      42.352  29.853  29.669  1.00  0.00    -0.354 N 
ATOM     42  C   UNL A   1      42.001  25.839  28.094  1.00  0.00     0.074 A 
ATOM     43  C   UNL A   1      40.628  25.524  27.765  1.00  0.00     0.031 C 
ATOM     44  C   UNL A   1      41.606  31.842  30.371  1.00  0.00     0.029 A 
ATOM     45  C   UNL A   1      42.799  31.009  30.264  1.00  0.00     0.049 A 
ATOM     46  H   UNL A   1      42.940  29.092  29.462  1.00  0.00     0.167 HD
ATOM     47  C   UNL A   1      43.037  24.980  27.955  1.00  0.00     0.037 A 
ATOM     48  C   UNL A   1      44.032  31.359  30.682  1.00  0.00     0.037 A 
ATOM     49  C   UNL A   1      44.408  25.317  28.245  1.00  0.00     0.049 A 
ATOM     50  C   UNL A   1      45.172  30.399  30.472  1.00  0.00     0.074 A 
ATOM     51  C   UNL A   1      45.543  24.552  28.036  1.00  0.00     0.029 A 
ATOM     52  N   UNL A   1      44.829  26.512  28.809  1.00  0.00    -0.354 N 
ATOM     53  N   UNL A   1      45.153  29.198  29.945  1.00  0.00    -0.248 NA
ATOM     54  C   UNL A   1      46.504  30.846  30.903  1.00  0.00     0.031 C 
ATOM     55  C   UNL A   1      46.645  25.263  28.521  1.00  0.00     0.029 A 
ATOM     56  C   UNL A   1      46.204  26.492  28.984  1.00  0.00     0.049 A 
ATOM     57  H   UNL A   1      44.240  27.263  29.049  1.00  0.00     0.167 HD
ATOM     58  C   UNL A   1      46.471  28.756  29.962  1.00  0.00     0.074 A 
ATOM     59  C   UNL A   1      47.264  29.826  30.528  1.00  0.00     0.031 C 
ATOM     60  C   UNL A   1      46.979  27.568  29.548  1.00  0.00     0.037 A 
BRANCH  47  61
ATOM     61  C   UNL A   1      42.748  23.590  27.460  1.00  0.00     0.058 A 
ATOM     62  C   UNL A   1      42.832  23.259  26.099  1.00  0.00     0.135 A 
ATOM     63  C   UNL A   1      42.467  22.557  28.369  1.00  0.00     0.135 A 
ATOM     64  F   UNL A   1      43.083  24.209  25.185  1.00  0.00    -0.206 F 
ATOM     65  C   UNL A   1      42.638  21.954  25.655  1.00  0.00     0.059 A 
ATOM     66  C   UNL A   1      42.293  21.241  27.951  1.00  0.00     0.059 A 
ATOM     67  F   UNL A   1      42.371  22.820  29.682  1.00  0.00    -0.206 F 
ATOM     68  C   UNL A   1      42.377  20.950  26.590  1.00  0.00     0.060 A 
BRANCH  68  69
ATOM     69  S   UNL A   1      42.176  19.256  26.001  1.00  0.00     0.124 S 
ATOM     70  O   UNL A   1      42.650  18.489  27.150  1.00  0.00    -0.237 OA
ATOM     71  O   UNL A   1      40.742  19.184  25.740  1.00  0.00    -0.237 OA
ATOM     72  O   UNL A   1      43.029  19.203  24.818  1.00  0.00    -0.744 OA
ENDBRANCH  68  69
ENDBRANCH  47  61
BRANCH  48  73
ATOM     73  C   UNL A   1      44.259  32.679  31.328  1.00  0.00     0.058 A 
ATOM     74  C   UNL A   1      44.181  32.829  32.722  1.00  0.00     0.135 A 
ATOM     75  C   UNL A   1      44.540  33.822  30.564  1.00  0.00     0.135 A 
ATOM     76  F   UNL A   1      43.913  31.767  33.496  1.00  0.00    -0.206 F 
ATOM     77  C   UNL A   1      44.336  34.070  33.331  1.00  0.00     0.059 A 
ATOM     78  C   UNL A   1      44.728  35.069  31.153  1.00  0.00     0.059 A 
ATOM     79  F   UNL A   1      44.648  33.730  29.229  1.00  0.00    -0.206 F 
ATOM     80  C   UNL A   1      44.605  35.185  32.537  1.00  0.00     0.060 A 
BRANCH  80  81
ATOM     81  S   UNL A   1      44.819  36.791  33.337  1.00  0.00     0.124 S 
ATOM     82  O   UNL A   1      43.549  37.439  33.035  1.00  0.00    -0.237 OA
ATOM     83  O   UNL A   1      45.030  36.414  34.732  1.00  0.00    -0.237 OA
ATOM     84  O   UNL A   1      45.989  37.345  32.661  1.00  0.00    -0.744 OA
ENDBRANCH  80  81
ENDBRANCH  48  73
BRANCH  60  85
ATOM     85  C   UNL A   1      48.466  27.377  29.672  1.00  0.00     0.058 A 
ATOM     86  C   UNL A   1      49.353  27.837  28.686  1.00  0.00     0.135 A 
ATOM     87  C   UNL A   1      49.011  26.750  30.804  1.00  0.00     0.135 A 
ATOM     88  F   UNL A   1      48.882  28.439  27.581  1.00  0.00    -0.206 F 
ATOM     89  C   UNL A   1      50.726  27.650  28.800  1.00  0.00     0.059 A 
ATOM     90  C   UNL A   1      50.383  26.579  30.953  1.00  0.00     0.059 A 
ATOM     91  F   UNL A   1      48.207  26.303  31.783  1.00  0.00    -0.206 F 
ATOM     92  C   UNL A   1      51.231  27.016  29.936  1.00  0.00     0.060 A 
BRANCH  92  93
ATOM     93  S   UNL A   1      53.016  26.787  30.079  1.00  0.00     0.124 S 
ATOM     94  O   UNL A   1      53.102  25.850  31.195  1.00  0.00    -0.237 OA
ATOM     95  O   UNL A   1      53.369  26.247  28.769  1.00  0.00    -0.237 OA
ATOM     96  O   UNL A   1      53.511  28.133  30.350  1.00  0.00    -0.744 OA
ENDBRANCH  92  93
ENDBRANCH  60  85
ENDBRANCH  34  35
ENDBRANCH  26  29
ENDBRANCH  24  25
ENDBRANCH   1  24
TORSDOF 16
ENDMDL
MODEL 2
REMARK VINA RESULT:     -11.4      5.360     10.007
REMARK SMILES COc1ccc2c(c1)C=C(C(=O)NCCCCNC(=O)c1ccc(-c3c4nc(c(-c5c(F)cc(S(=O)(=O)[O-])cc5F)c5ccc([nH]5)c(-c5c(F)cc(S(=O)(=O)[O-])cc5F)c5nc(c(-c6c(F)cc(S(=O)(=O)[O-])cc6F)c6ccc3[nH]6)C=C5)C=C4)cc1)[C@H](C(F)(F)F)O2
REMARK SMILES IDX 16 1 15 2 14 3 13 4 11 5 12 6 10 8 3 9 4 10 8 11 5 12 7 13
REMARK SMILES IDX 6 14 9 15 92 16 87 17 2 18 1 19 88 20 89 21 90 22 91 23
REMARK SMILES IDX 17 24 18 25 19 26 20 28 21 29 22 30 86 31 23 32 85 33 24 34
REMARK SMILES IDX 25 35 26 36 79 37 27 38 84 39 78 40 80 41 28 42 83 43 77 44
REMARK SMILES IDX 76 45 29 47 63 48 42 49 62 50 43 51 46 52 61 53 81 54 44 55
REMARK SMILES IDX 45 56 60 58 82 59 47 60 30 61 31 62 40 63 32 64 33 65 39 66
REMARK SMILES IDX 41 67 34 68 35 69 36 70 37 71 38 72 64 73 65 74 74 75 66 76
REMARK SMILES IDX 67 77 73 78 75 79 68 80 69 81 70 82 71 83 72 84 48 85 49 86
REMARK SMILES IDX 58 87 50 88 51 89 57 90 59 91 52 92 53 93 54 94 55 95 56 96
REMARK H PARENT 13 7 18 27 80 46 46 57
REMARK Flexibility Score: inf
ROOT
ATOM      1  C   UNL A   1      37.783  23.041  26.014  1.00  0.00     0.023 C 
ENDROOT
BRANCH   1   2
ATOM      2  C   UNL A   1      36.938  23.216  24.747  1.00  0.00     0.023 C 
BRANCH   2   3
ATOM      3  C   UNL A   1      35.732  24.148  24.920  1.00  0.00     0.116 C 
BRANCH   3   4
ATOM      4  N   UNL A   1      34.990  23.783  26.115  1.00  0.00    -0.352 N 
ATOM      5  C   UNL A   1      34.017  22.864  26.353  1.00  0.00     0.251 C 
ATOM      6  O   UNL A   1      33.449  22.898  27.442  1.00  0.00    -0.270 OA
ATOM      7  H   UNL A   1      35.244  24.304  26.911  1.00  0.00     0.163 HD
BRANCH   5   8
ATOM      8  C   UNL A   1      33.665  21.781  25.394  1.00  0.00     0.067 C 
ATOM      9  C   UNL A   1      33.838  17.243  23.747  1.00  0.00     0.119 A 
ATOM     10  C   UNL A   1      32.797  17.515  22.861  1.00  0.00     0.050 A 
ATOM     11  C   UNL A   1      34.329  18.254  24.571  1.00  0.00     0.058 A 
ATOM     12  C   UNL A   1      32.259  18.804  22.796  1.00  0.00     0.051 A 
ATOM     13  C   UNL A   1      33.795  19.546  24.501  1.00  0.00     0.021 A 
ATOM     14  C   UNL A   1      32.757  19.816  23.616  1.00  0.00     0.128 A 
ATOM     15  C   UNL A   1      34.252  20.576  25.414  1.00  0.00     0.025 C 
ATOM     16  O   UNL A   1      32.132  21.024  23.547  1.00  0.00    -0.475 OA
ATOM     17  C   UNL A   1      32.703  22.159  24.268  1.00  0.00     0.314 C 
BRANCH   9  18
ATOM     18  O   UNL A   1      34.370  16.001  23.951  1.00  0.00    -0.497 OA
ATOM     19  C   UNL A   1      35.150  15.890  25.136  1.00  0.00     0.278 C 
ENDBRANCH   9  18
BRANCH  17  20
ATOM     20  C   UNL A   1      31.528  23.093  24.644  1.00  0.00     0.429 C 
ATOM     21  F   UNL A   1      31.923  24.355  24.918  1.00  0.00    -0.167 F 
ATOM     22  F   UNL A   1      30.655  23.211  23.605  1.00  0.00    -0.167 F 
ATOM     23  F   UNL A   1      30.815  22.630  25.696  1.00  0.00    -0.167 F 
ENDBRANCH  17  20
ENDBRANCH   5   8
ENDBRANCH   3   4
ENDBRANCH   2   3
ENDBRANCH   1   2
BRANCH   1  24
ATOM     24  C   UNL A   1      38.633  24.250  26.393  1.00  0.00     0.116 C 
BRANCH  24  25
ATOM     25  N   UNL A   1      40.048  24.057  26.121  1.00  0.00    -0.352 N 
ATOM     26  C   UNL A   1      41.127  24.767  26.594  1.00  0.00     0.251 C 
ATOM     27  H   UNL A   1      40.265  23.314  25.513  1.00  0.00     0.163 HD
ATOM     28  O   UNL A   1      42.244  24.533  26.163  1.00  0.00    -0.269 OA
BRANCH  26  29
ATOM     29  C   UNL A   1      40.917  25.839  27.594  1.00  0.00     0.039 A 
ATOM     30  C   UNL A   1      39.851  25.713  28.487  1.00  0.00     0.014 A 
ATOM     31  C   UNL A   1      41.761  26.950  27.658  1.00  0.00     0.014 A 
ATOM     32  C   UNL A   1      39.670  26.672  29.484  1.00  0.00     0.010 A 
ATOM     33  C   UNL A   1      41.620  27.870  28.694  1.00  0.00     0.010 A 
ATOM     34  C   UNL A   1      40.574  27.740  29.619  1.00  0.00    -0.014 A 
BRANCH  34  35
ATOM     35  C   UNL A   1      40.444  28.703  30.742  1.00  0.00     0.031 A 
ATOM     36  C   UNL A   1      41.292  28.560  31.976  1.00  0.00     0.074 A 
ATOM     37  C   UNL A   1      39.517  29.680  30.664  1.00  0.00     0.049 A 
ATOM     38  N   UNL A   1      41.313  29.307  33.050  1.00  0.00    -0.248 NA
ATOM     39  C   UNL A   1      42.220  27.419  32.025  1.00  0.00     0.031 C 
ATOM     40  C   UNL A   1      38.582  29.871  29.552  1.00  0.00     0.029 A 
ATOM     41  N   UNL A   1      39.202  30.691  31.536  1.00  0.00    -0.354 N 
ATOM     42  C   UNL A   1      42.237  28.720  33.906  1.00  0.00     0.074 A 
ATOM     43  C   UNL A   1      42.727  27.531  33.245  1.00  0.00     0.031 C 
ATOM     44  C   UNL A   1      37.814  30.944  29.800  1.00  0.00     0.029 A 
ATOM     45  C   UNL A   1      38.181  31.502  31.097  1.00  0.00     0.049 A 
ATOM     46  H   UNL A   1      39.662  30.823  32.396  1.00  0.00     0.167 HD
ATOM     47  C   UNL A   1      42.651  29.146  35.122  1.00  0.00     0.037 A 
ATOM     48  C   UNL A   1      37.602  32.572  31.677  1.00  0.00     0.037 A 
ATOM     49  C   UNL A   1      42.189  30.355  35.755  1.00  0.00     0.049 A 
ATOM     50  C   UNL A   1      38.116  33.047  33.009  1.00  0.00     0.074 A 
ATOM     51  C   UNL A   1      42.626  30.928  36.936  1.00  0.00     0.029 A 
ATOM     52  N   UNL A   1      41.183  31.172  35.262  1.00  0.00    -0.354 N 
ATOM     53  N   UNL A   1      39.072  32.541  33.752  1.00  0.00    -0.248 NA
ATOM     54  C   UNL A   1      37.482  34.245  33.577  1.00  0.00     0.031 C 
ATOM     55  C   UNL A   1      41.850  32.064  37.186  1.00  0.00     0.029 A 
ATOM     56  C   UNL A   1      40.964  32.228  36.133  1.00  0.00     0.049 A 
ATOM     57  H   UNL A   1      40.696  31.026  34.420  1.00  0.00     0.167 HD
ATOM     58  C   UNL A   1      39.167  33.372  34.863  1.00  0.00     0.074 A 
ATOM     59  C   UNL A   1      38.190  34.424  34.683  1.00  0.00     0.031 C 
ATOM     60  C   UNL A   1      39.988  33.270  35.938  1.00  0.00     0.037 A 
BRANCH  47  61
ATOM     61  C   UNL A   1      43.664  28.314  35.859  1.00  0.00     0.058 A 
ATOM     62  C   UNL A   1      45.042  28.550  35.739  1.00  0.00     0.135 A 
ATOM     63  C   UNL A   1      43.247  27.323  36.764  1.00  0.00     0.135 A 
ATOM     64  F   UNL A   1      45.498  29.474  34.879  1.00  0.00    -0.206 F 
ATOM     65  C   UNL A   1      45.971  27.828  36.482  1.00  0.00     0.059 A 
ATOM     66  C   UNL A   1      44.156  26.606  37.535  1.00  0.00     0.059 A 
ATOM     67  F   UNL A   1      41.940  27.054  36.914  1.00  0.00    -0.206 F 
ATOM     68  C   UNL A   1      45.518  26.863  37.384  1.00  0.00     0.060 A 
BRANCH  68  69
ATOM     69  S   UNL A   1      46.735  25.970  38.374  1.00  0.00     0.124 S 
ATOM     70  O   UNL A   1      45.876  25.239  39.302  1.00  0.00    -0.237 OA
ATOM     71  O   UNL A   1      47.418  25.159  37.371  1.00  0.00    -0.237 OA
ATOM     72  O   UNL A   1      47.537  27.034  38.969  1.00  0.00    -0.744 OA
ENDBRANCH  68  69
ENDBRANCH  47  61
BRANCH  48  73
ATOM     73  C   UNL A   1      36.480  33.277  31.000  1.00  0.00     0.058 A 
ATOM     74  C   UNL A   1      36.706  34.102  29.887  1.00  0.00     0.135 A 
ATOM     75  C   UNL A   1      35.162  33.155  31.464  1.00  0.00     0.135 A 
ATOM     76  F   UNL A   1      37.949  34.253  29.406  1.00  0.00    -0.206 F 
ATOM     77  C   UNL A   1      35.672  34.810  29.282  1.00  0.00     0.059 A 
ATOM     78  C   UNL A   1      34.107  33.830  30.858  1.00  0.00     0.059 A 
ATOM     79  F   UNL A   1      34.888  32.361  32.511  1.00  0.00    -0.206 F 
ATOM     80  C   UNL A   1      34.376  34.670  29.779  1.00  0.00     0.060 A 
BRANCH  80  81
ATOM     81  S   UNL A   1      33.036  35.580  28.979  1.00  0.00     0.124 S 
ATOM     82  O   UNL A   1      32.360  34.518  28.244  1.00  0.00    -0.237 OA
ATOM     83  O   UNL A   1      32.311  36.128  30.122  1.00  0.00    -0.237 OA
ATOM     84  O   UNL A   1      33.742  36.564  28.165  1.00  0.00    -0.744 OA
ENDBRANCH  80  81
ENDBRANCH  48  73
BRANCH  60  85
ATOM     85  C   UNL A   1      39.879  34.340  36.990  1.00  0.00     0.058 A 
ATOM     86  C   UNL A   1      39.147  34.141  38.171  1.00  0.00     0.135 A 
ATOM     87  C   UNL A   1      40.537  35.569  36.825  1.00  0.00     0.135 A 
ATOM     88  F   UNL A   1      38.494  32.984  38.374  1.00  0.00    -0.206 F 
ATOM     89  C   UNL A   1      39.041  35.136  39.136  1.00  0.00     0.059 A 
ATOM     90  C   UNL A   1      40.470  36.568  37.791  1.00  0.00     0.059 A 
ATOM     91  F   UNL A   1      41.262  35.806  35.720  1.00  0.00    -0.206 F 
ATOM     92  C   UNL A   1      39.704  36.348  38.935  1.00  0.00     0.060 A 
BRANCH  92  93
ATOM     93  S   UNL A   1      39.568  37.630  40.199  1.00  0.00     0.124 S 
ATOM     94  O   UNL A   1      38.953  36.893  41.298  1.00  0.00    -0.237 OA
ATOM     95  O   UNL A   1      40.960  38.023  40.398  1.00  0.00    -0.237 OA
ATOM     96  O   UNL A   1      38.722  38.639  39.569  1.00  0.00    -0.744 OA
ENDBRANCH  92  93
ENDBRANCH  60  85
ENDBRANCH  34  35
ENDBRANCH  26  29
ENDBRANCH  24  25
ENDBRANCH   1  24
TORSDOF 16
ENDMDL
MODEL 3
REMARK VINA RESULT:     -11.3      1.209      1.919
REMARK SMILES COc1ccc2c(c1)C=C(C(=O)NCCCCNC(=O)c1ccc(-c3c4nc(c(-c5c(F)cc(S(=O)(=O)[O-])cc5F)c5ccc([nH]5)c(-c5c(F)cc(S(=O)(=O)[O-])cc5F)c5nc(c(-c6c(F)cc(S(=O)(=O)[O-])cc6F)c6ccc3[nH]6)C=C5)C=C4)cc1)[C@H](C(F)(F)F)O2
REMARK SMILES IDX 16 1 15 2 14 3 13 4 11 5 12 6 10 8 3 9 4 10 8 11 5 12 7 13
REMARK SMILES IDX 6 14 9 15 92 16 87 17 2 18 1 19 88 20 89 21 90 22 91 23
REMARK SMILES IDX 17 24 18 25 19 26 20 28 21 29 22 30 86 31 23 32 85 33 24 34
REMARK SMILES IDX 25 35 26 36 79 37 27 38 84 39 78 40 80 41 28 42 83 43 77 44
REMARK SMILES IDX 76 45 29 47 63 48 42 49 62 50 43 51 46 52 61 53 81 54 44 55
REMARK SMILES IDX 45 56 60 58 82 59 47 60 30 61 31 62 40 63 32 64 33 65 39 66
REMARK SMILES IDX 41 67 34 68 35 69 36 70 37 71 38 72 64 73 65 74 74 75 66 76
REMARK SMILES IDX 67 77 73 78 75 79 68 80 69 81 70 82 71 83 72 84 48 85 49 86
REMARK SMILES IDX 58 87 50 88 51 89 57 90 59 91 52 92 53 93 54 94 55 95 56 96
REMARK H PARENT 13 7 18 27 80 46 46 57
REMARK Flexibility Score: inf
ROOT
ATOM      1  C   UNL A   1      34.067  28.203  25.613  1.00  0.00     0.023 C 
ENDROOT
BRANCH   1   2
ATOM      2  C   UNL A   1      33.261  29.063  24.634  1.00  0.00     0.023 C 
BRANCH   2   3
ATOM      3  C   UNL A   1      33.629  28.850  23.160  1.00  0.00     0.116 C 
BRANCH   3   4
ATOM      4  N   UNL A   1      32.524  28.215  22.460  1.00  0.00    -0.352 N 
ATOM      5  C   UNL A   1      32.035  26.947  22.465  1.00  0.00     0.251 C 
ATOM      6  O   UNL A   1      31.183  26.657  21.629  1.00  0.00    -0.270 OA
ATOM      7  H   UNL A   1      32.032  28.826  21.865  1.00  0.00     0.163 HD
BRANCH   5   8
ATOM      8  C   UNL A   1      32.425  25.925  23.475  1.00  0.00     0.067 C 
ATOM      9  C   UNL A   1      35.624  23.176  25.829  1.00  0.00     0.119 A 
ATOM     10  C   UNL A   1      34.651  22.826  26.763  1.00  0.00     0.050 A 
ATOM     11  C   UNL A   1      35.293  24.008  24.761  1.00  0.00     0.058 A 
ATOM     12  C   UNL A   1      33.345  23.305  26.617  1.00  0.00     0.051 A 
ATOM     13  C   UNL A   1      33.985  24.481  24.611  1.00  0.00     0.021 A 
ATOM     14  C   UNL A   1      33.015  24.132  25.544  1.00  0.00     0.128 A 
ATOM     15  C   UNL A   1      33.661  25.411  23.547  1.00  0.00     0.025 C 
ATOM     16  O   UNL A   1      31.742  24.617  25.514  1.00  0.00    -0.475 OA
ATOM     17  C   UNL A   1      31.297  25.362  24.339  1.00  0.00     0.314 C 
BRANCH   9  18
ATOM     18  O   UNL A   1      36.944  22.836  25.929  1.00  0.00    -0.497 OA
ATOM     19  C   UNL A   1      37.453  22.139  24.797  1.00  0.00     0.278 C 
ENDBRANCH   9  18
BRANCH  17  20
ATOM     20  C   UNL A   1      30.224  26.368  24.821  1.00  0.00     0.429 C 
ATOM     21  F   UNL A   1      29.248  26.576  23.911  1.00  0.00    -0.167 F 
ATOM     22  F   UNL A   1      29.585  25.896  25.928  1.00  0.00    -0.167 F 
ATOM     23  F   UNL A   1      30.753  27.565  25.162  1.00  0.00    -0.167 F 
ENDBRANCH  17  20
ENDBRANCH   5   8
ENDBRANCH   3   4
ENDBRANCH   2   3
ENDBRANCH   1   2
BRANCH   1  24
ATOM     24  C   UNL A   1      33.671  28.352  27.079  1.00  0.00     0.116 C 
BRANCH  24  25
ATOM     25  N   UNL A   1      33.524  29.739  27.489  1.00  0.00    -0.352 N 
ATOM     26  C   UNL A   1      34.443  30.567  28.092  1.00  0.00     0.251 C 
ATOM     27  H   UNL A   1      32.644  30.143  27.312  1.00  0.00     0.163 HD
ATOM     28  O   UNL A   1      34.103  31.675  28.474  1.00  0.00    -0.269 OA
BRANCH  26  29
ATOM     29  C   UNL A   1      35.827  30.088  28.311  1.00  0.00     0.039 A 
ATOM     30  C   UNL A   1      36.735  30.181  27.254  1.00  0.00     0.014 A 
ATOM     31  C   UNL A   1      36.230  29.563  29.541  1.00  0.00     0.014 A 
ATOM     32  C   UNL A   1      38.064  29.803  27.451  1.00  0.00     0.010 A 
ATOM     33  C   UNL A   1      37.570  29.250  29.756  1.00  0.00     0.010 A 
ATOM     34  C   UNL A   1      38.501  29.368  28.714  1.00  0.00    -0.014 A 
BRANCH  34  35
ATOM     35  C   UNL A   1      39.935  29.065  28.954  1.00  0.00     0.031 A 
ATOM     36  C   UNL A   1      40.509  27.726  28.577  1.00  0.00     0.074 A 
ATOM     37  C   UNL A   1      40.707  29.988  29.563  1.00  0.00     0.049 A 
ATOM     38  N   UNL A   1      41.734  27.290  28.712  1.00  0.00    -0.248 NA
ATOM     39  C   UNL A   1      39.585  26.739  27.996  1.00  0.00     0.031 C 
ATOM     40  C   UNL A   1      40.244  31.291  30.047  1.00  0.00     0.029 A 
ATOM     41  N   UNL A   1      42.040  29.971  29.888  1.00  0.00    -0.354 N 
ATOM     42  C   UNL A   1      41.726  25.978  28.253  1.00  0.00     0.074 A 
ATOM     43  C   UNL A   1      40.365  25.674  27.871  1.00  0.00     0.031 C 
ATOM     44  C   UNL A   1      41.280  31.955  30.586  1.00  0.00     0.029 A 
ATOM     45  C   UNL A   1      42.472  31.118  30.512  1.00  0.00     0.049 A 
ATOM     46  H   UNL A   1      42.632  29.210  29.692  1.00  0.00     0.167 HD
ATOM     47  C   UNL A   1      42.763  25.116  28.141  1.00  0.00     0.037 A 
ATOM     48  C   UNL A   1      43.691  31.456  30.977  1.00  0.00     0.037 A 
ATOM     49  C   UNL A   1      44.125  25.442  28.483  1.00  0.00     0.049 A 
ATOM     50  C   UNL A   1      44.833  30.493  30.798  1.00  0.00     0.074 A 
ATOM     51  C   UNL A   1      45.262  24.674  28.306  1.00  0.00     0.029 A 
ATOM     52  N   UNL A   1      44.531  26.627  29.076  1.00  0.00    -0.354 N 
ATOM     53  N   UNL A   1      44.827  29.298  30.256  1.00  0.00    -0.248 NA
ATOM     54  C   UNL A   1      46.150  30.927  31.281  1.00  0.00     0.031 C 
ATOM     55  C   UNL A   1      46.350  25.373  28.838  1.00  0.00     0.029 A 
ATOM     56  C   UNL A   1      45.899  26.599  29.300  1.00  0.00     0.049 A 
ATOM     57  H   UNL A   1      43.937  27.379  29.304  1.00  0.00     0.167 HD
ATOM     58  C   UNL A   1      46.141  28.849  30.314  1.00  0.00     0.074 A 
ATOM     59  C   UNL A   1      46.918  29.908  30.921  1.00  0.00     0.031 C 
ATOM     60  C   UNL A   1      46.658  27.663  29.905  1.00  0.00     0.037 A 
BRANCH  47  61
ATOM     61  C   UNL A   1      42.485  23.733  27.619  1.00  0.00     0.058 A 
ATOM     62  C   UNL A   1      42.437  23.459  26.244  1.00  0.00     0.135 A 
ATOM     63  C   UNL A   1      42.349  22.653  28.507  1.00  0.00     0.135 A 
ATOM     64  F   UNL A   1      42.546  24.455  25.350  1.00  0.00    -0.206 F 
ATOM     65  C   UNL A   1      42.256  22.164  25.766  1.00  0.00     0.059 A 
ATOM     66  C   UNL A   1      42.191  21.347  28.052  1.00  0.00     0.059 A 
ATOM     67  F   UNL A   1      42.383  22.860  29.832  1.00  0.00    -0.206 F 
ATOM     68  C   UNL A   1      42.142  21.113  26.679  1.00  0.00     0.060 A 
BRANCH  68  69
ATOM     69  S   UNL A   1      41.955  19.435  26.041  1.00  0.00     0.124 S 
ATOM     70  O   UNL A   1      40.515  19.372  25.802  1.00  0.00    -0.237 OA
ATOM     71  O   UNL A   1      42.794  19.460  24.847  1.00  0.00    -0.237 OA
ATOM     72  O   UNL A   1      42.446  18.599  27.132  1.00  0.00    -0.744 OA
ENDBRANCH  68  69
ENDBRANCH  47  61
BRANCH  48  73
ATOM     73  C   UNL A   1      43.901  32.768  31.648  1.00  0.00     0.058 A 
ATOM     74  C   UNL A   1      44.211  33.920  30.909  1.00  0.00     0.135 A 
ATOM     75  C   UNL A   1      43.816  32.891  33.043  1.00  0.00     0.135 A 
ATOM     76  F   UNL A   1      44.306  33.854  29.572  1.00  0.00    -0.206 F 
ATOM     77  C   UNL A   1      44.465  35.138  31.531  1.00  0.00     0.059 A 
ATOM     78  C   UNL A   1      44.037  34.105  33.685  1.00  0.00     0.059 A 
ATOM     79  F   UNL A   1      43.500  31.824  33.795  1.00  0.00    -0.206 F 
ATOM     80  C   UNL A   1      44.379  35.219  32.921  1.00  0.00     0.060 A 
BRANCH  80  81
ATOM     81  S   UNL A   1      44.696  36.808  33.720  1.00  0.00     0.124 S 
ATOM     82  O   UNL A   1      43.489  37.551  33.379  1.00  0.00    -0.237 OA
ATOM     83  O   UNL A   1      44.837  36.425  35.122  1.00  0.00    -0.237 OA
ATOM     84  O   UNL A   1      45.924  37.265  33.077  1.00  0.00    -0.744 OA
ENDBRANCH  80  81
ENDBRANCH  48  73
BRANCH  60  85
ATOM     85  C   UNL A   1      48.138  27.463  30.079  1.00  0.00     0.058 A 
ATOM     86  C   UNL A   1      49.053  27.810  29.072  1.00  0.00     0.135 A 
ATOM     87  C   UNL A   1      48.650  26.942  31.279  1.00  0.00     0.135 A 
ATOM     88  F   UNL A   1      48.615  28.307  27.904  1.00  0.00    -0.206 F 
ATOM     89  C   UNL A   1      50.420  27.615  29.234  1.00  0.00     0.059 A 
ATOM     90  C   UNL A   1      50.016  26.766  31.474  1.00  0.00     0.059 A 
ATOM     91  F   UNL A   1      47.819  26.606  32.279  1.00  0.00    -0.206 F 
ATOM     92  C   UNL A   1      50.891  27.088  30.438  1.00  0.00     0.060 A 
BRANCH  92  93
ATOM     93  S   UNL A   1      52.669  26.847  30.642  1.00  0.00     0.124 S 
ATOM     94  O   UNL A   1      52.709  25.615  31.422  1.00  0.00    -0.237 OA
ATOM     95  O   UNL A   1      53.131  26.740  29.262  1.00  0.00    -0.237 OA
ATOM     96  O   UNL A   1      53.096  28.051  31.348  1.00  0.00    -0.744 OA
ENDBRANCH  92  93
ENDBRANCH  60  85
ENDBRANCH  34  35
ENDBRANCH  26  29
ENDBRANCH  24  25
ENDBRANCH   1  24
TORSDOF 16
ENDMDL
