MODEL 1
REMARK VINA RESULT:     -11.2      0.000      0.000
REMARK SMILES CC(C)N(CCCC(=O)NCCCCNC(=O)c1ccc(-c2c3nc(c(-c4c(F)cc(S(=O)(=O)[O-])cc4F)c4ccc([nH]4)c(-c4c(F)cc(S(=O)(=O)[O-])cc4F)c4nc(c(-c5c(F)cc(S(=O)(=O)[O-])cc5F)c5ccc2[nH]5)C=C4)C=C3)cc1)c1cc(Cl)c(Cl)cc1[N+](=O)[O-]
REMARK SMILES IDX 11 1 10 2 8 3 9 4 7 6 6 7 5 8 4 9 2 10 1 11 3 12 84 13 85 14
REMARK SMILES IDX 91 15 86 16 90 17 87 18 88 19 89 20 92 21 93 22 94 23 12 24
REMARK SMILES IDX 13 25 14 26 15 27 16 28 17 30 18 31 19 32 83 33 20 34 82 35
REMARK SMILES IDX 21 36 22 37 23 38 76 39 24 40 81 41 75 42 77 43 25 44 80 45
REMARK SMILES IDX 74 46 73 47 26 49 60 50 39 51 59 52 40 53 43 54 58 55 78 56
REMARK SMILES IDX 41 57 42 58 57 60 79 61 44 62 27 63 28 64 37 65 29 66 30 67
REMARK SMILES IDX 36 68 38 69 31 70 32 71 33 72 34 73 35 74 61 75 62 76 71 77
REMARK SMILES IDX 63 78 64 79 70 80 72 81 65 82 66 83 67 84 68 85 69 86 45 87
REMARK SMILES IDX 46 88 55 89 47 90 48 91 54 92 56 93 49 94 50 95 51 96 52 97
REMARK SMILES IDX 53 98
REMARK H PARENT 10 5 15 29 77 48 43 59
REMARK Flexibility Score: inf
ROOT
ATOM      1  C   UNL A   1      33.532  29.708  26.432  1.00  0.00     0.116 C 
ENDROOT
BRANCH   1   2
ATOM      2  N   UNL A   1      32.494  28.890  27.023  1.00  0.00    -0.356 N 
ATOM      3  C   UNL A   1      32.220  27.575  26.809  1.00  0.00     0.220 C 
ATOM      4  O   UNL A   1      31.171  27.103  27.247  1.00  0.00    -0.275 OA
ATOM      5  H   UNL A   1      31.906  29.349  27.667  1.00  0.00     0.163 HD
BRANCH   3   6
ATOM      6  C   UNL A   1      33.222  26.706  26.075  1.00  0.00     0.102 C 
BRANCH   6   7
ATOM      7  C   UNL A   1      32.744  25.281  25.782  1.00  0.00     0.031 C 
BRANCH   7   8
ATOM      8  C   UNL A   1      33.683  24.115  26.116  1.00  0.00     0.117 C 
BRANCH   8   9
ATOM      9  N   UNL A   1      34.295  23.328  25.006  1.00  0.00    -0.364 N 
BRANCH   9  10
ATOM     10  C   UNL A   1      35.672  23.739  24.614  1.00  0.00     0.076 C 
ATOM     11  C   UNL A   1      36.657  23.809  25.774  1.00  0.00     0.030 C 
ATOM     12  C   UNL A   1      36.213  22.896  23.464  1.00  0.00     0.030 C 
ENDBRANCH   9  10
BRANCH   9  13
ATOM     13  C   UNL A   1      33.631  22.265  24.413  1.00  0.00     0.117 A 
ATOM     14  C   UNL A   1      33.709  21.014  25.061  1.00  0.00     0.055 A 
ATOM     15  C   UNL A   1      32.894  22.262  23.210  1.00  0.00     0.294 A 
ATOM     16  C   UNL A   1      33.212  19.827  24.497  1.00  0.00     0.062 A 
ATOM     17  C   UNL A   1      32.364  21.086  22.639  1.00  0.00     0.110 A 
ATOM     18  Cl  UNL A   1      33.499  18.354  25.352  1.00  0.00    -0.083 Cl
ATOM     19  C   UNL A   1      32.550  19.864  23.273  1.00  0.00     0.066 A 
ATOM     20  Cl  UNL A   1      31.947  18.448  22.494  1.00  0.00    -0.082 Cl
BRANCH  15  21
ATOM     21  N   UNL A   1      32.635  23.458  22.438  1.00  0.00     0.065 N 
ATOM     22  O   UNL A   1      31.628  24.109  22.751  1.00  0.00    -0.258 OA
ATOM     23  O   UNL A   1      33.374  23.696  21.476  1.00  0.00    -0.258 OA
ENDBRANCH  15  21
ENDBRANCH   9  13
ENDBRANCH   8   9
ENDBRANCH   7   8
ENDBRANCH   6   7
ENDBRANCH   3   6
ENDBRANCH   1   2
BRANCH   1  24
ATOM     24  C   UNL A   1      34.616  30.010  27.470  1.00  0.00     0.023 C 
BRANCH  24  25
ATOM     25  C   UNL A   1      34.864  31.494  27.680  1.00  0.00     0.023 C 
BRANCH  25  26
ATOM     26  C   UNL A   1      35.868  31.797  28.784  1.00  0.00     0.116 C 
BRANCH  26  27
ATOM     27  N   UNL A   1      35.606  31.092  30.033  1.00  0.00    -0.352 N 
ATOM     28  C   UNL A   1      36.488  30.316  30.756  1.00  0.00     0.251 C 
ATOM     29  H   UNL A   1      34.697  31.179  30.401  1.00  0.00     0.163 HD
ATOM     30  O   UNL A   1      36.139  29.690  31.743  1.00  0.00    -0.269 OA
BRANCH  28  31
ATOM     31  C   UNL A   1      37.881  30.251  30.270  1.00  0.00     0.039 A 
ATOM     32  C   UNL A   1      38.931  30.368  31.179  1.00  0.00     0.014 A 
ATOM     33  C   UNL A   1      38.119  29.923  28.932  1.00  0.00     0.014 A 
ATOM     34  C   UNL A   1      40.227  30.065  30.761  1.00  0.00     0.010 A 
ATOM     35  C   UNL A   1      39.393  29.537  28.543  1.00  0.00     0.010 A 
ATOM     36  C   UNL A   1      40.458  29.597  29.456  1.00  0.00    -0.014 A 
BRANCH  36  37
ATOM     37  C   UNL A   1      41.806  29.162  29.013  1.00  0.00     0.031 A 
ATOM     38  C   UNL A   1      42.924  30.165  28.948  1.00  0.00     0.074 A 
ATOM     39  C   UNL A   1      41.996  27.898  28.585  1.00  0.00     0.049 A 
ATOM     40  N   UNL A   1      44.136  30.021  28.482  1.00  0.00    -0.248 NA
ATOM     41  C   UNL A   1      42.625  31.524  29.431  1.00  0.00     0.031 C 
ATOM     42  C   UNL A   1      40.970  26.852  28.535  1.00  0.00     0.029 A 
ATOM     43  N   UNL A   1      43.118  27.278  28.095  1.00  0.00    -0.354 N 
ATOM     44  C   UNL A   1      44.733  31.271  28.591  1.00  0.00     0.074 A 
ATOM     45  C   UNL A   1      43.735  32.175  29.117  1.00  0.00     0.031 C 
ATOM     46  C   UNL A   1      41.516  25.718  28.067  1.00  0.00     0.029 A 
ATOM     47  C   UNL A   1      42.920  25.962  27.751  1.00  0.00     0.049 A 
ATOM     48  H   UNL A   1      43.985  27.735  27.997  1.00  0.00     0.167 HD
ATOM     49  C   UNL A   1      46.006  31.627  28.303  1.00  0.00     0.037 A 
ATOM     50  C   UNL A   1      43.775  25.055  27.239  1.00  0.00     0.037 A 
ATOM     51  C   UNL A   1      47.009  30.709  27.835  1.00  0.00     0.049 A 
ATOM     52  C   UNL A   1      45.201  25.463  26.980  1.00  0.00     0.074 A 
ATOM     53  C   UNL A   1      48.348  30.952  27.583  1.00  0.00     0.029 A 
ATOM     54  N   UNL A   1      46.786  29.369  27.561  1.00  0.00    -0.354 N 
ATOM     55  N   UNL A   1      45.765  26.635  27.148  1.00  0.00    -0.248 NA
ATOM     56  C   UNL A   1      46.109  24.425  26.470  1.00  0.00     0.031 C 
ATOM     57  C   UNL A   1      48.930  29.761  27.136  1.00  0.00     0.029 A 
ATOM     58  C   UNL A   1      47.960  28.771  27.140  1.00  0.00     0.049 A 
ATOM     59  H   UNL A   1      45.920  28.909  27.653  1.00  0.00     0.167 HD
ATOM     60  C   UNL A   1      47.099  26.469  26.793  1.00  0.00     0.074 A 
ATOM     61  C   UNL A   1      47.260  25.081  26.409  1.00  0.00     0.031 C 
ATOM     62  C   UNL A   1      48.100  27.381  26.787  1.00  0.00     0.037 A 
BRANCH  49  63
ATOM     63  C   UNL A   1      46.391  33.064  28.512  1.00  0.00     0.058 A 
ATOM     64  C   UNL A   1      46.275  34.012  27.482  1.00  0.00     0.135 A 
ATOM     65  C   UNL A   1      46.853  33.506  29.761  1.00  0.00     0.135 A 
ATOM     66  F   UNL A   1      45.857  33.636  26.263  1.00  0.00    -0.206 F 
ATOM     67  C   UNL A   1      46.628  35.342  27.675  1.00  0.00     0.059 A 
ATOM     68  C   UNL A   1      47.188  34.839  29.984  1.00  0.00     0.059 A 
ATOM     69  F   UNL A   1      46.987  32.641  30.779  1.00  0.00    -0.206 F 
ATOM     70  C   UNL A   1      47.084  35.746  28.931  1.00  0.00     0.060 A 
BRANCH  70  71
ATOM     71  S   UNL A   1      47.526  37.480  29.171  1.00  0.00     0.124 S 
ATOM     72  O   UNL A   1      47.853  37.887  27.808  1.00  0.00    -0.237 OA
ATOM     73  O   UNL A   1      46.297  38.044  29.722  1.00  0.00    -0.237 OA
ATOM     74  O   UNL A   1      48.651  37.418  30.096  1.00  0.00    -0.744 OA
ENDBRANCH  70  71
ENDBRANCH  49  63
BRANCH  50  75
ATOM     75  C   UNL A   1      43.324  23.664  26.972  1.00  0.00     0.058 A 
ATOM     76  C   UNL A   1      43.128  22.757  28.024  1.00  0.00     0.135 A 
ATOM     77  C   UNL A   1      43.084  23.211  25.665  1.00  0.00     0.135 A 
ATOM     78  F   UNL A   1      43.348  23.143  29.290  1.00  0.00    -0.206 F 
ATOM     79  C   UNL A   1      42.737  21.442  27.792  1.00  0.00     0.059 A 
ATOM     80  C   UNL A   1      42.669  21.907  25.409  1.00  0.00     0.059 A 
ATOM     81  F   UNL A   1      43.237  24.045  24.625  1.00  0.00    -0.206 F 
ATOM     82  C   UNL A   1      42.512  21.026  26.479  1.00  0.00     0.060 A 
BRANCH  82  83
ATOM     83  S   UNL A   1      41.974  19.326  26.188  1.00  0.00     0.124 S 
ATOM     84  O   UNL A   1      42.755  18.969  25.010  1.00  0.00    -0.237 OA
ATOM     85  O   UNL A   1      42.354  18.663  27.432  1.00  0.00    -0.237 OA
ATOM     86  O   UNL A   1      40.536  19.465  25.976  1.00  0.00    -0.744 OA
ENDBRANCH  82  83
ENDBRANCH  50  75
BRANCH  62  87
ATOM     87  C   UNL A   1      49.469  26.903  26.396  1.00  0.00     0.058 A 
ATOM     88  C   UNL A   1      50.351  26.353  27.337  1.00  0.00     0.135 A 
ATOM     89  C   UNL A   1      49.874  26.939  25.052  1.00  0.00     0.135 A 
ATOM     90  F   UNL A   1      50.011  26.303  28.634  1.00  0.00    -0.206 F 
ATOM     91  C   UNL A   1      51.598  25.863  26.961  1.00  0.00     0.059 A 
ATOM     92  C   UNL A   1      51.107  26.435  24.650  1.00  0.00     0.059 A 
ATOM     93  F   UNL A   1      49.060  27.448  24.113  1.00  0.00    -0.206 F 
ATOM     94  C   UNL A   1      51.965  25.907  25.614  1.00  0.00     0.060 A 
BRANCH  94  95
ATOM     95  S   UNL A   1      53.565  25.227  25.128  1.00  0.00     0.124 S 
ATOM     96  O   UNL A   1      54.454  25.838  26.112  1.00  0.00    -0.237 OA
ATOM     97  O   UNL A   1      53.353  23.790  25.272  1.00  0.00    -0.237 OA
ATOM     98  O   UNL A   1      53.729  25.694  23.755  1.00  0.00    -0.744 OA
ENDBRANCH  94  95
ENDBRANCH  62  87
ENDBRANCH  36  37
ENDBRANCH  28  31
ENDBRANCH  26  27
ENDBRANCH  25  26
ENDBRANCH  24  25
ENDBRANCH   1  24
TORSDOF 20
ENDMDL
MODEL 2
REMARK VINA RESULT:     -11.2      1.548      2.603
REMARK SMILES CC(C)N(CCCC(=O)NCCCCNC(=O)c1ccc(-c2c3nc(c(-c4c(F)cc(S(=O)(=O)[O-])cc4F)c4ccc([nH]4)c(-c4c(F)cc(S(=O)(=O)[O-])cc4F)c4nc(c(-c5c(F)cc(S(=O)(=O)[O-])cc5F)c5ccc2[nH]5)C=C4)C=C3)cc1)c1cc(Cl)c(Cl)cc1[N+](=O)[O-]
REMARK SMILES IDX 11 1 10 2 8 3 9 4 7 6 6 7 5 8 4 9 2 10 1 11 3 12 84 13 85 14
REMARK SMILES IDX 91 15 86 16 90 17 87 18 88 19 89 20 92 21 93 22 94 23 12 24
REMARK SMILES IDX 13 25 14 26 15 27 16 28 17 30 18 31 19 32 83 33 20 34 82 35
REMARK SMILES IDX 21 36 22 37 23 38 76 39 24 40 81 41 75 42 77 43 25 44 80 45
REMARK SMILES IDX 74 46 73 47 26 49 60 50 39 51 59 52 40 53 43 54 58 55 78 56
REMARK SMILES IDX 41 57 42 58 57 60 79 61 44 62 27 63 28 64 37 65 29 66 30 67
REMARK SMILES IDX 36 68 38 69 31 70 32 71 33 72 34 73 35 74 61 75 62 76 71 77
REMARK SMILES IDX 63 78 64 79 70 80 72 81 65 82 66 83 67 84 68 85 69 86 45 87
REMARK SMILES IDX 46 88 55 89 47 90 48 91 54 92 56 93 49 94 50 95 51 96 52 97
REMARK SMILES IDX 53 98
REMARK H PARENT 10 5 15 29 77 48 43 59
REMARK Flexibility Score: inf
ROOT
ATOM      1  C   UNL A   1      33.540  30.603  26.970  1.00  0.00     0.116 C 
ENDROOT
BRANCH   1   2
ATOM      2  N   UNL A   1      32.692  29.654  27.661  1.00  0.00    -0.356 N 
ATOM      3  C   UNL A   1      32.453  28.349  27.361  1.00  0.00     0.220 C 
ATOM      4  O   UNL A   1      31.544  27.757  27.943  1.00  0.00    -0.275 OA
ATOM      5  H   UNL A   1      32.226  30.001  28.456  1.00  0.00     0.163 HD
BRANCH   3   6
ATOM      6  C   UNL A   1      33.328  27.635  26.349  1.00  0.00     0.102 C 
BRANCH   6   7
ATOM      7  C   UNL A   1      32.948  27.877  24.886  1.00  0.00     0.031 C 
BRANCH   7   8
ATOM      8  C   UNL A   1      31.474  28.135  24.550  1.00  0.00     0.117 C 
BRANCH   8   9
ATOM      9  N   UNL A   1      30.689  27.081  23.844  1.00  0.00    -0.364 N 
BRANCH   9  10
ATOM     10  C   UNL A   1      29.436  27.548  23.187  1.00  0.00     0.076 C 
ATOM     11  C   UNL A   1      28.160  26.991  23.808  1.00  0.00     0.030 C 
ATOM     12  C   UNL A   1      29.387  29.067  23.065  1.00  0.00     0.030 C 
ENDBRANCH   9  10
BRANCH   9  13
ATOM     13  C   UNL A   1      31.126  25.766  23.779  1.00  0.00     0.117 A 
ATOM     14  C   UNL A   1      30.716  24.899  24.814  1.00  0.00     0.055 A 
ATOM     15  C   UNL A   1      31.964  25.176  22.809  1.00  0.00     0.294 A 
ATOM     16  C   UNL A   1      31.204  23.589  24.951  1.00  0.00     0.062 A 
ATOM     17  C   UNL A   1      32.444  23.854  22.915  1.00  0.00     0.110 A 
ATOM     18  Cl  UNL A   1      30.709  22.694  26.343  1.00  0.00    -0.083 Cl
ATOM     19  C   UNL A   1      32.083  23.072  24.004  1.00  0.00     0.066 A 
ATOM     20  Cl  UNL A   1      32.759  21.489  24.124  1.00  0.00    -0.082 Cl
BRANCH  15  21
ATOM     21  N   UNL A   1      32.427  25.877  21.632  1.00  0.00     0.065 N 
ATOM     22  O   UNL A   1      31.558  26.233  20.824  1.00  0.00    -0.258 OA
ATOM     23  O   UNL A   1      33.647  25.992  21.471  1.00  0.00    -0.258 OA
ENDBRANCH  15  21
ENDBRANCH   9  13
ENDBRANCH   8   9
ENDBRANCH   7   8
ENDBRANCH   6   7
ENDBRANCH   3   6
ENDBRANCH   1   2
BRANCH   1  24
ATOM     24  C   UNL A   1      34.772  30.922  27.823  1.00  0.00     0.023 C 
BRANCH  24  25
ATOM     25  C   UNL A   1      35.825  29.826  27.806  1.00  0.00     0.023 C 
BRANCH  25  26
ATOM     26  C   UNL A   1      36.200  29.318  29.192  1.00  0.00     0.116 C 
BRANCH  26  27
ATOM     27  N   UNL A   1      35.902  30.256  30.268  1.00  0.00    -0.352 N 
ATOM     28  C   UNL A   1      36.805  30.918  31.074  1.00  0.00     0.251 C 
ATOM     29  H   UNL A   1      34.950  30.435  30.439  1.00  0.00     0.163 HD
ATOM     30  O   UNL A   1      36.446  31.611  32.012  1.00  0.00    -0.269 OA
BRANCH  28  31
ATOM     31  C   UNL A   1      38.238  30.735  30.771  1.00  0.00     0.039 A 
ATOM     32  C   UNL A   1      39.033  29.988  31.639  1.00  0.00     0.014 A 
ATOM     33  C   UNL A   1      38.736  31.184  29.544  1.00  0.00     0.014 A 
ATOM     34  C   UNL A   1      40.314  29.613  31.233  1.00  0.00     0.010 A 
ATOM     35  C   UNL A   1      39.973  30.735  29.107  1.00  0.00     0.010 A 
ATOM     36  C   UNL A   1      40.772  29.940  29.945  1.00  0.00    -0.014 A 
BRANCH  36  37
ATOM     37  C   UNL A   1      42.083  29.463  29.441  1.00  0.00     0.031 A 
ATOM     38  C   UNL A   1      43.236  30.425  29.350  1.00  0.00     0.074 A 
ATOM     39  C   UNL A   1      42.208  28.201  28.983  1.00  0.00     0.049 A 
ATOM     40  N   UNL A   1      44.423  30.244  28.835  1.00  0.00    -0.248 NA
ATOM     41  C   UNL A   1      43.008  31.783  29.870  1.00  0.00     0.031 C 
ATOM     42  C   UNL A   1      41.141  27.196  28.955  1.00  0.00     0.029 A 
ATOM     43  N   UNL A   1      43.286  27.549  28.438  1.00  0.00    -0.354 N 
ATOM     44  C   UNL A   1      45.071  31.468  28.943  1.00  0.00     0.074 A 
ATOM     45  C   UNL A   1      44.129  32.399  29.524  1.00  0.00     0.031 C 
ATOM     46  C   UNL A   1      41.625  26.052  28.445  1.00  0.00     0.029 A 
ATOM     47  C   UNL A   1      43.024  26.248  28.079  1.00  0.00     0.049 A 
ATOM     48  H   UNL A   1      44.165  27.975  28.315  1.00  0.00     0.167 HD
ATOM     49  C   UNL A   1      46.345  31.782  28.611  1.00  0.00     0.037 A 
ATOM     50  C   UNL A   1      43.824  25.320  27.517  1.00  0.00     0.037 A 
ATOM     51  C   UNL A   1      47.293  30.836  28.087  1.00  0.00     0.049 A 
ATOM     52  C   UNL A   1      45.253  25.680  27.209  1.00  0.00     0.074 A 
ATOM     53  C   UNL A   1      48.629  31.033  27.787  1.00  0.00     0.029 A 
ATOM     54  N   UNL A   1      47.007  29.511  27.798  1.00  0.00    -0.354 N 
ATOM     55  N   UNL A   1      45.868  26.826  27.376  1.00  0.00    -0.248 NA
ATOM     56  C   UNL A   1      46.100  24.619  26.645  1.00  0.00     0.031 C 
ATOM     57  C   UNL A   1      49.147  29.831  27.296  1.00  0.00     0.029 A 
ATOM     58  C   UNL A   1      48.141  28.878  27.320  1.00  0.00     0.049 A 
ATOM     59  H   UNL A   1      46.129  29.083  27.915  1.00  0.00     0.167 HD
ATOM     60  C   UNL A   1      47.179  26.617  26.965  1.00  0.00     0.074 A 
ATOM     61  C   UNL A   1      47.272  25.232  26.550  1.00  0.00     0.031 C 
ATOM     62  C   UNL A   1      48.214  27.491  26.936  1.00  0.00     0.037 A 
BRANCH  49  63
ATOM     63  C   UNL A   1      46.792  33.199  28.830  1.00  0.00     0.058 A 
ATOM     64  C   UNL A   1      47.348  33.613  30.051  1.00  0.00     0.135 A 
ATOM     65  C   UNL A   1      46.690  34.148  27.801  1.00  0.00     0.135 A 
ATOM     66  F   UNL A   1      47.450  32.749  31.074  1.00  0.00    -0.206 F 
ATOM     67  C   UNL A   1      47.765  34.924  30.253  1.00  0.00     0.059 A 
ATOM     68  C   UNL A   1      47.124  35.459  27.972  1.00  0.00     0.059 A 
ATOM     69  F   UNL A   1      46.161  33.806  26.615  1.00  0.00    -0.206 F 
ATOM     70  C   UNL A   1      47.648  35.840  29.207  1.00  0.00     0.060 A 
BRANCH  70  71
ATOM     71  S   UNL A   1      48.205  37.535  29.480  1.00  0.00     0.124 S 
ATOM     72  O   UNL A   1      47.260  38.287  28.662  1.00  0.00    -0.237 OA
ATOM     73  O   UNL A   1      48.054  37.687  30.924  1.00  0.00    -0.237 OA
ATOM     74  O   UNL A   1      49.582  37.520  28.997  1.00  0.00    -0.744 OA
ENDBRANCH  70  71
ENDBRANCH  49  63
BRANCH  50  75
ATOM     75  C   UNL A   1      43.309  23.953  27.242  1.00  0.00     0.058 A 
ATOM     76  C   UNL A   1      42.879  23.591  25.957  1.00  0.00     0.135 A 
ATOM     77  C   UNL A   1      43.231  22.983  28.255  1.00  0.00     0.135 A 
ATOM     78  F   UNL A   1      42.932  24.485  24.957  1.00  0.00    -0.206 F 
ATOM     79  C   UNL A   1      42.365  22.327  25.688  1.00  0.00     0.059 A 
ATOM     80  C   UNL A   1      42.742  21.704  28.004  1.00  0.00     0.059 A 
ATOM     81  F   UNL A   1      43.649  23.273  29.496  1.00  0.00    -0.206 F 
ATOM     82  C   UNL A   1      42.299  21.390  26.720  1.00  0.00     0.060 A 
BRANCH  82  83
ATOM     83  S   UNL A   1      41.658  19.741  26.355  1.00  0.00     0.124 S 
ATOM     84  O   UNL A   1      42.428  19.383  25.170  1.00  0.00    -0.237 OA
ATOM     85  O   UNL A   1      41.981  19.006  27.575  1.00  0.00    -0.237 OA
ATOM     86  O   UNL A   1      40.234  19.979  26.136  1.00  0.00    -0.744 OA
ENDBRANCH  82  83
ENDBRANCH  50  75
BRANCH  62  87
ATOM     87  C   UNL A   1      49.547  26.970  26.483  1.00  0.00     0.058 A 
ATOM     88  C   UNL A   1      50.422  26.322  27.368  1.00  0.00     0.135 A 
ATOM     89  C   UNL A   1      49.922  27.063  25.133  1.00  0.00     0.135 A 
ATOM     90  F   UNL A   1      50.110  26.214  28.669  1.00  0.00    -0.206 F 
ATOM     91  C   UNL A   1      51.633  25.795  26.932  1.00  0.00     0.059 A 
ATOM     92  C   UNL A   1      51.118  26.523  24.671  1.00  0.00     0.059 A 
ATOM     93  F   UNL A   1      49.113  27.666  24.247  1.00  0.00    -0.206 F 
ATOM     94  C   UNL A   1      51.970  25.899  25.581  1.00  0.00     0.060 A 
BRANCH  94  95
ATOM     95  S   UNL A   1      53.523  25.170  25.015  1.00  0.00     0.124 S 
ATOM     96  O   UNL A   1      53.283  23.750  25.253  1.00  0.00    -0.237 OA
ATOM     97  O   UNL A   1      53.570  25.579  23.616  1.00  0.00    -0.237 OA
ATOM     98  O   UNL A   1      54.523  25.792  25.877  1.00  0.00    -0.744 OA
ENDBRANCH  94  95
ENDBRANCH  62  87
ENDBRANCH  36  37
ENDBRANCH  28  31
ENDBRANCH  26  27
ENDBRANCH  25  26
ENDBRANCH  24  25
ENDBRANCH   1  24
TORSDOF 20
ENDMDL
MODEL 3
REMARK VINA RESULT:     -10.9      1.077      2.126
REMARK SMILES CC(C)N(CCCC(=O)NCCCCNC(=O)c1ccc(-c2c3nc(c(-c4c(F)cc(S(=O)(=O)[O-])cc4F)c4ccc([nH]4)c(-c4c(F)cc(S(=O)(=O)[O-])cc4F)c4nc(c(-c5c(F)cc(S(=O)(=O)[O-])cc5F)c5ccc2[nH]5)C=C4)C=C3)cc1)c1cc(Cl)c(Cl)cc1[N+](=O)[O-]
REMARK SMILES IDX 11 1 10 2 8 3 9 4 7 6 6 7 5 8 4 9 2 10 1 11 3 12 84 13 85 14
REMARK SMILES IDX 91 15 86 16 90 17 87 18 88 19 89 20 92 21 93 22 94 23 12 24
REMARK SMILES IDX 13 25 14 26 15 27 16 28 17 30 18 31 19 32 83 33 20 34 82 35
REMARK SMILES IDX 21 36 22 37 23 38 76 39 24 40 81 41 75 42 77 43 25 44 80 45
REMARK SMILES IDX 74 46 73 47 26 49 60 50 39 51 59 52 40 53 43 54 58 55 78 56
REMARK SMILES IDX 41 57 42 58 57 60 79 61 44 62 27 63 28 64 37 65 29 66 30 67
REMARK SMILES IDX 36 68 38 69 31 70 32 71 33 72 34 73 35 74 61 75 62 76 71 77
REMARK SMILES IDX 63 78 64 79 70 80 72 81 65 82 66 83 67 84 68 85 69 86 45 87
REMARK SMILES IDX 46 88 55 89 47 90 48 91 54 92 56 93 49 94 50 95 51 96 52 97
REMARK SMILES IDX 53 98
REMARK H PARENT 10 5 15 29 77 48 43 59
REMARK Flexibility Score: inf
ROOT
ATOM      1  C   UNL A   1      33.370  29.662  26.446  1.00  0.00     0.116 C 
ENDROOT
BRANCH   1   2
ATOM      2  N   UNL A   1      32.651  28.526  26.983  1.00  0.00    -0.356 N 
ATOM      3  C   UNL A   1      32.665  27.232  26.562  1.00  0.00     0.220 C 
ATOM      4  O   UNL A   1      31.832  26.446  27.015  1.00  0.00    -0.275 OA
ATOM      5  H   UNL A   1      32.075  28.715  27.759  1.00  0.00     0.163 HD
BRANCH   3   6
ATOM      6  C   UNL A   1      33.723  26.771  25.579  1.00  0.00     0.102 C 
BRANCH   6   7
ATOM      7  C   UNL A   1      34.026  25.270  25.618  1.00  0.00     0.031 C 
BRANCH   7   8
ATOM      8  C   UNL A   1      33.772  24.443  24.351  1.00  0.00     0.117 C 
BRANCH   8   9
ATOM      9  N   UNL A   1      32.606  23.513  24.307  1.00  0.00    -0.364 N 
BRANCH   9  10
ATOM     10  C   UNL A   1      31.333  24.107  23.811  1.00  0.00     0.076 C 
ATOM     11  C   UNL A   1      30.396  24.586  24.914  1.00  0.00     0.030 C 
ATOM     12  C   UNL A   1      31.577  25.193  22.768  1.00  0.00     0.030 C 
ENDBRANCH   9  10
BRANCH   9  13
ATOM     13  C   UNL A   1      32.722  22.180  24.668  1.00  0.00     0.117 A 
ATOM     14  C   UNL A   1      32.636  21.222  23.636  1.00  0.00     0.055 A 
ATOM     15  C   UNL A   1      32.892  21.642  25.962  1.00  0.00     0.294 A 
ATOM     16  C   UNL A   1      32.588  19.839  23.877  1.00  0.00     0.062 A 
ATOM     17  C   UNL A   1      32.872  20.256  26.223  1.00  0.00     0.110 A 
ATOM     18  Cl  UNL A   1      32.351  18.798  22.519  1.00  0.00    -0.083 Cl
ATOM     19  C   UNL A   1      32.692  19.357  25.179  1.00  0.00     0.066 A 
ATOM     20  Cl  UNL A   1      32.600  17.677  25.563  1.00  0.00    -0.082 Cl
BRANCH  15  21
ATOM     21  N   UNL A   1      33.076  22.459  27.141  1.00  0.00     0.065 N 
ATOM     22  O   UNL A   1      34.205  22.446  27.650  1.00  0.00    -0.258 OA
ATOM     23  O   UNL A   1      32.086  23.035  27.605  1.00  0.00    -0.258 OA
ENDBRANCH  15  21
ENDBRANCH   9  13
ENDBRANCH   8   9
ENDBRANCH   7   8
ENDBRANCH   6   7
ENDBRANCH   3   6
ENDBRANCH   1   2
BRANCH   1  24
ATOM     24  C   UNL A   1      34.618  29.939  27.289  1.00  0.00     0.023 C 
BRANCH  24  25
ATOM     25  C   UNL A   1      34.765  31.394  27.702  1.00  0.00     0.023 C 
BRANCH  25  26
ATOM     26  C   UNL A   1      35.907  31.640  28.678  1.00  0.00     0.116 C 
BRANCH  26  27
ATOM     27  N   UNL A   1      35.672  31.104  30.013  1.00  0.00    -0.352 N 
ATOM     28  C   UNL A   1      36.581  30.461  30.828  1.00  0.00     0.251 C 
ATOM     29  H   UNL A   1      34.762  31.211  30.373  1.00  0.00     0.163 HD
ATOM     30  O   UNL A   1      36.254  29.964  31.894  1.00  0.00    -0.269 OA
BRANCH  28  31
ATOM     31  C   UNL A   1      37.973  30.373  30.345  1.00  0.00     0.039 A 
ATOM     32  C   UNL A   1      39.020  30.375  31.266  1.00  0.00     0.014 A 
ATOM     33  C   UNL A   1      38.207  30.137  28.987  1.00  0.00     0.014 A 
ATOM     34  C   UNL A   1      40.305  30.049  30.831  1.00  0.00     0.010 A 
ATOM     35  C   UNL A   1      39.467  29.727  28.576  1.00  0.00     0.010 A 
ATOM     36  C   UNL A   1      40.526  29.672  29.495  1.00  0.00    -0.014 A 
BRANCH  36  37
ATOM     37  C   UNL A   1      41.858  29.214  29.027  1.00  0.00     0.031 A 
ATOM     38  C   UNL A   1      42.987  30.202  28.922  1.00  0.00     0.074 A 
ATOM     39  C   UNL A   1      42.022  27.942  28.610  1.00  0.00     0.049 A 
ATOM     40  N   UNL A   1      44.186  30.036  28.431  1.00  0.00    -0.248 NA
ATOM     41  C   UNL A   1      42.716  31.570  29.396  1.00  0.00     0.031 C 
ATOM     42  C   UNL A   1      40.982  26.909  28.597  1.00  0.00     0.029 A 
ATOM     43  N   UNL A   1      43.124  27.302  28.102  1.00  0.00    -0.354 N 
ATOM     44  C   UNL A   1      44.801  31.280  28.510  1.00  0.00     0.074 A 
ATOM     45  C   UNL A   1      43.826  32.204  29.048  1.00  0.00     0.031 C 
ATOM     46  C   UNL A   1      41.503  25.763  28.131  1.00  0.00     0.029 A 
ATOM     47  C   UNL A   1      42.902  25.984  27.780  1.00  0.00     0.049 A 
ATOM     48  H   UNL A   1      43.994  27.747  27.979  1.00  0.00     0.167 HD
ATOM     49  C   UNL A   1      46.071  31.616  28.188  1.00  0.00     0.037 A 
ATOM     50  C   UNL A   1      43.733  25.060  27.259  1.00  0.00     0.037 A 
ATOM     51  C   UNL A   1      47.051  30.680  27.708  1.00  0.00     0.049 A 
ATOM     52  C   UNL A   1      45.157  25.447  26.962  1.00  0.00     0.074 A 
ATOM     53  C   UNL A   1      48.386  30.902  27.422  1.00  0.00     0.029 A 
ATOM     54  N   UNL A   1      46.804  29.339  27.457  1.00  0.00    -0.354 N 
ATOM     55  N   UNL A   1      45.740  26.614  27.102  1.00  0.00    -0.248 NA
ATOM     56  C   UNL A   1      46.040  24.392  26.444  1.00  0.00     0.031 C 
ATOM     57  C   UNL A   1      48.943  29.699  26.976  1.00  0.00     0.029 A 
ATOM     58  C   UNL A   1      47.961  28.721  27.016  1.00  0.00     0.049 A 
ATOM     59  H   UNL A   1      45.935  28.892  27.574  1.00  0.00     0.167 HD
ATOM     60  C   UNL A   1      47.063  26.426  26.718  1.00  0.00     0.074 A 
ATOM     61  C   UNL A   1      47.197  25.032  26.348  1.00  0.00     0.031 C 
ATOM     62  C   UNL A   1      48.075  27.326  26.677  1.00  0.00     0.037 A 
BRANCH  49  63
ATOM     63  C   UNL A   1      46.478  33.051  28.369  1.00  0.00     0.058 A 
ATOM     64  C   UNL A   1      46.975  33.524  29.594  1.00  0.00     0.135 A 
ATOM     65  C   UNL A   1      46.398  33.957  27.300  1.00  0.00     0.135 A 
ATOM     66  F   UNL A   1      47.053  32.702  30.653  1.00  0.00    -0.206 F 
ATOM     67  C   UNL A   1      47.355  34.850  29.761  1.00  0.00     0.059 A 
ATOM     68  C   UNL A   1      46.796  35.284  27.437  1.00  0.00     0.059 A 
ATOM     69  F   UNL A   1      45.926  33.558  26.108  1.00  0.00    -0.206 F 
ATOM     70  C   UNL A   1      47.261  35.724  28.676  1.00  0.00     0.060 A 
BRANCH  70  71
ATOM     71  S   UNL A   1      47.771  37.440  28.904  1.00  0.00     0.124 S 
ATOM     72  O   UNL A   1      48.654  37.329  30.060  1.00  0.00    -0.237 OA
ATOM     73  O   UNL A   1      48.424  37.745  27.635  1.00  0.00    -0.237 OA
ATOM     74  O   UNL A   1      46.512  38.138  29.139  1.00  0.00    -0.744 OA
ENDBRANCH  70  71
ENDBRANCH  49  63
BRANCH  50  75
ATOM     75  C   UNL A   1      43.258  23.672  27.020  1.00  0.00     0.058 A 
ATOM     76  C   UNL A   1      43.079  22.780  28.088  1.00  0.00     0.135 A 
ATOM     77  C   UNL A   1      42.979  23.207  25.726  1.00  0.00     0.135 A 
ATOM     78  F   UNL A   1      43.337  23.178  29.343  1.00  0.00    -0.206 F 
ATOM     79  C   UNL A   1      42.666  21.468  27.881  1.00  0.00     0.059 A 
ATOM     80  C   UNL A   1      42.542  21.905  25.496  1.00  0.00     0.059 A 
ATOM     81  F   UNL A   1      43.115  24.027  24.673  1.00  0.00    -0.206 F 
ATOM     82  C   UNL A   1      42.402  21.039  26.580  1.00  0.00     0.060 A 
BRANCH  82  83
ATOM     83  S   UNL A   1      41.836  19.343  26.323  1.00  0.00     0.124 S 
ATOM     84  O   UNL A   1      42.468  19.012  25.051  1.00  0.00    -0.237 OA
ATOM     85  O   UNL A   1      42.367  18.658  27.498  1.00  0.00    -0.237 OA
ATOM     86  O   UNL A   1      40.383  19.479  26.291  1.00  0.00    -0.744 OA
ENDBRANCH  82  83
ENDBRANCH  50  75
BRANCH  62  87
ATOM     87  C   UNL A   1      49.428  26.825  26.260  1.00  0.00     0.058 A 
ATOM     88  C   UNL A   1      49.886  26.957  24.941  1.00  0.00     0.135 A 
ATOM     89  C   UNL A   1      50.299  26.268  27.210  1.00  0.00     0.135 A 
ATOM     90  F   UNL A   1      49.088  27.477  23.997  1.00  0.00    -0.206 F 
ATOM     91  C   UNL A   1      51.161  26.539  24.573  1.00  0.00     0.059 A 
ATOM     92  C   UNL A   1      51.586  25.865  26.869  1.00  0.00     0.059 A 
ATOM     93  F   UNL A   1      49.909  26.131  28.487  1.00  0.00    -0.206 F 
ATOM     94  C   UNL A   1      52.004  25.996  25.545  1.00  0.00     0.060 A 
BRANCH  94  95
ATOM     95  S   UNL A   1      53.673  25.501  25.067  1.00  0.00     0.124 S 
ATOM     96  O   UNL A   1      53.693  25.863  23.653  1.00  0.00    -0.237 OA
ATOM     97  O   UNL A   1      54.506  26.319  25.942  1.00  0.00    -0.237 OA
ATOM     98  O   UNL A   1      53.696  24.069  25.351  1.00  0.00    -0.744 OA
ENDBRANCH  94  95
ENDBRANCH  62  87
ENDBRANCH  36  37
ENDBRANCH  28  31
ENDBRANCH  26  27
ENDBRANCH  25  26
ENDBRANCH  24  25
ENDBRANCH   1  24
TORSDOF 20
ENDMDL
