MODEL 1
REMARK VINA RESULT:     -11.0      0.000      0.000
REMARK SMILES CC(C)(C)SCC(=O)NC1(CC(=O)NCCCCNC(=O)c2ccc(-c3c4nc(c(-c5c(F)cc(S(=O)(=O)[O-])cc5F)c5ccc([nH]5)c(-c5c(F)cc(S(=O)(=O)[O-])cc5F)c5nc(c(-c6c(F)cc(S(=O)(=O)[O-])cc6F)c6ccc3[nH]6)C=C5)C=C4)cc2)CCC1
REMARK SMILES IDX 15 1 14 2 12 3 13 4 11 6 10 7 88 8 90 9 89 10 9 11 7 12 8 13
REMARK SMILES IDX 6 15 5 16 2 17 1 18 3 19 4 20 16 21 17 22 18 23 19 24 20 25
REMARK SMILES IDX 21 27 22 28 23 29 87 30 24 31 86 32 25 33 26 34 27 35 80 36
REMARK SMILES IDX 28 37 85 38 79 39 81 40 29 41 84 42 78 43 77 44 30 46 64 47
REMARK SMILES IDX 43 48 63 49 44 50 47 51 62 52 82 53 45 54 46 55 61 57 83 58
REMARK SMILES IDX 48 59 31 60 32 61 41 62 33 63 34 64 40 65 42 66 35 67 36 68
REMARK SMILES IDX 37 69 38 70 39 71 65 72 66 73 75 74 67 75 68 76 74 77 76 78
REMARK SMILES IDX 69 79 70 80 71 81 72 82 73 83 49 84 50 85 59 86 51 87 52 88
REMARK SMILES IDX 58 89 60 90 53 91 54 92 55 93 56 94 57 95
REMARK H PARENT 14 5 9 14 19 26 81 45 47 56
REMARK Flexibility Score: inf
ROOT
ATOM      1  C   UNL A   1      36.415  21.192  24.953  1.00  0.00     0.116 C 
ENDROOT
BRANCH   1   2
ATOM      2  N   UNL A   1      35.683  21.226  26.201  1.00  0.00    -0.356 N 
ATOM      3  C   UNL A   1      34.541  21.899  26.512  1.00  0.00     0.222 C 
ATOM      4  O   UNL A   1      34.126  21.855  27.670  1.00  0.00    -0.275 OA
ATOM      5  H   UNL A   1      36.065  20.684  26.929  1.00  0.00     0.163 HD
BRANCH   3   6
ATOM      6  C   UNL A   1      33.783  22.660  25.447  1.00  0.00     0.128 C 
BRANCH   6   7
ATOM      7  C   UNL A   1      32.420  22.094  25.028  1.00  0.00     0.049 C 
ATOM      8  C   UNL A   1      32.522  20.733  24.261  1.00  0.00     0.029 C 
ATOM      9  C   UNL A   1      31.763  22.602  23.684  1.00  0.00     0.029 C 
ATOM     10  C   UNL A   1      32.541  21.515  22.943  1.00  0.00     0.005 C 
BRANCH   7  11
ATOM     11  N   UNL A   1      31.421  22.191  26.119  1.00  0.00    -0.349 N 
ATOM     12  C   UNL A   1      30.934  23.223  26.867  1.00  0.00     0.230 C 
ATOM     13  O   UNL A   1      29.977  22.963  27.606  1.00  0.00    -0.274 OA
ATOM     14  H   UNL A   1      31.023  21.322  26.356  1.00  0.00     0.164 HD
BRANCH  12  15
ATOM     15  C   UNL A   1      31.477  24.629  26.808  1.00  0.00     0.169 C 
BRANCH  15  16
ATOM     16  S   UNL A   1      30.636  25.788  25.693  1.00  0.00    -0.146 SA
BRANCH  16  17
ATOM     17  C   UNL A   1      31.734  27.277  25.551  1.00  0.00     0.008 C 
ATOM     18  C   UNL A   1      33.031  26.745  24.909  1.00  0.00     0.022 C 
ATOM     19  C   UNL A   1      32.126  27.977  26.856  1.00  0.00     0.022 C 
ATOM     20  C   UNL A   1      31.067  28.280  24.607  1.00  0.00     0.022 C 
ENDBRANCH  16  17
ENDBRANCH  15  16
ENDBRANCH  12  15
ENDBRANCH   7  11
ENDBRANCH   6   7
ENDBRANCH   3   6
ENDBRANCH   1   2
BRANCH   1  21
ATOM     21  C   UNL A   1      37.583  22.179  24.979  1.00  0.00     0.023 C 
BRANCH  21  22
ATOM     22  C   UNL A   1      37.986  22.671  26.362  1.00  0.00     0.023 C 
BRANCH  22  23
ATOM     23  C   UNL A   1      38.714  24.006  26.376  1.00  0.00     0.116 C 
BRANCH  23  24
ATOM     24  N   UNL A   1      40.143  23.912  26.094  1.00  0.00    -0.352 N 
ATOM     25  C   UNL A   1      41.148  24.743  26.534  1.00  0.00     0.251 C 
ATOM     26  H   UNL A   1      40.420  23.164  25.519  1.00  0.00     0.163 HD
ATOM     27  O   UNL A   1      42.304  24.579  26.159  1.00  0.00    -0.269 OA
BRANCH  25  28
ATOM     28  C   UNL A   1      40.790  25.861  27.425  1.00  0.00     0.039 A 
ATOM     29  C   UNL A   1      39.834  25.651  28.421  1.00  0.00     0.014 A 
ATOM     30  C   UNL A   1      41.495  27.065  27.350  1.00  0.00     0.014 A 
ATOM     31  C   UNL A   1      39.653  26.624  29.405  1.00  0.00     0.010 A 
ATOM     32  C   UNL A   1      41.377  27.987  28.379  1.00  0.00     0.010 A 
ATOM     33  C   UNL A   1      40.461  27.773  29.420  1.00  0.00    -0.014 A 
BRANCH  33  34
ATOM     34  C   UNL A   1      40.380  28.764  30.520  1.00  0.00     0.031 A 
ATOM     35  C   UNL A   1      41.267  28.614  31.725  1.00  0.00     0.074 A 
ATOM     36  C   UNL A   1      39.447  29.736  30.476  1.00  0.00     0.049 A 
ATOM     37  N   UNL A   1      41.273  29.301  32.836  1.00  0.00    -0.248 NA
ATOM     38  C   UNL A   1      42.252  27.520  31.689  1.00  0.00     0.031 C 
ATOM     39  C   UNL A   1      38.483  29.941  29.391  1.00  0.00     0.029 A 
ATOM     40  N   UNL A   1      39.145  30.727  31.375  1.00  0.00    -0.354 N 
ATOM     41  C   UNL A   1      42.239  28.708  33.640  1.00  0.00     0.074 A 
ATOM     42  C   UNL A   1      42.761  27.574  32.910  1.00  0.00     0.031 C 
ATOM     43  C   UNL A   1      37.714  31.004  29.677  1.00  0.00     0.029 A 
ATOM     44  C   UNL A   1      38.105  31.537  30.978  1.00  0.00     0.049 A 
ATOM     45  H   UNL A   1      39.627  30.849  32.224  1.00  0.00     0.167 HD
ATOM     46  C   UNL A   1      42.669  29.091  34.864  1.00  0.00     0.037 A 
ATOM     47  C   UNL A   1      37.532  32.586  31.598  1.00  0.00     0.037 A 
ATOM     48  C   UNL A   1      42.178  30.248  35.562  1.00  0.00     0.049 A 
ATOM     49  C   UNL A   1      38.057  33.019  32.938  1.00  0.00     0.074 A 
ATOM     50  C   UNL A   1      42.597  30.765  36.775  1.00  0.00     0.029 A 
ATOM     51  N   UNL A   1      41.162  31.074  35.104  1.00  0.00    -0.354 N 
ATOM     52  N   UNL A   1      39.015  32.484  33.657  1.00  0.00    -0.248 NA
ATOM     53  C   UNL A   1      37.431  34.199  33.550  1.00  0.00     0.031 C 
ATOM     54  C   UNL A   1      41.817  31.891  37.063  1.00  0.00     0.029 A 
ATOM     55  C   UNL A   1      40.936  32.094  36.012  1.00  0.00     0.049 A 
ATOM     56  H   UNL A   1      40.674  30.954  34.257  1.00  0.00     0.167 HD
ATOM     57  C   UNL A   1      39.124  33.276  34.795  1.00  0.00     0.074 A 
ATOM     58  C   UNL A   1      38.140  34.333  34.663  1.00  0.00     0.031 C 
ATOM     59  C   UNL A   1      39.959  33.141  35.854  1.00  0.00     0.037 A 
BRANCH  46  60
ATOM     60  C   UNL A   1      43.737  28.258  35.514  1.00  0.00     0.058 A 
ATOM     61  C   UNL A   1      45.099  28.478  35.253  1.00  0.00     0.135 A 
ATOM     62  C   UNL A   1      43.400  27.242  36.422  1.00  0.00     0.135 A 
ATOM     63  F   UNL A   1      45.476  29.424  34.377  1.00  0.00    -0.206 F 
ATOM     64  C   UNL A   1      46.088  27.701  35.844  1.00  0.00     0.059 A 
ATOM     65  C   UNL A   1      44.375  26.469  37.047  1.00  0.00     0.059 A 
ATOM     66  F   UNL A   1      42.113  26.988  36.705  1.00  0.00    -0.206 F 
ATOM     67  C   UNL A   1      45.715  26.696  36.739  1.00  0.00     0.060 A 
BRANCH  67  68
ATOM     68  S   UNL A   1      47.011  25.696  37.501  1.00  0.00     0.124 S 
ATOM     69  O   UNL A   1      46.559  25.643  38.888  1.00  0.00    -0.237 OA
ATOM     70  O   UNL A   1      46.920  24.444  36.757  1.00  0.00    -0.237 OA
ATOM     71  O   UNL A   1      48.223  26.475  37.265  1.00  0.00    -0.744 OA
ENDBRANCH  67  68
ENDBRANCH  46  60
BRANCH  47  72
ATOM     72  C   UNL A   1      36.419  33.321  30.940  1.00  0.00     0.058 A 
ATOM     73  C   UNL A   1      35.101  33.191  31.401  1.00  0.00     0.135 A 
ATOM     74  C   UNL A   1      36.650  34.176  29.851  1.00  0.00     0.135 A 
ATOM     75  F   UNL A   1      34.831  32.381  32.438  1.00  0.00    -0.206 F 
ATOM     76  C   UNL A   1      34.046  33.866  30.798  1.00  0.00     0.059 A 
ATOM     77  C   UNL A   1      35.614  34.880  29.244  1.00  0.00     0.059 A 
ATOM     78  F   UNL A   1      37.896  34.350  29.385  1.00  0.00    -0.206 F 
ATOM     79  C   UNL A   1      34.313  34.710  29.718  1.00  0.00     0.060 A 
BRANCH  79  80
ATOM     80  S   UNL A   1      32.945  35.623  28.972  1.00  0.00     0.124 S 
ATOM     81  O   UNL A   1      33.641  36.754  28.370  1.00  0.00    -0.237 OA
ATOM     82  O   UNL A   1      32.392  34.644  28.041  1.00  0.00    -0.237 OA
ATOM     83  O   UNL A   1      32.092  35.939  30.114  1.00  0.00    -0.744 OA
ENDBRANCH  79  80
ENDBRANCH  47  72
BRANCH  59  84
ATOM     84  C   UNL A   1      39.872  34.179  36.935  1.00  0.00     0.058 A 
ATOM     85  C   UNL A   1      40.441  35.451  36.778  1.00  0.00     0.135 A 
ATOM     86  C   UNL A   1      39.164  33.913  38.117  1.00  0.00     0.135 A 
ATOM     87  F   UNL A   1      41.134  35.750  35.668  1.00  0.00    -0.206 F 
ATOM     88  C   UNL A   1      40.325  36.423  37.766  1.00  0.00     0.059 A 
ATOM     89  C   UNL A   1      39.016  34.878  39.109  1.00  0.00     0.059 A 
ATOM     90  F   UNL A   1      38.593  32.714  38.309  1.00  0.00    -0.206 F 
ATOM     91  C   UNL A   1      39.610  36.126  38.929  1.00  0.00     0.060 A 
BRANCH  91  92
ATOM     92  S   UNL A   1      39.433  37.407  40.189  1.00  0.00     0.124 S 
ATOM     93  O   UNL A   1      38.614  38.392  39.492  1.00  0.00    -0.237 OA
ATOM     94  O   UNL A   1      38.773  36.688  41.276  1.00  0.00    -0.237 OA
ATOM     95  O   UNL A   1      40.810  37.808  40.458  1.00  0.00    -0.744 OA
ENDBRANCH  91  92
ENDBRANCH  59  84
ENDBRANCH  33  34
ENDBRANCH  25  28
ENDBRANCH  23  24
ENDBRANCH  22  23
ENDBRANCH  21  22
ENDBRANCH   1  21
TORSDOF 19
ENDMDL
MODEL 2
REMARK VINA RESULT:     -10.7      6.915     11.810
REMARK SMILES CC(C)(C)SCC(=O)NC1(CC(=O)NCCCCNC(=O)c2ccc(-c3c4nc(c(-c5c(F)cc(S(=O)(=O)[O-])cc5F)c5ccc([nH]5)c(-c5c(F)cc(S(=O)(=O)[O-])cc5F)c5nc(c(-c6c(F)cc(S(=O)(=O)[O-])cc6F)c6ccc3[nH]6)C=C5)C=C4)cc2)CCC1
REMARK SMILES IDX 15 1 14 2 12 3 13 4 11 6 10 7 88 8 90 9 89 10 9 11 7 12 8 13
REMARK SMILES IDX 6 15 5 16 2 17 1 18 3 19 4 20 16 21 17 22 18 23 19 24 20 25
REMARK SMILES IDX 21 27 22 28 23 29 87 30 24 31 86 32 25 33 26 34 27 35 80 36
REMARK SMILES IDX 28 37 85 38 79 39 81 40 29 41 84 42 78 43 77 44 30 46 64 47
REMARK SMILES IDX 43 48 63 49 44 50 47 51 62 52 82 53 45 54 46 55 61 57 83 58
REMARK SMILES IDX 48 59 31 60 32 61 41 62 33 63 34 64 40 65 42 66 35 67 36 68
REMARK SMILES IDX 37 69 38 70 39 71 65 72 66 73 75 74 67 75 68 76 74 77 76 78
REMARK SMILES IDX 69 79 70 80 71 81 72 82 73 83 49 84 50 85 59 86 51 87 52 88
REMARK SMILES IDX 58 89 60 90 53 91 54 92 55 93 56 94 57 95
REMARK H PARENT 14 5 9 14 19 26 81 45 47 56
REMARK Flexibility Score: inf
ROOT
ATOM      1  C   UNL A   1      32.626  29.779  25.755  1.00  0.00     0.116 C 
ENDROOT
BRANCH   1   2
ATOM      2  N   UNL A   1      33.547  29.492  24.677  1.00  0.00    -0.356 N 
ATOM      3  C   UNL A   1      33.287  29.022  23.425  1.00  0.00     0.222 C 
ATOM      4  O   UNL A   1      34.235  28.767  22.681  1.00  0.00    -0.275 OA
ATOM      5  H   UNL A   1      34.496  29.661  24.876  1.00  0.00     0.163 HD
BRANCH   3   6
ATOM      6  C   UNL A   1      31.861  28.849  22.949  1.00  0.00     0.128 C 
BRANCH   6   7
ATOM      7  C   UNL A   1      31.350  27.411  22.800  1.00  0.00     0.049 C 
ATOM      8  C   UNL A   1      29.820  27.263  23.097  1.00  0.00     0.029 C 
ATOM      9  C   UNL A   1      31.505  26.417  24.018  1.00  0.00     0.029 C 
ATOM     10  C   UNL A   1      30.168  26.930  24.552  1.00  0.00     0.005 C 
BRANCH   7  11
ATOM     11  N   UNL A   1      31.875  26.760  21.577  1.00  0.00    -0.349 N 
ATOM     12  C   UNL A   1      32.827  25.810  21.345  1.00  0.00     0.230 C 
ATOM     13  O   UNL A   1      32.908  25.382  20.187  1.00  0.00    -0.274 OA
ATOM     14  H   UNL A   1      31.444  27.082  20.752  1.00  0.00     0.164 HD
BRANCH  12  15
ATOM     15  C   UNL A   1      33.736  25.257  22.414  1.00  0.00     0.169 C 
BRANCH  15  16
ATOM     16  S   UNL A   1      33.648  23.470  22.722  1.00  0.00    -0.146 SA
BRANCH  16  17
ATOM     17  C   UNL A   1      35.014  23.071  23.913  1.00  0.00     0.008 C 
ATOM     18  C   UNL A   1      35.011  24.242  24.916  1.00  0.00     0.022 C 
ATOM     19  C   UNL A   1      36.428  22.968  23.336  1.00  0.00     0.022 C 
ATOM     20  C   UNL A   1      34.656  21.772  24.640  1.00  0.00     0.022 C 
ENDBRANCH  16  17
ENDBRANCH  15  16
ENDBRANCH  12  15
ENDBRANCH   7  11
ENDBRANCH   6   7
ENDBRANCH   3   6
ENDBRANCH   1   2
BRANCH   1  21
ATOM     21  C   UNL A   1      33.290  29.551  27.114  1.00  0.00     0.023 C 
BRANCH  21  22
ATOM     22  C   UNL A   1      34.686  28.945  27.061  1.00  0.00     0.023 C 
BRANCH  22  23
ATOM     23  C   UNL A   1      35.745  29.717  27.833  1.00  0.00     0.116 C 
BRANCH  23  24
ATOM     24  N   UNL A   1      35.567  29.692  29.281  1.00  0.00    -0.352 N 
ATOM     25  C   UNL A   1      36.540  29.688  30.254  1.00  0.00     0.251 C 
ATOM     26  H   UNL A   1      34.636  29.676  29.600  1.00  0.00     0.163 HD
ATOM     27  O   UNL A   1      36.240  29.598  31.439  1.00  0.00    -0.269 OA
BRANCH  25  28
ATOM     28  C   UNL A   1      37.951  29.745  29.829  1.00  0.00     0.039 A 
ATOM     29  C   UNL A   1      38.952  29.598  30.791  1.00  0.00     0.014 A 
ATOM     30  C   UNL A   1      38.267  29.814  28.470  1.00  0.00     0.014 A 
ATOM     31  C   UNL A   1      40.273  29.425  30.377  1.00  0.00     0.010 A 
ATOM     32  C   UNL A   1      39.566  29.551  28.060  1.00  0.00     0.010 A 
ATOM     33  C   UNL A   1      40.580  29.346  29.009  1.00  0.00    -0.014 A 
BRANCH  33  34
ATOM     34  C   UNL A   1      41.952  29.039  28.538  1.00  0.00     0.031 A 
ATOM     35  C   UNL A   1      42.292  27.642  28.096  1.00  0.00     0.074 A 
ATOM     36  C   UNL A   1      42.907  29.988  28.597  1.00  0.00     0.049 A 
ATOM     37  N   UNL A   1      43.452  27.143  27.760  1.00  0.00    -0.248 NA
ATOM     38  C   UNL A   1      41.187  26.670  28.068  1.00  0.00     0.031 C 
ATOM     39  C   UNL A   1      42.713  31.361  29.073  1.00  0.00     0.029 A 
ATOM     40  N   UNL A   1      44.239  29.939  28.271  1.00  0.00    -0.354 N 
ATOM     41  C   UNL A   1      43.222  25.796  27.506  1.00  0.00     0.074 A 
ATOM     42  C   UNL A   1      41.824  25.545  27.779  1.00  0.00     0.031 C 
ATOM     43  C   UNL A   1      43.876  32.028  28.985  1.00  0.00     0.029 A 
ATOM     44  C   UNL A   1      44.905  31.124  28.480  1.00  0.00     0.049 A 
ATOM     45  H   UNL A   1      44.677  29.130  27.919  1.00  0.00     0.167 HD
ATOM     46  C   UNL A   1      44.092  24.860  27.062  1.00  0.00     0.037 A 
ATOM     47  C   UNL A   1      46.200  31.443  28.290  1.00  0.00     0.037 A 
ATOM     48  C   UNL A   1      45.469  25.129  26.747  1.00  0.00     0.049 A 
ATOM     49  C   UNL A   1      47.137  30.397  27.754  1.00  0.00     0.074 A 
ATOM     50  C   UNL A   1      46.417  24.269  26.223  1.00  0.00     0.029 A 
ATOM     51  N   UNL A   1      46.093  26.355  26.922  1.00  0.00    -0.354 N 
ATOM     52  N   UNL A   1      46.888  29.143  27.460  1.00  0.00    -0.248 NA
ATOM     53  C   UNL A   1      48.527  30.808  27.517  1.00  0.00     0.031 C 
ATOM     54  C   UNL A   1      47.623  24.969  26.103  1.00  0.00     0.029 A 
ATOM     55  C   UNL A   1      47.415  26.274  26.521  1.00  0.00     0.049 A 
ATOM     56  H   UNL A   1      45.660  27.165  27.278  1.00  0.00     0.167 HD
ATOM     57  C   UNL A   1      48.085  28.621  26.980  1.00  0.00     0.074 A 
ATOM     58  C   UNL A   1      49.053  29.698  27.014  1.00  0.00     0.031 C 
ATOM     59  C   UNL A   1      48.358  27.364  26.553  1.00  0.00     0.037 A 
BRANCH  46  60
ATOM     60  C   UNL A   1      43.570  23.464  26.873  1.00  0.00     0.058 A 
ATOM     61  C   UNL A   1      43.294  22.630  27.969  1.00  0.00     0.135 A 
ATOM     62  C   UNL A   1      43.325  22.959  25.586  1.00  0.00     0.135 A 
ATOM     63  F   UNL A   1      43.531  23.057  29.220  1.00  0.00    -0.206 F 
ATOM     64  C   UNL A   1      42.823  21.334  27.796  1.00  0.00     0.059 A 
ATOM     65  C   UNL A   1      42.827  21.674  25.391  1.00  0.00     0.059 A 
ATOM     66  F   UNL A   1      43.574  23.713  24.505  1.00  0.00    -0.206 F 
ATOM     67  C   UNL A   1      42.594  20.863  26.501  1.00  0.00     0.060 A 
BRANCH  67  68
ATOM     68  S   UNL A   1      41.980  19.179  26.292  1.00  0.00     0.124 S 
ATOM     69  O   UNL A   1      42.225  18.614  27.615  1.00  0.00    -0.237 OA
ATOM     70  O   UNL A   1      40.579  19.396  25.946  1.00  0.00    -0.237 OA
ATOM     71  O   UNL A   1      42.812  18.646  25.218  1.00  0.00    -0.744 OA
ENDBRANCH  67  68
ENDBRANCH  46  60
BRANCH  47  72
ATOM     72  C   UNL A   1      46.677  32.821  28.575  1.00  0.00     0.058 A 
ATOM     73  C   UNL A   1      46.662  33.807  27.578  1.00  0.00     0.135 A 
ATOM     74  C   UNL A   1      47.143  33.185  29.849  1.00  0.00     0.135 A 
ATOM     75  F   UNL A   1      46.229  33.505  26.344  1.00  0.00    -0.206 F 
ATOM     76  C   UNL A   1      47.108  35.101  27.824  1.00  0.00     0.059 A 
ATOM     77  C   UNL A   1      47.574  34.479  30.125  1.00  0.00     0.059 A 
ATOM     78  F   UNL A   1      47.159  32.283  30.842  1.00  0.00    -0.206 F 
ATOM     79  C   UNL A   1      47.563  35.428  29.103  1.00  0.00     0.060 A 
BRANCH  79  80
ATOM     80  S   UNL A   1      48.093  37.124  29.427  1.00  0.00     0.124 S 
ATOM     81  O   UNL A   1      47.935  37.208  30.875  1.00  0.00    -0.237 OA
ATOM     82  O   UNL A   1      49.466  37.118  28.933  1.00  0.00    -0.237 OA
ATOM     83  O   UNL A   1      47.156  37.923  28.641  1.00  0.00    -0.744 OA
ENDBRANCH  79  80
ENDBRANCH  47  72
BRANCH  59  84
ATOM     84  C   UNL A   1      49.748  27.094  26.054  1.00  0.00     0.058 A 
ATOM     85  C   UNL A   1      50.774  26.696  26.923  1.00  0.00     0.135 A 
ATOM     86  C   UNL A   1      50.039  27.180  24.684  1.00  0.00     0.135 A 
ATOM     87  F   UNL A   1      50.547  26.605  28.243  1.00  0.00    -0.206 F 
ATOM     88  C   UNL A   1      52.051  26.409  26.452  1.00  0.00     0.059 A 
ATOM     89  C   UNL A   1      51.302  26.875  24.188  1.00  0.00     0.059 A 
ATOM     90  F   UNL A   1      49.087  27.547  23.811  1.00  0.00    -0.206 F 
ATOM     91  C   UNL A   1      52.305  26.502  25.081  1.00  0.00     0.060 A 
BRANCH  91  92
ATOM     92  S   UNL A   1      53.955  26.090  24.475  1.00  0.00     0.124 S 
ATOM     93  O   UNL A   1      54.793  26.951  25.301  1.00  0.00    -0.237 OA
ATOM     94  O   UNL A   1      54.045  24.660  24.753  1.00  0.00    -0.237 OA
ATOM     95  O   UNL A   1      53.892  26.443  23.060  1.00  0.00    -0.744 OA
ENDBRANCH  91  92
ENDBRANCH  59  84
ENDBRANCH  33  34
ENDBRANCH  25  28
ENDBRANCH  23  24
ENDBRANCH  22  23
ENDBRANCH  21  22
ENDBRANCH   1  21
TORSDOF 19
ENDMDL
MODEL 3
REMARK VINA RESULT:     -10.6      6.813     12.356
REMARK SMILES CC(C)(C)SCC(=O)NC1(CC(=O)NCCCCNC(=O)c2ccc(-c3c4nc(c(-c5c(F)cc(S(=O)(=O)[O-])cc5F)c5ccc([nH]5)c(-c5c(F)cc(S(=O)(=O)[O-])cc5F)c5nc(c(-c6c(F)cc(S(=O)(=O)[O-])cc6F)c6ccc3[nH]6)C=C5)C=C4)cc2)CCC1
REMARK SMILES IDX 15 1 14 2 12 3 13 4 11 6 10 7 88 8 90 9 89 10 9 11 7 12 8 13
REMARK SMILES IDX 6 15 5 16 2 17 1 18 3 19 4 20 16 21 17 22 18 23 19 24 20 25
REMARK SMILES IDX 21 27 22 28 23 29 87 30 24 31 86 32 25 33 26 34 27 35 80 36
REMARK SMILES IDX 28 37 85 38 79 39 81 40 29 41 84 42 78 43 77 44 30 46 64 47
REMARK SMILES IDX 43 48 63 49 44 50 47 51 62 52 82 53 45 54 46 55 61 57 83 58
REMARK SMILES IDX 48 59 31 60 32 61 41 62 33 63 34 64 40 65 42 66 35 67 36 68
REMARK SMILES IDX 37 69 38 70 39 71 65 72 66 73 75 74 67 75 68 76 74 77 76 78
REMARK SMILES IDX 69 79 70 80 71 81 72 82 73 83 49 84 50 85 59 86 51 87 52 88
REMARK SMILES IDX 58 89 60 90 53 91 54 92 55 93 56 94 57 95
REMARK H PARENT 14 5 9 14 19 26 81 45 47 56
REMARK Flexibility Score: inf
ROOT
ATOM      1  C   UNL A   1      32.131  30.085  25.736  1.00  0.00     0.116 C 
ENDROOT
BRANCH   1   2
ATOM      2  N   UNL A   1      33.137  29.727  24.760  1.00  0.00    -0.356 N 
ATOM      3  C   UNL A   1      33.034  28.904  23.679  1.00  0.00     0.222 C 
ATOM      4  O   UNL A   1      34.046  28.670  23.017  1.00  0.00    -0.275 OA
ATOM      5  H   UNL A   1      34.022  30.137  24.896  1.00  0.00     0.163 HD
BRANCH   3   6
ATOM      6  C   UNL A   1      31.697  28.318  23.283  1.00  0.00     0.128 C 
BRANCH   6   7
ATOM      7  C   UNL A   1      31.512  26.810  23.491  1.00  0.00     0.049 C 
ATOM      8  C   UNL A   1      30.029  26.401  23.783  1.00  0.00     0.029 C 
ATOM      9  C   UNL A   1      31.779  26.200  24.924  1.00  0.00     0.029 C 
ATOM     10  C   UNL A   1      30.327  26.517  25.283  1.00  0.00     0.005 C 
BRANCH   7  11
ATOM     11  N   UNL A   1      32.254  26.016  22.484  1.00  0.00    -0.349 N 
ATOM     12  C   UNL A   1      33.296  25.137  22.552  1.00  0.00     0.230 C 
ATOM     13  O   UNL A   1      33.574  24.530  21.511  1.00  0.00    -0.274 OA
ATOM     14  H   UNL A   1      31.925  26.152  21.566  1.00  0.00     0.164 HD
BRANCH  12  15
ATOM     15  C   UNL A   1      34.077  24.861  23.813  1.00  0.00     0.169 C 
BRANCH  15  16
ATOM     16  S   UNL A   1      34.215  23.127  24.330  1.00  0.00    -0.146 SA
BRANCH  16  17
ATOM     17  C   UNL A   1      36.027  22.775  24.527  1.00  0.00     0.008 C 
ATOM     18  C   UNL A   1      36.086  21.343  25.096  1.00  0.00     0.022 C 
ATOM     19  C   UNL A   1      36.808  23.679  25.486  1.00  0.00     0.022 C 
ATOM     20  C   UNL A   1      36.677  22.805  23.142  1.00  0.00     0.022 C 
ENDBRANCH  16  17
ENDBRANCH  15  16
ENDBRANCH  12  15
ENDBRANCH   7  11
ENDBRANCH   6   7
ENDBRANCH   3   6
ENDBRANCH   1   2
BRANCH   1  21
ATOM     21  C   UNL A   1      32.719  30.097  27.147  1.00  0.00     0.023 C 
BRANCH  21  22
ATOM     22  C   UNL A   1      33.847  29.104  27.388  1.00  0.00     0.023 C 
BRANCH  22  23
ATOM     23  C   UNL A   1      35.215  29.732  27.608  1.00  0.00     0.116 C 
BRANCH  23  24
ATOM     24  N   UNL A   1      35.324  30.512  28.837  1.00  0.00    -0.352 N 
ATOM     25  C   UNL A   1      36.406  30.616  29.680  1.00  0.00     0.251 C 
ATOM     26  H   UNL A   1      34.525  31.026  29.093  1.00  0.00     0.163 HD
ATOM     27  O   UNL A   1      36.330  31.261  30.720  1.00  0.00    -0.269 OA
BRANCH  25  28
ATOM     28  C   UNL A   1      37.640  29.891  29.325  1.00  0.00     0.039 A 
ATOM     29  C   UNL A   1      38.028  29.836  27.985  1.00  0.00     0.014 A 
ATOM     30  C   UNL A   1      38.465  29.384  30.332  1.00  0.00     0.014 A 
ATOM     31  C   UNL A   1      39.297  29.353  27.664  1.00  0.00     0.010 A 
ATOM     32  C   UNL A   1      39.758  28.990  30.018  1.00  0.00     0.010 A 
ATOM     33  C   UNL A   1      40.189  28.978  28.682  1.00  0.00    -0.014 A 
BRANCH  33  34
ATOM     34  C   UNL A   1      41.586  28.580  28.383  1.00  0.00     0.031 A 
ATOM     35  C   UNL A   1      42.666  29.624  28.346  1.00  0.00     0.074 A 
ATOM     36  C   UNL A   1      41.860  27.301  28.055  1.00  0.00     0.049 A 
ATOM     37  N   UNL A   1      43.919  29.503  27.996  1.00  0.00    -0.248 NA
ATOM     38  C   UNL A   1      42.274  30.995  28.713  1.00  0.00     0.031 C 
ATOM     39  C   UNL A   1      40.881  26.212  27.990  1.00  0.00     0.029 A 
ATOM     40  N   UNL A   1      43.042  26.703  27.698  1.00  0.00    -0.354 N 
ATOM     41  C   UNL A   1      44.457  30.781  28.075  1.00  0.00     0.074 A 
ATOM     42  C   UNL A   1      43.383  31.673  28.454  1.00  0.00     0.031 C 
ATOM     43  C   UNL A   1      41.507  25.076  27.639  1.00  0.00     0.029 A 
ATOM     44  C   UNL A   1      42.922  25.361  27.421  1.00  0.00     0.049 A 
ATOM     45  H   UNL A   1      43.896  27.189  27.646  1.00  0.00     0.167 HD
ATOM     46  C   UNL A   1      45.737  31.173  27.874  1.00  0.00     0.037 A 
ATOM     47  C   UNL A   1      43.849  24.464  27.032  1.00  0.00     0.037 A 
ATOM     48  C   UNL A   1      46.809  30.273  27.544  1.00  0.00     0.049 A 
ATOM     49  C   UNL A   1      45.272  24.915  26.858  1.00  0.00     0.074 A 
ATOM     50  C   UNL A   1      48.154  30.557  27.389  1.00  0.00     0.029 A 
ATOM     51  N   UNL A   1      46.658  28.912  27.324  1.00  0.00    -0.354 N 
ATOM     52  N   UNL A   1      45.776  26.118  26.998  1.00  0.00    -0.248 NA
ATOM     53  C   UNL A   1      46.254  23.890  26.482  1.00  0.00     0.031 C 
ATOM     54  C   UNL A   1      48.814  29.370  27.052  1.00  0.00     0.029 A 
ATOM     55  C   UNL A   1      47.884  28.342  27.030  1.00  0.00     0.049 A 
ATOM     56  H   UNL A   1      45.804  28.423  27.372  1.00  0.00     0.167 HD
ATOM     57  C   UNL A   1      47.139  25.990  26.750  1.00  0.00     0.074 A 
ATOM     58  C   UNL A   1      47.380  24.591  26.462  1.00  0.00     0.031 C 
ATOM     59  C   UNL A   1      48.102  26.944  26.758  1.00  0.00     0.037 A 
BRANCH  46  60
ATOM     60  C   UNL A   1      46.045  32.636  28.026  1.00  0.00     0.058 A 
ATOM     61  C   UNL A   1      46.524  33.162  29.237  1.00  0.00     0.135 A 
ATOM     62  C   UNL A   1      45.880  33.519  26.947  1.00  0.00     0.135 A 
ATOM     63  F   UNL A   1      46.680  32.364  30.306  1.00  0.00    -0.206 F 
ATOM     64  C   UNL A   1      46.798  34.517  29.383  1.00  0.00     0.059 A 
ATOM     65  C   UNL A   1      46.176  34.874  27.063  1.00  0.00     0.059 A 
ATOM     66  F   UNL A   1      45.423  33.068  25.769  1.00  0.00    -0.206 F 
ATOM     67  C   UNL A   1      46.619  35.366  28.290  1.00  0.00     0.060 A 
BRANCH  67  68
ATOM     68  S   UNL A   1      46.982  37.122  28.494  1.00  0.00     0.124 S 
ATOM     69  O   UNL A   1      48.296  37.076  29.127  1.00  0.00    -0.237 OA
ATOM     70  O   UNL A   1      46.959  37.610  27.119  1.00  0.00    -0.237 OA
ATOM     71  O   UNL A   1      45.893  37.597  29.341  1.00  0.00    -0.744 OA
ENDBRANCH  67  68
ENDBRANCH  46  60
BRANCH  47  72
ATOM     72  C   UNL A   1      43.466  23.044  26.815  1.00  0.00     0.058 A 
ATOM     73  C   UNL A   1      43.425  22.502  25.522  1.00  0.00     0.135 A 
ATOM     74  C   UNL A   1      43.146  22.200  27.890  1.00  0.00     0.135 A 
ATOM     75  F   UNL A   1      43.718  23.272  24.463  1.00  0.00    -0.206 F 
ATOM     76  C   UNL A   1      43.065  21.177  25.298  1.00  0.00     0.059 A 
ATOM     77  C   UNL A   1      42.804  20.865  27.692  1.00  0.00     0.059 A 
ATOM     78  F   UNL A   1      43.189  22.666  29.147  1.00  0.00    -0.206 F 
ATOM     79  C   UNL A   1      42.756  20.366  26.391  1.00  0.00     0.060 A 
BRANCH  79  80
ATOM     80  S   UNL A   1      42.338  18.634  26.094  1.00  0.00     0.124 S 
ATOM     81  O   UNL A   1      42.619  18.039  27.396  1.00  0.00    -0.237 OA
ATOM     82  O   UNL A   1      40.931  18.715  25.718  1.00  0.00    -0.237 OA
ATOM     83  O   UNL A   1      43.246  18.252  25.015  1.00  0.00    -0.744 OA
ENDBRANCH  79  80
ENDBRANCH  47  72
BRANCH  59  84
ATOM     84  C   UNL A   1      49.510  26.502  26.481  1.00  0.00     0.058 A 
ATOM     85  C   UNL A   1      50.061  26.574  25.193  1.00  0.00     0.135 A 
ATOM     86  C   UNL A   1      50.332  26.056  27.527  1.00  0.00     0.135 A 
ATOM     87  F   UNL A   1      49.312  26.988  24.159  1.00  0.00    -0.206 F 
ATOM     88  C   UNL A   1      51.378  26.200  24.948  1.00  0.00     0.059 A 
ATOM     89  C   UNL A   1      51.659  25.699  27.309  1.00  0.00     0.059 A 
ATOM     90  F   UNL A   1      49.853  25.979  28.779  1.00  0.00    -0.206 F 
ATOM     91  C   UNL A   1      52.169  25.764  26.013  1.00  0.00     0.060 A 
BRANCH  91  92
ATOM     92  S   UNL A   1      53.889  25.317  25.691  1.00  0.00     0.124 S 
ATOM     93  O   UNL A   1      54.085  25.857  24.351  1.00  0.00    -0.237 OA
ATOM     94  O   UNL A   1      54.599  26.008  26.764  1.00  0.00    -0.237 OA
ATOM     95  O   UNL A   1      53.883  23.861  25.789  1.00  0.00    -0.744 OA
ENDBRANCH  91  92
ENDBRANCH  59  84
ENDBRANCH  33  34
ENDBRANCH  25  28
ENDBRANCH  23  24
ENDBRANCH  22  23
ENDBRANCH  21  22
ENDBRANCH   1  21
TORSDOF 19
ENDMDL
