MODEL 1
REMARK VINA RESULT:     -13.4      0.000      0.000
REMARK SMILES NS(=O)(=O)c1ccc(-n2nc(C(F)(F)F)cc2-c2ccc(C(=O)NCCCCNC(=O)c3ccc(-c4c5nc(c(-c6c(F)cc(S(=O)(=O)[O-])cc6F)c6ccc([nH]6)c(-c6c(F)cc(S(=O)(=O)[O-])cc6F)c6nc(c(-c7c(F)cc(S(=O)(=O)[O-])cc7F)c7ccc4[nH]7)C=C6)C=C5)cc3)cc2)cc1
REMARK SMILES IDX 26 1 25 2 24 3 22 4 23 5 21 7 18 8 19 9 99 10 20 11 98 12
REMARK SMILES IDX 17 13 9 14 10 15 11 16 16 17 8 18 5 19 6 20 101 21 7 22
REMARK SMILES IDX 100 23 2 24 3 25 4 26 1 27 12 30 13 31 14 32 15 33 27 34
REMARK SMILES IDX 28 35 29 36 30 37 31 39 32 40 33 41 97 42 34 43 96 44 35 45
REMARK SMILES IDX 36 46 37 47 90 48 38 49 95 50 89 51 91 52 39 53 94 54 88 55
REMARK SMILES IDX 87 56 40 58 74 59 53 60 73 61 54 62 57 63 72 64 92 65 55 66
REMARK SMILES IDX 56 67 71 69 93 70 58 71 41 72 42 73 51 74 43 75 44 76 50 77
REMARK SMILES IDX 52 78 45 79 46 80 47 81 48 82 49 83 75 84 76 85 85 86 77 87
REMARK SMILES IDX 78 88 84 89 86 90 79 91 80 92 81 93 82 94 83 95 59 96 60 97
REMARK SMILES IDX 69 98 61 99 62 100 68 101 70 102 63 103 64 104 65 105 66 106
REMARK SMILES IDX 67 107
REMARK H PARENT 24 6 1 28 1 29 29 38 91 57 57 68
REMARK Flexibility Score: inf
ROOT
ATOM      1  C   UNL A   1      35.192  22.041  25.500  1.00  0.00     0.023 C 
ENDROOT
BRANCH   1   2
ATOM      2  C   UNL A   1      34.986  22.229  23.991  1.00  0.00     0.116 C 
BRANCH   2   3
ATOM      3  N   UNL A   1      33.574  22.258  23.662  1.00  0.00    -0.352 N 
ATOM      4  C   UNL A   1      32.602  23.212  23.825  1.00  0.00     0.251 C 
ATOM      5  O   UNL A   1      31.456  22.930  23.475  1.00  0.00    -0.269 OA
ATOM      6  H   UNL A   1      33.249  21.431  23.237  1.00  0.00     0.163 HD
BRANCH   4   7
ATOM      7  C   UNL A   1      32.874  24.572  24.368  1.00  0.00     0.039 A 
ATOM      8  C   UNL A   1      33.246  27.122  25.493  1.00  0.00     0.000 A 
ATOM      9  C   UNL A   1      32.483  26.166  26.169  1.00  0.00     0.011 A 
ATOM     10  C   UNL A   1      33.830  26.800  24.270  1.00  0.00     0.011 A 
ATOM     11  C   UNL A   1      32.289  24.902  25.602  1.00  0.00     0.014 A 
ATOM     12  C   UNL A   1      33.687  25.518  23.745  1.00  0.00     0.014 A 
BRANCH   8  13
ATOM     13  C   UNL A   1      33.529  28.422  26.080  1.00  0.00     0.075 A 
ATOM     14  N   UNL A   1      32.865  29.595  25.758  1.00  0.00    -0.233 N 
ATOM     15  N   UNL A   1      33.434  30.676  26.354  1.00  0.00    -0.163 NA
ATOM     16  C   UNL A   1      34.321  30.157  27.230  1.00  0.00     0.167 A 
ATOM     17  C   UNL A   1      34.450  28.759  27.047  1.00  0.00     0.064 A 
BRANCH  14  18
ATOM     18  C   UNL A   1      31.695  29.739  24.965  1.00  0.00     0.065 A 
ATOM     19  C   UNL A   1      29.325  29.957  23.515  1.00  0.00     0.082 A 
ATOM     20  C   UNL A   1      29.710  30.999  24.359  1.00  0.00     0.024 A 
ATOM     21  C   UNL A   1      30.129  28.817  23.375  1.00  0.00     0.024 A 
ATOM     22  C   UNL A   1      30.893  30.885  25.087  1.00  0.00     0.030 A 
ATOM     23  C   UNL A   1      31.333  28.719  24.079  1.00  0.00     0.030 A 
BRANCH  19  24
ATOM     24  S   UNL A   1      27.801  30.033  22.624  1.00  0.00     0.238 S 
ATOM     25  O   UNL A   1      28.089  29.882  21.210  1.00  0.00    -0.207 OA
ATOM     26  O   UNL A   1      27.022  31.121  23.148  1.00  0.00    -0.207 OA
BRANCH  24  27
ATOM     27  N   UNL A   1      26.983  28.628  23.056  1.00  0.00    -0.225 NA
ATOM     28  H   UNL A   1      27.578  27.819  22.875  1.00  0.00     0.137 HD
ATOM     29  H   UNL A   1      26.126  28.551  22.508  1.00  0.00     0.137 HD
ENDBRANCH  24  27
ENDBRANCH  19  24
ENDBRANCH  14  18
BRANCH  16  30
ATOM     30  C   UNL A   1      35.044  30.977  28.264  1.00  0.00     0.435 C 
ATOM     31  F   UNL A   1      34.207  31.684  29.067  1.00  0.00    -0.164 F 
ATOM     32  F   UNL A   1      35.817  30.205  29.076  1.00  0.00    -0.164 F 
ATOM     33  F   UNL A   1      35.888  31.880  27.692  1.00  0.00    -0.164 F 
ENDBRANCH  16  30
ENDBRANCH   8  13
ENDBRANCH   4   7
ENDBRANCH   2   3
ENDBRANCH   1   2
BRANCH   1  34
ATOM     34  C   UNL A   1      36.123  23.070  26.157  1.00  0.00     0.023 C 
BRANCH  34  35
ATOM     35  C   UNL A   1      37.532  23.106  25.578  1.00  0.00     0.116 C 
BRANCH  35  36
ATOM     36  N   UNL A   1      38.437  22.159  26.232  1.00  0.00    -0.352 N 
ATOM     37  C   UNL A   1      39.716  22.398  26.701  1.00  0.00     0.251 C 
ATOM     38  H   UNL A   1      38.094  21.243  26.350  1.00  0.00     0.163 HD
ATOM     39  O   UNL A   1      40.519  21.481  26.825  1.00  0.00    -0.269 OA
BRANCH  37  40
ATOM     40  C   UNL A   1      40.077  23.775  27.077  1.00  0.00     0.039 A 
ATOM     41  C   UNL A   1      39.382  24.885  26.594  1.00  0.00     0.014 A 
ATOM     42  C   UNL A   1      41.129  23.929  27.977  1.00  0.00     0.014 A 
ATOM     43  C   UNL A   1      39.711  26.146  27.089  1.00  0.00     0.010 A 
ATOM     44  C   UNL A   1      41.336  25.137  28.585  1.00  0.00     0.010 A 
ATOM     45  C   UNL A   1      40.679  26.261  28.103  1.00  0.00    -0.014 A 
BRANCH  45  46
ATOM     46  C   UNL A   1      40.917  27.527  28.791  1.00  0.00     0.031 A 
ATOM     47  C   UNL A   1      42.040  28.312  28.211  1.00  0.00     0.074 A 
ATOM     48  C   UNL A   1      40.059  28.044  29.702  1.00  0.00     0.049 A 
ATOM     49  N   UNL A   1      43.206  28.509  28.728  1.00  0.00    -0.248 NA
ATOM     50  C   UNL A   1      41.933  28.767  26.812  1.00  0.00     0.031 C 
ATOM     51  C   UNL A   1      38.760  27.514  30.136  1.00  0.00     0.029 A 
ATOM     52  N   UNL A   1      40.126  29.225  30.375  1.00  0.00    -0.354 N 
ATOM     53  C   UNL A   1      43.876  29.348  27.843  1.00  0.00     0.074 A 
ATOM     54  C   UNL A   1      43.152  29.271  26.603  1.00  0.00     0.031 C 
ATOM     55  C   UNL A   1      38.073  28.470  30.804  1.00  0.00     0.029 A 
ATOM     56  C   UNL A   1      38.939  29.618  30.997  1.00  0.00     0.049 A 
ATOM     57  H   UNL A   1      40.950  29.761  30.422  1.00  0.00     0.167 HD
ATOM     58  C   UNL A   1      44.791  30.250  28.298  1.00  0.00     0.037 A 
ATOM     59  C   UNL A   1      38.693  30.804  31.617  1.00  0.00     0.037 A 
ATOM     60  C   UNL A   1      45.190  29.931  29.650  1.00  0.00     0.049 A 
ATOM     61  C   UNL A   1      40.019  31.386  31.955  1.00  0.00     0.074 A 
ATOM     62  C   UNL A   1      45.749  28.825  30.263  1.00  0.00     0.029 A 
ATOM     63  N   UNL A   1      44.637  30.677  30.664  1.00  0.00    -0.354 N 
ATOM     64  N   UNL A   1      40.840  30.852  32.818  1.00  0.00    -0.248 NA
ATOM     65  C   UNL A   1      40.631  32.265  30.970  1.00  0.00     0.031 C 
ATOM     66  C   UNL A   1      45.075  28.717  31.515  1.00  0.00     0.029 A 
ATOM     67  C   UNL A   1      44.217  29.811  31.641  1.00  0.00     0.049 A 
ATOM     68  H   UNL A   1      44.558  31.658  30.686  1.00  0.00     0.167 HD
ATOM     69  C   UNL A   1      42.092  30.961  32.229  1.00  0.00     0.074 A 
ATOM     70  C   UNL A   1      41.907  31.900  31.122  1.00  0.00     0.031 C 
ATOM     71  C   UNL A   1      43.082  30.060  32.501  1.00  0.00     0.037 A 
BRANCH  58  72
ATOM     72  C   UNL A   1      45.015  31.626  27.706  1.00  0.00     0.058 A 
ATOM     73  C   UNL A   1      46.273  31.925  27.138  1.00  0.00     0.135 A 
ATOM     74  C   UNL A   1      44.172  32.739  27.924  1.00  0.00     0.135 A 
ATOM     75  F   UNL A   1      47.157  30.949  26.881  1.00  0.00    -0.206 F 
ATOM     76  C   UNL A   1      46.693  33.233  26.894  1.00  0.00     0.059 A 
ATOM     77  C   UNL A   1      44.553  34.046  27.638  1.00  0.00     0.059 A 
ATOM     78  F   UNL A   1      42.975  32.636  28.511  1.00  0.00    -0.206 F 
ATOM     79  C   UNL A   1      45.828  34.288  27.163  1.00  0.00     0.060 A 
BRANCH  79  80
ATOM     80  S   UNL A   1      46.397  35.979  26.929  1.00  0.00     0.124 S 
ATOM     81  O   UNL A   1      47.411  36.091  27.971  1.00  0.00    -0.237 OA
ATOM     82  O   UNL A   1      46.890  35.941  25.556  1.00  0.00    -0.237 OA
ATOM     83  O   UNL A   1      45.188  36.770  27.132  1.00  0.00    -0.744 OA
ENDBRANCH  79  80
ENDBRANCH  58  72
BRANCH  59  84
ATOM     84  C   UNL A   1      37.445  31.624  31.623  1.00  0.00     0.058 A 
ATOM     85  C   UNL A   1      36.612  31.681  32.760  1.00  0.00     0.135 A 
ATOM     86  C   UNL A   1      37.206  32.604  30.640  1.00  0.00     0.135 A 
ATOM     87  F   UNL A   1      36.772  30.796  33.757  1.00  0.00    -0.206 F 
ATOM     88  C   UNL A   1      35.652  32.686  32.940  1.00  0.00     0.059 A 
ATOM     89  C   UNL A   1      36.251  33.611  30.794  1.00  0.00     0.059 A 
ATOM     90  F   UNL A   1      37.963  32.670  29.534  1.00  0.00    -0.206 F 
ATOM     91  C   UNL A   1      35.497  33.665  31.961  1.00  0.00     0.060 A 
BRANCH  91  92
ATOM     92  S   UNL A   1      34.404  35.076  32.271  1.00  0.00     0.124 S 
ATOM     93  O   UNL A   1      33.291  34.448  32.977  1.00  0.00    -0.237 OA
ATOM     94  O   UNL A   1      35.250  35.955  33.071  1.00  0.00    -0.237 OA
ATOM     95  O   UNL A   1      34.094  35.565  30.930  1.00  0.00    -0.744 OA
ENDBRANCH  91  92
ENDBRANCH  59  84
BRANCH  71  96
ATOM     96  C   UNL A   1      42.902  29.123  33.670  1.00  0.00     0.058 A 
ATOM     97  C   UNL A   1      43.142  29.454  35.017  1.00  0.00     0.135 A 
ATOM     98  C   UNL A   1      42.307  27.877  33.418  1.00  0.00     0.135 A 
ATOM     99  F   UNL A   1      43.613  30.660  35.360  1.00  0.00    -0.206 F 
ATOM    100  C   UNL A   1      42.841  28.569  36.058  1.00  0.00     0.059 A 
ATOM    101  C   UNL A   1      41.970  26.995  34.439  1.00  0.00     0.059 A 
ATOM    102  F   UNL A   1      41.998  27.525  32.160  1.00  0.00    -0.206 F 
ATOM    103  C   UNL A   1      42.252  27.341  35.757  1.00  0.00     0.060 A 
BRANCH 103 104
ATOM    104  S   UNL A   1      41.806  26.219  37.101  1.00  0.00     0.124 S 
ATOM    105  O   UNL A   1      42.922  26.389  38.026  1.00  0.00    -0.237 OA
ATOM    106  O   UNL A   1      40.524  26.755  37.550  1.00  0.00    -0.237 OA
ATOM    107  O   UNL A   1      41.733  24.915  36.447  1.00  0.00    -0.744 OA
ENDBRANCH 103 104
ENDBRANCH  71  96
ENDBRANCH  45  46
ENDBRANCH  37  40
ENDBRANCH  35  36
ENDBRANCH  34  35
ENDBRANCH   1  34
TORSDOF 19
ENDMDL
MODEL 2
REMARK VINA RESULT:     -13.1      2.172      3.307
REMARK SMILES NS(=O)(=O)c1ccc(-n2nc(C(F)(F)F)cc2-c2ccc(C(=O)NCCCCNC(=O)c3ccc(-c4c5nc(c(-c6c(F)cc(S(=O)(=O)[O-])cc6F)c6ccc([nH]6)c(-c6c(F)cc(S(=O)(=O)[O-])cc6F)c6nc(c(-c7c(F)cc(S(=O)(=O)[O-])cc7F)c7ccc4[nH]7)C=C6)C=C5)cc3)cc2)cc1
REMARK SMILES IDX 26 1 25 2 24 3 22 4 23 5 21 7 18 8 19 9 99 10 20 11 98 12
REMARK SMILES IDX 17 13 9 14 10 15 11 16 16 17 8 18 5 19 6 20 101 21 7 22
REMARK SMILES IDX 100 23 2 24 3 25 4 26 1 27 12 30 13 31 14 32 15 33 27 34
REMARK SMILES IDX 28 35 29 36 30 37 31 39 32 40 33 41 97 42 34 43 96 44 35 45
REMARK SMILES IDX 36 46 37 47 90 48 38 49 95 50 89 51 91 52 39 53 94 54 88 55
REMARK SMILES IDX 87 56 40 58 74 59 53 60 73 61 54 62 57 63 72 64 92 65 55 66
REMARK SMILES IDX 56 67 71 69 93 70 58 71 41 72 42 73 51 74 43 75 44 76 50 77
REMARK SMILES IDX 52 78 45 79 46 80 47 81 48 82 49 83 75 84 76 85 85 86 77 87
REMARK SMILES IDX 78 88 84 89 86 90 79 91 80 92 81 93 82 94 83 95 59 96 60 97
REMARK SMILES IDX 69 98 61 99 62 100 68 101 70 102 63 103 64 104 65 105 66 106
REMARK SMILES IDX 67 107
REMARK H PARENT 24 6 1 28 1 29 29 38 91 57 57 68
REMARK Flexibility Score: inf
ROOT
ATOM      1  C   UNL A   1      35.610  23.465  24.477  1.00  0.00     0.023 C 
ENDROOT
BRANCH   1   2
ATOM      2  C   UNL A   1      34.765  23.516  25.757  1.00  0.00     0.116 C 
BRANCH   2   3
ATOM      3  N   UNL A   1      33.610  22.645  25.648  1.00  0.00    -0.352 N 
ATOM      4  C   UNL A   1      32.288  22.886  25.374  1.00  0.00     0.251 C 
ATOM      5  O   UNL A   1      31.514  21.929  25.388  1.00  0.00    -0.269 OA
ATOM      6  H   UNL A   1      33.815  21.693  25.801  1.00  0.00     0.163 HD
BRANCH   4   7
ATOM      7  C   UNL A   1      31.757  24.234  25.030  1.00  0.00     0.039 A 
ATOM      8  C   UNL A   1      30.862  26.783  24.246  1.00  0.00     0.000 A 
ATOM      9  C   UNL A   1      31.494  25.949  23.319  1.00  0.00     0.011 A 
ATOM     10  C   UNL A   1      30.668  26.339  25.552  1.00  0.00     0.011 A 
ATOM     11  C   UNL A   1      31.948  24.686  23.714  1.00  0.00     0.014 A 
ATOM     12  C   UNL A   1      31.064  25.056  25.919  1.00  0.00     0.014 A 
BRANCH   8  13
ATOM     13  C   UNL A   1      30.313  28.071  23.858  1.00  0.00     0.075 A 
ATOM     14  N   UNL A   1      30.714  29.291  24.383  1.00  0.00    -0.233 N 
ATOM     15  N   UNL A   1      29.932  30.310  23.941  1.00  0.00    -0.163 NA
ATOM     16  C   UNL A   1      29.178  29.766  22.962  1.00  0.00     0.167 A 
ATOM     17  C   UNL A   1      29.346  28.360  22.922  1.00  0.00     0.064 A 
BRANCH  14  18
ATOM     18  C   UNL A   1      31.824  29.545  25.231  1.00  0.00     0.065 A 
ATOM     19  C   UNL A   1      34.028  30.165  26.821  1.00  0.00     0.082 A 
ATOM     20  C   UNL A   1      32.764  30.621  27.195  1.00  0.00     0.024 A 
ATOM     21  C   UNL A   1      34.193  29.383  25.669  1.00  0.00     0.024 A 
ATOM     22  C   UNL A   1      31.664  30.314  26.395  1.00  0.00     0.030 A 
ATOM     23  C   UNL A   1      33.084  29.046  24.887  1.00  0.00     0.030 A 
BRANCH  19  24
ATOM     24  S   UNL A   1      35.457  30.586  27.770  1.00  0.00     0.238 S 
ATOM     25  O   UNL A   1      35.422  29.832  29.011  1.00  0.00    -0.207 OA
ATOM     26  O   UNL A   1      35.625  32.012  27.731  1.00  0.00    -0.207 OA
BRANCH  24  27
ATOM     27  N   UNL A   1      36.749  29.943  26.906  1.00  0.00    -0.225 NA
ATOM     28  H   UNL A   1      37.384  29.468  27.547  1.00  0.00     0.137 HD
ATOM     29  H   UNL A   1      37.246  30.696  26.429  1.00  0.00     0.137 HD
ENDBRANCH  24  27
ENDBRANCH  19  24
ENDBRANCH  14  18
BRANCH  16  30
ATOM     30  C   UNL A   1      28.302  30.572  22.043  1.00  0.00     0.435 C 
ATOM     31  F   UNL A   1      27.067  30.812  22.554  1.00  0.00    -0.164 F 
ATOM     32  F   UNL A   1      28.852  31.781  21.746  1.00  0.00    -0.164 F 
ATOM     33  F   UNL A   1      28.112  29.945  20.848  1.00  0.00    -0.164 F 
ENDBRANCH  16  30
ENDBRANCH   8  13
ENDBRANCH   4   7
ENDBRANCH   2   3
ENDBRANCH   1   2
BRANCH   1  34
ATOM     34  C   UNL A   1      37.031  22.916  24.663  1.00  0.00     0.023 C 
BRANCH  34  35
ATOM     35  C   UNL A   1      37.639  23.190  26.033  1.00  0.00     0.116 C 
BRANCH  35  36
ATOM     36  N   UNL A   1      38.727  22.269  26.365  1.00  0.00    -0.352 N 
ATOM     37  C   UNL A   1      40.061  22.573  26.567  1.00  0.00     0.251 C 
ATOM     38  H   UNL A   1      38.479  21.319  26.453  1.00  0.00     0.163 HD
ATOM     39  O   UNL A   1      40.928  21.723  26.411  1.00  0.00    -0.269 OA
BRANCH  37  40
ATOM     40  C   UNL A   1      40.408  23.936  27.005  1.00  0.00     0.039 A 
ATOM     41  C   UNL A   1      39.783  25.068  26.481  1.00  0.00     0.014 A 
ATOM     42  C   UNL A   1      41.371  24.051  28.006  1.00  0.00     0.014 A 
ATOM     43  C   UNL A   1      40.085  26.313  27.032  1.00  0.00     0.010 A 
ATOM     44  C   UNL A   1      41.540  25.243  28.655  1.00  0.00     0.010 A 
ATOM     45  C   UNL A   1      40.952  26.389  28.137  1.00  0.00    -0.014 A 
BRANCH  45  46
ATOM     46  C   UNL A   1      41.145  27.636  28.870  1.00  0.00     0.031 A 
ATOM     47  C   UNL A   1      42.242  28.480  28.324  1.00  0.00     0.074 A 
ATOM     48  C   UNL A   1      40.268  28.091  29.796  1.00  0.00     0.049 A 
ATOM     49  N   UNL A   1      43.400  28.697  28.851  1.00  0.00    -0.248 NA
ATOM     50  C   UNL A   1      42.124  28.981  26.941  1.00  0.00     0.031 C 
ATOM     51  C   UNL A   1      38.987  27.502  30.206  1.00  0.00     0.029 A 
ATOM     52  N   UNL A   1      40.293  29.248  30.512  1.00  0.00    -0.354 N 
ATOM     53  C   UNL A   1      44.043  29.591  28.000  1.00  0.00     0.074 A 
ATOM     54  C   UNL A   1      43.325  29.534  26.756  1.00  0.00     0.031 C 
ATOM     55  C   UNL A   1      38.266  28.409  30.905  1.00  0.00     0.029 A 
ATOM     56  C   UNL A   1      39.091  29.578  31.143  1.00  0.00     0.049 A 
ATOM     57  H   UNL A   1      41.097  29.810  30.581  1.00  0.00     0.167 HD
ATOM     58  C   UNL A   1      44.925  30.506  28.491  1.00  0.00     0.037 A 
ATOM     59  C   UNL A   1      38.803  30.732  31.804  1.00  0.00     0.037 A 
ATOM     60  C   UNL A   1      45.331  30.152  29.832  1.00  0.00     0.049 A 
ATOM     61  C   UNL A   1      40.108  31.346  32.168  1.00  0.00     0.074 A 
ATOM     62  C   UNL A   1      45.926  29.044  30.407  1.00  0.00     0.029 A 
ATOM     63  N   UNL A   1      44.751  30.842  30.870  1.00  0.00    -0.354 N 
ATOM     64  N   UNL A   1      40.944  30.809  33.014  1.00  0.00    -0.248 NA
ATOM     65  C   UNL A   1      40.692  32.280  31.218  1.00  0.00     0.031 C 
ATOM     66  C   UNL A   1      45.254  28.869  31.651  1.00  0.00     0.029 A 
ATOM     67  C   UNL A   1      44.358  29.927  31.814  1.00  0.00     0.049 A 
ATOM     68  H   UNL A   1      44.638  31.818  30.927  1.00  0.00     0.167 HD
ATOM     69  C   UNL A   1      42.193  30.982  32.435  1.00  0.00     0.074 A 
ATOM     70  C   UNL A   1      41.980  31.954  31.361  1.00  0.00     0.031 C 
ATOM     71  C   UNL A   1      43.212  30.106  32.678  1.00  0.00     0.037 A 
BRANCH  58  72
ATOM     72  C   UNL A   1      45.103  31.909  27.949  1.00  0.00     0.058 A 
ATOM     73  C   UNL A   1      46.361  32.280  27.424  1.00  0.00     0.135 A 
ATOM     74  C   UNL A   1      44.209  32.978  28.182  1.00  0.00     0.135 A 
ATOM     75  F   UNL A   1      47.292  31.352  27.158  1.00  0.00    -0.206 F 
ATOM     76  C   UNL A   1      46.730  33.612  27.233  1.00  0.00     0.059 A 
ATOM     77  C   UNL A   1      44.539  34.308  27.948  1.00  0.00     0.059 A 
ATOM     78  F   UNL A   1      43.003  32.804  28.735  1.00  0.00    -0.206 F 
ATOM     79  C   UNL A   1      45.814  34.620  27.514  1.00  0.00     0.060 A 
BRANCH  79  80
ATOM     80  S   UNL A   1      46.314  36.341  27.350  1.00  0.00     0.124 S 
ATOM     81  O   UNL A   1      47.216  36.490  28.486  1.00  0.00    -0.237 OA
ATOM     82  O   UNL A   1      46.939  36.346  26.031  1.00  0.00    -0.237 OA
ATOM     83  O   UNL A   1      45.052  37.067  27.441  1.00  0.00    -0.744 OA
ENDBRANCH  79  80
ENDBRANCH  58  72
BRANCH  59  84
ATOM     84  C   UNL A   1      37.528  31.508  31.835  1.00  0.00     0.058 A 
ATOM     85  C   UNL A   1      36.803  31.677  33.033  1.00  0.00     0.135 A 
ATOM     86  C   UNL A   1      37.158  32.353  30.771  1.00  0.00     0.135 A 
ATOM     87  F   UNL A   1      37.092  30.925  34.107  1.00  0.00    -0.206 F 
ATOM     88  C   UNL A   1      35.823  32.667  33.186  1.00  0.00     0.059 A 
ATOM     89  C   UNL A   1      36.180  33.342  30.898  1.00  0.00     0.059 A 
ATOM     90  F   UNL A   1      37.805  32.308  29.597  1.00  0.00    -0.206 F 
ATOM     91  C   UNL A   1      35.536  33.515  32.118  1.00  0.00     0.060 A 
BRANCH  91  92
ATOM     92  S   UNL A   1      34.418  34.919  32.365  1.00  0.00     0.124 S 
ATOM     93  O   UNL A   1      34.179  35.360  30.994  1.00  0.00    -0.237 OA
ATOM     94  O   UNL A   1      33.284  34.299  33.042  1.00  0.00    -0.237 OA
ATOM     95  O   UNL A   1      35.204  35.836  33.186  1.00  0.00    -0.744 OA
ENDBRANCH  91  92
ENDBRANCH  59  84
BRANCH  71  96
ATOM     96  C   UNL A   1      43.061  29.122  33.812  1.00  0.00     0.058 A 
ATOM     97  C   UNL A   1      43.301  29.408  35.169  1.00  0.00     0.135 A 
ATOM     98  C   UNL A   1      42.496  27.872  33.516  1.00  0.00     0.135 A 
ATOM     99  F   UNL A   1      43.745  30.611  35.554  1.00  0.00    -0.206 F 
ATOM    100  C   UNL A   1      43.027  28.478  36.177  1.00  0.00     0.059 A 
ATOM    101  C   UNL A   1      42.186  26.944  34.504  1.00  0.00     0.059 A 
ATOM    102  F   UNL A   1      42.188  27.560  32.246  1.00  0.00    -0.206 F 
ATOM    103  C   UNL A   1      42.467  27.247  35.833  1.00  0.00     0.060 A 
BRANCH 103 104
ATOM    104  S   UNL A   1      42.055  26.066  37.136  1.00  0.00     0.124 S 
ATOM    105  O   UNL A   1      42.971  26.454  38.204  1.00  0.00    -0.237 OA
ATOM    106  O   UNL A   1      40.642  26.342  37.381  1.00  0.00    -0.237 OA
ATOM    107  O   UNL A   1      42.330  24.769  36.520  1.00  0.00    -0.744 OA
ENDBRANCH 103 104
ENDBRANCH  71  96
ENDBRANCH  45  46
ENDBRANCH  37  40
ENDBRANCH  35  36
ENDBRANCH  34  35
ENDBRANCH   1  34
TORSDOF 19
ENDMDL
MODEL 3
REMARK VINA RESULT:     -13.1      3.361      9.802
REMARK SMILES NS(=O)(=O)c1ccc(-n2nc(C(F)(F)F)cc2-c2ccc(C(=O)NCCCCNC(=O)c3ccc(-c4c5nc(c(-c6c(F)cc(S(=O)(=O)[O-])cc6F)c6ccc([nH]6)c(-c6c(F)cc(S(=O)(=O)[O-])cc6F)c6nc(c(-c7c(F)cc(S(=O)(=O)[O-])cc7F)c7ccc4[nH]7)C=C6)C=C5)cc3)cc2)cc1
REMARK SMILES IDX 26 1 25 2 24 3 22 4 23 5 21 7 18 8 19 9 99 10 20 11 98 12
REMARK SMILES IDX 17 13 9 14 10 15 11 16 16 17 8 18 5 19 6 20 101 21 7 22
REMARK SMILES IDX 100 23 2 24 3 25 4 26 1 27 12 30 13 31 14 32 15 33 27 34
REMARK SMILES IDX 28 35 29 36 30 37 31 39 32 40 33 41 97 42 34 43 96 44 35 45
REMARK SMILES IDX 36 46 37 47 90 48 38 49 95 50 89 51 91 52 39 53 94 54 88 55
REMARK SMILES IDX 87 56 40 58 74 59 53 60 73 61 54 62 57 63 72 64 92 65 55 66
REMARK SMILES IDX 56 67 71 69 93 70 58 71 41 72 42 73 51 74 43 75 44 76 50 77
REMARK SMILES IDX 52 78 45 79 46 80 47 81 48 82 49 83 75 84 76 85 85 86 77 87
REMARK SMILES IDX 78 88 84 89 86 90 79 91 80 92 81 93 82 94 83 95 59 96 60 97
REMARK SMILES IDX 69 98 61 99 62 100 68 101 70 102 63 103 64 104 65 105 66 106
REMARK SMILES IDX 67 107
REMARK H PARENT 24 6 1 28 1 29 29 38 91 57 57 68
REMARK Flexibility Score: inf
ROOT
ATOM      1  C   UNL A   1      31.775  29.000  25.661  1.00  0.00     0.023 C 
ENDROOT
BRANCH   1   2
ATOM      2  C   UNL A   1      32.071  28.379  24.289  1.00  0.00     0.116 C 
BRANCH   2   3
ATOM      3  N   UNL A   1      31.164  27.282  24.012  1.00  0.00    -0.352 N 
ATOM      4  C   UNL A   1      31.321  25.919  24.037  1.00  0.00     0.251 C 
ATOM      5  O   UNL A   1      30.359  25.224  23.708  1.00  0.00    -0.269 OA
ATOM      6  H   UNL A   1      30.258  27.571  23.756  1.00  0.00     0.163 HD
BRANCH   4   7
ATOM      7  C   UNL A   1      32.576  25.247  24.474  1.00  0.00     0.039 A 
ATOM      8  C   UNL A   1      34.971  23.929  25.135  1.00  0.00     0.000 A 
ATOM      9  C   UNL A   1      34.724  24.306  23.812  1.00  0.00     0.011 A 
ATOM     10  C   UNL A   1      34.032  24.221  26.122  1.00  0.00     0.011 A 
ATOM     11  C   UNL A   1      33.528  24.952  23.483  1.00  0.00     0.014 A 
ATOM     12  C   UNL A   1      32.873  24.923  25.797  1.00  0.00     0.014 A 
BRANCH   8  13
ATOM     13  C   UNL A   1      36.230  23.320  25.529  1.00  0.00     0.075 A 
ATOM     14  N   UNL A   1      36.465  21.954  25.581  1.00  0.00    -0.233 N 
ATOM     15  N   UNL A   1      37.681  21.673  26.119  1.00  0.00    -0.163 NA
ATOM     16  C   UNL A   1      38.305  22.867  26.200  1.00  0.00     0.167 A 
ATOM     17  C   UNL A   1      37.412  23.923  25.897  1.00  0.00     0.064 A 
BRANCH  14  18
ATOM     18  C   UNL A   1      35.628  20.913  25.101  1.00  0.00     0.065 A 
ATOM     19  C   UNL A   1      33.957  18.833  24.296  1.00  0.00     0.082 A 
ATOM     20  C   UNL A   1      33.422  20.107  24.483  1.00  0.00     0.024 A 
ATOM     21  C   UNL A   1      35.325  18.597  24.487  1.00  0.00     0.024 A 
ATOM     22  C   UNL A   1      34.259  21.144  24.892  1.00  0.00     0.030 A 
ATOM     23  C   UNL A   1      36.170  19.646  24.861  1.00  0.00     0.030 A 
BRANCH  19  24
ATOM     24  S   UNL A   1      32.919  17.476  23.842  1.00  0.00     0.238 S 
ATOM     25  O   UNL A   1      31.830  17.391  24.798  1.00  0.00    -0.207 OA
ATOM     26  O   UNL A   1      33.755  16.354  23.514  1.00  0.00    -0.207 OA
BRANCH  24  27
ATOM     27  N   UNL A   1      32.198  17.954  22.400  1.00  0.00    -0.225 NA
ATOM     28  H   UNL A   1      32.420  18.932  22.216  1.00  0.00     0.137 HD
ATOM     29  H   UNL A   1      31.186  17.842  22.472  1.00  0.00     0.137 HD
ENDBRANCH  24  27
ENDBRANCH  19  24
ENDBRANCH  14  18
BRANCH  16  30
ATOM     30  C   UNL A   1      39.760  23.022  26.550  1.00  0.00     0.435 C 
ATOM     31  F   UNL A   1      40.564  22.143  25.896  1.00  0.00    -0.164 F 
ATOM     32  F   UNL A   1      40.222  24.271  26.265  1.00  0.00    -0.164 F 
ATOM     33  F   UNL A   1      39.983  22.835  27.881  1.00  0.00    -0.164 F 
ENDBRANCH  16  30
ENDBRANCH   8  13
ENDBRANCH   4   7
ENDBRANCH   2   3
ENDBRANCH   1   2
BRANCH   1  34
ATOM     34  C   UNL A   1      32.861  28.769  26.721  1.00  0.00     0.023 C 
BRANCH  34  35
ATOM     35  C   UNL A   1      34.171  29.498  26.450  1.00  0.00     0.116 C 
BRANCH  35  36
ATOM     36  N   UNL A   1      34.130  30.905  26.848  1.00  0.00    -0.352 N 
ATOM     37  C   UNL A   1      34.755  31.496  27.932  1.00  0.00     0.251 C 
ATOM     38  H   UNL A   1      33.593  31.502  26.278  1.00  0.00     0.163 HD
ATOM     39  O   UNL A   1      34.325  32.538  28.411  1.00  0.00    -0.269 OA
BRANCH  37  40
ATOM     40  C   UNL A   1      35.967  30.859  28.473  1.00  0.00     0.039 A 
ATOM     41  C   UNL A   1      36.045  29.485  28.704  1.00  0.00     0.014 A 
ATOM     42  C   UNL A   1      37.063  31.686  28.713  1.00  0.00     0.014 A 
ATOM     43  C   UNL A   1      37.266  28.944  29.106  1.00  0.00     0.010 A 
ATOM     44  C   UNL A   1      38.295  31.137  28.942  1.00  0.00     0.010 A 
ATOM     45  C   UNL A   1      38.395  29.777  29.203  1.00  0.00    -0.014 A 
BRANCH  45  46
ATOM     46  C   UNL A   1      39.730  29.230  29.426  1.00  0.00     0.031 A 
ATOM     47  C   UNL A   1      40.088  29.114  30.866  1.00  0.00     0.074 A 
ATOM     48  C   UNL A   1      40.469  28.665  28.443  1.00  0.00     0.049 A 
ATOM     49  N   UNL A   1      40.933  29.835  31.524  1.00  0.00    -0.248 NA
ATOM     50  C   UNL A   1      39.275  28.233  31.725  1.00  0.00     0.031 C 
ATOM     51  C   UNL A   1      40.102  28.441  27.039  1.00  0.00     0.029 A 
ATOM     52  N   UNL A   1      41.694  28.075  28.517  1.00  0.00    -0.354 N 
ATOM     53  C   UNL A   1      40.961  29.307  32.811  1.00  0.00     0.074 A 
ATOM     54  C   UNL A   1      39.773  28.507  32.933  1.00  0.00     0.031 C 
ATOM     55  C   UNL A   1      40.969  27.570  26.471  1.00  0.00     0.029 A 
ATOM     56  C   UNL A   1      42.046  27.306  27.405  1.00  0.00     0.049 A 
ATOM     57  H   UNL A   1      42.287  28.183  29.294  1.00  0.00     0.167 HD
ATOM     58  C   UNL A   1      42.104  29.343  33.551  1.00  0.00     0.037 A 
ATOM     59  C   UNL A   1      43.142  26.510  27.274  1.00  0.00     0.037 A 
ATOM     60  C   UNL A   1      43.047  30.280  32.985  1.00  0.00     0.049 A 
ATOM     61  C   UNL A   1      44.128  26.981  28.283  1.00  0.00     0.074 A 
ATOM     62  C   UNL A   1      43.017  31.630  32.689  1.00  0.00     0.029 A 
ATOM     63  N   UNL A   1      44.090  29.762  32.253  1.00  0.00    -0.354 N 
ATOM     64  N   UNL A   1      44.700  28.153  28.237  1.00  0.00    -0.248 NA
ATOM     65  C   UNL A   1      44.087  26.356  29.596  1.00  0.00     0.031 C 
ATOM     66  C   UNL A   1      43.697  31.748  31.441  1.00  0.00     0.029 A 
ATOM     67  C   UNL A   1      44.188  30.489  31.093  1.00  0.00     0.049 A 
ATOM     68  H   UNL A   1      44.663  29.006  32.514  1.00  0.00     0.167 HD
ATOM     69  C   UNL A   1      44.688  28.604  29.549  1.00  0.00     0.074 A 
ATOM     70  C   UNL A   1      44.359  27.424  30.350  1.00  0.00     0.031 C 
ATOM     71  C   UNL A   1      44.649  29.939  29.838  1.00  0.00     0.037 A 
BRANCH  58  72
ATOM     72  C   UNL A   1      42.539  28.262  34.520  1.00  0.00     0.058 A 
ATOM     73  C   UNL A   1      42.584  28.564  35.899  1.00  0.00     0.135 A 
ATOM     74  C   UNL A   1      43.181  27.061  34.145  1.00  0.00     0.135 A 
ATOM     75  F   UNL A   1      42.006  29.677  36.376  1.00  0.00    -0.206 F 
ATOM     76  C   UNL A   1      43.288  27.781  36.815  1.00  0.00     0.059 A 
ATOM     77  C   UNL A   1      43.843  26.240  35.051  1.00  0.00     0.059 A 
ATOM     78  F   UNL A   1      43.284  26.663  32.872  1.00  0.00    -0.206 F 
ATOM     79  C   UNL A   1      43.928  26.628  36.375  1.00  0.00     0.060 A 
BRANCH  79  80
ATOM     80  S   UNL A   1      44.908  25.663  37.536  1.00  0.00     0.124 S 
ATOM     81  O   UNL A   1      44.370  24.324  37.327  1.00  0.00    -0.237 OA
ATOM     82  O   UNL A   1      46.263  25.893  37.047  1.00  0.00    -0.237 OA
ATOM     83  O   UNL A   1      44.600  26.276  38.824  1.00  0.00    -0.744 OA
ENDBRANCH  79  80
ENDBRANCH  58  72
BRANCH  59  84
ATOM     84  C   UNL A   1      43.267  25.181  26.607  1.00  0.00     0.058 A 
ATOM     85  C   UNL A   1      43.771  25.064  25.295  1.00  0.00     0.135 A 
ATOM     86  C   UNL A   1      43.190  23.981  27.342  1.00  0.00     0.135 A 
ATOM     87  F   UNL A   1      43.893  26.155  24.521  1.00  0.00    -0.206 F 
ATOM     88  C   UNL A   1      44.233  23.850  24.771  1.00  0.00     0.059 A 
ATOM     89  C   UNL A   1      43.639  22.758  26.839  1.00  0.00     0.059 A 
ATOM     90  F   UNL A   1      42.763  23.978  28.613  1.00  0.00    -0.206 F 
ATOM     91  C   UNL A   1      44.188  22.704  25.562  1.00  0.00     0.060 A 
BRANCH  91  92
ATOM     92  S   UNL A   1      44.962  21.176  24.971  1.00  0.00     0.124 S 
ATOM     93  O   UNL A   1      44.702  21.241  23.536  1.00  0.00    -0.237 OA
ATOM     94  O   UNL A   1      46.351  21.354  25.376  1.00  0.00    -0.237 OA
ATOM     95  O   UNL A   1      44.236  20.130  25.688  1.00  0.00    -0.744 OA
ENDBRANCH  91  92
ENDBRANCH  59  84
BRANCH  71  96
ATOM     96  C   UNL A   1      44.920  30.924  28.728  1.00  0.00     0.058 A 
ATOM     97  C   UNL A   1      43.991  31.309  27.743  1.00  0.00     0.135 A 
ATOM     98  C   UNL A   1      46.135  31.625  28.764  1.00  0.00     0.135 A 
ATOM     99  F   UNL A   1      42.768  30.765  27.695  1.00  0.00    -0.206 F 
ATOM    100  C   UNL A   1      44.276  32.316  26.815  1.00  0.00     0.059 A 
ATOM    101  C   UNL A   1      46.427  32.651  27.872  1.00  0.00     0.059 A 
ATOM    102  F   UNL A   1      47.041  31.347  29.716  1.00  0.00    -0.206 F 
ATOM    103  C   UNL A   1      45.499  32.983  26.890  1.00  0.00     0.060 A 
BRANCH 103 104
ATOM    104  S   UNL A   1      45.849  34.325  25.733  1.00  0.00     0.124 S 
ATOM    105  O   UNL A   1      45.399  35.497  26.476  1.00  0.00    -0.237 OA
ATOM    106  O   UNL A   1      47.293  34.212  25.541  1.00  0.00    -0.237 OA
ATOM    107  O   UNL A   1      45.046  33.984  24.561  1.00  0.00    -0.744 OA
ENDBRANCH 103 104
ENDBRANCH  71  96
ENDBRANCH  45  46
ENDBRANCH  37  40
ENDBRANCH  35  36
ENDBRANCH  34  35
ENDBRANCH   1  34
TORSDOF 19
ENDMDL
