MODEL 1
REMARK VINA RESULT:     -12.8      0.000      0.000
REMARK SMILES Cc1c(-c2ccc(O)cc2)nc(N)c(C#N)c1-c1ccccc1OCC(=O)NCCCCNC(=O)c1ccc(-c2c3nc(c(-c4c(F)cc(S(=O)(=O)[O-])cc4F)c4ccc([nH]4)c(-c4c(F)cc(S(=O)(=O)[O-])cc4F)c4nc(c(-c5c(F)cc(S(=O)(=O)[O-])cc5F)c5ccc2[nH]5)C=C4)C=C3)cc1
REMARK SMILES IDX 29 1 28 2 26 3 27 4 25 6 24 7 23 8 18 9 19 10 20 11 22 12
REMARK SMILES IDX 21 13 17 14 1 15 2 16 3 17 11 18 14 19 12 20 4 21 5 22 10 23
REMARK SMILES IDX 6 24 9 25 7 26 8 27 15 29 16 30 13 31 30 34 31 35 32 36
REMARK SMILES IDX 33 37 34 38 35 40 36 41 37 42 101 43 38 44 100 45 39 46
REMARK SMILES IDX 40 47 41 48 94 49 42 50 99 51 93 52 95 53 43 54 98 55 92 56
REMARK SMILES IDX 91 57 44 59 78 60 57 61 77 62 58 63 61 64 76 65 96 66 59 67
REMARK SMILES IDX 60 68 75 70 97 71 62 72 45 73 46 74 55 75 47 76 48 77 54 78
REMARK SMILES IDX 56 79 49 80 50 81 51 82 52 83 53 84 79 85 80 86 89 87 81 88
REMARK SMILES IDX 82 89 88 90 90 91 83 92 84 93 85 94 86 95 87 96 63 97 64 98
REMARK SMILES IDX 73 99 65 100 66 101 72 102 74 103 67 104 68 105 69 106
REMARK SMILES IDX 70 107 71 108
REMARK H PARENT 28 5 8 28 13 32 13 33 33 39 95 58 61 69
REMARK Flexibility Score: inf
ROOT
ATOM      1  C   UNL A   1      34.388  30.566  27.344  1.00  0.00     0.116 C 
ENDROOT
BRANCH   1   2
ATOM      2  N   UNL A   1      33.184  29.765  27.377  1.00  0.00    -0.353 N 
ATOM      3  C   UNL A   1      33.039  28.442  27.080  1.00  0.00     0.257 C 
ATOM      4  O   UNL A   1      32.107  27.839  27.616  1.00  0.00    -0.271 OA
ATOM      5  H   UNL A   1      32.363  30.236  27.650  1.00  0.00     0.163 HD
BRANCH   3   6
ATOM      6  C   UNL A   1      34.015  27.695  26.166  1.00  0.00     0.329 C 
BRANCH   6   7
ATOM      7  O   UNL A   1      33.607  26.452  25.658  1.00  0.00    -0.483 OA
BRANCH   7   8
ATOM      8  C   UNL A   1      33.303  26.184  24.357  1.00  0.00     0.127 A 
ATOM      9  C   UNL A   1      32.683  25.075  23.739  1.00  0.00     0.026 A 
ATOM     10  C   UNL A   1      32.435  25.162  22.345  1.00  0.00     0.012 A 
ATOM     11  C   UNL A   1      32.815  26.269  21.584  1.00  0.00     0.001 A 
ATOM     12  C   UNL A   1      33.676  27.291  23.568  1.00  0.00     0.047 A 
ATOM     13  C   UNL A   1      33.447  27.336  22.197  1.00  0.00     0.004 A 
BRANCH   9  14
ATOM     14  C   UNL A   1      32.279  23.806  24.399  1.00  0.00     0.012 A 
ATOM     15  C   UNL A   1      34.345  22.610  23.531  1.00  0.00     0.047 C 
ATOM     16  C   UNL A   1      33.005  22.601  24.221  1.00  0.00    -0.015 A 
ATOM     17  C   UNL A   1      32.462  21.416  24.760  1.00  0.00     0.076 A 
ATOM     18  N   UNL A   1      31.374  21.430  25.574  1.00  0.00    -0.230 NA
ATOM     19  C   UNL A   1      31.153  23.788  25.260  1.00  0.00     0.102 A 
ATOM     20  C   UNL A   1      30.770  22.591  25.856  1.00  0.00     0.142 A 
BRANCH  17  21
ATOM     21  C   UNL A   1      32.853  20.045  24.352  1.00  0.00     0.001 A 
ATOM     22  C   UNL A   1      32.191  19.457  23.250  1.00  0.00     0.014 A 
ATOM     23  C   UNL A   1      33.892  19.310  24.942  1.00  0.00     0.014 A 
ATOM     24  C   UNL A   1      32.600  18.238  22.709  1.00  0.00     0.047 A 
ATOM     25  C   UNL A   1      34.314  18.087  24.397  1.00  0.00     0.047 A 
ATOM     26  C   UNL A   1      33.674  17.573  23.273  1.00  0.00     0.115 A 
BRANCH  26  27
ATOM     27  O   UNL A   1      34.081  16.414  22.683  1.00  0.00    -0.508 OA
ATOM     28  H   UNL A   1      33.948  15.595  23.119  1.00  0.00     0.293 HD
ENDBRANCH  26  27
ENDBRANCH  17  21
BRANCH  19  29
ATOM     29  C   UNL A   1      30.414  24.980  25.563  1.00  0.00     0.104 C 
ATOM     30  N   UNL A   1      29.775  25.920  25.802  1.00  0.00    -0.192 NA
ENDBRANCH  19  29
BRANCH  20  31
ATOM     31  N   UNL A   1      29.694  22.475  26.717  1.00  0.00    -0.383 N 
ATOM     32  H   UNL A   1      29.110  21.684  26.673  1.00  0.00     0.158 HD
ATOM     33  H   UNL A   1      29.511  23.184  27.375  1.00  0.00     0.158 HD
ENDBRANCH  20  31
ENDBRANCH   9  14
ENDBRANCH   7   8
ENDBRANCH   6   7
ENDBRANCH   3   6
ENDBRANCH   1   2
BRANCH   1  34
ATOM     34  C   UNL A   1      34.280  31.939  28.004  1.00  0.00     0.023 C 
BRANCH  34  35
ATOM     35  C   UNL A   1      35.538  32.810  28.040  1.00  0.00     0.023 C 
BRANCH  35  36
ATOM     36  C   UNL A   1      36.311  32.872  29.352  1.00  0.00     0.116 C 
BRANCH  36  37
ATOM     37  N   UNL A   1      35.951  31.827  30.293  1.00  0.00    -0.352 N 
ATOM     38  C   UNL A   1      36.634  30.696  30.670  1.00  0.00     0.251 C 
ATOM     39  H   UNL A   1      35.078  31.948  30.732  1.00  0.00     0.163 HD
ATOM     40  O   UNL A   1      36.100  29.904  31.443  1.00  0.00    -0.269 OA
BRANCH  38  41
ATOM     41  C   UNL A   1      37.979  30.401  30.124  1.00  0.00     0.039 A 
ATOM     42  C   UNL A   1      39.078  30.486  30.986  1.00  0.00     0.014 A 
ATOM     43  C   UNL A   1      38.172  30.054  28.784  1.00  0.00     0.014 A 
ATOM     44  C   UNL A   1      40.353  30.153  30.524  1.00  0.00     0.010 A 
ATOM     45  C   UNL A   1      39.434  29.654  28.344  1.00  0.00     0.010 A 
ATOM     46  C   UNL A   1      40.537  29.696  29.209  1.00  0.00    -0.014 A 
BRANCH  46  47
ATOM     47  C   UNL A   1      41.876  29.263  28.730  1.00  0.00     0.031 A 
ATOM     48  C   UNL A   1      43.007  30.251  28.645  1.00  0.00     0.074 A 
ATOM     49  C   UNL A   1      42.066  27.985  28.343  1.00  0.00     0.049 A 
ATOM     50  N   UNL A   1      44.230  30.070  28.217  1.00  0.00    -0.248 NA
ATOM     51  C   UNL A   1      42.722  31.627  29.081  1.00  0.00     0.031 C 
ATOM     52  C   UNL A   1      41.043  26.938  28.358  1.00  0.00     0.029 A 
ATOM     53  N   UNL A   1      43.183  27.348  27.866  1.00  0.00    -0.354 N 
ATOM     54  C   UNL A   1      44.861  31.303  28.337  1.00  0.00     0.074 A 
ATOM     55  C   UNL A   1      43.867  32.239  28.816  1.00  0.00     0.031 C 
ATOM     56  C   UNL A   1      41.589  25.783  27.946  1.00  0.00     0.029 A 
ATOM     57  C   UNL A   1      42.988  26.012  27.600  1.00  0.00     0.049 A 
ATOM     58  H   UNL A   1      44.045  27.803  27.727  1.00  0.00     0.167 HD
ATOM     59  C   UNL A   1      46.157  31.619  28.102  1.00  0.00     0.037 A 
ATOM     60  C   UNL A   1      43.839  25.078  27.130  1.00  0.00     0.037 A 
ATOM     61  C   UNL A   1      47.145  30.681  27.637  1.00  0.00     0.049 A 
ATOM     62  C   UNL A   1      45.261  25.466  26.827  1.00  0.00     0.074 A 
ATOM     63  C   UNL A   1      48.488  30.901  27.388  1.00  0.00     0.029 A 
ATOM     64  N   UNL A   1      46.900  29.345  27.353  1.00  0.00    -0.354 N 
ATOM     65  N   UNL A   1      45.847  26.630  26.975  1.00  0.00    -0.248 NA
ATOM     66  C   UNL A   1      46.139  24.415  26.292  1.00  0.00     0.031 C 
ATOM     67  C   UNL A   1      49.046  29.710  26.913  1.00  0.00     0.029 A 
ATOM     68  C   UNL A   1      48.063  28.735  26.912  1.00  0.00     0.049 A 
ATOM     69  H   UNL A   1      46.029  28.897  27.450  1.00  0.00     0.167 HD
ATOM     70  C   UNL A   1      47.166  26.446  26.576  1.00  0.00     0.074 A 
ATOM     71  C   UNL A   1      47.295  25.055  26.190  1.00  0.00     0.031 C 
ATOM     72  C   UNL A   1      48.178  27.347  26.533  1.00  0.00     0.037 A 
BRANCH  59  73
ATOM     73  C   UNL A   1      46.585  33.037  28.361  1.00  0.00     0.058 A 
ATOM     74  C   UNL A   1      47.075  33.435  29.616  1.00  0.00     0.135 A 
ATOM     75  C   UNL A   1      46.546  33.999  27.339  1.00  0.00     0.135 A 
ATOM     76  F   UNL A   1      47.118  32.560  30.633  1.00  0.00    -0.206 F 
ATOM     77  C   UNL A   1      47.487  34.741  29.857  1.00  0.00     0.059 A 
ATOM     78  C   UNL A   1      46.981  35.305  27.549  1.00  0.00     0.059 A 
ATOM     79  F   UNL A   1      46.087  33.674  26.120  1.00  0.00    -0.206 F 
ATOM     80  C   UNL A   1      47.438  35.669  28.816  1.00  0.00     0.060 A 
BRANCH  80  81
ATOM     81  S   UNL A   1      47.982  37.358  29.147  1.00  0.00     0.124 S 
ATOM     82  O   UNL A   1      49.409  37.267  28.850  1.00  0.00    -0.237 OA
ATOM     83  O   UNL A   1      47.186  38.132  28.200  1.00  0.00    -0.237 OA
ATOM     84  O   UNL A   1      47.647  37.555  30.554  1.00  0.00    -0.744 OA
ENDBRANCH  80  81
ENDBRANCH  59  73
BRANCH  60  85
ATOM     85  C   UNL A   1      43.375  23.676  26.952  1.00  0.00     0.058 A 
ATOM     86  C   UNL A   1      43.216  22.827  28.058  1.00  0.00     0.135 A 
ATOM     87  C   UNL A   1      43.057  23.162  25.685  1.00  0.00     0.135 A 
ATOM     88  F   UNL A   1      43.516  23.268  29.290  1.00  0.00    -0.206 F 
ATOM     89  C   UNL A   1      42.764  21.520  27.916  1.00  0.00     0.059 A 
ATOM     90  C   UNL A   1      42.580  21.866  25.519  1.00  0.00     0.059 A 
ATOM     91  F   UNL A   1      43.180  23.936  24.595  1.00  0.00    -0.206 F 
ATOM     92  C   UNL A   1      42.441  21.050  26.642  1.00  0.00     0.060 A 
BRANCH  92  93
ATOM     93  S   UNL A   1      41.794  19.371  26.479  1.00  0.00     0.124 S 
ATOM     94  O   UNL A   1      42.101  18.809  27.789  1.00  0.00    -0.237 OA
ATOM     95  O   UNL A   1      40.382  19.616  26.202  1.00  0.00    -0.237 OA
ATOM     96  O   UNL A   1      42.559  18.823  25.362  1.00  0.00    -0.744 OA
ENDBRANCH  92  93
ENDBRANCH  60  85
BRANCH  72  97
ATOM     97  C   UNL A   1      49.525  26.864  26.069  1.00  0.00     0.058 A 
ATOM     98  C   UNL A   1      49.920  26.972  24.727  1.00  0.00     0.135 A 
ATOM     99  C   UNL A   1      50.458  26.362  26.990  1.00  0.00     0.135 A 
ATOM    100  F   UNL A   1      49.063  27.439  23.805  1.00  0.00    -0.206 F 
ATOM    101  C   UNL A   1      51.191  26.588  24.311  1.00  0.00     0.059 A 
ATOM    102  C   UNL A   1      51.744  25.997  26.601  1.00  0.00     0.059 A 
ATOM    103  F   UNL A   1      50.133  26.247  28.287  1.00  0.00    -0.206 F 
ATOM    104  C   UNL A   1      52.098  26.108  25.258  1.00  0.00     0.060 A 
BRANCH 104 105
ATOM    105  S   UNL A   1      53.759  25.662  24.709  1.00  0.00     0.124 S 
ATOM    106  O   UNL A   1      53.674  24.206  24.663  1.00  0.00    -0.237 OA
ATOM    107  O   UNL A   1      53.849  26.334  23.416  1.00  0.00    -0.237 OA
ATOM    108  O   UNL A   1      54.622  26.208  25.753  1.00  0.00    -0.744 OA
ENDBRANCH 104 105
ENDBRANCH  72  97
ENDBRANCH  46  47
ENDBRANCH  38  41
ENDBRANCH  36  37
ENDBRANCH  35  36
ENDBRANCH  34  35
ENDBRANCH   1  34
TORSDOF 21
ENDMDL
MODEL 2
REMARK VINA RESULT:     -12.2      0.623      7.908
REMARK SMILES Cc1c(-c2ccc(O)cc2)nc(N)c(C#N)c1-c1ccccc1OCC(=O)NCCCCNC(=O)c1ccc(-c2c3nc(c(-c4c(F)cc(S(=O)(=O)[O-])cc4F)c4ccc([nH]4)c(-c4c(F)cc(S(=O)(=O)[O-])cc4F)c4nc(c(-c5c(F)cc(S(=O)(=O)[O-])cc5F)c5ccc2[nH]5)C=C4)C=C3)cc1
REMARK SMILES IDX 29 1 28 2 26 3 27 4 25 6 24 7 23 8 18 9 19 10 20 11 22 12
REMARK SMILES IDX 21 13 17 14 1 15 2 16 3 17 11 18 14 19 12 20 4 21 5 22 10 23
REMARK SMILES IDX 6 24 9 25 7 26 8 27 15 29 16 30 13 31 30 34 31 35 32 36
REMARK SMILES IDX 33 37 34 38 35 40 36 41 37 42 101 43 38 44 100 45 39 46
REMARK SMILES IDX 40 47 41 48 94 49 42 50 99 51 93 52 95 53 43 54 98 55 92 56
REMARK SMILES IDX 91 57 44 59 78 60 57 61 77 62 58 63 61 64 76 65 96 66 59 67
REMARK SMILES IDX 60 68 75 70 97 71 62 72 45 73 46 74 55 75 47 76 48 77 54 78
REMARK SMILES IDX 56 79 49 80 50 81 51 82 52 83 53 84 79 85 80 86 89 87 81 88
REMARK SMILES IDX 82 89 88 90 90 91 83 92 84 93 85 94 86 95 87 96 63 97 64 98
REMARK SMILES IDX 73 99 65 100 66 101 72 102 74 103 67 104 68 105 69 106
REMARK SMILES IDX 70 107 71 108
REMARK H PARENT 28 5 8 28 13 32 13 33 33 39 95 58 61 69
REMARK Flexibility Score: inf
ROOT
ATOM      1  C   UNL A   1      35.070  29.421  27.313  1.00  0.00     0.116 C 
ENDROOT
BRANCH   1   2
ATOM      2  N   UNL A   1      33.902  29.460  26.461  1.00  0.00    -0.353 N 
ATOM      3  C   UNL A   1      32.972  28.485  26.253  1.00  0.00     0.257 C 
ATOM      4  O   UNL A   1      31.842  28.841  25.915  1.00  0.00    -0.271 OA
ATOM      5  H   UNL A   1      33.759  30.301  25.968  1.00  0.00     0.163 HD
BRANCH   3   6
ATOM      6  C   UNL A   1      33.277  27.001  26.478  1.00  0.00     0.329 C 
BRANCH   6   7
ATOM      7  O   UNL A   1      33.972  26.319  25.467  1.00  0.00    -0.483 OA
BRANCH   7   8
ATOM      8  C   UNL A   1      33.516  26.088  24.204  1.00  0.00     0.127 A 
ATOM      9  C   UNL A   1      32.771  25.025  23.647  1.00  0.00     0.026 A 
ATOM     10  C   UNL A   1      32.380  25.146  22.289  1.00  0.00     0.012 A 
ATOM     11  C   UNL A   1      32.738  26.241  21.500  1.00  0.00     0.001 A 
ATOM     12  C   UNL A   1      33.864  27.184  23.389  1.00  0.00     0.047 A 
ATOM     13  C   UNL A   1      33.491  27.262  22.051  1.00  0.00     0.004 A 
BRANCH   9  14
ATOM     14  C   UNL A   1      32.369  23.770  24.336  1.00  0.00     0.012 A 
ATOM     15  C   UNL A   1      34.419  22.548  23.466  1.00  0.00     0.047 C 
ATOM     16  C   UNL A   1      33.087  22.558  24.172  1.00  0.00    -0.015 A 
ATOM     17  C   UNL A   1      32.545  21.386  24.740  1.00  0.00     0.076 A 
ATOM     18  N   UNL A   1      31.466  21.421  25.566  1.00  0.00    -0.230 NA
ATOM     19  C   UNL A   1      31.253  23.774  25.210  1.00  0.00     0.102 A 
ATOM     20  C   UNL A   1      30.871  22.590  25.833  1.00  0.00     0.142 A 
BRANCH  17  21
ATOM     21  C   UNL A   1      32.924  20.006  24.353  1.00  0.00     0.001 A 
ATOM     22  C   UNL A   1      32.220  19.387  23.297  1.00  0.00     0.014 A 
ATOM     23  C   UNL A   1      33.990  19.291  24.920  1.00  0.00     0.014 A 
ATOM     24  C   UNL A   1      32.612  18.154  22.772  1.00  0.00     0.047 A 
ATOM     25  C   UNL A   1      34.394  18.055  24.391  1.00  0.00     0.047 A 
ATOM     26  C   UNL A   1      33.711  17.508  23.309  1.00  0.00     0.115 A 
BRANCH  26  27
ATOM     27  O   UNL A   1      34.098  16.335  22.735  1.00  0.00    -0.508 OA
ATOM     28  H   UNL A   1      34.924  15.953  22.960  1.00  0.00     0.293 HD
ENDBRANCH  26  27
ENDBRANCH  17  21
BRANCH  19  29
ATOM     29  C   UNL A   1      30.523  24.975  25.499  1.00  0.00     0.104 C 
ATOM     30  N   UNL A   1      29.892  25.923  25.724  1.00  0.00    -0.192 NA
ENDBRANCH  19  29
BRANCH  20  31
ATOM     31  N   UNL A   1      29.805  22.496  26.709  1.00  0.00    -0.383 N 
ATOM     32  H   UNL A   1      29.123  23.206  26.732  1.00  0.00     0.158 HD
ATOM     33  H   UNL A   1      29.726  21.719  27.308  1.00  0.00     0.158 HD
ENDBRANCH  20  31
ENDBRANCH   9  14
ENDBRANCH   7   8
ENDBRANCH   6   7
ENDBRANCH   3   6
ENDBRANCH   1   2
BRANCH   1  34
ATOM     34  C   UNL A   1      35.723  30.772  27.593  1.00  0.00     0.023 C 
BRANCH  34  35
ATOM     35  C   UNL A   1      35.145  31.619  28.729  1.00  0.00     0.023 C 
BRANCH  35  36
ATOM     36  C   UNL A   1      36.074  31.972  29.884  1.00  0.00     0.116 C 
BRANCH  36  37
ATOM     37  N   UNL A   1      35.969  31.069  31.016  1.00  0.00    -0.352 N 
ATOM     38  C   UNL A   1      36.867  30.152  31.508  1.00  0.00     0.251 C 
ATOM     39  H   UNL A   1      35.120  31.123  31.511  1.00  0.00     0.163 HD
ATOM     40  O   UNL A   1      36.535  29.435  32.450  1.00  0.00    -0.269 OA
BRANCH  38  41
ATOM     41  C   UNL A   1      38.203  29.986  30.891  1.00  0.00     0.039 A 
ATOM     42  C   UNL A   1      39.293  29.730  31.729  1.00  0.00     0.014 A 
ATOM     43  C   UNL A   1      38.397  30.091  29.510  1.00  0.00     0.014 A 
ATOM     44  C   UNL A   1      40.557  29.505  31.180  1.00  0.00     0.010 A 
ATOM     45  C   UNL A   1      39.644  29.796  28.959  1.00  0.00     0.010 A 
ATOM     46  C   UNL A   1      40.737  29.497  29.788  1.00  0.00    -0.014 A 
BRANCH  46  47
ATOM     47  C   UNL A   1      42.060  29.181  29.189  1.00  0.00     0.031 A 
ATOM     48  C   UNL A   1      42.353  27.793  28.687  1.00  0.00     0.074 A 
ATOM     49  C   UNL A   1      43.010  30.136  29.123  1.00  0.00     0.049 A 
ATOM     50  N   UNL A   1      43.458  27.319  28.171  1.00  0.00    -0.248 NA
ATOM     51  C   UNL A   1      41.269  26.805  28.796  1.00  0.00     0.031 C 
ATOM     52  C   UNL A   1      42.855  31.514  29.596  1.00  0.00     0.029 A 
ATOM     53  N   UNL A   1      44.290  30.098  28.632  1.00  0.00    -0.354 N 
ATOM     54  C   UNL A   1      43.201  25.983  27.888  1.00  0.00     0.074 A 
ATOM     55  C   UNL A   1      41.859  25.704  28.350  1.00  0.00     0.031 C 
ATOM     56  C   UNL A   1      43.982  32.197  29.338  1.00  0.00     0.029 A 
ATOM     57  C   UNL A   1      44.953  31.301  28.719  1.00  0.00     0.049 A 
ATOM     58  H   UNL A   1      44.697  29.287  28.251  1.00  0.00     0.167 HD
ATOM     59  C   UNL A   1      43.998  25.079  27.269  1.00  0.00     0.037 A 
ATOM     60  C   UNL A   1      46.202  31.643  28.344  1.00  0.00     0.037 A 
ATOM     61  C   UNL A   1      45.329  25.363  26.800  1.00  0.00     0.049 A 
ATOM     62  C   UNL A   1      47.087  30.607  27.705  1.00  0.00     0.074 A 
ATOM     63  C   UNL A   1      46.208  24.519  26.145  1.00  0.00     0.029 A 
ATOM     64  N   UNL A   1      45.974  26.584  26.933  1.00  0.00    -0.354 N 
ATOM     65  N   UNL A   1      46.817  29.355  27.419  1.00  0.00    -0.248 NA
ATOM     66  C   UNL A   1      48.447  31.026  27.340  1.00  0.00     0.031 C 
ATOM     67  C   UNL A   1      47.399  25.216  25.919  1.00  0.00     0.029 A 
ATOM     68  C   UNL A   1      47.246  26.509  26.390  1.00  0.00     0.049 A 
ATOM     69  H   UNL A   1      45.585  27.386  27.352  1.00  0.00     0.167 HD
ATOM     70  C   UNL A   1      47.962  28.846  26.819  1.00  0.00     0.074 A 
ATOM     71  C   UNL A   1      48.925  29.927  26.773  1.00  0.00     0.031 C 
ATOM     72  C   UNL A   1      48.195  27.596  26.348  1.00  0.00     0.037 A 
BRANCH  59  73
ATOM     73  C   UNL A   1      43.444  23.697  27.050  1.00  0.00     0.058 A 
ATOM     74  C   UNL A   1      43.071  23.255  25.770  1.00  0.00     0.135 A 
ATOM     75  C   UNL A   1      43.321  22.793  28.116  1.00  0.00     0.135 A 
ATOM     76  F   UNL A   1      43.152  24.085  24.718  1.00  0.00    -0.206 F 
ATOM     77  C   UNL A   1      42.573  21.975  25.558  1.00  0.00     0.059 A 
ATOM     78  C   UNL A   1      42.852  21.496  27.923  1.00  0.00     0.059 A 
ATOM     79  F   UNL A   1      43.662  23.163  29.361  1.00  0.00    -0.206 F 
ATOM     80  C   UNL A   1      42.469  21.101  26.642  1.00  0.00     0.060 A 
BRANCH  80  81
ATOM     81  S   UNL A   1      41.825  19.441  26.345  1.00  0.00     0.124 S 
ATOM     82  O   UNL A   1      40.391  19.699  26.246  1.00  0.00    -0.237 OA
ATOM     83  O   UNL A   1      42.489  19.068  25.101  1.00  0.00    -0.237 OA
ATOM     84  O   UNL A   1      42.246  18.695  27.528  1.00  0.00    -0.744 OA
ENDBRANCH  80  81
ENDBRANCH  59  73
BRANCH  60  85
ATOM     85  C   UNL A   1      46.674  33.041  28.530  1.00  0.00     0.058 A 
ATOM     86  C   UNL A   1      46.515  33.994  27.512  1.00  0.00     0.135 A 
ATOM     87  C   UNL A   1      47.269  33.462  29.730  1.00  0.00     0.135 A 
ATOM     88  F   UNL A   1      45.961  33.638  26.342  1.00  0.00    -0.206 F 
ATOM     89  C   UNL A   1      46.931  35.311  27.673  1.00  0.00     0.059 A 
ATOM     90  C   UNL A   1      47.671  34.780  29.924  1.00  0.00     0.059 A 
ATOM     91  F   UNL A   1      47.434  32.593  30.740  1.00  0.00    -0.206 F 
ATOM     92  C   UNL A   1      47.502  35.697  28.887  1.00  0.00     0.060 A 
BRANCH  92  93
ATOM     93  S   UNL A   1      47.979  37.425  29.106  1.00  0.00     0.124 S 
ATOM     94  O   UNL A   1      46.962  38.113  28.320  1.00  0.00    -0.237 OA
ATOM     95  O   UNL A   1      47.884  37.584  30.554  1.00  0.00    -0.237 OA
ATOM     96  O   UNL A   1      49.334  37.471  28.565  1.00  0.00    -0.744 OA
ENDBRANCH  92  93
ENDBRANCH  60  85
BRANCH  72  97
ATOM     97  C   UNL A   1      49.536  27.322  25.725  1.00  0.00     0.058 A 
ATOM     98  C   UNL A   1      49.728  27.394  24.337  1.00  0.00     0.135 A 
ATOM     99  C   UNL A   1      50.656  27.062  26.530  1.00  0.00     0.135 A 
ATOM    100  F   UNL A   1      48.689  27.633  23.522  1.00  0.00    -0.206 F 
ATOM    101  C   UNL A   1      50.983  27.207  23.767  1.00  0.00     0.059 A 
ATOM    102  C   UNL A   1      51.926  26.897  25.984  1.00  0.00     0.059 A 
ATOM    103  F   UNL A   1      50.528  26.991  27.864  1.00  0.00    -0.206 F 
ATOM    104  C   UNL A   1      52.078  26.965  24.600  1.00  0.00     0.060 A 
BRANCH 104 105
ATOM    105  S   UNL A   1      53.707  26.776  23.848  1.00  0.00     0.124 S 
ATOM    106  O   UNL A   1      53.383  26.056  22.620  1.00  0.00    -0.237 OA
ATOM    107  O   UNL A   1      54.132  28.162  23.676  1.00  0.00    -0.237 OA
ATOM    108  O   UNL A   1      54.457  26.015  24.842  1.00  0.00    -0.744 OA
ENDBRANCH 104 105
ENDBRANCH  72  97
ENDBRANCH  46  47
ENDBRANCH  38  41
ENDBRANCH  36  37
ENDBRANCH  35  36
ENDBRANCH  34  35
ENDBRANCH   1  34
TORSDOF 21
ENDMDL
MODEL 3
REMARK VINA RESULT:     -12.2      5.741      7.968
REMARK SMILES Cc1c(-c2ccc(O)cc2)nc(N)c(C#N)c1-c1ccccc1OCC(=O)NCCCCNC(=O)c1ccc(-c2c3nc(c(-c4c(F)cc(S(=O)(=O)[O-])cc4F)c4ccc([nH]4)c(-c4c(F)cc(S(=O)(=O)[O-])cc4F)c4nc(c(-c5c(F)cc(S(=O)(=O)[O-])cc5F)c5ccc2[nH]5)C=C4)C=C3)cc1
REMARK SMILES IDX 29 1 28 2 26 3 27 4 25 6 24 7 23 8 18 9 19 10 20 11 22 12
REMARK SMILES IDX 21 13 17 14 1 15 2 16 3 17 11 18 14 19 12 20 4 21 5 22 10 23
REMARK SMILES IDX 6 24 9 25 7 26 8 27 15 29 16 30 13 31 30 34 31 35 32 36
REMARK SMILES IDX 33 37 34 38 35 40 36 41 37 42 101 43 38 44 100 45 39 46
REMARK SMILES IDX 40 47 41 48 94 49 42 50 99 51 93 52 95 53 43 54 98 55 92 56
REMARK SMILES IDX 91 57 44 59 78 60 57 61 77 62 58 63 61 64 76 65 96 66 59 67
REMARK SMILES IDX 60 68 75 70 97 71 62 72 45 73 46 74 55 75 47 76 48 77 54 78
REMARK SMILES IDX 56 79 49 80 50 81 51 82 52 83 53 84 79 85 80 86 89 87 81 88
REMARK SMILES IDX 82 89 88 90 90 91 83 92 84 93 85 94 86 95 87 96 63 97 64 98
REMARK SMILES IDX 73 99 65 100 66 101 72 102 74 103 67 104 68 105 69 106
REMARK SMILES IDX 70 107 71 108
REMARK H PARENT 28 5 8 28 13 32 13 33 33 39 95 58 61 69
REMARK Flexibility Score: inf
ROOT
ATOM      1  C   UNL A   1      34.736  29.719  27.096  1.00  0.00     0.116 C 
ENDROOT
BRANCH   1   2
ATOM      2  N   UNL A   1      33.648  29.576  26.153  1.00  0.00    -0.353 N 
ATOM      3  C   UNL A   1      32.812  28.513  25.979  1.00  0.00     0.257 C 
ATOM      4  O   UNL A   1      31.693  28.740  25.515  1.00  0.00    -0.271 OA
ATOM      5  H   UNL A   1      33.490  30.347  25.561  1.00  0.00     0.163 HD
BRANCH   3   6
ATOM      6  C   UNL A   1      33.200  27.090  26.391  1.00  0.00     0.329 C 
BRANCH   6   7
ATOM      7  O   UNL A   1      33.866  26.298  25.443  1.00  0.00    -0.483 OA
BRANCH   7   8
ATOM      8  C   UNL A   1      33.440  26.048  24.173  1.00  0.00     0.127 A 
ATOM      9  C   UNL A   1      32.724  24.967  23.611  1.00  0.00     0.026 A 
ATOM     10  C   UNL A   1      32.359  25.071  22.244  1.00  0.00     0.012 A 
ATOM     11  C   UNL A   1      32.713  26.166  21.453  1.00  0.00     0.001 A 
ATOM     12  C   UNL A   1      33.785  27.144  23.356  1.00  0.00     0.047 A 
ATOM     13  C   UNL A   1      33.438  27.204  22.010  1.00  0.00     0.004 A 
BRANCH   9  14
ATOM     14  C   UNL A   1      32.331  23.712  24.302  1.00  0.00     0.012 A 
ATOM     15  C   UNL A   1      34.407  22.512  23.462  1.00  0.00     0.047 C 
ATOM     16  C   UNL A   1      33.067  22.508  24.153  1.00  0.00    -0.015 A 
ATOM     17  C   UNL A   1      32.533  21.332  24.721  1.00  0.00     0.076 A 
ATOM     18  N   UNL A   1      31.445  21.358  25.535  1.00  0.00    -0.230 NA
ATOM     19  C   UNL A   1      31.206  23.705  25.163  1.00  0.00     0.102 A 
ATOM     20  C   UNL A   1      30.832  22.520  25.788  1.00  0.00     0.142 A 
BRANCH  17  21
ATOM     21  C   UNL A   1      32.935  19.955  24.346  1.00  0.00     0.001 A 
ATOM     22  C   UNL A   1      32.215  19.300  23.322  1.00  0.00     0.014 A 
ATOM     23  C   UNL A   1      34.035  19.276  24.893  1.00  0.00     0.014 A 
ATOM     24  C   UNL A   1      32.621  18.069  22.807  1.00  0.00     0.047 A 
ATOM     25  C   UNL A   1      34.453  18.041  24.373  1.00  0.00     0.047 A 
ATOM     26  C   UNL A   1      33.752  17.459  23.322  1.00  0.00     0.115 A 
BRANCH  26  27
ATOM     27  O   UNL A   1      34.150  16.286  22.756  1.00  0.00    -0.508 OA
ATOM     28  H   UNL A   1      33.722  15.484  22.987  1.00  0.00     0.293 HD
ENDBRANCH  26  27
ENDBRANCH  17  21
BRANCH  19  29
ATOM     29  C   UNL A   1      30.457  24.899  25.437  1.00  0.00     0.104 C 
ATOM     30  N   UNL A   1      29.844  25.848  25.705  1.00  0.00    -0.192 NA
ENDBRANCH  19  29
BRANCH  20  31
ATOM     31  N   UNL A   1      29.757  22.417  26.652  1.00  0.00    -0.383 N 
ATOM     32  H   UNL A   1      29.767  21.747  27.373  1.00  0.00     0.158 HD
ATOM     33  H   UNL A   1      28.981  23.015  26.548  1.00  0.00     0.158 HD
ENDBRANCH  20  31
ENDBRANCH   9  14
ENDBRANCH   7   8
ENDBRANCH   6   7
ENDBRANCH   3   6
ENDBRANCH   1   2
BRANCH   1  34
ATOM     34  C   UNL A   1      34.667  30.953  27.993  1.00  0.00     0.023 C 
BRANCH  34  35
ATOM     35  C   UNL A   1      33.379  31.778  27.969  1.00  0.00     0.023 C 
BRANCH  35  36
ATOM     36  C   UNL A   1      33.390  33.072  27.165  1.00  0.00     0.116 C 
BRANCH  36  37
ATOM     37  N   UNL A   1      32.857  34.214  27.886  1.00  0.00    -0.352 N 
ATOM     38  C   UNL A   1      33.276  34.801  29.055  1.00  0.00     0.251 C 
ATOM     39  H   UNL A   1      32.071  34.636  27.470  1.00  0.00     0.163 HD
ATOM     40  O   UNL A   1      32.624  35.730  29.526  1.00  0.00    -0.269 OA
BRANCH  38  41
ATOM     41  C   UNL A   1      34.471  34.301  29.774  1.00  0.00     0.039 A 
ATOM     42  C   UNL A   1      34.282  33.604  30.971  1.00  0.00     0.014 A 
ATOM     43  C   UNL A   1      35.766  34.519  29.294  1.00  0.00     0.014 A 
ATOM     44  C   UNL A   1      35.379  33.063  31.644  1.00  0.00     0.010 A 
ATOM     45  C   UNL A   1      36.853  33.917  29.928  1.00  0.00     0.010 A 
ATOM     46  C   UNL A   1      36.671  33.181  31.108  1.00  0.00    -0.014 A 
BRANCH  46  47
ATOM     47  C   UNL A   1      37.837  32.541  31.773  1.00  0.00     0.031 A 
ATOM     48  C   UNL A   1      38.315  33.039  33.110  1.00  0.00     0.074 A 
ATOM     49  C   UNL A   1      38.485  31.530  31.159  1.00  0.00     0.049 A 
ATOM     50  N   UNL A   1      39.334  32.635  33.825  1.00  0.00    -0.248 NA
ATOM     51  C   UNL A   1      37.560  34.147  33.715  1.00  0.00     0.031 C 
ATOM     52  C   UNL A   1      38.132  30.972  29.851  1.00  0.00     0.029 A 
ATOM     53  N   UNL A   1      39.571  30.789  31.551  1.00  0.00    -0.354 N 
ATOM     54  C   UNL A   1      39.339  33.432  34.963  1.00  0.00     0.074 A 
ATOM     55  C   UNL A   1      38.262  34.387  34.813  1.00  0.00     0.031 C 
ATOM     56  C   UNL A   1      38.962  29.955  29.568  1.00  0.00     0.029 A 
ATOM     57  C   UNL A   1      39.930  29.813  30.651  1.00  0.00     0.049 A 
ATOM     58  H   UNL A   1      40.050  30.941  32.398  1.00  0.00     0.167 HD
ATOM     59  C   UNL A   1      40.145  33.355  36.048  1.00  0.00     0.037 A 
ATOM     60  C   UNL A   1      40.925  28.905  30.692  1.00  0.00     0.037 A 
ATOM     61  C   UNL A   1      41.208  32.396  36.198  1.00  0.00     0.049 A 
ATOM     62  C   UNL A   1      41.841  28.873  31.886  1.00  0.00     0.074 A 
ATOM     63  C   UNL A   1      42.068  32.226  37.269  1.00  0.00     0.029 A 
ATOM     64  N   UNL A   1      41.556  31.443  35.252  1.00  0.00    -0.354 N 
ATOM     65  N   UNL A   1      41.812  29.616  32.967  1.00  0.00    -0.248 NA
ATOM     66  C   UNL A   1      42.926  27.881  31.868  1.00  0.00     0.031 C 
ATOM     67  C   UNL A   1      42.963  31.199  36.954  1.00  0.00     0.029 A 
ATOM     68  C   UNL A   1      42.631  30.696  35.707  1.00  0.00     0.049 A 
ATOM     69  H   UNL A   1      41.107  31.316  34.386  1.00  0.00     0.167 HD
ATOM     70  C   UNL A   1      42.856  29.166  33.766  1.00  0.00     0.074 A 
ATOM     71  C   UNL A   1      43.492  28.078  33.051  1.00  0.00     0.031 C 
ATOM     72  C   UNL A   1      43.253  29.612  34.984  1.00  0.00     0.037 A 
BRANCH  59  73
ATOM     73  C   UNL A   1      39.897  34.327  37.170  1.00  0.00     0.058 A 
ATOM     74  C   UNL A   1      39.089  33.986  38.266  1.00  0.00     0.135 A 
ATOM     75  C   UNL A   1      40.504  35.593  37.172  1.00  0.00     0.135 A 
ATOM     76  F   UNL A   1      38.472  32.794  38.307  1.00  0.00    -0.206 F 
ATOM     77  C   UNL A   1      38.869  34.874  39.313  1.00  0.00     0.059 A 
ATOM     78  C   UNL A   1      40.321  36.488  38.223  1.00  0.00     0.059 A 
ATOM     79  F   UNL A   1      41.286  35.972  36.149  1.00  0.00    -0.206 F 
ATOM     80  C   UNL A   1      39.491  36.123  39.283  1.00  0.00     0.060 A 
BRANCH  80  81
ATOM     81  S   UNL A   1      39.197  37.260  40.654  1.00  0.00     0.124 S 
ATOM     82  O   UNL A   1      40.541  37.775  40.898  1.00  0.00    -0.237 OA
ATOM     83  O   UNL A   1      38.251  38.207  40.074  1.00  0.00    -0.237 OA
ATOM     84  O   UNL A   1      38.657  36.399  41.702  1.00  0.00    -0.744 OA
ENDBRANCH  80  81
ENDBRANCH  59  73
BRANCH  60  85
ATOM     85  C   UNL A   1      41.084  27.928  29.582  1.00  0.00     0.058 A 
ATOM     86  C   UNL A   1      42.150  28.038  28.676  1.00  0.00     0.135 A 
ATOM     87  C   UNL A   1      40.196  26.854  29.415  1.00  0.00     0.135 A 
ATOM     88  F   UNL A   1      43.021  29.054  28.787  1.00  0.00    -0.206 F 
ATOM     89  C   UNL A   1      42.329  27.124  27.644  1.00  0.00     0.059 A 
ATOM     90  C   UNL A   1      40.367  25.912  28.405  1.00  0.00     0.059 A 
ATOM     91  F   UNL A   1      39.166  26.695  30.261  1.00  0.00    -0.206 F 
ATOM     92  C   UNL A   1      41.435  26.059  27.520  1.00  0.00     0.060 A 
BRANCH  92  93
ATOM     93  S   UNL A   1      41.716  24.844  26.215  1.00  0.00     0.124 S 
ATOM     94  O   UNL A   1      43.075  24.404  26.508  1.00  0.00    -0.237 OA
ATOM     95  O   UNL A   1      40.659  23.871  26.474  1.00  0.00    -0.237 OA
ATOM     96  O   UNL A   1      41.554  25.622  24.990  1.00  0.00    -0.744 OA
ENDBRANCH  92  93
ENDBRANCH  60  85
BRANCH  72  97
ATOM     97  C   UNL A   1      44.419  28.922  35.637  1.00  0.00     0.058 A 
ATOM     98  C   UNL A   1      45.737  29.354  35.429  1.00  0.00     0.135 A 
ATOM     99  C   UNL A   1      44.208  27.868  36.540  1.00  0.00     0.135 A 
ATOM    100  F   UNL A   1      45.994  30.354  34.571  1.00  0.00    -0.206 F 
ATOM    101  C   UNL A   1      46.808  28.758  36.087  1.00  0.00     0.059 A 
ATOM    102  C   UNL A   1      45.261  27.274  37.228  1.00  0.00     0.059 A 
ATOM    103  F   UNL A   1      42.965  27.422  36.780  1.00  0.00    -0.206 F 
ATOM    104  C   UNL A   1      46.559  27.723  36.990  1.00  0.00     0.060 A 
BRANCH 104 105
ATOM    105  S   UNL A   1      47.956  26.995  37.872  1.00  0.00     0.124 S 
ATOM    106  O   UNL A   1      49.068  27.804  37.381  1.00  0.00    -0.237 OA
ATOM    107  O   UNL A   1      47.586  27.208  39.268  1.00  0.00    -0.237 OA
ATOM    108  O   UNL A   1      47.951  25.603  37.433  1.00  0.00    -0.744 OA
ENDBRANCH 104 105
ENDBRANCH  72  97
ENDBRANCH  46  47
ENDBRANCH  38  41
ENDBRANCH  36  37
ENDBRANCH  35  36
ENDBRANCH  34  35
ENDBRANCH   1  34
TORSDOF 21
ENDMDL
