MODEL 1
REMARK VINA RESULT:     -10.7      0.000      0.000
REMARK SMILES O=C(NCCCCNC(=O)c1cc(SCC(=O)N2CCOCC2)ccn1)c1ccc(-c2c3nc(c(-c4c(F)cc(S(=O)(=O)[O-])cc4F)c4ccc([nH]4)c(-c4c(F)cc(S(=O)(=O)[O-])cc4F)c4nc(c(-c5c(F)cc(S(=O)(=O)[O-])cc5F)c5ccc2[nH]5)C=C4)C=C3)cc1
REMARK SMILES IDX 5 1 4 2 3 3 1 4 2 5 27 7 28 8 92 9 29 10 91 11 30 12 31 13
REMARK SMILES IDX 32 14 85 15 33 16 90 17 84 18 86 19 34 20 89 21 83 22 82 23
REMARK SMILES IDX 35 25 69 26 48 27 68 28 49 29 52 30 67 31 87 32 50 33 51 34
REMARK SMILES IDX 66 36 88 37 53 38 36 39 37 40 46 41 38 42 39 43 45 44 47 45
REMARK SMILES IDX 40 46 41 47 42 48 43 49 44 50 70 51 71 52 80 53 72 54 73 55
REMARK SMILES IDX 79 56 81 57 74 58 75 59 76 60 77 61 78 62 54 63 55 64 64 65
REMARK SMILES IDX 56 66 57 67 63 68 65 69 58 70 59 71 60 72 61 73 62 74 6 75
REMARK SMILES IDX 7 76 8 77 9 78 10 80 11 81 12 82 26 83 13 84 25 85 24 86
REMARK SMILES IDX 14 87 15 88 16 89 17 90 18 91 19 92 23 93 20 94 22 95 21 96
REMARK H PARENT 3 6 86 24 52 35 8 79
REMARK Flexibility Score: inf
ROOT
ATOM      1  C   UNL A   1      35.594  23.683  25.933  1.00  0.00     0.023 C 
ENDROOT
BRANCH   1   2
ATOM      2  C   UNL A   1      36.894  23.950  25.187  1.00  0.00     0.116 C 
BRANCH   2   3
ATOM      3  N   UNL A   1      37.882  22.902  25.387  1.00  0.00    -0.352 N 
ATOM      4  O   UNL A   1      39.884  22.040  25.969  1.00  0.00    -0.269 OA
ATOM      5  C   UNL A   1      39.090  22.974  26.039  1.00  0.00     0.251 C 
ATOM      6  H   UNL A   1      37.655  22.023  25.005  1.00  0.00     0.163 HD
BRANCH   5   7
ATOM      7  C   UNL A   1      39.427  24.189  26.813  1.00  0.00     0.039 A 
ATOM      8  C   UNL A   1      38.978  24.332  28.130  1.00  0.00     0.014 A 
ATOM      9  C   UNL A   1      40.209  25.187  26.226  1.00  0.00     0.014 A 
ATOM     10  C   UNL A   1      39.213  25.518  28.818  1.00  0.00     0.010 A 
ATOM     11  C   UNL A   1      40.510  26.347  26.947  1.00  0.00     0.010 A 
ATOM     12  C   UNL A   1      40.005  26.526  28.245  1.00  0.00    -0.014 A 
BRANCH  12  13
ATOM     13  C   UNL A   1      40.397  27.696  29.068  1.00  0.00     0.031 A 
ATOM     14  C   UNL A   1      39.477  28.869  29.260  1.00  0.00     0.074 A 
ATOM     15  C   UNL A   1      41.620  27.684  29.640  1.00  0.00     0.049 A 
ATOM     16  N   UNL A   1      39.691  29.974  29.927  1.00  0.00    -0.248 NA
ATOM     17  C   UNL A   1      38.155  28.801  28.620  1.00  0.00     0.031 C 
ATOM     18  C   UNL A   1      42.603  26.606  29.497  1.00  0.00     0.029 A 
ATOM     19  N   UNL A   1      42.247  28.597  30.446  1.00  0.00    -0.354 N 
ATOM     20  C   UNL A   1      38.545  30.744  29.771  1.00  0.00     0.074 A 
ATOM     21  C   UNL A   1      37.637  29.983  28.939  1.00  0.00     0.031 C 
ATOM     22  C   UNL A   1      43.701  26.912  30.202  1.00  0.00     0.029 A 
ATOM     23  C   UNL A   1      43.526  28.232  30.796  1.00  0.00     0.049 A 
ATOM     24  H   UNL A   1      41.825  29.434  30.746  1.00  0.00     0.167 HD
ATOM     25  C   UNL A   1      38.282  31.971  30.281  1.00  0.00     0.037 A 
ATOM     26  C   UNL A   1      44.470  28.897  31.486  1.00  0.00     0.037 A 
ATOM     27  C   UNL A   1      39.184  32.702  31.136  1.00  0.00     0.049 A 
ATOM     28  C   UNL A   1      44.154  30.264  32.016  1.00  0.00     0.074 A 
ATOM     29  C   UNL A   1      38.967  33.907  31.781  1.00  0.00     0.029 A 
ATOM     30  N   UNL A   1      40.476  32.308  31.450  1.00  0.00    -0.354 N 
ATOM     31  N   UNL A   1      43.035  30.941  31.926  1.00  0.00    -0.248 NA
ATOM     32  C   UNL A   1      45.229  30.965  32.731  1.00  0.00     0.031 C 
ATOM     33  C   UNL A   1      40.145  34.269  32.441  1.00  0.00     0.029 A 
ATOM     34  C   UNL A   1      41.083  33.270  32.243  1.00  0.00     0.049 A 
ATOM     35  H   UNL A   1      40.899  31.470  31.155  1.00  0.00     0.167 HD
ATOM     36  C   UNL A   1      43.270  32.147  32.571  1.00  0.00     0.074 A 
ATOM     37  C   UNL A   1      44.628  32.096  33.073  1.00  0.00     0.031 C 
ATOM     38  C   UNL A   1      42.440  33.207  32.724  1.00  0.00     0.037 A 
BRANCH  25  39
ATOM     39  C   UNL A   1      36.975  32.628  29.935  1.00  0.00     0.058 A 
ATOM     40  C   UNL A   1      35.808  32.389  30.675  1.00  0.00     0.135 A 
ATOM     41  C   UNL A   1      36.923  33.603  28.923  1.00  0.00     0.135 A 
ATOM     42  F   UNL A   1      35.801  31.461  31.644  1.00  0.00    -0.206 F 
ATOM     43  C   UNL A   1      34.634  33.094  30.426  1.00  0.00     0.059 A 
ATOM     44  C   UNL A   1      35.765  34.334  28.670  1.00  0.00     0.059 A 
ATOM     45  F   UNL A   1      38.012  33.869  28.186  1.00  0.00    -0.206 F 
ATOM     46  C   UNL A   1      34.624  34.071  29.427  1.00  0.00     0.060 A 
BRANCH  46  47
ATOM     47  S   UNL A   1      33.109  35.017  29.157  1.00  0.00     0.124 S 
ATOM     48  O   UNL A   1      32.510  34.993  30.488  1.00  0.00    -0.237 OA
ATOM     49  O   UNL A   1      33.624  36.311  28.717  1.00  0.00    -0.237 OA
ATOM     50  O   UNL A   1      32.403  34.248  28.138  1.00  0.00    -0.744 OA
ENDBRANCH  46  47
ENDBRANCH  25  39
BRANCH  26  51
ATOM     51  C   UNL A   1      45.820  28.298  31.661  1.00  0.00     0.058 A 
ATOM     52  C   UNL A   1      46.844  28.526  30.733  1.00  0.00     0.135 A 
ATOM     53  C   UNL A   1      46.106  27.484  32.769  1.00  0.00     0.135 A 
ATOM     54  F   UNL A   1      46.616  29.295  29.657  1.00  0.00    -0.206 F 
ATOM     55  C   UNL A   1      48.101  27.951  30.883  1.00  0.00     0.059 A 
ATOM     56  C   UNL A   1      47.363  26.920  32.955  1.00  0.00     0.059 A 
ATOM     57  F   UNL A   1      45.165  27.251  33.695  1.00  0.00    -0.206 F 
ATOM     58  C   UNL A   1      48.350  27.146  31.997  1.00  0.00     0.060 A 
BRANCH  58  59
ATOM     59  S   UNL A   1      49.989  26.418  32.200  1.00  0.00     0.124 S 
ATOM     60  O   UNL A   1      49.908  25.894  33.559  1.00  0.00    -0.237 OA
ATOM     61  O   UNL A   1      50.020  25.422  31.133  1.00  0.00    -0.237 OA
ATOM     62  O   UNL A   1      50.884  27.555  32.011  1.00  0.00    -0.744 OA
ENDBRANCH  58  59
ENDBRANCH  26  51
BRANCH  38  63
ATOM     63  C   UNL A   1      42.980  34.399  33.458  1.00  0.00     0.058 A 
ATOM     64  C   UNL A   1      42.920  34.477  34.858  1.00  0.00     0.135 A 
ATOM     65  C   UNL A   1      43.603  35.448  32.766  1.00  0.00     0.135 A 
ATOM     66  F   UNL A   1      42.323  33.504  35.565  1.00  0.00    -0.206 F 
ATOM     67  C   UNL A   1      43.450  35.563  35.547  1.00  0.00     0.059 A 
ATOM     68  C   UNL A   1      44.160  36.533  33.435  1.00  0.00     0.059 A 
ATOM     69  F   UNL A   1      43.689  35.418  31.426  1.00  0.00    -0.206 F 
ATOM     70  C   UNL A   1      44.072  36.585  34.827  1.00  0.00     0.060 A 
BRANCH  70  71
ATOM     71  S   UNL A   1      44.795  37.966  35.735  1.00  0.00     0.124 S 
ATOM     72  O   UNL A   1      44.156  37.827  37.040  1.00  0.00    -0.237 OA
ATOM     73  O   UNL A   1      46.221  37.658  35.692  1.00  0.00    -0.237 OA
ATOM     74  O   UNL A   1      44.388  39.133  34.958  1.00  0.00    -0.744 OA
ENDBRANCH  70  71
ENDBRANCH  38  63
ENDBRANCH  12  13
ENDBRANCH   5   7
ENDBRANCH   2   3
ENDBRANCH   1   2
BRANCH   1  75
ATOM     75  C   UNL A   1      35.396  22.243  26.397  1.00  0.00     0.023 C 
BRANCH  75  76
ATOM     76  C   UNL A   1      34.079  21.973  27.111  1.00  0.00     0.116 C 
BRANCH  76  77
ATOM     77  N   UNL A   1      33.296  20.915  26.495  1.00  0.00    -0.351 N 
ATOM     78  C   UNL A   1      32.470  20.985  25.395  1.00  0.00     0.269 C 
ATOM     79  H   UNL A   1      33.365  20.030  26.920  1.00  0.00     0.163 HD
ATOM     80  O   UNL A   1      31.875  19.982  25.007  1.00  0.00    -0.268 OA
BRANCH  78  81
ATOM     81  C   UNL A   1      32.304  22.283  24.685  1.00  0.00     0.129 A 
ATOM     82  C   UNL A   1      31.443  23.252  25.194  1.00  0.00     0.049 A 
ATOM     83  N   UNL A   1      33.001  22.410  23.528  1.00  0.00    -0.251 NA
ATOM     84  C   UNL A   1      31.229  24.391  24.431  1.00  0.00     0.012 A 
ATOM     85  C   UNL A   1      32.822  23.550  22.843  1.00  0.00     0.113 A 
ATOM     86  C   UNL A   1      31.952  24.548  23.242  1.00  0.00     0.035 A 
BRANCH  84  87
ATOM     87  S   UNL A   1      30.115  25.714  24.842  1.00  0.00    -0.116 SA
BRANCH  87  88
ATOM     88  C   UNL A   1      30.360  26.991  23.581  1.00  0.00     0.175 C 
BRANCH  88  89
ATOM     89  C   UNL A   1      30.800  28.386  23.997  1.00  0.00     0.233 C 
ATOM     90  O   UNL A   1      30.074  29.340  23.691  1.00  0.00    -0.274 OA
ATOM     91  N   UNL A   1      31.851  28.568  24.871  1.00  0.00    -0.337 N 
ATOM     92  C   UNL A   1      33.079  27.777  24.956  1.00  0.00     0.148 C 
ATOM     93  C   UNL A   1      31.869  29.750  25.744  1.00  0.00     0.148 C 
ATOM     94  C   UNL A   1      33.407  27.431  26.409  1.00  0.00     0.181 C 
ATOM     95  C   UNL A   1      32.212  29.324  27.179  1.00  0.00     0.181 C 
ATOM     96  O   UNL A   1      33.459  28.610  27.224  1.00  0.00    -0.378 OA
ENDBRANCH  88  89
ENDBRANCH  87  88
ENDBRANCH  84  87
ENDBRANCH  78  81
ENDBRANCH  76  77
ENDBRANCH  75  76
ENDBRANCH   1  75
TORSDOF 17
ENDMDL
MODEL 2
REMARK VINA RESULT:     -10.6      3.314      9.033
REMARK SMILES O=C(NCCCCNC(=O)c1cc(SCC(=O)N2CCOCC2)ccn1)c1ccc(-c2c3nc(c(-c4c(F)cc(S(=O)(=O)[O-])cc4F)c4ccc([nH]4)c(-c4c(F)cc(S(=O)(=O)[O-])cc4F)c4nc(c(-c5c(F)cc(S(=O)(=O)[O-])cc5F)c5ccc2[nH]5)C=C4)C=C3)cc1
REMARK SMILES IDX 5 1 4 2 3 3 1 4 2 5 27 7 28 8 92 9 29 10 91 11 30 12 31 13
REMARK SMILES IDX 32 14 85 15 33 16 90 17 84 18 86 19 34 20 89 21 83 22 82 23
REMARK SMILES IDX 35 25 69 26 48 27 68 28 49 29 52 30 67 31 87 32 50 33 51 34
REMARK SMILES IDX 66 36 88 37 53 38 36 39 37 40 46 41 38 42 39 43 45 44 47 45
REMARK SMILES IDX 40 46 41 47 42 48 43 49 44 50 70 51 71 52 80 53 72 54 73 55
REMARK SMILES IDX 79 56 81 57 74 58 75 59 76 60 77 61 78 62 54 63 55 64 64 65
REMARK SMILES IDX 56 66 57 67 63 68 65 69 58 70 59 71 60 72 61 73 62 74 6 75
REMARK SMILES IDX 7 76 8 77 9 78 10 80 11 81 12 82 26 83 13 84 25 85 24 86
REMARK SMILES IDX 14 87 15 88 16 89 17 90 18 91 19 92 23 93 20 94 22 95 21 96
REMARK H PARENT 3 6 86 24 52 35 8 79
REMARK Flexibility Score: inf
ROOT
ATOM      1  C   UNL A   1      40.401  21.803  27.012  1.00  0.00     0.023 C 
ENDROOT
BRANCH   1   2
ATOM      2  C   UNL A   1      40.555  23.294  27.280  1.00  0.00     0.116 C 
BRANCH   2   3
ATOM      3  N   UNL A   1      41.209  23.996  26.188  1.00  0.00    -0.352 N 
ATOM      4  O   UNL A   1      41.942  25.793  25.037  1.00  0.00    -0.269 OA
ATOM      5  C   UNL A   1      41.547  25.325  26.102  1.00  0.00     0.251 C 
ATOM      6  H   UNL A   1      41.442  23.445  25.406  1.00  0.00     0.163 HD
BRANCH   5   7
ATOM      7  C   UNL A   1      41.420  26.187  27.298  1.00  0.00     0.039 A 
ATOM      8  C   UNL A   1      42.388  27.159  27.572  1.00  0.00     0.014 A 
ATOM      9  C   UNL A   1      40.321  26.033  28.146  1.00  0.00     0.014 A 
ATOM     10  C   UNL A   1      42.317  27.896  28.748  1.00  0.00     0.010 A 
ATOM     11  C   UNL A   1      40.210  26.830  29.290  1.00  0.00     0.010 A 
ATOM     12  C   UNL A   1      41.213  27.760  29.606  1.00  0.00    -0.014 A 
BRANCH  12  13
ATOM     13  C   UNL A   1      41.066  28.690  30.753  1.00  0.00     0.031 A 
ATOM     14  C   UNL A   1      41.919  28.564  31.983  1.00  0.00     0.074 A 
ATOM     15  C   UNL A   1      40.130  29.658  30.665  1.00  0.00     0.049 A 
ATOM     16  N   UNL A   1      41.888  29.283  33.077  1.00  0.00    -0.248 NA
ATOM     17  C   UNL A   1      42.930  27.495  31.998  1.00  0.00     0.031 C 
ATOM     18  C   UNL A   1      39.229  29.853  29.525  1.00  0.00     0.029 A 
ATOM     19  N   UNL A   1      39.774  30.650  31.541  1.00  0.00    -0.354 N 
ATOM     20  C   UNL A   1      42.854  28.744  33.918  1.00  0.00     0.074 A 
ATOM     21  C   UNL A   1      43.452  27.631  33.212  1.00  0.00     0.031 C 
ATOM     22  C   UNL A   1      38.436  30.908  29.763  1.00  0.00     0.029 A 
ATOM     23  C   UNL A   1      38.728  31.424  31.095  1.00  0.00     0.049 A 
ATOM     24  H   UNL A   1      40.222  30.795  32.405  1.00  0.00     0.167 HD
ATOM     25  C   UNL A   1      43.204  29.149  35.162  1.00  0.00     0.037 A 
ATOM     26  C   UNL A   1      38.050  32.415  31.701  1.00  0.00     0.037 A 
ATOM     27  C   UNL A   1      42.620  30.281  35.838  1.00  0.00     0.049 A 
ATOM     28  C   UNL A   1      38.448  32.823  33.089  1.00  0.00     0.074 A 
ATOM     29  C   UNL A   1      42.976  30.829  37.059  1.00  0.00     0.029 A 
ATOM     30  N   UNL A   1      41.550  31.026  35.364  1.00  0.00    -0.354 N 
ATOM     31  N   UNL A   1      39.419  32.354  33.837  1.00  0.00    -0.248 NA
ATOM     32  C   UNL A   1      37.656  33.885  33.724  1.00  0.00     0.031 C 
ATOM     33  C   UNL A   1      42.089  31.870  37.347  1.00  0.00     0.029 A 
ATOM     34  C   UNL A   1      41.206  31.999  36.288  1.00  0.00     0.049 A 
ATOM     35  H   UNL A   1      41.103  30.885  34.499  1.00  0.00     0.167 HD
ATOM     36  C   UNL A   1      39.353  33.061  35.029  1.00  0.00     0.074 A 
ATOM     37  C   UNL A   1      38.267  34.011  34.893  1.00  0.00     0.031 C 
ATOM     38  C   UNL A   1      40.115  32.929  36.141  1.00  0.00     0.037 A 
BRANCH  25  39
ATOM     39  C   UNL A   1      44.259  28.373  35.900  1.00  0.00     0.058 A 
ATOM     40  C   UNL A   1      43.935  27.294  36.735  1.00  0.00     0.135 A 
ATOM     41  C   UNL A   1      45.619  28.640  35.670  1.00  0.00     0.135 A 
ATOM     42  F   UNL A   1      42.651  27.004  36.997  1.00  0.00    -0.206 F 
ATOM     43  C   UNL A   1      44.923  26.504  37.316  1.00  0.00     0.059 A 
ATOM     44  C   UNL A   1      46.624  27.851  36.224  1.00  0.00     0.059 A 
ATOM     45  F   UNL A   1      45.982  29.661  34.879  1.00  0.00    -0.206 F 
ATOM     46  C   UNL A   1      46.265  26.785  37.048  1.00  0.00     0.060 A 
BRANCH  46  47
ATOM     47  S   UNL A   1      47.532  25.714  37.762  1.00  0.00     0.124 S 
ATOM     48  O   UNL A   1      48.756  26.365  37.302  1.00  0.00    -0.237 OA
ATOM     49  O   UNL A   1      47.259  25.819  39.192  1.00  0.00    -0.237 OA
ATOM     50  O   UNL A   1      47.254  24.411  37.167  1.00  0.00    -0.744 OA
ENDBRANCH  46  47
ENDBRANCH  25  39
BRANCH  26  51
ATOM     51  C   UNL A   1      36.892  33.047  31.018  1.00  0.00     0.058 A 
ATOM     52  C   UNL A   1      35.574  32.737  31.381  1.00  0.00     0.135 A 
ATOM     53  C   UNL A   1      37.086  33.978  29.985  1.00  0.00     0.135 A 
ATOM     54  F   UNL A   1      35.339  31.852  32.361  1.00  0.00    -0.206 F 
ATOM     55  C   UNL A   1      34.488  33.310  30.729  1.00  0.00     0.059 A 
ATOM     56  C   UNL A   1      36.017  34.586  29.337  1.00  0.00     0.059 A 
ATOM     57  F   UNL A   1      38.329  34.322  29.614  1.00  0.00    -0.206 F 
ATOM     58  C   UNL A   1      34.720  34.232  29.706  1.00  0.00     0.060 A 
BRANCH  58  59
ATOM     59  S   UNL A   1      33.307  34.991  28.876  1.00  0.00     0.124 S 
ATOM     60  O   UNL A   1      33.890  36.237  28.392  1.00  0.00    -0.237 OA
ATOM     61  O   UNL A   1      32.979  34.001  27.855  1.00  0.00    -0.237 OA
ATOM     62  O   UNL A   1      32.324  35.124  29.947  1.00  0.00    -0.744 OA
ENDBRANCH  58  59
ENDBRANCH  26  51
BRANCH  38  63
ATOM     63  C   UNL A   1      39.798  33.828  37.300  1.00  0.00     0.058 A 
ATOM     64  C   UNL A   1      38.920  33.420  38.316  1.00  0.00     0.135 A 
ATOM     65  C   UNL A   1      40.410  35.084  37.424  1.00  0.00     0.135 A 
ATOM     66  F   UNL A   1      38.299  32.231  38.236  1.00  0.00    -0.206 F 
ATOM     67  C   UNL A   1      38.648  34.234  39.410  1.00  0.00     0.059 A 
ATOM     68  C   UNL A   1      40.172  35.905  38.521  1.00  0.00     0.059 A 
ATOM     69  F   UNL A   1      41.261  35.518  36.481  1.00  0.00    -0.206 F 
ATOM     70  C   UNL A   1      39.283  35.473  39.506  1.00  0.00     0.060 A 
BRANCH  70  71
ATOM     71  S   UNL A   1      38.958  36.501  40.954  1.00  0.00     0.124 S 
ATOM     72  O   UNL A   1      37.921  35.731  41.635  1.00  0.00    -0.237 OA
ATOM     73  O   UNL A   1      40.259  36.535  41.614  1.00  0.00    -0.237 OA
ATOM     74  O   UNL A   1      38.520  37.770  40.378  1.00  0.00    -0.744 OA
ENDBRANCH  70  71
ENDBRANCH  38  63
ENDBRANCH  12  13
ENDBRANCH   5   7
ENDBRANCH   2   3
ENDBRANCH   1   2
BRANCH   1  75
ATOM     75  C   UNL A   1      39.376  21.438  25.943  1.00  0.00     0.023 C 
BRANCH  75  76
ATOM     76  C   UNL A   1      38.099  22.267  25.967  1.00  0.00     0.116 C 
BRANCH  76  77
ATOM     77  N   UNL A   1      37.732  22.797  24.665  1.00  0.00    -0.351 N 
ATOM     78  C   UNL A   1      36.508  22.761  24.035  1.00  0.00     0.269 C 
ATOM     79  H   UNL A   1      38.455  23.242  24.166  1.00  0.00     0.163 HD
ATOM     80  O   UNL A   1      36.374  23.262  22.921  1.00  0.00    -0.268 OA
BRANCH  78  81
ATOM     81  C   UNL A   1      35.355  22.109  24.713  1.00  0.00     0.129 A 
ATOM     82  C   UNL A   1      34.464  22.872  25.464  1.00  0.00     0.049 A 
ATOM     83  N   UNL A   1      35.282  20.761  24.578  1.00  0.00    -0.251 NA
ATOM     84  C   UNL A   1      33.481  22.201  26.178  1.00  0.00     0.012 A 
ATOM     85  C   UNL A   1      34.282  20.146  25.229  1.00  0.00     0.113 A 
ATOM     86  C   UNL A   1      33.379  20.812  26.037  1.00  0.00     0.035 A 
BRANCH  84  87
ATOM     87  S   UNL A   1      32.293  22.960  27.261  1.00  0.00    -0.116 SA
BRANCH  87  88
ATOM     88  C   UNL A   1      30.976  23.602  26.197  1.00  0.00     0.175 C 
BRANCH  88  89
ATOM     89  C   UNL A   1      31.115  24.981  25.573  1.00  0.00     0.233 C 
ATOM     90  O   UNL A   1      30.919  25.968  26.294  1.00  0.00    -0.274 OA
ATOM     91  N   UNL A   1      31.654  25.140  24.313  1.00  0.00    -0.337 N 
ATOM     92  C   UNL A   1      31.488  24.254  23.162  1.00  0.00     0.148 C 
ATOM     93  C   UNL A   1      32.366  26.382  23.983  1.00  0.00     0.148 C 
ATOM     94  C   UNL A   1      32.827  23.998  22.470  1.00  0.00     0.181 C 
ATOM     95  C   UNL A   1      33.692  26.045  23.288  1.00  0.00     0.181 C 
ATOM     96  O   UNL A   1      33.475  25.230  22.123  1.00  0.00    -0.378 OA
ENDBRANCH  88  89
ENDBRANCH  87  88
ENDBRANCH  84  87
ENDBRANCH  78  81
ENDBRANCH  76  77
ENDBRANCH  75  76
ENDBRANCH   1  75
TORSDOF 17
ENDMDL
MODEL 3
REMARK VINA RESULT:     -10.6      4.368      9.746
REMARK SMILES O=C(NCCCCNC(=O)c1cc(SCC(=O)N2CCOCC2)ccn1)c1ccc(-c2c3nc(c(-c4c(F)cc(S(=O)(=O)[O-])cc4F)c4ccc([nH]4)c(-c4c(F)cc(S(=O)(=O)[O-])cc4F)c4nc(c(-c5c(F)cc(S(=O)(=O)[O-])cc5F)c5ccc2[nH]5)C=C4)C=C3)cc1
REMARK SMILES IDX 5 1 4 2 3 3 1 4 2 5 27 7 28 8 92 9 29 10 91 11 30 12 31 13
REMARK SMILES IDX 32 14 85 15 33 16 90 17 84 18 86 19 34 20 89 21 83 22 82 23
REMARK SMILES IDX 35 25 69 26 48 27 68 28 49 29 52 30 67 31 87 32 50 33 51 34
REMARK SMILES IDX 66 36 88 37 53 38 36 39 37 40 46 41 38 42 39 43 45 44 47 45
REMARK SMILES IDX 40 46 41 47 42 48 43 49 44 50 70 51 71 52 80 53 72 54 73 55
REMARK SMILES IDX 79 56 81 57 74 58 75 59 76 60 77 61 78 62 54 63 55 64 64 65
REMARK SMILES IDX 56 66 57 67 63 68 65 69 58 70 59 71 60 72 61 73 62 74 6 75
REMARK SMILES IDX 7 76 8 77 9 78 10 80 11 81 12 82 26 83 13 84 25 85 24 86
REMARK SMILES IDX 14 87 15 88 16 89 17 90 18 91 19 92 23 93 20 94 22 95 21 96
REMARK H PARENT 3 6 86 24 52 35 8 79
REMARK Flexibility Score: inf
ROOT
ATOM      1  C   UNL A   1      34.024  29.067  27.301  1.00  0.00     0.023 C 
ENDROOT
BRANCH   1   2
ATOM      2  C   UNL A   1      35.372  29.638  27.719  1.00  0.00     0.116 C 
BRANCH   2   3
ATOM      3  N   UNL A   1      35.308  30.370  28.973  1.00  0.00    -0.352 N 
ATOM      4  O   UNL A   1      36.021  31.050  31.003  1.00  0.00    -0.269 OA
ATOM      5  C   UNL A   1      36.292  30.548  29.915  1.00  0.00     0.251 C 
ATOM      6  H   UNL A   1      34.443  30.796  29.175  1.00  0.00     0.163 HD
BRANCH   5   7
ATOM      7  C   UNL A   1      37.676  30.118  29.611  1.00  0.00     0.039 A 
ATOM      8  C   UNL A   1      38.138  30.115  28.291  1.00  0.00     0.014 A 
ATOM      9  C   UNL A   1      38.522  29.730  30.653  1.00  0.00     0.014 A 
ATOM     10  C   UNL A   1      39.403  29.616  28.001  1.00  0.00     0.010 A 
ATOM     11  C   UNL A   1      39.822  29.301  30.366  1.00  0.00     0.010 A 
ATOM     12  C   UNL A   1      40.269  29.231  29.037  1.00  0.00    -0.014 A 
BRANCH  12  13
ATOM     13  C   UNL A   1      41.675  28.883  28.716  1.00  0.00     0.031 A 
ATOM     14  C   UNL A   1      42.763  29.919  28.713  1.00  0.00     0.074 A 
ATOM     15  C   UNL A   1      41.953  27.597  28.413  1.00  0.00     0.049 A 
ATOM     16  N   UNL A   1      44.031  29.772  28.425  1.00  0.00    -0.248 NA
ATOM     17  C   UNL A   1      42.385  31.295  29.070  1.00  0.00     0.031 C 
ATOM     18  C   UNL A   1      40.966  26.514  28.361  1.00  0.00     0.029 A 
ATOM     19  N   UNL A   1      43.134  26.983  28.089  1.00  0.00    -0.354 N 
ATOM     20  C   UNL A   1      44.600  31.035  28.542  1.00  0.00     0.074 A 
ATOM     21  C   UNL A   1      43.537  31.941  28.922  1.00  0.00     0.031 C 
ATOM     22  C   UNL A   1      41.583  25.368  28.040  1.00  0.00     0.029 A 
ATOM     23  C   UNL A   1      42.995  25.644  27.804  1.00  0.00     0.049 A 
ATOM     24  H   UNL A   1      43.999  27.453  28.061  1.00  0.00     0.167 HD
ATOM     25  C   UNL A   1      45.892  31.394  28.351  1.00  0.00     0.037 A 
ATOM     26  C   UNL A   1      43.892  24.743  27.365  1.00  0.00     0.037 A 
ATOM     27  C   UNL A   1      46.945  30.472  28.005  1.00  0.00     0.049 A 
ATOM     28  C   UNL A   1      45.310  25.180  27.141  1.00  0.00     0.074 A 
ATOM     29  C   UNL A   1      48.301  30.725  27.886  1.00  0.00     0.029 A 
ATOM     30  N   UNL A   1      46.761  29.131  27.705  1.00  0.00    -0.354 N 
ATOM     31  N   UNL A   1      45.846  26.362  27.335  1.00  0.00    -0.248 NA
ATOM     32  C   UNL A   1      46.244  24.171  26.626  1.00  0.00     0.031 C 
ATOM     33  C   UNL A   1      48.930  29.550  27.462  1.00  0.00     0.029 A 
ATOM     34  C   UNL A   1      47.973  28.554  27.357  1.00  0.00     0.049 A 
ATOM     35  H   UNL A   1      45.899  28.658  27.735  1.00  0.00     0.167 HD
ATOM     36  C   UNL A   1      47.178  26.238  26.967  1.00  0.00     0.074 A 
ATOM     37  C   UNL A   1      47.375  24.860  26.565  1.00  0.00     0.031 C 
ATOM     38  C   UNL A   1      48.148  27.183  26.950  1.00  0.00     0.037 A 
BRANCH  25  39
ATOM     39  C   UNL A   1      46.263  32.843  28.496  1.00  0.00     0.058 A 
ATOM     40  C   UNL A   1      46.129  33.751  27.436  1.00  0.00     0.135 A 
ATOM     41  C   UNL A   1      46.643  33.351  29.750  1.00  0.00     0.135 A 
ATOM     42  F   UNL A   1      45.780  33.317  26.214  1.00  0.00    -0.206 F 
ATOM     43  C   UNL A   1      46.356  35.113  27.613  1.00  0.00     0.059 A 
ATOM     44  C   UNL A   1      46.856  34.711  29.956  1.00  0.00     0.059 A 
ATOM     45  F   UNL A   1      46.786  32.524  30.798  1.00  0.00    -0.206 F 
ATOM     46  C   UNL A   1      46.711  35.585  28.879  1.00  0.00     0.060 A 
BRANCH  46  47
ATOM     47  S   UNL A   1      46.945  37.362  29.105  1.00  0.00     0.124 S 
ATOM     48  O   UNL A   1      45.583  37.859  28.936  1.00  0.00    -0.237 OA
ATOM     49  O   UNL A   1      47.482  37.436  30.461  1.00  0.00    -0.237 OA
ATOM     50  O   UNL A   1      47.879  37.722  28.044  1.00  0.00    -0.744 OA
ENDBRANCH  46  47
ENDBRANCH  25  39
BRANCH  26  51
ATOM     51  C   UNL A   1      43.459  23.356  27.056  1.00  0.00     0.058 A 
ATOM     52  C   UNL A   1      43.330  22.910  25.734  1.00  0.00     0.135 A 
ATOM     53  C   UNL A   1      43.166  22.448  28.086  1.00  0.00     0.135 A 
ATOM     54  F   UNL A   1      43.597  23.743  24.716  1.00  0.00    -0.206 F 
ATOM     55  C   UNL A   1      42.905  21.619  25.441  1.00  0.00     0.059 A 
ATOM     56  C   UNL A   1      42.766  21.144  27.820  1.00  0.00     0.059 A 
ATOM     57  F   UNL A   1      43.292  22.821  29.369  1.00  0.00    -0.206 F 
ATOM     58  C   UNL A   1      42.621  20.744  26.492  1.00  0.00     0.060 A 
BRANCH  58  59
ATOM     59  S   UNL A   1      42.090  19.062  26.109  1.00  0.00     0.124 S 
ATOM     60  O   UNL A   1      42.561  18.334  27.282  1.00  0.00    -0.237 OA
ATOM     61  O   UNL A   1      40.643  19.213  25.990  1.00  0.00    -0.237 OA
ATOM     62  O   UNL A   1      42.785  18.769  24.859  1.00  0.00    -0.744 OA
ENDBRANCH  58  59
ENDBRANCH  26  51
BRANCH  38  63
ATOM     63  C   UNL A   1      49.509  26.760  26.478  1.00  0.00     0.058 A 
ATOM     64  C   UNL A   1      50.417  26.136  27.348  1.00  0.00     0.135 A 
ATOM     65  C   UNL A   1      49.891  26.934  25.140  1.00  0.00     0.135 A 
ATOM     66  F   UNL A   1      50.102  25.959  28.641  1.00  0.00    -0.206 F 
ATOM     67  C   UNL A   1      51.666  25.710  26.908  1.00  0.00     0.059 A 
ATOM     68  C   UNL A   1      51.126  26.494  24.673  1.00  0.00     0.059 A 
ATOM     69  F   UNL A   1      49.056  27.521  24.268  1.00  0.00    -0.206 F 
ATOM     70  C   UNL A   1      52.009  25.890  25.567  1.00  0.00     0.060 A 
BRANCH  70  71
ATOM     71  S   UNL A   1      53.614  25.293  24.999  1.00  0.00     0.124 S 
ATOM     72  O   UNL A   1      54.530  26.114  25.786  1.00  0.00    -0.237 OA
ATOM     73  O   UNL A   1      53.567  23.878  25.355  1.00  0.00    -0.237 OA
ATOM     74  O   UNL A   1      53.593  25.573  23.566  1.00  0.00    -0.744 OA
ENDBRANCH  70  71
ENDBRANCH  38  63
ENDBRANCH  12  13
ENDBRANCH   5   7
ENDBRANCH   2   3
ENDBRANCH   1   2
BRANCH   1  75
ATOM     75  C   UNL A   1      32.963  30.104  26.943  1.00  0.00     0.023 C 
BRANCH  75  76
ATOM     76  C   UNL A   1      32.273  29.882  25.604  1.00  0.00     0.116 C 
BRANCH  76  77
ATOM     77  N   UNL A   1      33.201  29.696  24.501  1.00  0.00    -0.351 N 
ATOM     78  C   UNL A   1      33.226  28.694  23.557  1.00  0.00     0.269 C 
ATOM     79  H   UNL A   1      33.906  30.378  24.418  1.00  0.00     0.163 HD
ATOM     80  O   UNL A   1      34.093  28.691  22.687  1.00  0.00    -0.268 OA
BRANCH  78  81
ATOM     81  C   UNL A   1      32.198  27.619  23.603  1.00  0.00     0.129 A 
ATOM     82  C   UNL A   1      32.542  26.342  24.041  1.00  0.00     0.049 A 
ATOM     83  N   UNL A   1      30.966  27.968  23.157  1.00  0.00    -0.251 NA
ATOM     84  C   UNL A   1      31.581  25.346  23.947  1.00  0.00     0.012 A 
ATOM     85  C   UNL A   1      30.038  26.998  23.137  1.00  0.00     0.113 A 
ATOM     86  C   UNL A   1      30.298  25.691  23.505  1.00  0.00     0.035 A 
BRANCH  84  87
ATOM     87  S   UNL A   1      31.823  23.636  24.368  1.00  0.00    -0.116 SA
BRANCH  87  88
ATOM     88  C   UNL A   1      33.550  23.258  23.973  1.00  0.00     0.175 C 
BRANCH  88  89
ATOM     89  C   UNL A   1      34.219  22.046  24.602  1.00  0.00     0.233 C 
ATOM     90  O   UNL A   1      33.771  20.926  24.326  1.00  0.00    -0.274 OA
ATOM     91  N   UNL A   1      35.414  22.167  25.281  1.00  0.00    -0.337 N 
ATOM     92  C   UNL A   1      35.842  23.279  26.129  1.00  0.00     0.148 C 
ATOM     93  C   UNL A   1      36.345  21.030  25.312  1.00  0.00     0.148 C 
ATOM     94  C   UNL A   1      37.280  23.687  25.811  1.00  0.00     0.181 C 
ATOM     95  C   UNL A   1      37.764  21.520  24.990  1.00  0.00     0.181 C 
ATOM     96  O   UNL A   1      38.169  22.565  25.892  1.00  0.00    -0.378 OA
ENDBRANCH  88  89
ENDBRANCH  87  88
ENDBRANCH  84  87
ENDBRANCH  78  81
ENDBRANCH  76  77
ENDBRANCH  75  76
ENDBRANCH   1  75
TORSDOF 17
ENDMDL
