MODEL 1
REMARK VINA RESULT:     -11.7      0.000      0.000
REMARK SMILES Cc1nc2scc(-c3cccs3)c2c(=O)n1CC(=O)NCCCCNC(=O)c1ccc(-c2c3nc(c(-c4c(F)cc(S(=O)(=O)[O-])cc4F)c4ccc([nH]4)c(-c4c(F)cc(S(=O)(=O)[O-])cc4F)c4nc(c(-c5c(F)cc(S(=O)(=O)[O-])cc5F)c5ccc2[nH]5)C=C4)C=C3)cc1
REMARK SMILES IDX 23 1 22 2 21 3 20 4 18 5 19 6 17 8 16 9 1 10 2 11 3 12 4 13
REMARK SMILES IDX 14 14 5 15 13 16 15 17 6 18 7 19 8 20 9 21 12 22 10 23 11 24
REMARK SMILES IDX 24 25 25 26 26 27 27 29 28 30 29 31 93 32 30 33 92 34 31 35
REMARK SMILES IDX 32 36 33 37 86 38 34 39 91 40 85 41 87 42 35 43 90 44 84 45
REMARK SMILES IDX 83 46 36 48 70 49 49 50 69 51 50 52 53 53 68 54 88 55 51 56
REMARK SMILES IDX 52 57 67 59 89 60 54 61 37 62 38 63 47 64 39 65 40 66 46 67
REMARK SMILES IDX 48 68 41 69 42 70 43 71 44 72 45 73 71 74 72 75 81 76 73 77
REMARK SMILES IDX 74 78 80 79 82 80 75 81 76 82 77 83 78 84 79 85 55 86 56 87
REMARK SMILES IDX 65 88 57 89 58 90 64 91 66 92 59 93 60 94 61 95 62 96 63 97
REMARK H PARENT 20 7 25 28 87 47 53 58
REMARK Flexibility Score: inf
ROOT
ATOM      1  C   UNL A   1      41.655  21.699  26.303  1.00  0.00     0.023 C 
ENDROOT
BRANCH   1   2
ATOM      2  C   UNL A   1      40.247  21.145  26.489  1.00  0.00     0.023 C 
BRANCH   2   3
ATOM      3  C   UNL A   1      39.158  22.204  26.319  1.00  0.00     0.116 C 
BRANCH   3   4
ATOM      4  N   UNL A   1      38.533  22.146  25.019  1.00  0.00    -0.355 N 
ATOM      5  C   UNL A   1      37.208  22.173  24.699  1.00  0.00     0.240 C 
ATOM      6  O   UNL A   1      36.909  22.286  23.509  1.00  0.00    -0.273 OA
ATOM      7  H   UNL A   1      39.152  22.079  24.256  1.00  0.00     0.163 HD
BRANCH   5   8
ATOM      8  C   UNL A   1      36.135  22.208  25.799  1.00  0.00     0.227 C 
BRANCH   8   9
ATOM      9  N   UNL A   1      34.793  22.452  25.256  1.00  0.00    -0.287 N 
ATOM     10  C   UNL A   1      34.253  19.992  24.942  1.00  0.00     0.088 C 
ATOM     11  C   UNL A   1      33.912  21.470  24.818  1.00  0.00     0.110 A 
ATOM     12  N   UNL A   1      32.760  21.725  24.273  1.00  0.00    -0.224 NA
ATOM     13  C   UNL A   1      32.434  23.032  24.162  1.00  0.00     0.131 A 
ATOM     14  C   UNL A   1      34.446  23.817  25.226  1.00  0.00     0.263 A 
ATOM     15  S   UNL A   1      30.948  23.509  23.479  1.00  0.00    -0.123 S 
ATOM     16  C   UNL A   1      33.181  24.107  24.587  1.00  0.00     0.085 A 
ATOM     17  O   UNL A   1      35.154  24.697  25.701  1.00  0.00    -0.268 OA
ATOM     18  C   UNL A   1      31.258  25.153  23.819  1.00  0.00     0.077 A 
ATOM     19  C   UNL A   1      32.502  25.349  24.385  1.00  0.00     0.017 A 
BRANCH  19  20
ATOM     20  C   UNL A   1      32.965  26.726  24.754  1.00  0.00     0.036 A 
ATOM     21  C   UNL A   1      33.562  27.632  23.903  1.00  0.00     0.020 A 
ATOM     22  S   UNL A   1      32.777  27.364  26.332  1.00  0.00    -0.144 S 
ATOM     23  C   UNL A   1      33.845  28.873  24.556  1.00  0.00     0.012 A 
ATOM     24  C   UNL A   1      33.513  28.841  25.892  1.00  0.00     0.065 A 
ENDBRANCH  19  20
ENDBRANCH   8   9
ENDBRANCH   5   8
ENDBRANCH   3   4
ENDBRANCH   2   3
ENDBRANCH   1   2
BRANCH   1  25
ATOM     25  C   UNL A   1      42.293  22.069  27.619  1.00  0.00     0.116 C 
BRANCH  25  26
ATOM     26  N   UNL A   1      43.699  22.469  27.495  1.00  0.00    -0.352 N 
ATOM     27  C   UNL A   1      44.142  23.693  27.030  1.00  0.00     0.251 C 
ATOM     28  H   UNL A   1      44.381  21.812  27.765  1.00  0.00     0.163 HD
ATOM     29  O   UNL A   1      45.305  23.850  26.622  1.00  0.00    -0.269 OA
BRANCH  27  30
ATOM     30  C   UNL A   1      43.228  24.833  27.203  1.00  0.00     0.039 A 
ATOM     31  C   UNL A   1      42.295  25.377  26.322  1.00  0.00     0.014 A 
ATOM     32  C   UNL A   1      43.458  25.552  28.356  1.00  0.00     0.014 A 
ATOM     33  C   UNL A   1      41.798  26.680  26.659  1.00  0.00     0.010 A 
ATOM     34  C   UNL A   1      42.447  26.304  28.817  1.00  0.00     0.010 A 
ATOM     35  C   UNL A   1      42.177  27.276  27.908  1.00  0.00    -0.014 A 
BRANCH  35  36
ATOM     36  C   UNL A   1      41.669  28.478  28.665  1.00  0.00     0.031 A 
ATOM     37  C   UNL A   1      42.730  29.564  28.232  1.00  0.00     0.074 A 
ATOM     38  C   UNL A   1      40.453  28.602  29.402  1.00  0.00     0.049 A 
ATOM     39  N   UNL A   1      43.847  29.748  28.875  1.00  0.00    -0.248 NA
ATOM     40  C   UNL A   1      42.926  30.112  26.830  1.00  0.00     0.031 C 
ATOM     41  C   UNL A   1      39.313  27.667  29.799  1.00  0.00     0.029 A 
ATOM     42  N   UNL A   1      39.963  29.713  30.130  1.00  0.00    -0.354 N 
ATOM     43  C   UNL A   1      44.485  30.822  28.256  1.00  0.00     0.074 A 
ATOM     44  C   UNL A   1      44.094  30.772  26.895  1.00  0.00     0.031 C 
ATOM     45  C   UNL A   1      38.236  28.334  30.358  1.00  0.00     0.029 A 
ATOM     46  C   UNL A   1      38.547  29.749  30.514  1.00  0.00     0.049 A 
ATOM     47  H   UNL A   1      40.564  30.452  30.374  1.00  0.00     0.167 HD
ATOM     48  C   UNL A   1      44.891  31.869  29.025  1.00  0.00     0.037 A 
ATOM     49  C   UNL A   1      37.870  30.717  31.290  1.00  0.00     0.037 A 
ATOM     50  C   UNL A   1      44.863  31.433  30.403  1.00  0.00     0.049 A 
ATOM     51  C   UNL A   1      38.962  31.550  31.866  1.00  0.00     0.074 A 
ATOM     52  C   UNL A   1      45.523  30.451  31.113  1.00  0.00     0.029 A 
ATOM     53  N   UNL A   1      43.622  31.567  30.964  1.00  0.00    -0.354 N 
ATOM     54  N   UNL A   1      39.770  31.064  32.769  1.00  0.00    -0.248 NA
ATOM     55  C   UNL A   1      39.496  32.545  30.939  1.00  0.00     0.031 C 
ATOM     56  C   UNL A   1      44.528  29.815  31.916  1.00  0.00     0.029 A 
ATOM     57  C   UNL A   1      43.355  30.557  31.845  1.00  0.00     0.049 A 
ATOM     58  H   UNL A   1      42.998  32.300  30.759  1.00  0.00     0.167 HD
ATOM     59  C   UNL A   1      41.023  31.288  32.228  1.00  0.00     0.074 A 
ATOM     60  C   UNL A   1      40.781  32.196  31.076  1.00  0.00     0.031 C 
ATOM     61  C   UNL A   1      42.066  30.430  32.475  1.00  0.00     0.037 A 
BRANCH  48  62
ATOM     62  C   UNL A   1      44.792  33.334  28.646  1.00  0.00     0.058 A 
ATOM     63  C   UNL A   1      45.988  34.069  28.554  1.00  0.00     0.135 A 
ATOM     64  C   UNL A   1      43.603  34.105  28.597  1.00  0.00     0.135 A 
ATOM     65  F   UNL A   1      47.174  33.447  28.631  1.00  0.00    -0.206 F 
ATOM     66  C   UNL A   1      46.012  35.456  28.417  1.00  0.00     0.059 A 
ATOM     67  C   UNL A   1      43.602  35.493  28.419  1.00  0.00     0.059 A 
ATOM     68  F   UNL A   1      42.395  33.557  28.785  1.00  0.00    -0.206 F 
ATOM     69  C   UNL A   1      44.814  36.160  28.335  1.00  0.00     0.060 A 
BRANCH  69  70
ATOM     70  S   UNL A   1      44.889  37.948  28.112  1.00  0.00     0.124 S 
ATOM     71  O   UNL A   1      43.960  38.153  27.007  1.00  0.00    -0.237 OA
ATOM     72  O   UNL A   1      44.439  38.424  29.418  1.00  0.00    -0.237 OA
ATOM     73  O   UNL A   1      46.295  38.196  27.813  1.00  0.00    -0.744 OA
ENDBRANCH  69  70
ENDBRANCH  48  62
BRANCH  49  74
ATOM     74  C   UNL A   1      36.502  31.441  31.131  1.00  0.00     0.058 A 
ATOM     75  C   UNL A   1      35.849  32.280  32.104  1.00  0.00     0.135 A 
ATOM     76  C   UNL A   1      36.004  31.600  29.836  1.00  0.00     0.135 A 
ATOM     77  F   UNL A   1      36.183  32.209  33.404  1.00  0.00    -0.206 F 
ATOM     78  C   UNL A   1      34.860  33.257  31.769  1.00  0.00     0.059 A 
ATOM     79  C   UNL A   1      35.052  32.571  29.480  1.00  0.00     0.059 A 
ATOM     80  F   UNL A   1      36.510  30.857  28.844  1.00  0.00    -0.206 F 
ATOM     81  C   UNL A   1      34.505  33.425  30.433  1.00  0.00     0.060 A 
BRANCH  81  82
ATOM     82  S   UNL A   1      33.431  34.804  29.892  1.00  0.00     0.124 S 
ATOM     83  O   UNL A   1      32.742  35.176  31.123  1.00  0.00    -0.237 OA
ATOM     84  O   UNL A   1      34.392  35.776  29.383  1.00  0.00    -0.237 OA
ATOM     85  O   UNL A   1      32.582  34.185  28.876  1.00  0.00    -0.744 OA
ENDBRANCH  81  82
ENDBRANCH  49  74
BRANCH  61  86
ATOM     86  C   UNL A   1      41.917  29.326  33.509  1.00  0.00     0.058 A 
ATOM     87  C   UNL A   1      41.750  27.942  33.282  1.00  0.00     0.135 A 
ATOM     88  C   UNL A   1      42.121  29.705  34.838  1.00  0.00     0.135 A 
ATOM     89  F   UNL A   1      41.752  27.441  32.041  1.00  0.00    -0.206 F 
ATOM     90  C   UNL A   1      41.662  27.010  34.330  1.00  0.00     0.059 A 
ATOM     91  C   UNL A   1      42.086  28.799  35.891  1.00  0.00     0.059 A 
ATOM     92  F   UNL A   1      42.429  30.980  35.123  1.00  0.00    -0.206 F 
ATOM     93  C   UNL A   1      41.805  27.460  35.639  1.00  0.00     0.060 A 
BRANCH  93  94
ATOM     94  S   UNL A   1      41.630  26.304  37.017  1.00  0.00     0.124 S 
ATOM     95  O   UNL A   1      40.385  26.749  37.634  1.00  0.00    -0.237 OA
ATOM     96  O   UNL A   1      41.574  25.011  36.342  1.00  0.00    -0.237 OA
ATOM     97  O   UNL A   1      42.835  26.535  37.810  1.00  0.00    -0.744 OA
ENDBRANCH  93  94
ENDBRANCH  61  86
ENDBRANCH  35  36
ENDBRANCH  27  30
ENDBRANCH  25  26
ENDBRANCH   1  25
TORSDOF 16
ENDMDL
MODEL 2
REMARK VINA RESULT:     -11.3      3.026      8.796
REMARK SMILES Cc1nc2scc(-c3cccs3)c2c(=O)n1CC(=O)NCCCCNC(=O)c1ccc(-c2c3nc(c(-c4c(F)cc(S(=O)(=O)[O-])cc4F)c4ccc([nH]4)c(-c4c(F)cc(S(=O)(=O)[O-])cc4F)c4nc(c(-c5c(F)cc(S(=O)(=O)[O-])cc5F)c5ccc2[nH]5)C=C4)C=C3)cc1
REMARK SMILES IDX 23 1 22 2 21 3 20 4 18 5 19 6 17 8 16 9 1 10 2 11 3 12 4 13
REMARK SMILES IDX 14 14 5 15 13 16 15 17 6 18 7 19 8 20 9 21 12 22 10 23 11 24
REMARK SMILES IDX 24 25 25 26 26 27 27 29 28 30 29 31 93 32 30 33 92 34 31 35
REMARK SMILES IDX 32 36 33 37 86 38 34 39 91 40 85 41 87 42 35 43 90 44 84 45
REMARK SMILES IDX 83 46 36 48 70 49 49 50 69 51 50 52 53 53 68 54 88 55 51 56
REMARK SMILES IDX 52 57 67 59 89 60 54 61 37 62 38 63 47 64 39 65 40 66 46 67
REMARK SMILES IDX 48 68 41 69 42 70 43 71 44 72 45 73 71 74 72 75 81 76 73 77
REMARK SMILES IDX 74 78 80 79 82 80 75 81 76 82 77 83 78 84 79 85 55 86 56 87
REMARK SMILES IDX 65 88 57 89 58 90 64 91 66 92 59 93 60 94 61 95 62 96 63 97
REMARK H PARENT 20 7 25 28 87 47 53 58
REMARK Flexibility Score: inf
ROOT
ATOM      1  C   UNL A   1      31.408  32.400  27.075  1.00  0.00     0.023 C 
ENDROOT
BRANCH   1   2
ATOM      2  C   UNL A   1      31.476  31.091  26.297  1.00  0.00     0.023 C 
BRANCH   2   3
ATOM      3  C   UNL A   1      32.396  30.056  26.944  1.00  0.00     0.116 C 
BRANCH   3   4
ATOM      4  N   UNL A   1      31.751  28.777  27.115  1.00  0.00    -0.355 N 
ATOM      5  C   UNL A   1      32.214  27.531  26.810  1.00  0.00     0.240 C 
ATOM      6  O   UNL A   1      31.558  26.564  27.203  1.00  0.00    -0.273 OA
ATOM      7  H   UNL A   1      30.849  28.809  27.508  1.00  0.00     0.163 HD
BRANCH   5   8
ATOM      8  C   UNL A   1      33.580  27.346  26.129  1.00  0.00     0.227 C 
BRANCH   8   9
ATOM      9  N   UNL A   1      33.454  26.785  24.779  1.00  0.00    -0.287 N 
ATOM     10  C   UNL A   1      33.157  29.038  23.650  1.00  0.00     0.088 C 
ATOM     11  C   UNL A   1      33.224  27.518  23.621  1.00  0.00     0.110 A 
ATOM     12  N   UNL A   1      33.043  26.982  22.450  1.00  0.00    -0.224 NA
ATOM     13  C   UNL A   1      33.107  25.633  22.402  1.00  0.00     0.131 A 
ATOM     14  C   UNL A   1      33.605  25.384  24.743  1.00  0.00     0.263 A 
ATOM     15  S   UNL A   1      32.902  24.799  20.930  1.00  0.00    -0.123 S 
ATOM     16  C   UNL A   1      33.367  24.781  23.451  1.00  0.00     0.085 A 
ATOM     17  O   UNL A   1      33.912  24.720  25.727  1.00  0.00    -0.268 OA
ATOM     18  C   UNL A   1      33.238  23.298  21.671  1.00  0.00     0.077 A 
ATOM     19  C   UNL A   1      33.441  23.415  23.031  1.00  0.00     0.017 A 
BRANCH  19  20
ATOM     20  C   UNL A   1      33.746  22.208  23.865  1.00  0.00     0.036 A 
ATOM     21  C   UNL A   1      34.992  21.838  24.326  1.00  0.00     0.020 A 
ATOM     22  S   UNL A   1      32.529  21.119  24.382  1.00  0.00    -0.144 S 
ATOM     23  C   UNL A   1      34.936  20.659  25.132  1.00  0.00     0.012 A 
ATOM     24  C   UNL A   1      33.662  20.139  25.200  1.00  0.00     0.065 A 
ENDBRANCH  19  20
ENDBRANCH   8   9
ENDBRANCH   5   8
ENDBRANCH   3   4
ENDBRANCH   2   3
ENDBRANCH   1   2
BRANCH   1  25
ATOM     25  C   UNL A   1      32.728  33.131  27.063  1.00  0.00     0.116 C 
BRANCH  25  26
ATOM     26  N   UNL A   1      32.720  34.365  27.858  1.00  0.00    -0.352 N 
ATOM     27  C   UNL A   1      33.279  34.509  29.114  1.00  0.00     0.251 C 
ATOM     28  H   UNL A   1      32.281  35.153  27.464  1.00  0.00     0.163 HD
ATOM     29  O   UNL A   1      32.947  35.438  29.870  1.00  0.00    -0.269 OA
BRANCH  27  30
ATOM     30  C   UNL A   1      34.402  33.616  29.440  1.00  0.00     0.039 A 
ATOM     31  C   UNL A   1      34.453  32.509  30.283  1.00  0.00     0.014 A 
ATOM     32  C   UNL A   1      35.614  34.056  28.951  1.00  0.00     0.014 A 
ATOM     33  C   UNL A   1      35.764  32.053  30.646  1.00  0.00     0.010 A 
ATOM     34  C   UNL A   1      36.582  33.139  28.810  1.00  0.00     0.010 A 
ATOM     35  C   UNL A   1      36.913  32.661  30.037  1.00  0.00    -0.014 A 
BRANCH  35  36
ATOM     36  C   UNL A   1      38.373  32.284  30.001  1.00  0.00     0.031 A 
ATOM     37  C   UNL A   1      38.284  30.839  29.370  1.00  0.00     0.074 A 
ATOM     38  C   UNL A   1      39.501  33.111  30.287  1.00  0.00     0.049 A 
ATOM     39  N   UNL A   1      38.122  29.769  30.094  1.00  0.00    -0.248 NA
ATOM     40  C   UNL A   1      37.818  30.504  27.966  1.00  0.00     0.031 C 
ATOM     41  C   UNL A   1      39.714  34.534  30.797  1.00  0.00     0.029 A 
ATOM     42  N   UNL A   1      40.876  32.776  30.272  1.00  0.00    -0.354 N 
ATOM     43  C   UNL A   1      38.162  28.689  29.212  1.00  0.00     0.074 A 
ATOM     44  C   UNL A   1      37.646  29.173  27.985  1.00  0.00     0.031 C 
ATOM     45  C   UNL A   1      41.032  34.949  30.709  1.00  0.00     0.029 A 
ATOM     46  C   UNL A   1      41.875  33.851  30.252  1.00  0.00     0.049 A 
ATOM     47  H   UNL A   1      41.159  31.833  30.274  1.00  0.00     0.167 HD
ATOM     48  C   UNL A   1      39.024  27.668  29.471  1.00  0.00     0.037 A 
ATOM     49  C   UNL A   1      43.283  33.745  30.302  1.00  0.00     0.037 A 
ATOM     50  C   UNL A   1      39.459  27.805  30.843  1.00  0.00     0.049 A 
ATOM     51  C   UNL A   1      43.528  32.320  30.657  1.00  0.00     0.074 A 
ATOM     52  C   UNL A   1      38.813  27.780  32.063  1.00  0.00     0.029 A 
ATOM     53  N   UNL A   1      40.517  28.664  30.970  1.00  0.00    -0.354 N 
ATOM     54  N   UNL A   1      43.227  31.864  31.843  1.00  0.00    -0.248 NA
ATOM     55  C   UNL A   1      43.416  31.402  29.526  1.00  0.00     0.031 C 
ATOM     56  C   UNL A   1      39.352  28.868  32.813  1.00  0.00     0.029 A 
ATOM     57  C   UNL A   1      40.449  29.381  32.130  1.00  0.00     0.049 A 
ATOM     58  H   UNL A   1      41.238  28.755  30.305  1.00  0.00     0.167 HD
ATOM     59  C   UNL A   1      42.409  30.782  31.570  1.00  0.00     0.074 A 
ATOM     60  C   UNL A   1      42.550  30.561  30.106  1.00  0.00     0.031 C 
ATOM     61  C   UNL A   1      41.397  30.424  32.426  1.00  0.00     0.037 A 
BRANCH  48  62
ATOM     62  C   UNL A   1      39.850  26.926  28.439  1.00  0.00     0.058 A 
ATOM     63  C   UNL A   1      39.740  25.523  28.398  1.00  0.00     0.135 A 
ATOM     64  C   UNL A   1      40.900  27.473  27.659  1.00  0.00     0.135 A 
ATOM     65  F   UNL A   1      38.808  24.895  29.130  1.00  0.00    -0.206 F 
ATOM     66  C   UNL A   1      40.594  24.723  27.640  1.00  0.00     0.059 A 
ATOM     67  C   UNL A   1      41.742  26.693  26.860  1.00  0.00     0.059 A 
ATOM     68  F   UNL A   1      41.198  28.780  27.688  1.00  0.00    -0.206 F 
ATOM     69  C   UNL A   1      41.583  25.316  26.862  1.00  0.00     0.060 A 
BRANCH  69  70
ATOM     70  S   UNL A   1      42.636  24.246  25.861  1.00  0.00     0.124 S 
ATOM     71  O   UNL A   1      41.816  23.048  25.736  1.00  0.00    -0.237 OA
ATOM     72  O   UNL A   1      42.788  25.043  24.646  1.00  0.00    -0.237 OA
ATOM     73  O   UNL A   1      43.844  24.108  26.666  1.00  0.00    -0.744 OA
ENDBRANCH  69  70
ENDBRANCH  48  62
BRANCH  49  74
ATOM     74  C   UNL A   1      44.431  34.433  29.507  1.00  0.00     0.058 A 
ATOM     75  C   UNL A   1      44.514  34.601  28.078  1.00  0.00     0.135 A 
ATOM     76  C   UNL A   1      45.293  35.272  30.217  1.00  0.00     0.135 A 
ATOM     77  F   UNL A   1      43.781  33.832  27.254  1.00  0.00    -0.206 F 
ATOM     78  C   UNL A   1      45.320  35.598  27.445  1.00  0.00     0.059 A 
ATOM     79  C   UNL A   1      46.074  36.275  29.618  1.00  0.00     0.059 A 
ATOM     80  F   UNL A   1      45.330  35.194  31.553  1.00  0.00    -0.206 F 
ATOM     81  C   UNL A   1      46.063  36.468  28.239  1.00  0.00     0.060 A 
BRANCH  81  82
ATOM     82  S   UNL A   1      46.930  37.913  27.528  1.00  0.00     0.124 S 
ATOM     83  O   UNL A   1      48.259  37.813  28.120  1.00  0.00    -0.237 OA
ATOM     84  O   UNL A   1      46.852  37.656  26.094  1.00  0.00    -0.237 OA
ATOM     85  O   UNL A   1      46.131  39.044  27.997  1.00  0.00    -0.744 OA
ENDBRANCH  81  82
ENDBRANCH  49  74
BRANCH  61  86
ATOM     86  C   UNL A   1      41.281  31.087  33.789  1.00  0.00     0.058 A 
ATOM     87  C   UNL A   1      40.375  32.093  34.190  1.00  0.00     0.135 A 
ATOM     88  C   UNL A   1      42.060  30.527  34.805  1.00  0.00     0.135 A 
ATOM     89  F   UNL A   1      39.442  32.555  33.351  1.00  0.00    -0.206 F 
ATOM     90  C   UNL A   1      40.341  32.600  35.500  1.00  0.00     0.059 A 
ATOM     91  C   UNL A   1      42.014  30.977  36.120  1.00  0.00     0.059 A 
ATOM     92  F   UNL A   1      42.841  29.470  34.535  1.00  0.00    -0.206 F 
ATOM     93  C   UNL A   1      41.192  32.048  36.454  1.00  0.00     0.060 A 
BRANCH  93  94
ATOM     94  S   UNL A   1      41.226  32.718  38.132  1.00  0.00     0.124 S 
ATOM     95  O   UNL A   1      42.067  31.751  38.831  1.00  0.00    -0.237 OA
ATOM     96  O   UNL A   1      41.814  34.039  37.934  1.00  0.00    -0.237 OA
ATOM     97  O   UNL A   1      39.820  32.720  38.526  1.00  0.00    -0.744 OA
ENDBRANCH  93  94
ENDBRANCH  61  86
ENDBRANCH  35  36
ENDBRANCH  27  30
ENDBRANCH  25  26
ENDBRANCH   1  25
TORSDOF 16
ENDMDL
MODEL 3
REMARK VINA RESULT:     -11.2      4.408     10.459
REMARK SMILES Cc1nc2scc(-c3cccs3)c2c(=O)n1CC(=O)NCCCCNC(=O)c1ccc(-c2c3nc(c(-c4c(F)cc(S(=O)(=O)[O-])cc4F)c4ccc([nH]4)c(-c4c(F)cc(S(=O)(=O)[O-])cc4F)c4nc(c(-c5c(F)cc(S(=O)(=O)[O-])cc5F)c5ccc2[nH]5)C=C4)C=C3)cc1
REMARK SMILES IDX 23 1 22 2 21 3 20 4 18 5 19 6 17 8 16 9 1 10 2 11 3 12 4 13
REMARK SMILES IDX 14 14 5 15 13 16 15 17 6 18 7 19 8 20 9 21 12 22 10 23 11 24
REMARK SMILES IDX 24 25 25 26 26 27 27 29 28 30 29 31 93 32 30 33 92 34 31 35
REMARK SMILES IDX 32 36 33 37 86 38 34 39 91 40 85 41 87 42 35 43 90 44 84 45
REMARK SMILES IDX 83 46 36 48 70 49 49 50 69 51 50 52 53 53 68 54 88 55 51 56
REMARK SMILES IDX 52 57 67 59 89 60 54 61 37 62 38 63 47 64 39 65 40 66 46 67
REMARK SMILES IDX 48 68 41 69 42 70 43 71 44 72 45 73 71 74 72 75 81 76 73 77
REMARK SMILES IDX 74 78 80 79 82 80 75 81 76 82 77 83 78 84 79 85 55 86 56 87
REMARK SMILES IDX 65 88 57 89 58 90 64 91 66 92 59 93 60 94 61 95 62 96 63 97
REMARK H PARENT 20 7 25 28 87 47 53 58
REMARK Flexibility Score: inf
ROOT
ATOM      1  C   UNL A   1      42.320  27.848  36.617  1.00  0.00     0.023 C 
ENDROOT
BRANCH   1   2
ATOM      2  C   UNL A   1      42.556  28.705  35.378  1.00  0.00     0.023 C 
BRANCH   2   3
ATOM      3  C   UNL A   1      41.262  29.230  34.758  1.00  0.00     0.116 C 
BRANCH   3   4
ATOM      4  N   UNL A   1      40.198  29.352  35.725  1.00  0.00    -0.355 N 
ATOM      5  C   UNL A   1      39.357  30.401  35.953  1.00  0.00     0.240 C 
ATOM      6  O   UNL A   1      38.408  30.217  36.718  1.00  0.00    -0.273 OA
ATOM      7  H   UNL A   1      40.061  28.566  36.302  1.00  0.00     0.163 HD
BRANCH   5   8
ATOM      8  C   UNL A   1      39.509  31.714  35.168  1.00  0.00     0.227 C 
BRANCH   8   9
ATOM      9  N   UNL A   1      38.221  32.214  34.672  1.00  0.00    -0.287 N 
ATOM     10  C   UNL A   1      37.724  33.585  36.749  1.00  0.00     0.088 C 
ATOM     11  C   UNL A   1      37.356  33.044  35.376  1.00  0.00     0.110 A 
ATOM     12  N   UNL A   1      36.188  33.408  34.936  1.00  0.00    -0.224 NA
ATOM     13  C   UNL A   1      35.846  32.944  33.713  1.00  0.00     0.131 A 
ATOM     14  C   UNL A   1      37.924  31.783  33.365  1.00  0.00     0.263 A 
ATOM     15  S   UNL A   1      34.349  33.354  33.008  1.00  0.00    -0.123 S 
ATOM     16  C   UNL A   1      36.612  32.155  32.886  1.00  0.00     0.085 A 
ATOM     17  O   UNL A   1      38.711  31.140  32.678  1.00  0.00    -0.268 OA
ATOM     18  C   UNL A   1      34.748  32.545  31.559  1.00  0.00     0.077 A 
ATOM     19  C   UNL A   1      35.974  31.914  31.628  1.00  0.00     0.017 A 
BRANCH  19  20
ATOM     20  C   UNL A   1      36.504  31.143  30.457  1.00  0.00     0.036 A 
ATOM     21  C   UNL A   1      36.348  29.790  30.243  1.00  0.00     0.020 A 
ATOM     22  S   UNL A   1      37.380  31.890  29.189  1.00  0.00    -0.144 S 
ATOM     23  C   UNL A   1      36.936  29.371  29.009  1.00  0.00     0.012 A 
ATOM     24  C   UNL A   1      37.574  30.408  28.364  1.00  0.00     0.065 A 
ENDBRANCH  19  20
ENDBRANCH   8   9
ENDBRANCH   5   8
ENDBRANCH   3   4
ENDBRANCH   2   3
ENDBRANCH   1   2
BRANCH   1  25
ATOM     25  C   UNL A   1      41.955  26.428  36.259  1.00  0.00     0.116 C 
BRANCH  25  26
ATOM     26  N   UNL A   1      42.840  25.426  36.864  1.00  0.00    -0.352 N 
ATOM     27  C   UNL A   1      43.880  24.785  36.217  1.00  0.00     0.251 C 
ATOM     28  H   UNL A   1      42.680  25.193  37.807  1.00  0.00     0.163 HD
ATOM     29  O   UNL A   1      44.358  23.723  36.650  1.00  0.00    -0.269 OA
BRANCH  27  30
ATOM     30  C   UNL A   1      44.502  25.506  35.095  1.00  0.00     0.039 A 
ATOM     31  C   UNL A   1      45.633  26.319  35.067  1.00  0.00     0.014 A 
ATOM     32  C   UNL A   1      43.744  25.489  33.943  1.00  0.00     0.014 A 
ATOM     33  C   UNL A   1      45.789  27.139  33.900  1.00  0.00     0.010 A 
ATOM     34  C   UNL A   1      44.387  25.719  32.788  1.00  0.00     0.010 A 
ATOM     35  C   UNL A   1      44.874  26.986  32.805  1.00  0.00    -0.014 A 
BRANCH  35  36
ATOM     36  C   UNL A   1      44.885  27.488  31.382  1.00  0.00     0.031 A 
ATOM     37  C   UNL A   1      44.147  28.873  31.557  1.00  0.00     0.074 A 
ATOM     38  C   UNL A   1      45.559  26.923  30.258  1.00  0.00     0.049 A 
ATOM     39  N   UNL A   1      42.852  28.990  31.489  1.00  0.00    -0.248 NA
ATOM     40  C   UNL A   1      44.664  30.068  32.336  1.00  0.00     0.031 C 
ATOM     41  C   UNL A   1      46.377  25.663  29.991  1.00  0.00     0.029 A 
ATOM     42  N   UNL A   1      45.573  27.369  28.914  1.00  0.00    -0.354 N 
ATOM     43  C   UNL A   1      42.573  30.350  31.617  1.00  0.00     0.074 A 
ATOM     44  C   UNL A   1      43.599  30.879  32.438  1.00  0.00     0.031 C 
ATOM     45  C   UNL A   1      47.001  25.673  28.755  1.00  0.00     0.029 A 
ATOM     46  C   UNL A   1      46.600  26.854  28.000  1.00  0.00     0.049 A 
ATOM     47  H   UNL A   1      44.903  28.016  28.597  1.00  0.00     0.167 HD
ATOM     48  C   UNL A   1      41.796  30.947  30.672  1.00  0.00     0.037 A 
ATOM     49  C   UNL A   1      46.757  27.109  26.619  1.00  0.00     0.037 A 
ATOM     50  C   UNL A   1      41.142  29.899  29.921  1.00  0.00     0.049 A 
ATOM     51  C   UNL A   1      45.492  27.794  26.231  1.00  0.00     0.074 A 
ATOM     52  C   UNL A   1      40.252  28.895  30.248  1.00  0.00     0.029 A 
ATOM     53  N   UNL A   1      41.925  29.422  28.905  1.00  0.00    -0.354 N 
ATOM     54  N   UNL A   1      44.359  27.148  26.212  1.00  0.00    -0.248 NA
ATOM     55  C   UNL A   1      45.461  29.214  26.574  1.00  0.00     0.031 C 
ATOM     56  C   UNL A   1      40.729  27.721  29.592  1.00  0.00     0.029 A 
ATOM     57  C   UNL A   1      41.750  28.080  28.719  1.00  0.00     0.049 A 
ATOM     58  H   UNL A   1      42.540  29.978  28.373  1.00  0.00     0.167 HD
ATOM     59  C   UNL A   1      43.541  27.916  27.021  1.00  0.00     0.074 A 
ATOM     60  C   UNL A   1      44.297  29.179  27.233  1.00  0.00     0.031 C 
ATOM     61  C   UNL A   1      42.549  27.341  27.776  1.00  0.00     0.037 A 
BRANCH  48  62
ATOM     62  C   UNL A   1      42.018  32.329  30.090  1.00  0.00     0.058 A 
ATOM     63  C   UNL A   1      43.260  32.596  29.487  1.00  0.00     0.135 A 
ATOM     64  C   UNL A   1      41.189  33.462  30.292  1.00  0.00     0.135 A 
ATOM     65  F   UNL A   1      44.142  31.604  29.285  1.00  0.00    -0.206 F 
ATOM     66  C   UNL A   1      43.653  33.877  29.104  1.00  0.00     0.059 A 
ATOM     67  C   UNL A   1      41.545  34.751  29.879  1.00  0.00     0.059 A 
ATOM     68  F   UNL A   1      40.027  33.382  30.956  1.00  0.00    -0.206 F 
ATOM     69  C   UNL A   1      42.785  34.948  29.291  1.00  0.00     0.060 A 
BRANCH  69  70
ATOM     70  S   UNL A   1      43.314  36.582  28.739  1.00  0.00     0.124 S 
ATOM     71  O   UNL A   1      44.225  36.252  27.650  1.00  0.00    -0.237 OA
ATOM     72  O   UNL A   1      42.042  37.182  28.344  1.00  0.00    -0.237 OA
ATOM     73  O   UNL A   1      43.929  37.160  29.928  1.00  0.00    -0.744 OA
ENDBRANCH  69  70
ENDBRANCH  48  62
BRANCH  49  74
ATOM     74  C   UNL A   1      47.990  27.448  25.733  1.00  0.00     0.058 A 
ATOM     75  C   UNL A   1      49.082  28.326  26.070  1.00  0.00     0.135 A 
ATOM     76  C   UNL A   1      48.275  26.589  24.669  1.00  0.00     0.135 A 
ATOM     77  F   UNL A   1      48.948  29.245  27.041  1.00  0.00    -0.206 F 
ATOM     78  C   UNL A   1      50.369  28.260  25.451  1.00  0.00     0.059 A 
ATOM     79  C   UNL A   1      49.539  26.490  24.064  1.00  0.00     0.059 A 
ATOM     80  F   UNL A   1      47.331  25.741  24.242  1.00  0.00    -0.206 F 
ATOM     81  C   UNL A   1      50.598  27.293  24.475  1.00  0.00     0.060 A 
BRANCH  81  82
ATOM     82  S   UNL A   1      52.272  26.985  23.804  1.00  0.00     0.124 S 
ATOM     83  O   UNL A   1      52.706  25.810  24.551  1.00  0.00    -0.237 OA
ATOM     84  O   UNL A   1      52.012  26.774  22.384  1.00  0.00    -0.237 OA
ATOM     85  O   UNL A   1      52.991  28.217  24.123  1.00  0.00    -0.744 OA
ENDBRANCH  81  82
ENDBRANCH  49  74
BRANCH  61  86
ATOM     86  C   UNL A   1      42.199  25.874  27.585  1.00  0.00     0.058 A 
ATOM     87  C   UNL A   1      42.561  24.782  28.405  1.00  0.00     0.135 A 
ATOM     88  C   UNL A   1      41.286  25.594  26.566  1.00  0.00     0.135 A 
ATOM     89  F   UNL A   1      43.262  24.966  29.529  1.00  0.00    -0.206 F 
ATOM     90  C   UNL A   1      42.138  23.468  28.141  1.00  0.00     0.059 A 
ATOM     91  C   UNL A   1      40.814  24.312  26.311  1.00  0.00     0.059 A 
ATOM     92  F   UNL A   1      40.782  26.600  25.834  1.00  0.00    -0.206 F 
ATOM     93  C   UNL A   1      41.282  23.243  27.067  1.00  0.00     0.060 A 
BRANCH  93  94
ATOM     94  S   UNL A   1      40.771  21.559  26.655  1.00  0.00     0.124 S 
ATOM     95  O   UNL A   1      40.739  20.919  27.967  1.00  0.00    -0.237 OA
ATOM     96  O   UNL A   1      39.473  21.767  26.020  1.00  0.00    -0.237 OA
ATOM     97  O   UNL A   1      41.828  21.092  25.762  1.00  0.00    -0.744 OA
ENDBRANCH  93  94
ENDBRANCH  61  86
ENDBRANCH  35  36
ENDBRANCH  27  30
ENDBRANCH  25  26
ENDBRANCH   1  25
TORSDOF 16
ENDMDL
