MODEL 1
REMARK VINA RESULT:     -11.1      0.000      0.000
REMARK SMILES Cc1ccoc1C(=O)N1CCO[C@H](CC(=O)NCCCCNC(=O)c2ccc(-c3c4nc(c(-c5c(F)cc(S(=O)(=O)[O-])cc5F)c5ccc([nH]5)c(-c5c(F)cc(S(=O)(=O)[O-])cc5F)c5nc(c(-c6c(F)cc(S(=O)(=O)[O-])cc6F)c6ccc3[nH]6)C=C5)C=C4)cc2)C1
REMARK SMILES IDX 19 1 18 2 17 3 15 4 16 5 14 7 13 8 9 9 10 10 91 11 11 12
REMARK SMILES IDX 12 13 7 14 8 15 6 16 1 17 2 18 3 19 4 20 5 21 20 22 21 23
REMARK SMILES IDX 22 24 23 25 24 27 25 28 26 29 90 30 27 31 89 32 28 33 29 34
REMARK SMILES IDX 30 35 83 36 31 37 88 38 82 39 84 40 32 41 87 42 81 43 80 44
REMARK SMILES IDX 33 46 67 47 46 48 66 49 47 50 50 51 65 52 85 53 48 54 49 55
REMARK SMILES IDX 64 57 86 58 51 59 34 60 35 61 44 62 36 63 37 64 43 65 45 66
REMARK SMILES IDX 38 67 39 68 40 69 41 70 42 71 68 72 69 73 78 74 70 75 71 76
REMARK SMILES IDX 77 77 79 78 72 79 73 80 74 81 75 82 76 83 52 84 53 85 62 86
REMARK SMILES IDX 54 87 55 88 61 89 63 90 56 91 57 92 58 93 59 94 60 95
REMARK H PARENT 17 6 22 26 84 45 50 56
REMARK Flexibility Score: inf
ROOT
ATOM      1  C   UNL A   1      31.796  27.947  26.877  1.00  0.00     0.023 C 
ENDROOT
BRANCH   1   2
ATOM      2  C   UNL A   1      30.950  27.017  26.015  1.00  0.00     0.116 C 
BRANCH   2   3
ATOM      3  N   UNL A   1      30.683  25.779  26.718  1.00  0.00    -0.356 N 
ATOM      4  C   UNL A   1      30.668  24.517  26.211  1.00  0.00     0.222 C 
ATOM      5  O   UNL A   1      30.205  23.598  26.884  1.00  0.00    -0.275 OA
ATOM      6  H   UNL A   1      30.490  25.861  27.679  1.00  0.00     0.163 HD
BRANCH   4   7
ATOM      7  C   UNL A   1      31.289  24.263  24.864  1.00  0.00     0.133 C 
BRANCH   7   8
ATOM      8  C   UNL A   1      32.793  23.949  24.908  1.00  0.00     0.147 C 
ATOM      9  N   UNL A   1      33.009  24.488  22.564  1.00  0.00    -0.331 N 
ATOM     10  C   UNL A   1      33.281  23.113  22.176  1.00  0.00     0.148 C 
ATOM     11  C   UNL A   1      33.526  24.828  23.888  1.00  0.00     0.152 C 
ATOM     12  C   UNL A   1      32.892  22.118  23.286  1.00  0.00     0.182 C 
ATOM     13  O   UNL A   1      33.121  22.565  24.635  1.00  0.00    -0.374 OA
BRANCH   9  14
ATOM     14  C   UNL A   1      32.722  25.522  21.684  1.00  0.00     0.289 C 
ATOM     15  O   UNL A   1      33.040  25.385  20.499  1.00  0.00    -0.265 OA
BRANCH  14  16
ATOM     16  C   UNL A   1      32.209  26.794  22.200  1.00  0.00     0.194 A 
ATOM     17  C   UNL A   1      34.088  28.570  22.678  1.00  0.00     0.049 C 
ATOM     18  C   UNL A   1      32.709  28.047  22.570  1.00  0.00     0.000 A 
ATOM     19  C   UNL A   1      31.572  28.883  22.804  1.00  0.00     0.046 A 
ATOM     20  C   UNL A   1      30.464  28.115  22.586  1.00  0.00     0.196 A 
ATOM     21  O   UNL A   1      30.830  26.862  22.247  1.00  0.00    -0.459 OA
ENDBRANCH  14  16
ENDBRANCH   9  14
ENDBRANCH   7   8
ENDBRANCH   4   7
ENDBRANCH   2   3
ENDBRANCH   1   2
BRANCH   1  22
ATOM     22  C   UNL A   1      33.300  27.702  26.739  1.00  0.00     0.023 C 
BRANCH  22  23
ATOM     23  C   UNL A   1      34.093  28.903  26.239  1.00  0.00     0.116 C 
BRANCH  23  24
ATOM     24  N   UNL A   1      33.831  30.109  27.011  1.00  0.00    -0.352 N 
ATOM     25  C   UNL A   1      34.607  30.682  27.988  1.00  0.00     0.251 C 
ATOM     26  H   UNL A   1      32.988  30.573  26.806  1.00  0.00     0.163 HD
ATOM     27  O   UNL A   1      34.170  31.615  28.654  1.00  0.00    -0.269 OA
BRANCH  25  28
ATOM     28  C   UNL A   1      35.957  30.139  28.248  1.00  0.00     0.039 A 
ATOM     29  C   UNL A   1      36.908  30.178  27.228  1.00  0.00     0.014 A 
ATOM     30  C   UNL A   1      36.290  29.631  29.508  1.00  0.00     0.014 A 
ATOM     31  C   UNL A   1      38.215  29.763  27.490  1.00  0.00     0.010 A 
ATOM     32  C   UNL A   1      37.609  29.291  29.788  1.00  0.00     0.010 A 
ATOM     33  C   UNL A   1      38.585  29.350  28.783  1.00  0.00    -0.014 A 
BRANCH  33  34
ATOM     34  C   UNL A   1      39.990  28.985  29.096  1.00  0.00     0.031 A 
ATOM     35  C   UNL A   1      40.905  29.986  29.748  1.00  0.00     0.074 A 
ATOM     36  C   UNL A   1      40.457  27.770  28.746  1.00  0.00     0.049 A 
ATOM     37  N   UNL A   1      42.170  29.866  30.062  1.00  0.00    -0.248 NA
ATOM     38  C   UNL A   1      40.332  31.304  30.066  1.00  0.00     0.031 C 
ATOM     39  C   UNL A   1      39.681  26.731  28.062  1.00  0.00     0.029 A 
ATOM     40  N   UNL A   1      41.695  27.201  28.912  1.00  0.00    -0.354 N 
ATOM     41  C   UNL A   1      42.543  31.089  30.607  1.00  0.00     0.074 A 
ATOM     42  C   UNL A   1      41.390  31.957  30.523  1.00  0.00     0.031 C 
ATOM     43  C   UNL A   1      40.452  25.644  27.895  1.00  0.00     0.029 A 
ATOM     44  C   UNL A   1      41.785  25.919  28.421  1.00  0.00     0.049 A 
ATOM     45  H   UNL A   1      42.447  27.667  29.341  1.00  0.00     0.167 HD
ATOM     46  C   UNL A   1      43.730  31.448  31.151  1.00  0.00     0.037 A 
ATOM     47  C   UNL A   1      42.826  25.064  28.395  1.00  0.00     0.037 A 
ATOM     48  C   UNL A   1      44.870  30.571  31.246  1.00  0.00     0.049 A 
ATOM     49  C   UNL A   1      44.138  25.489  28.996  1.00  0.00     0.074 A 
ATOM     50  C   UNL A   1      46.101  30.823  31.824  1.00  0.00     0.029 A 
ATOM     51  N   UNL A   1      44.920  29.278  30.747  1.00  0.00    -0.354 N 
ATOM     52  N   UNL A   1      44.454  26.628  29.566  1.00  0.00    -0.248 NA
ATOM     53  C   UNL A   1      45.234  24.510  28.959  1.00  0.00     0.031 C 
ATOM     54  C   UNL A   1      46.913  29.699  31.631  1.00  0.00     0.029 A 
ATOM     55  C   UNL A   1      46.169  28.727  30.984  1.00  0.00     0.049 A 
ATOM     56  H   UNL A   1      44.177  28.820  30.291  1.00  0.00     0.167 HD
ATOM     57  C   UNL A   1      45.775  26.492  29.981  1.00  0.00     0.074 A 
ATOM     58  C   UNL A   1      46.192  25.155  29.608  1.00  0.00     0.031 C 
ATOM     59  C   UNL A   1      46.569  27.391  30.613  1.00  0.00     0.037 A 
BRANCH  46  60
ATOM     60  C   UNL A   1      43.855  32.846  31.694  1.00  0.00     0.058 A 
ATOM     61  C   UNL A   1      44.190  33.931  30.867  1.00  0.00     0.135 A 
ATOM     62  C   UNL A   1      43.603  33.113  33.050  1.00  0.00     0.135 A 
ATOM     63  F   UNL A   1      44.457  33.733  29.567  1.00  0.00    -0.206 F 
ATOM     64  C   UNL A   1      44.300  35.223  31.370  1.00  0.00     0.059 A 
ATOM     65  C   UNL A   1      43.676  34.403  33.568  1.00  0.00     0.059 A 
ATOM     66  F   UNL A   1      43.280  32.114  33.887  1.00  0.00    -0.206 F 
ATOM     67  C   UNL A   1      44.040  35.449  32.722  1.00  0.00     0.060 A 
BRANCH  67  68
ATOM     68  S   UNL A   1      44.182  37.134  33.354  1.00  0.00     0.124 S 
ATOM     69  O   UNL A   1      44.362  37.894  32.121  1.00  0.00    -0.237 OA
ATOM     70  O   UNL A   1      42.903  37.322  34.032  1.00  0.00    -0.237 OA
ATOM     71  O   UNL A   1      45.349  37.073  34.229  1.00  0.00    -0.744 OA
ENDBRANCH  67  68
ENDBRANCH  46  60
BRANCH  47  72
ATOM     72  C   UNL A   1      42.661  23.709  27.801  1.00  0.00     0.058 A 
ATOM     73  C   UNL A   1      42.442  22.587  28.613  1.00  0.00     0.135 A 
ATOM     74  C   UNL A   1      42.711  23.509  26.413  1.00  0.00     0.135 A 
ATOM     75  F   UNL A   1      42.392  22.723  29.947  1.00  0.00    -0.206 F 
ATOM     76  C   UNL A   1      42.298  21.312  28.074  1.00  0.00     0.059 A 
ATOM     77  C   UNL A   1      42.541  22.249  25.847  1.00  0.00     0.059 A 
ATOM     78  F   UNL A   1      42.900  24.553  25.590  1.00  0.00    -0.206 F 
ATOM     79  C   UNL A   1      42.346  21.154  26.688  1.00  0.00     0.060 A 
BRANCH  79  80
ATOM     80  S   UNL A   1      42.113  19.503  25.997  1.00  0.00     0.124 S 
ATOM     81  O   UNL A   1      40.672  19.479  25.770  1.00  0.00    -0.237 OA
ATOM     82  O   UNL A   1      42.947  19.552  24.801  1.00  0.00    -0.237 OA
ATOM     83  O   UNL A   1      42.600  18.623  27.056  1.00  0.00    -0.744 OA
ENDBRANCH  79  80
ENDBRANCH  47  72
BRANCH  59  84
ATOM     84  C   UNL A   1      47.960  26.949  30.978  1.00  0.00     0.058 A 
ATOM     85  C   UNL A   1      48.226  26.238  32.159  1.00  0.00     0.135 A 
ATOM     86  C   UNL A   1      49.037  27.205  30.113  1.00  0.00     0.135 A 
ATOM     87  F   UNL A   1      47.235  25.971  33.025  1.00  0.00    -0.206 F 
ATOM     88  C   UNL A   1      49.513  25.822  32.483  1.00  0.00     0.059 A 
ATOM     89  C   UNL A   1      50.326  26.772  30.401  1.00  0.00     0.059 A 
ATOM     90  F   UNL A   1      48.837  27.870  28.964  1.00  0.00    -0.206 F 
ATOM     91  C   UNL A   1      50.557  26.093  31.597  1.00  0.00     0.060 A 
BRANCH  91  92
ATOM     92  S   UNL A   1      52.219  25.527  32.017  1.00  0.00     0.124 S 
ATOM     93  O   UNL A   1      52.955  25.844  30.797  1.00  0.00    -0.237 OA
ATOM     94  O   UNL A   1      52.542  26.344  33.182  1.00  0.00    -0.237 OA
ATOM     95  O   UNL A   1      52.036  24.104  32.287  1.00  0.00    -0.744 OA
ENDBRANCH  91  92
ENDBRANCH  59  84
ENDBRANCH  33  34
ENDBRANCH  25  28
ENDBRANCH  23  24
ENDBRANCH  22  23
ENDBRANCH   1  22
TORSDOF 17
ENDMDL
MODEL 2
REMARK VINA RESULT:     -11.1      1.229      2.506
REMARK SMILES Cc1ccoc1C(=O)N1CCO[C@H](CC(=O)NCCCCNC(=O)c2ccc(-c3c4nc(c(-c5c(F)cc(S(=O)(=O)[O-])cc5F)c5ccc([nH]5)c(-c5c(F)cc(S(=O)(=O)[O-])cc5F)c5nc(c(-c6c(F)cc(S(=O)(=O)[O-])cc6F)c6ccc3[nH]6)C=C5)C=C4)cc2)C1
REMARK SMILES IDX 19 1 18 2 17 3 15 4 16 5 14 7 13 8 9 9 10 10 91 11 11 12
REMARK SMILES IDX 12 13 7 14 8 15 6 16 1 17 2 18 3 19 4 20 5 21 20 22 21 23
REMARK SMILES IDX 22 24 23 25 24 27 25 28 26 29 90 30 27 31 89 32 28 33 29 34
REMARK SMILES IDX 30 35 83 36 31 37 88 38 82 39 84 40 32 41 87 42 81 43 80 44
REMARK SMILES IDX 33 46 67 47 46 48 66 49 47 50 50 51 65 52 85 53 48 54 49 55
REMARK SMILES IDX 64 57 86 58 51 59 34 60 35 61 44 62 36 63 37 64 43 65 45 66
REMARK SMILES IDX 38 67 39 68 40 69 41 70 42 71 68 72 69 73 78 74 70 75 71 76
REMARK SMILES IDX 77 77 79 78 72 79 73 80 74 81 75 82 76 83 52 84 53 85 62 86
REMARK SMILES IDX 54 87 55 88 61 89 63 90 56 91 57 92 58 93 59 94 60 95
REMARK H PARENT 17 6 22 26 84 45 50 56
REMARK Flexibility Score: inf
ROOT
ATOM      1  C   UNL A   1      31.613  27.213  26.502  1.00  0.00     0.023 C 
ENDROOT
BRANCH   1   2
ATOM      2  C   UNL A   1      31.337  25.868  25.838  1.00  0.00     0.116 C 
BRANCH   2   3
ATOM      3  N   UNL A   1      30.690  24.967  26.770  1.00  0.00    -0.356 N 
ATOM      4  C   UNL A   1      30.785  23.612  26.825  1.00  0.00     0.222 C 
ATOM      5  O   UNL A   1      30.001  22.976  27.528  1.00  0.00    -0.275 OA
ATOM      6  H   UNL A   1      30.111  25.387  27.446  1.00  0.00     0.163 HD
BRANCH   4   7
ATOM      7  C   UNL A   1      31.899  22.927  26.079  1.00  0.00     0.133 C 
BRANCH   7   8
ATOM      8  C   UNL A   1      31.443  22.145  24.837  1.00  0.00     0.147 C 
ATOM      9  N   UNL A   1      33.738  21.824  24.157  1.00  0.00    -0.331 N 
ATOM     10  C   UNL A   1      33.614  22.689  22.995  1.00  0.00     0.148 C 
ATOM     11  C   UNL A   1      32.508  21.103  24.474  1.00  0.00     0.152 C 
ATOM     12  C   UNL A   1      32.357  23.578  23.075  1.00  0.00     0.182 C 
ATOM     13  O   UNL A   1      31.198  22.969  23.671  1.00  0.00    -0.374 OA
BRANCH   9  14
ATOM     14  C   UNL A   1      34.935  21.339  24.664  1.00  0.00     0.289 C 
ATOM     15  O   UNL A   1      35.041  20.122  24.845  1.00  0.00    -0.265 OA
BRANCH  14  16
ATOM     16  C   UNL A   1      35.966  22.277  25.118  1.00  0.00     0.194 A 
ATOM     17  C   UNL A   1      35.055  24.700  25.579  1.00  0.00     0.049 C 
ATOM     18  C   UNL A   1      36.053  23.610  25.533  1.00  0.00     0.000 A 
ATOM     19  C   UNL A   1      37.384  23.794  26.025  1.00  0.00     0.046 A 
ATOM     20  C   UNL A   1      38.030  22.599  25.875  1.00  0.00     0.196 A 
ATOM     21  O   UNL A   1      37.203  21.694  25.316  1.00  0.00    -0.459 OA
ENDBRANCH  14  16
ENDBRANCH   9  14
ENDBRANCH   7   8
ENDBRANCH   4   7
ENDBRANCH   2   3
ENDBRANCH   1   2
BRANCH   1  22
ATOM     22  C   UNL A   1      32.692  28.031  25.788  1.00  0.00     0.023 C 
BRANCH  22  23
ATOM     23  C   UNL A   1      33.846  28.471  26.681  1.00  0.00     0.116 C 
BRANCH  23  24
ATOM     24  N   UNL A   1      33.659  29.809  27.221  1.00  0.00    -0.352 N 
ATOM     25  C   UNL A   1      34.522  30.545  27.995  1.00  0.00     0.251 C 
ATOM     26  H   UNL A   1      32.802  30.243  27.003  1.00  0.00     0.163 HD
ATOM     27  O   UNL A   1      34.151  31.600  28.500  1.00  0.00    -0.269 OA
BRANCH  25  28
ATOM     28  C   UNL A   1      35.887  30.033  28.238  1.00  0.00     0.039 A 
ATOM     29  C   UNL A   1      36.830  30.114  27.213  1.00  0.00     0.014 A 
ATOM     30  C   UNL A   1      36.242  29.516  29.488  1.00  0.00     0.014 A 
ATOM     31  C   UNL A   1      38.149  29.729  27.460  1.00  0.00     0.010 A 
ATOM     32  C   UNL A   1      37.571  29.206  29.754  1.00  0.00     0.010 A 
ATOM     33  C   UNL A   1      38.538  29.306  28.744  1.00  0.00    -0.014 A 
BRANCH  33  34
ATOM     34  C   UNL A   1      39.955  28.973  29.042  1.00  0.00     0.031 A 
ATOM     35  C   UNL A   1      40.854  29.996  29.684  1.00  0.00     0.074 A 
ATOM     36  C   UNL A   1      40.445  27.769  28.689  1.00  0.00     0.049 A 
ATOM     37  N   UNL A   1      42.124  29.905  29.983  1.00  0.00    -0.248 NA
ATOM     38  C   UNL A   1      40.255  31.301  30.006  1.00  0.00     0.031 C 
ATOM     39  C   UNL A   1      39.686  26.711  28.015  1.00  0.00     0.029 A 
ATOM     40  N   UNL A   1      41.697  27.229  28.843  1.00  0.00    -0.354 N 
ATOM     41  C   UNL A   1      42.476  31.138  30.523  1.00  0.00     0.074 A 
ATOM     42  C   UNL A   1      41.302  31.979  30.451  1.00  0.00     0.031 C 
ATOM     43  C   UNL A   1      40.479  25.642  27.841  1.00  0.00     0.029 A 
ATOM     44  C   UNL A   1      41.811  25.948  28.353  1.00  0.00     0.049 A 
ATOM     45  H   UNL A   1      42.444  27.712  29.263  1.00  0.00     0.167 HD
ATOM     46  C   UNL A   1      43.660  31.524  31.054  1.00  0.00     0.037 A 
ATOM     47  C   UNL A   1      42.871  25.116  28.316  1.00  0.00     0.037 A 
ATOM     48  C   UNL A   1      44.820  30.673  31.138  1.00  0.00     0.049 A 
ATOM     49  C   UNL A   1      44.179  25.572  28.903  1.00  0.00     0.074 A 
ATOM     50  C   UNL A   1      46.052  30.953  31.702  1.00  0.00     0.029 A 
ATOM     51  N   UNL A   1      44.895  29.380  30.640  1.00  0.00    -0.354 N 
ATOM     52  N   UNL A   1      44.476  26.719  29.468  1.00  0.00    -0.248 NA
ATOM     53  C   UNL A   1      45.297  24.618  28.855  1.00  0.00     0.031 C 
ATOM     54  C   UNL A   1      46.886  29.848  31.502  1.00  0.00     0.029 A 
ATOM     55  C   UNL A   1      46.158  28.858  30.865  1.00  0.00     0.049 A 
ATOM     56  H   UNL A   1      44.157  28.905  30.193  1.00  0.00     0.167 HD
ATOM     57  C   UNL A   1      45.804  26.613  29.869  1.00  0.00     0.074 A 
ATOM     58  C   UNL A   1      46.247  25.286  29.494  1.00  0.00     0.031 C 
ATOM     59  C   UNL A   1      46.584  27.531  30.491  1.00  0.00     0.037 A 
BRANCH  46  60
ATOM     60  C   UNL A   1      43.759  32.925  31.594  1.00  0.00     0.058 A 
ATOM     61  C   UNL A   1      44.123  34.007  30.775  1.00  0.00     0.135 A 
ATOM     62  C   UNL A   1      43.452  33.199  32.937  1.00  0.00     0.135 A 
ATOM     63  F   UNL A   1      44.443  33.802  29.487  1.00  0.00    -0.206 F 
ATOM     64  C   UNL A   1      44.209  35.302  31.274  1.00  0.00     0.059 A 
ATOM     65  C   UNL A   1      43.501  34.491  33.450  1.00  0.00     0.059 A 
ATOM     66  F   UNL A   1      43.099  32.204  33.766  1.00  0.00    -0.206 F 
ATOM     67  C   UNL A   1      43.895  35.535  32.614  1.00  0.00     0.060 A 
BRANCH  67  68
ATOM     68  S   UNL A   1      44.007  37.223  33.242  1.00  0.00     0.124 S 
ATOM     69  O   UNL A   1      43.988  37.996  32.004  1.00  0.00    -0.237 OA
ATOM     70  O   UNL A   1      42.810  37.327  34.071  1.00  0.00    -0.237 OA
ATOM     71  O   UNL A   1      45.273  37.234  33.967  1.00  0.00    -0.744 OA
ENDBRANCH  67  68
ENDBRANCH  46  60
BRANCH  47  72
ATOM     72  C   UNL A   1      42.731  23.757  27.726  1.00  0.00     0.058 A 
ATOM     73  C   UNL A   1      42.861  23.553  26.344  1.00  0.00     0.135 A 
ATOM     74  C   UNL A   1      42.474  22.635  28.529  1.00  0.00     0.135 A 
ATOM     75  F   UNL A   1      43.101  24.594  25.532  1.00  0.00    -0.206 F 
ATOM     76  C   UNL A   1      42.722  22.291  25.776  1.00  0.00     0.059 A 
ATOM     77  C   UNL A   1      42.358  21.359  27.989  1.00  0.00     0.059 A 
ATOM     78  F   UNL A   1      42.358  22.774  29.860  1.00  0.00    -0.206 F 
ATOM     79  C   UNL A   1      42.473  21.198  26.608  1.00  0.00     0.060 A 
BRANCH  79  80
ATOM     80  S   UNL A   1      42.339  19.558  25.866  1.00  0.00     0.124 S 
ATOM     81  O   UNL A   1      42.695  18.697  26.987  1.00  0.00    -0.237 OA
ATOM     82  O   UNL A   1      40.939  19.524  25.453  1.00  0.00    -0.237 OA
ATOM     83  O   UNL A   1      43.305  19.605  24.772  1.00  0.00    -0.744 OA
ENDBRANCH  79  80
ENDBRANCH  47  72
BRANCH  59  84
ATOM     84  C   UNL A   1      47.989  27.122  30.842  1.00  0.00     0.058 A 
ATOM     85  C   UNL A   1      48.288  26.451  32.038  1.00  0.00     0.135 A 
ATOM     86  C   UNL A   1      49.044  27.367  29.948  1.00  0.00     0.135 A 
ATOM     87  F   UNL A   1      47.318  26.195  32.931  1.00  0.00    -0.206 F 
ATOM     88  C   UNL A   1      49.588  26.064  32.349  1.00  0.00     0.059 A 
ATOM     89  C   UNL A   1      50.346  26.962  30.224  1.00  0.00     0.059 A 
ATOM     90  F   UNL A   1      48.812  27.994  28.784  1.00  0.00    -0.206 F 
ATOM     91  C   UNL A   1      50.610  26.323  31.435  1.00  0.00     0.060 A 
BRANCH  91  92
ATOM     92  S   UNL A   1      52.288  25.795  31.839  1.00  0.00     0.124 S 
ATOM     93  O   UNL A   1      52.986  26.042  30.581  1.00  0.00    -0.237 OA
ATOM     94  O   UNL A   1      52.638  26.684  32.943  1.00  0.00    -0.237 OA
ATOM     95  O   UNL A   1      52.126  24.390  32.200  1.00  0.00    -0.744 OA
ENDBRANCH  91  92
ENDBRANCH  59  84
ENDBRANCH  33  34
ENDBRANCH  25  28
ENDBRANCH  23  24
ENDBRANCH  22  23
ENDBRANCH   1  22
TORSDOF 17
ENDMDL
MODEL 3
REMARK VINA RESULT:     -11.0      2.302      2.874
REMARK SMILES Cc1ccoc1C(=O)N1CCO[C@H](CC(=O)NCCCCNC(=O)c2ccc(-c3c4nc(c(-c5c(F)cc(S(=O)(=O)[O-])cc5F)c5ccc([nH]5)c(-c5c(F)cc(S(=O)(=O)[O-])cc5F)c5nc(c(-c6c(F)cc(S(=O)(=O)[O-])cc6F)c6ccc3[nH]6)C=C5)C=C4)cc2)C1
REMARK SMILES IDX 19 1 18 2 17 3 15 4 16 5 14 7 13 8 9 9 10 10 91 11 11 12
REMARK SMILES IDX 12 13 7 14 8 15 6 16 1 17 2 18 3 19 4 20 5 21 20 22 21 23
REMARK SMILES IDX 22 24 23 25 24 27 25 28 26 29 90 30 27 31 89 32 28 33 29 34
REMARK SMILES IDX 30 35 83 36 31 37 88 38 82 39 84 40 32 41 87 42 81 43 80 44
REMARK SMILES IDX 33 46 67 47 46 48 66 49 47 50 50 51 65 52 85 53 48 54 49 55
REMARK SMILES IDX 64 57 86 58 51 59 34 60 35 61 44 62 36 63 37 64 43 65 45 66
REMARK SMILES IDX 38 67 39 68 40 69 41 70 42 71 68 72 69 73 78 74 70 75 71 76
REMARK SMILES IDX 77 77 79 78 72 79 73 80 74 81 75 82 76 83 52 84 53 85 62 86
REMARK SMILES IDX 54 87 55 88 61 89 63 90 56 91 57 92 58 93 59 94 60 95
REMARK H PARENT 17 6 22 26 84 45 50 56
REMARK Flexibility Score: inf
ROOT
ATOM      1  C   UNL A   1      31.799  28.220  26.789  1.00  0.00     0.023 C 
ENDROOT
BRANCH   1   2
ATOM      2  C   UNL A   1      31.053  27.108  26.059  1.00  0.00     0.116 C 
BRANCH   2   3
ATOM      3  N   UNL A   1      31.084  25.884  26.834  1.00  0.00    -0.356 N 
ATOM      4  C   UNL A   1      31.192  24.608  26.376  1.00  0.00     0.222 C 
ATOM      5  O   UNL A   1      30.978  23.669  27.141  1.00  0.00    -0.275 OA
ATOM      6  H   UNL A   1      31.021  25.989  27.810  1.00  0.00     0.163 HD
BRANCH   4   7
ATOM      7  C   UNL A   1      31.645  24.376  24.960  1.00  0.00     0.133 C 
BRANCH   7   8
ATOM      8  C   UNL A   1      33.101  23.900  24.830  1.00  0.00     0.147 C 
ATOM      9  N   UNL A   1      33.109  24.462  22.481  1.00  0.00    -0.331 N 
ATOM     10  C   UNL A   1      33.184  23.074  22.053  1.00  0.00     0.148 C 
ATOM     11  C   UNL A   1      33.806  24.716  23.740  1.00  0.00     0.152 C 
ATOM     12  C   UNL A   1      32.816  22.103  23.192  1.00  0.00     0.182 C 
ATOM     13  O   UNL A   1      33.242  22.495  24.509  1.00  0.00    -0.374 OA
BRANCH   9  14
ATOM     14  C   UNL A   1      32.840  25.539  21.648  1.00  0.00     0.289 C 
ATOM     15  O   UNL A   1      33.190  25.464  20.467  1.00  0.00    -0.265 OA
BRANCH  14  16
ATOM     16  C   UNL A   1      32.307  26.780  22.215  1.00  0.00     0.194 A 
ATOM     17  C   UNL A   1      34.147  28.601  22.678  1.00  0.00     0.049 C 
ATOM     18  C   UNL A   1      32.782  28.038  22.602  1.00  0.00     0.000 A 
ATOM     19  C   UNL A   1      31.629  28.832  22.897  1.00  0.00     0.046 A 
ATOM     20  C   UNL A   1      30.538  28.035  22.695  1.00  0.00     0.196 A 
ATOM     21  O   UNL A   1      30.929  26.804  22.311  1.00  0.00    -0.459 OA
ENDBRANCH  14  16
ENDBRANCH   9  14
ENDBRANCH   7   8
ENDBRANCH   4   7
ENDBRANCH   2   3
ENDBRANCH   1   2
BRANCH   1  22
ATOM     22  C   UNL A   1      33.307  27.978  26.883  1.00  0.00     0.023 C 
BRANCH  22  23
ATOM     23  C   UNL A   1      34.162  29.062  26.237  1.00  0.00     0.116 C 
BRANCH  23  24
ATOM     24  N   UNL A   1      33.872  30.390  26.757  1.00  0.00    -0.352 N 
ATOM     25  C   UNL A   1      34.544  31.089  27.729  1.00  0.00     0.251 C 
ATOM     26  H   UNL A   1      33.094  30.844  26.362  1.00  0.00     0.163 HD
ATOM     27  O   UNL A   1      34.079  32.138  28.166  1.00  0.00    -0.269 OA
BRANCH  25  28
ATOM     28  C   UNL A   1      35.810  30.547  28.264  1.00  0.00     0.039 A 
ATOM     29  C   UNL A   1      37.015  30.967  27.700  1.00  0.00     0.014 A 
ATOM     30  C   UNL A   1      35.805  29.660  29.345  1.00  0.00     0.014 A 
ATOM     31  C   UNL A   1      38.221  30.543  28.261  1.00  0.00     0.010 A 
ATOM     32  C   UNL A   1      37.005  29.300  29.948  1.00  0.00     0.010 A 
ATOM     33  C   UNL A   1      38.226  29.735  29.412  1.00  0.00    -0.014 A 
BRANCH  33  34
ATOM     34  C   UNL A   1      39.501  29.344  30.067  1.00  0.00     0.031 A 
ATOM     35  C   UNL A   1      39.997  30.102  31.269  1.00  0.00     0.074 A 
ATOM     36  C   UNL A   1      40.236  28.341  29.548  1.00  0.00     0.049 A 
ATOM     37  N   UNL A   1      41.102  29.936  31.950  1.00  0.00    -0.248 NA
ATOM     38  C   UNL A   1      39.156  31.208  31.753  1.00  0.00     0.031 C 
ATOM     39  C   UNL A   1      39.886  27.564  28.356  1.00  0.00     0.029 A 
ATOM     40  N   UNL A   1      41.432  27.802  29.953  1.00  0.00    -0.354 N 
ATOM     41  C   UNL A   1      41.091  30.916  32.936  1.00  0.00     0.074 A 
ATOM     42  C   UNL A   1      39.902  31.711  32.726  1.00  0.00     0.031 C 
ATOM     43  C   UNL A   1      40.829  26.632  28.145  1.00  0.00     0.029 A 
ATOM     44  C   UNL A   1      41.869  26.768  29.159  1.00  0.00     0.049 A 
ATOM     45  H   UNL A   1      41.930  28.126  30.738  1.00  0.00     0.167 HD
ATOM     46  C   UNL A   1      41.976  31.118  33.941  1.00  0.00     0.037 A 
ATOM     47  C   UNL A   1      42.986  26.017  29.236  1.00  0.00     0.037 A 
ATOM     48  C   UNL A   1      43.150  30.310  34.154  1.00  0.00     0.049 A 
ATOM     49  C   UNL A   1      43.960  26.267  30.356  1.00  0.00     0.074 A 
ATOM     50  C   UNL A   1      44.082  30.401  35.171  1.00  0.00     0.029 A 
ATOM     51  N   UNL A   1      43.554  29.266  33.335  1.00  0.00    -0.354 N 
ATOM     52  N   UNL A   1      43.900  27.158  31.318  1.00  0.00    -0.248 NA
ATOM     53  C   UNL A   1      45.150  25.406  30.405  1.00  0.00     0.031 C 
ATOM     54  C   UNL A   1      45.077  29.445  34.941  1.00  0.00     0.029 A 
ATOM     55  C   UNL A   1      44.735  28.720  33.812  1.00  0.00     0.049 A 
ATOM     56  H   UNL A   1      43.073  28.959  32.533  1.00  0.00     0.167 HD
ATOM     57  C   UNL A   1      45.028  26.944  32.104  1.00  0.00     0.074 A 
ATOM     58  C   UNL A   1      45.744  25.832  31.511  1.00  0.00     0.031 C 
ATOM     59  C   UNL A   1      45.434  27.608  33.214  1.00  0.00     0.037 A 
BRANCH  46  60
ATOM     60  C   UNL A   1      41.705  32.253  34.892  1.00  0.00     0.058 A 
ATOM     61  C   UNL A   1      42.270  33.525  34.702  1.00  0.00     0.135 A 
ATOM     62  C   UNL A   1      40.843  32.079  35.987  1.00  0.00     0.135 A 
ATOM     63  F   UNL A   1      43.113  33.744  33.681  1.00  0.00    -0.206 F 
ATOM     64  C   UNL A   1      42.014  34.574  35.579  1.00  0.00     0.059 A 
ATOM     65  C   UNL A   1      40.549  33.123  36.859  1.00  0.00     0.059 A 
ATOM     66  F   UNL A   1      40.276  30.884  36.219  1.00  0.00    -0.206 F 
ATOM     67  C   UNL A   1      41.151  34.363  36.655  1.00  0.00     0.060 A 
BRANCH  67  68
ATOM     68  S   UNL A   1      40.828  35.738  37.779  1.00  0.00     0.124 S 
ATOM     69  O   UNL A   1      42.147  36.355  37.871  1.00  0.00    -0.237 OA
ATOM     70  O   UNL A   1      39.820  36.504  37.052  1.00  0.00    -0.237 OA
ATOM     71  O   UNL A   1      40.357  35.081  38.994  1.00  0.00    -0.744 OA
ENDBRANCH  67  68
ENDBRANCH  46  60
BRANCH  47  72
ATOM     72  C   UNL A   1      43.229  24.939  28.240  1.00  0.00     0.058 A 
ATOM     73  C   UNL A   1      43.818  25.222  26.999  1.00  0.00     0.135 A 
ATOM     74  C   UNL A   1      42.886  23.605  28.509  1.00  0.00     0.135 A 
ATOM     75  F   UNL A   1      44.159  26.483  26.690  1.00  0.00    -0.206 F 
ATOM     76  C   UNL A   1      44.042  24.227  26.052  1.00  0.00     0.059 A 
ATOM     77  C   UNL A   1      43.125  22.587  27.591  1.00  0.00     0.059 A 
ATOM     78  F   UNL A   1      42.335  23.277  29.689  1.00  0.00    -0.206 F 
ATOM     79  C   UNL A   1      43.694  22.911  26.359  1.00  0.00     0.060 A 
BRANCH  79  80
ATOM     80  S   UNL A   1      44.029  21.621  25.142  1.00  0.00     0.124 S 
ATOM     81  O   UNL A   1      43.859  22.347  23.888  1.00  0.00    -0.237 OA
ATOM     82  O   UNL A   1      45.396  21.234  25.475  1.00  0.00    -0.237 OA
ATOM     83  O   UNL A   1      43.012  20.613  25.431  1.00  0.00    -0.744 OA
ENDBRANCH  79  80
ENDBRANCH  47  72
BRANCH  59  84
ATOM     84  C   UNL A   1      46.691  27.127  33.888  1.00  0.00     0.058 A 
ATOM     85  C   UNL A   1      46.669  26.122  34.867  1.00  0.00     0.135 A 
ATOM     86  C   UNL A   1      47.940  27.651  33.516  1.00  0.00     0.135 A 
ATOM     87  F   UNL A   1      45.501  25.590  35.264  1.00  0.00    -0.206 F 
ATOM     88  C   UNL A   1      47.837  25.674  35.475  1.00  0.00     0.059 A 
ATOM     89  C   UNL A   1      49.124  27.197  34.088  1.00  0.00     0.059 A 
ATOM     90  F   UNL A   1      48.020  28.605  32.575  1.00  0.00    -0.206 F 
ATOM     91  C   UNL A   1      49.060  26.217  35.078  1.00  0.00     0.060 A 
BRANCH  91  92
ATOM     92  S   UNL A   1      50.571  25.610  35.858  1.00  0.00     0.124 S 
ATOM     93  O   UNL A   1      51.330  26.845  36.030  1.00  0.00    -0.237 OA
ATOM     94  O   UNL A   1      50.066  25.001  37.084  1.00  0.00    -0.237 OA
ATOM     95  O   UNL A   1      51.110  24.675  34.875  1.00  0.00    -0.744 OA
ENDBRANCH  91  92
ENDBRANCH  59  84
ENDBRANCH  33  34
ENDBRANCH  25  28
ENDBRANCH  23  24
ENDBRANCH  22  23
ENDBRANCH   1  22
TORSDOF 17
ENDMDL
