MODEL 1
REMARK VINA RESULT:     -12.0      0.000      0.000
REMARK SMILES O=C(NCCCCNC(=O)[C@H](Cc1ccc(O)cc1)NC(=O)c1ccc(Cl)s1)c1ccc(-c2c3nc(c(-c4c(F)cc(S(=O)(=O)[O-])cc4F)c4ccc([nH]4)c(-c4c(F)cc(S(=O)(=O)[O-])cc4F)c4nc(c(-c5c(F)cc(S(=O)(=O)[O-])cc5F)c5ccc2[nH]5)C=C4)C=C3)cc1
REMARK SMILES IDX 5 1 4 2 3 3 1 4 2 5 29 7 30 8 94 9 31 10 93 11 32 12 33 13
REMARK SMILES IDX 34 14 87 15 35 16 92 17 86 18 88 19 36 20 91 21 85 22 84 23
REMARK SMILES IDX 37 25 71 26 50 27 70 28 51 29 54 30 69 31 89 32 52 33 53 34
REMARK SMILES IDX 68 36 90 37 55 38 38 39 39 40 48 41 40 42 41 43 47 44 49 45
REMARK SMILES IDX 42 46 43 47 44 48 45 49 46 50 72 51 73 52 82 53 74 54 75 55
REMARK SMILES IDX 81 56 83 57 76 58 77 59 78 60 79 61 80 62 56 63 57 64 66 65
REMARK SMILES IDX 58 66 59 67 65 68 67 69 60 70 61 71 62 72 63 73 64 74 6 75
REMARK SMILES IDX 7 76 8 77 9 78 10 80 11 81 20 82 21 83 22 85 23 86 24 87
REMARK SMILES IDX 28 88 25 89 26 90 27 91 12 92 13 93 14 94 19 95 15 96 18 97
REMARK SMILES IDX 16 98 17 99
REMARK H PARENT 3 6 88 24 54 35 8 79 20 84 17 100
REMARK Flexibility Score: inf
ROOT
ATOM      1  C   UNL A   1      34.087  30.780  27.642  1.00  0.00     0.023 C 
ENDROOT
BRANCH   1   2
ATOM      2  C   UNL A   1      35.466  31.012  28.238  1.00  0.00     0.116 C 
BRANCH   2   3
ATOM      3  N   UNL A   1      35.496  31.018  29.700  1.00  0.00    -0.352 N 
ATOM      4  O   UNL A   1      36.303  30.492  31.750  1.00  0.00    -0.269 OA
ATOM      5  C   UNL A   1      36.435  30.447  30.532  1.00  0.00     0.251 C 
ATOM      6  H   UNL A   1      34.754  31.488  30.145  1.00  0.00     0.163 HD
BRANCH   5   7
ATOM      7  C   UNL A   1      37.568  29.736  29.902  1.00  0.00     0.039 A 
ATOM      8  C   UNL A   1      38.483  29.067  30.715  1.00  0.00     0.014 A 
ATOM      9  C   UNL A   1      37.816  29.901  28.538  1.00  0.00     0.014 A 
ATOM     10  C   UNL A   1      39.742  28.778  30.213  1.00  0.00     0.010 A 
ATOM     11  C   UNL A   1      39.045  29.491  28.009  1.00  0.00     0.010 A 
ATOM     12  C   UNL A   1      40.047  28.992  28.857  1.00  0.00    -0.014 A 
BRANCH  12  13
ATOM     13  C   UNL A   1      41.428  28.696  28.381  1.00  0.00     0.031 A 
ATOM     14  C   UNL A   1      42.530  29.724  28.462  1.00  0.00     0.074 A 
ATOM     15  C   UNL A   1      41.707  27.446  27.959  1.00  0.00     0.049 A 
ATOM     16  N   UNL A   1      43.796  29.595  28.151  1.00  0.00    -0.248 NA
ATOM     17  C   UNL A   1      42.171  31.068  28.940  1.00  0.00     0.031 C 
ATOM     18  C   UNL A   1      40.726  26.363  27.832  1.00  0.00     0.029 A 
ATOM     19  N   UNL A   1      42.895  26.856  27.610  1.00  0.00    -0.354 N 
ATOM     20  C   UNL A   1      44.372  30.846  28.350  1.00  0.00     0.074 A 
ATOM     21  C   UNL A   1      43.316  31.724  28.803  1.00  0.00     0.031 C 
ATOM     22  C   UNL A   1      41.363  25.226  27.524  1.00  0.00     0.029 A 
ATOM     23  C   UNL A   1      42.782  25.510  27.351  1.00  0.00     0.049 A 
ATOM     24  H   UNL A   1      43.744  27.348  27.551  1.00  0.00     0.167 HD
ATOM     25  C   UNL A   1      45.662  31.226  28.172  1.00  0.00     0.037 A 
ATOM     26  C   UNL A   1      43.712  24.601  27.005  1.00  0.00     0.037 A 
ATOM     27  C   UNL A   1      46.722  30.335  27.768  1.00  0.00     0.049 A 
ATOM     28  C   UNL A   1      45.136  25.040  26.848  1.00  0.00     0.074 A 
ATOM     29  C   UNL A   1      48.066  30.619  27.594  1.00  0.00     0.029 A 
ATOM     30  N   UNL A   1      46.560  28.987  27.483  1.00  0.00    -0.354 N 
ATOM     31  N   UNL A   1      45.656  26.230  27.038  1.00  0.00    -0.248 NA
ATOM     32  C   UNL A   1      46.100  24.019  26.418  1.00  0.00     0.031 C 
ATOM     33  C   UNL A   1      48.711  29.450  27.175  1.00  0.00     0.029 A 
ATOM     34  C   UNL A   1      47.777  28.429  27.125  1.00  0.00     0.049 A 
ATOM     35  H   UNL A   1      45.706  28.499  27.530  1.00  0.00     0.167 HD
ATOM     36  C   UNL A   1      47.010  26.098  26.756  1.00  0.00     0.074 A 
ATOM     37  C   UNL A   1      47.231  24.710  26.406  1.00  0.00     0.031 C 
ATOM     38  C   UNL A   1      47.980  27.046  26.779  1.00  0.00     0.037 A 
BRANCH  25  39
ATOM     39  C   UNL A   1      46.004  32.676  28.387  1.00  0.00     0.058 A 
ATOM     40  C   UNL A   1      46.438  33.165  29.628  1.00  0.00     0.135 A 
ATOM     41  C   UNL A   1      45.938  33.583  27.315  1.00  0.00     0.135 A 
ATOM     42  F   UNL A   1      46.507  32.346  30.690  1.00  0.00    -0.206 F 
ATOM     43  C   UNL A   1      46.772  34.505  29.806  1.00  0.00     0.059 A 
ATOM     44  C   UNL A   1      46.289  34.923  27.464  1.00  0.00     0.059 A 
ATOM     45  F   UNL A   1      45.532  33.170  26.104  1.00  0.00    -0.206 F 
ATOM     46  C   UNL A   1      46.691  35.377  28.720  1.00  0.00     0.060 A 
BRANCH  46  47
ATOM     47  S   UNL A   1      47.124  37.114  28.964  1.00  0.00     0.124 S 
ATOM     48  O   UNL A   1      47.153  37.202  30.420  1.00  0.00    -0.237 OA
ATOM     49  O   UNL A   1      48.419  37.211  28.298  1.00  0.00    -0.237 OA
ATOM     50  O   UNL A   1      46.032  37.831  28.313  1.00  0.00    -0.744 OA
ENDBRANCH  46  47
ENDBRANCH  25  39
BRANCH  26  51
ATOM     51  C   UNL A   1      43.311  23.188  26.786  1.00  0.00     0.058 A 
ATOM     52  C   UNL A   1      43.256  22.645  25.496  1.00  0.00     0.135 A 
ATOM     53  C   UNL A   1      43.025  22.342  27.868  1.00  0.00     0.135 A 
ATOM     54  F   UNL A   1      43.520  23.416  24.430  1.00  0.00    -0.206 F 
ATOM     55  C   UNL A   1      42.924  21.311  25.284  1.00  0.00     0.059 A 
ATOM     56  C   UNL A   1      42.718  20.999  27.683  1.00  0.00     0.059 A 
ATOM     57  F   UNL A   1      43.086  22.812  29.125  1.00  0.00    -0.206 F 
ATOM     58  C   UNL A   1      42.662  20.494  26.386  1.00  0.00     0.060 A 
BRANCH  58  59
ATOM     59  S   UNL A   1      42.307  18.746  26.111  1.00  0.00     0.124 S 
ATOM     60  O   UNL A   1      40.917  18.797  25.671  1.00  0.00    -0.237 OA
ATOM     61  O   UNL A   1      43.287  18.386  25.091  1.00  0.00    -0.237 OA
ATOM     62  O   UNL A   1      42.534  18.150  27.424  1.00  0.00    -0.744 OA
ENDBRANCH  58  59
ENDBRANCH  26  51
BRANCH  38  63
ATOM     63  C   UNL A   1      49.372  26.597  26.438  1.00  0.00     0.058 A 
ATOM     64  C   UNL A   1      50.195  25.972  27.386  1.00  0.00     0.135 A 
ATOM     65  C   UNL A   1      49.883  26.787  25.144  1.00  0.00     0.135 A 
ATOM     66  F   UNL A   1      49.755  25.776  28.639  1.00  0.00    -0.206 F 
ATOM     67  C   UNL A   1      51.492  25.579  27.073  1.00  0.00     0.059 A 
ATOM     68  C   UNL A   1      51.168  26.380  24.802  1.00  0.00     0.059 A 
ATOM     69  F   UNL A   1      49.131  27.372  24.198  1.00  0.00    -0.206 F 
ATOM     70  C   UNL A   1      51.971  25.792  25.780  1.00  0.00     0.060 A 
BRANCH  70  71
ATOM     71  S   UNL A   1      53.654  25.275  25.379  1.00  0.00     0.124 S 
ATOM     72  O   UNL A   1      53.598  23.846  25.674  1.00  0.00    -0.237 OA
ATOM     73  O   UNL A   1      53.764  25.625  23.967  1.00  0.00    -0.237 OA
ATOM     74  O   UNL A   1      54.476  26.074  26.282  1.00  0.00    -0.744 OA
ENDBRANCH  70  71
ENDBRANCH  38  63
ENDBRANCH  12  13
ENDBRANCH   5   7
ENDBRANCH   2   3
ENDBRANCH   1   2
BRANCH   1  75
ATOM     75  C   UNL A   1      33.933  29.429  26.965  1.00  0.00     0.023 C 
BRANCH  75  76
ATOM     76  C   UNL A   1      32.685  29.277  26.101  1.00  0.00     0.116 C 
BRANCH  76  77
ATOM     77  N   UNL A   1      32.989  29.660  24.739  1.00  0.00    -0.354 N 
ATOM     78  C   UNL A   1      33.330  28.860  23.691  1.00  0.00     0.242 C 
ATOM     79  H   UNL A   1      32.944  30.625  24.546  1.00  0.00     0.163 HD
ATOM     80  O   UNL A   1      33.845  29.395  22.703  1.00  0.00    -0.273 OA
BRANCH  78  81
ATOM     81  C   UNL A   1      33.039  27.342  23.715  1.00  0.00     0.176 C 
BRANCH  81  82
ATOM     82  N   UNL A   1      33.106  26.983  22.283  1.00  0.00    -0.339 N 
ATOM     83  C   UNL A   1      32.903  25.806  21.625  1.00  0.00     0.262 C 
ATOM     84  H   UNL A   1      33.341  27.736  21.693  1.00  0.00     0.164 HD
ATOM     85  O   UNL A   1      33.191  25.763  20.428  1.00  0.00    -0.268 OA
BRANCH  83  86
ATOM     86  C   UNL A   1      32.358  24.677  22.348  1.00  0.00     0.093 A 
ATOM     87  C   UNL A   1      31.117  24.520  22.942  1.00  0.00     0.027 A 
ATOM     88  S   UNL A   1      33.285  23.237  22.448  1.00  0.00    -0.118 S 
ATOM     89  C   UNL A   1      30.950  23.222  23.512  1.00  0.00     0.033 A 
ATOM     90  C   UNL A   1      32.059  22.446  23.300  1.00  0.00     0.094 A 
ATOM     91  Cl  UNL A   1      32.280  20.817  23.794  1.00  0.00    -0.072 Cl
ENDBRANCH  83  86
ENDBRANCH  81  82
BRANCH  81  92
ATOM     92  C   UNL A   1      34.100  26.528  24.489  1.00  0.00     0.070 C 
BRANCH  92  93
ATOM     93  C   UNL A   1      33.615  25.442  25.430  1.00  0.00    -0.045 A 
ATOM     94  C   UNL A   1      34.389  24.315  25.751  1.00  0.00     0.007 A 
ATOM     95  C   UNL A   1      32.358  25.582  26.047  1.00  0.00     0.007 A 
ATOM     96  C   UNL A   1      33.872  23.297  26.566  1.00  0.00     0.046 A 
ATOM     97  C   UNL A   1      31.850  24.577  26.875  1.00  0.00     0.046 A 
ATOM     98  C   UNL A   1      32.594  23.428  27.100  1.00  0.00     0.115 A 
BRANCH  98  99
ATOM     99  O   UNL A   1      32.020  22.437  27.837  1.00  0.00    -0.508 OA
ATOM    100  H   UNL A   1      31.301  21.947  27.485  1.00  0.00     0.293 HD
ENDBRANCH  98  99
ENDBRANCH  92  93
ENDBRANCH  81  92
ENDBRANCH  78  81
ENDBRANCH  76  77
ENDBRANCH  75  76
ENDBRANCH   1  75
TORSDOF 19
ENDMDL
MODEL 2
REMARK VINA RESULT:     -12.0      2.564      8.899
REMARK SMILES O=C(NCCCCNC(=O)[C@H](Cc1ccc(O)cc1)NC(=O)c1ccc(Cl)s1)c1ccc(-c2c3nc(c(-c4c(F)cc(S(=O)(=O)[O-])cc4F)c4ccc([nH]4)c(-c4c(F)cc(S(=O)(=O)[O-])cc4F)c4nc(c(-c5c(F)cc(S(=O)(=O)[O-])cc5F)c5ccc2[nH]5)C=C4)C=C3)cc1
REMARK SMILES IDX 5 1 4 2 3 3 1 4 2 5 29 7 30 8 94 9 31 10 93 11 32 12 33 13
REMARK SMILES IDX 34 14 87 15 35 16 92 17 86 18 88 19 36 20 91 21 85 22 84 23
REMARK SMILES IDX 37 25 71 26 50 27 70 28 51 29 54 30 69 31 89 32 52 33 53 34
REMARK SMILES IDX 68 36 90 37 55 38 38 39 39 40 48 41 40 42 41 43 47 44 49 45
REMARK SMILES IDX 42 46 43 47 44 48 45 49 46 50 72 51 73 52 82 53 74 54 75 55
REMARK SMILES IDX 81 56 83 57 76 58 77 59 78 60 79 61 80 62 56 63 57 64 66 65
REMARK SMILES IDX 58 66 59 67 65 68 67 69 60 70 61 71 62 72 63 73 64 74 6 75
REMARK SMILES IDX 7 76 8 77 9 78 10 80 11 81 20 82 21 83 22 85 23 86 24 87
REMARK SMILES IDX 28 88 25 89 26 90 27 91 12 92 13 93 14 94 19 95 15 96 18 97
REMARK SMILES IDX 16 98 17 99
REMARK H PARENT 3 6 88 24 54 35 8 79 20 84 17 100
REMARK Flexibility Score: inf
ROOT
ATOM      1  C   UNL A   1      32.393  29.184  26.204  1.00  0.00     0.023 C 
ENDROOT
BRANCH   1   2
ATOM      2  C   UNL A   1      33.686  29.410  26.972  1.00  0.00     0.116 C 
BRANCH   2   3
ATOM      3  N   UNL A   1      33.662  30.568  27.863  1.00  0.00    -0.352 N 
ATOM      4  O   UNL A   1      34.487  31.992  29.420  1.00  0.00    -0.269 OA
ATOM      5  C   UNL A   1      34.669  31.027  28.686  1.00  0.00     0.251 C 
ATOM      6  H   UNL A   1      32.823  31.084  27.878  1.00  0.00     0.163 HD
BRANCH   5   7
ATOM      7  C   UNL A   1      35.945  30.283  28.689  1.00  0.00     0.039 A 
ATOM      8  C   UNL A   1      36.405  29.731  29.884  1.00  0.00     0.014 A 
ATOM      9  C   UNL A   1      36.762  30.305  27.556  1.00  0.00     0.014 A 
ATOM     10  C   UNL A   1      37.750  29.423  30.009  1.00  0.00     0.010 A 
ATOM     11  C   UNL A   1      38.089  29.873  27.657  1.00  0.00     0.010 A 
ATOM     12  C   UNL A   1      38.615  29.497  28.903  1.00  0.00    -0.014 A 
BRANCH  12  13
ATOM     13  C   UNL A   1      40.059  29.188  29.105  1.00  0.00     0.031 A 
ATOM     14  C   UNL A   1      40.653  27.870  28.673  1.00  0.00     0.074 A 
ATOM     15  C   UNL A   1      40.859  30.154  29.600  1.00  0.00     0.049 A 
ATOM     16  N   UNL A   1      41.903  27.479  28.720  1.00  0.00    -0.248 NA
ATOM     17  C   UNL A   1      39.736  26.857  28.130  1.00  0.00     0.031 C 
ATOM     18  C   UNL A   1      40.403  31.471  30.058  1.00  0.00     0.029 A 
ATOM     19  N   UNL A   1      42.221  30.205  29.755  1.00  0.00    -0.354 N 
ATOM     20  C   UNL A   1      41.915  26.165  28.260  1.00  0.00     0.074 A 
ATOM     21  C   UNL A   1      40.546  25.823  27.942  1.00  0.00     0.031 C 
ATOM     22  C   UNL A   1      41.468  32.227  30.353  1.00  0.00     0.029 A 
ATOM     23  C   UNL A   1      42.676  31.429  30.186  1.00  0.00     0.049 A 
ATOM     24  H   UNL A   1      42.813  29.442  29.575  1.00  0.00     0.167 HD
ATOM     25  C   UNL A   1      42.970  25.326  28.113  1.00  0.00     0.037 A 
ATOM     26  C   UNL A   1      43.925  31.865  30.431  1.00  0.00     0.037 A 
ATOM     27  C   UNL A   1      44.339  25.688  28.384  1.00  0.00     0.049 A 
ATOM     28  C   UNL A   1      45.077  30.927  30.229  1.00  0.00     0.074 A 
ATOM     29  C   UNL A   1      45.480  24.918  28.234  1.00  0.00     0.029 A 
ATOM     30  N   UNL A   1      44.755  26.926  28.851  1.00  0.00    -0.354 N 
ATOM     31  N   UNL A   1      45.063  29.689  29.796  1.00  0.00    -0.248 NA
ATOM     32  C   UNL A   1      46.413  31.439  30.560  1.00  0.00     0.031 C 
ATOM     33  C   UNL A   1      46.581  25.680  28.639  1.00  0.00     0.029 A 
ATOM     34  C   UNL A   1      46.132  26.938  29.004  1.00  0.00     0.049 A 
ATOM     35  H   UNL A   1      44.159  27.686  29.044  1.00  0.00     0.167 HD
ATOM     36  C   UNL A   1      46.389  29.275  29.796  1.00  0.00     0.074 A 
ATOM     37  C   UNL A   1      47.178  30.402  30.250  1.00  0.00     0.031 C 
ATOM     38  C   UNL A   1      46.903  28.067  29.458  1.00  0.00     0.037 A 
BRANCH  25  39
ATOM     39  C   UNL A   1      42.689  23.916  27.664  1.00  0.00     0.058 A 
ATOM     40  C   UNL A   1      42.497  22.867  28.575  1.00  0.00     0.135 A 
ATOM     41  C   UNL A   1      42.566  23.624  26.295  1.00  0.00     0.135 A 
ATOM     42  F   UNL A   1      42.617  23.087  29.894  1.00  0.00    -0.206 F 
ATOM     43  C   UNL A   1      42.216  21.573  28.145  1.00  0.00     0.059 A 
ATOM     44  C   UNL A   1      42.263  22.341  25.843  1.00  0.00     0.059 A 
ATOM     45  F   UNL A   1      42.737  24.590  25.379  1.00  0.00    -0.206 F 
ATOM     46  C   UNL A   1      42.105  21.319  26.777  1.00  0.00     0.060 A 
BRANCH  46  47
ATOM     47  S   UNL A   1      41.743  19.635  26.232  1.00  0.00     0.124 S 
ATOM     48  O   UNL A   1      42.604  19.520  25.059  1.00  0.00    -0.237 OA
ATOM     49  O   UNL A   1      42.140  18.838  27.388  1.00  0.00    -0.237 OA
ATOM     50  O   UNL A   1      40.310  19.667  25.958  1.00  0.00    -0.744 OA
ENDBRANCH  46  47
ENDBRANCH  25  39
BRANCH  26  51
ATOM     51  C   UNL A   1      44.139  33.261  30.892  1.00  0.00     0.058 A 
ATOM     52  C   UNL A   1      44.184  33.571  32.257  1.00  0.00     0.135 A 
ATOM     53  C   UNL A   1      44.351  34.301  29.975  1.00  0.00     0.135 A 
ATOM     54  F   UNL A   1      43.986  32.609  33.172  1.00  0.00    -0.206 F 
ATOM     55  C   UNL A   1      44.426  34.867  32.700  1.00  0.00     0.059 A 
ATOM     56  C   UNL A   1      44.622  35.599  30.393  1.00  0.00     0.059 A 
ATOM     57  F   UNL A   1      44.337  34.049  28.656  1.00  0.00    -0.206 F 
ATOM     58  C   UNL A   1      44.649  35.874  31.758  1.00  0.00     0.060 A 
BRANCH  58  59
ATOM     59  S   UNL A   1      45.039  37.539  32.338  1.00  0.00     0.124 S 
ATOM     60  O   UNL A   1      46.457  37.637  32.008  1.00  0.00    -0.237 OA
ATOM     61  O   UNL A   1      44.138  38.364  31.539  1.00  0.00    -0.237 OA
ATOM     62  O   UNL A   1      44.722  37.478  33.762  1.00  0.00    -0.744 OA
ENDBRANCH  58  59
ENDBRANCH  26  51
BRANCH  38  63
ATOM     63  C   UNL A   1      48.394  27.918  29.545  1.00  0.00     0.058 A 
ATOM     64  C   UNL A   1      49.224  28.185  28.446  1.00  0.00     0.135 A 
ATOM     65  C   UNL A   1      49.000  27.513  30.745  1.00  0.00     0.135 A 
ATOM     66  F   UNL A   1      48.692  28.567  27.274  1.00  0.00    -0.206 F 
ATOM     67  C   UNL A   1      50.604  28.024  28.524  1.00  0.00     0.059 A 
ATOM     68  C   UNL A   1      50.379  27.368  30.852  1.00  0.00     0.059 A 
ATOM     69  F   UNL A   1      48.249  27.254  31.828  1.00  0.00    -0.206 F 
ATOM     70  C   UNL A   1      51.171  27.610  29.730  1.00  0.00     0.060 A 
BRANCH  70  71
ATOM     71  S   UNL A   1      52.962  27.408  29.825  1.00  0.00     0.124 S 
ATOM     72  O   UNL A   1      53.365  27.731  28.460  1.00  0.00    -0.237 OA
ATOM     73  O   UNL A   1      53.337  28.384  30.844  1.00  0.00    -0.237 OA
ATOM     74  O   UNL A   1      53.124  26.011  30.216  1.00  0.00    -0.744 OA
ENDBRANCH  70  71
ENDBRANCH  38  63
ENDBRANCH  12  13
ENDBRANCH   5   7
ENDBRANCH   2   3
ENDBRANCH   1   2
BRANCH   1  75
ATOM     75  C   UNL A   1      31.678  27.897  26.576  1.00  0.00     0.023 C 
BRANCH  75  76
ATOM     76  C   UNL A   1      32.538  26.638  26.519  1.00  0.00     0.116 C 
BRANCH  76  77
ATOM     77  N   UNL A   1      31.796  25.520  27.060  1.00  0.00    -0.354 N 
ATOM     78  C   UNL A   1      31.132  24.540  26.387  1.00  0.00     0.242 C 
ATOM     79  H   UNL A   1      31.769  25.460  28.042  1.00  0.00     0.163 HD
ATOM     80  O   UNL A   1      30.315  23.861  27.017  1.00  0.00    -0.273 OA
BRANCH  78  81
ATOM     81  C   UNL A   1      31.424  24.253  24.896  1.00  0.00     0.176 C 
BRANCH  81  82
ATOM     82  N   UNL A   1      31.453  22.776  24.856  1.00  0.00    -0.339 N 
ATOM     83  C   UNL A   1      32.463  21.888  24.627  1.00  0.00     0.262 C 
ATOM     84  H   UNL A   1      30.581  22.355  25.028  1.00  0.00     0.164 HD
ATOM     85  O   UNL A   1      32.159  20.701  24.492  1.00  0.00    -0.268 OA
BRANCH  83  86
ATOM     86  C   UNL A   1      33.826  22.368  24.561  1.00  0.00     0.093 A 
ATOM     87  C   UNL A   1      34.572  22.769  23.465  1.00  0.00     0.027 A 
ATOM     88  S   UNL A   1      34.691  22.597  26.024  1.00  0.00    -0.118 S 
ATOM     89  C   UNL A   1      35.872  23.230  23.835  1.00  0.00     0.033 A 
ATOM     90  C   UNL A   1      36.041  23.183  25.195  1.00  0.00     0.094 A 
ATOM     91  Cl  UNL A   1      37.437  23.662  26.070  1.00  0.00    -0.072 Cl
ENDBRANCH  83  86
ENDBRANCH  81  82
BRANCH  81  92
ATOM     92  C   UNL A   1      30.316  24.762  23.947  1.00  0.00     0.070 C 
BRANCH  92  93
ATOM     93  C   UNL A   1      30.406  26.192  23.451  1.00  0.00    -0.045 A 
ATOM     94  C   UNL A   1      29.335  27.097  23.546  1.00  0.00     0.007 A 
ATOM     95  C   UNL A   1      31.621  26.656  22.914  1.00  0.00     0.007 A 
ATOM     96  C   UNL A   1      29.437  28.388  23.006  1.00  0.00     0.046 A 
ATOM     97  C   UNL A   1      31.728  27.948  22.393  1.00  0.00     0.046 A 
ATOM     98  C   UNL A   1      30.627  28.792  22.411  1.00  0.00     0.115 A 
BRANCH  98  99
ATOM     99  O   UNL A   1      30.752  30.007  21.809  1.00  0.00    -0.508 OA
ATOM    100  H   UNL A   1      29.987  30.467  21.520  1.00  0.00     0.293 HD
ENDBRANCH  98  99
ENDBRANCH  92  93
ENDBRANCH  81  92
ENDBRANCH  78  81
ENDBRANCH  76  77
ENDBRANCH  75  76
ENDBRANCH   1  75
TORSDOF 19
ENDMDL
MODEL 3
REMARK VINA RESULT:     -11.8      5.420     11.442
REMARK SMILES O=C(NCCCCNC(=O)[C@H](Cc1ccc(O)cc1)NC(=O)c1ccc(Cl)s1)c1ccc(-c2c3nc(c(-c4c(F)cc(S(=O)(=O)[O-])cc4F)c4ccc([nH]4)c(-c4c(F)cc(S(=O)(=O)[O-])cc4F)c4nc(c(-c5c(F)cc(S(=O)(=O)[O-])cc5F)c5ccc2[nH]5)C=C4)C=C3)cc1
REMARK SMILES IDX 5 1 4 2 3 3 1 4 2 5 29 7 30 8 94 9 31 10 93 11 32 12 33 13
REMARK SMILES IDX 34 14 87 15 35 16 92 17 86 18 88 19 36 20 91 21 85 22 84 23
REMARK SMILES IDX 37 25 71 26 50 27 70 28 51 29 54 30 69 31 89 32 52 33 53 34
REMARK SMILES IDX 68 36 90 37 55 38 38 39 39 40 48 41 40 42 41 43 47 44 49 45
REMARK SMILES IDX 42 46 43 47 44 48 45 49 46 50 72 51 73 52 82 53 74 54 75 55
REMARK SMILES IDX 81 56 83 57 76 58 77 59 78 60 79 61 80 62 56 63 57 64 66 65
REMARK SMILES IDX 58 66 59 67 65 68 67 69 60 70 61 71 62 72 63 73 64 74 6 75
REMARK SMILES IDX 7 76 8 77 9 78 10 80 11 81 20 82 21 83 22 85 23 86 24 87
REMARK SMILES IDX 28 88 25 89 26 90 27 91 12 92 13 93 14 94 19 95 15 96 18 97
REMARK SMILES IDX 16 98 17 99
REMARK H PARENT 3 6 88 24 54 35 8 79 20 84 17 100
REMARK Flexibility Score: inf
ROOT
ATOM      1  C   UNL A   1      41.011  22.055  26.134  1.00  0.00     0.023 C 
ENDROOT
BRANCH   1   2
ATOM      2  C   UNL A   1      39.607  21.603  26.500  1.00  0.00     0.116 C 
BRANCH   2   3
ATOM      3  N   UNL A   1      38.542  22.317  25.797  1.00  0.00    -0.352 N 
ATOM      4  O   UNL A   1      37.282  24.115  25.240  1.00  0.00    -0.269 OA
ATOM      5  C   UNL A   1      38.243  23.662  25.853  1.00  0.00     0.251 C 
ATOM      6  H   UNL A   1      37.969  21.771  25.212  1.00  0.00     0.163 HD
BRANCH   5   7
ATOM      7  C   UNL A   1      39.083  24.518  26.715  1.00  0.00     0.039 A 
ATOM      8  C   UNL A   1      38.901  24.473  28.097  1.00  0.00     0.014 A 
ATOM      9  C   UNL A   1      39.905  25.488  26.138  1.00  0.00     0.014 A 
ATOM     10  C   UNL A   1      39.343  25.535  28.869  1.00  0.00     0.010 A 
ATOM     11  C   UNL A   1      40.454  26.491  26.944  1.00  0.00     0.010 A 
ATOM     12  C   UNL A   1      40.119  26.565  28.305  1.00  0.00    -0.014 A 
BRANCH  12  13
ATOM     13  C   UNL A   1      40.537  27.700  29.175  1.00  0.00     0.031 A 
ATOM     14  C   UNL A   1      39.625  28.875  29.436  1.00  0.00     0.074 A 
ATOM     15  C   UNL A   1      41.722  27.617  29.813  1.00  0.00     0.049 A 
ATOM     16  N   UNL A   1      39.819  29.905  30.221  1.00  0.00    -0.248 NA
ATOM     17  C   UNL A   1      38.340  28.908  28.722  1.00  0.00     0.031 C 
ATOM     18  C   UNL A   1      42.695  26.533  29.641  1.00  0.00     0.029 A 
ATOM     19  N   UNL A   1      42.290  28.422  30.767  1.00  0.00    -0.354 N 
ATOM     20  C   UNL A   1      38.708  30.728  30.061  1.00  0.00     0.074 A 
ATOM     21  C   UNL A   1      37.845  30.080  29.099  1.00  0.00     0.031 C 
ATOM     22  C   UNL A   1      43.690  26.691  30.524  1.00  0.00     0.029 A 
ATOM     23  C   UNL A   1      43.472  27.926  31.266  1.00  0.00     0.049 A 
ATOM     24  H   UNL A   1      41.892  29.270  31.065  1.00  0.00     0.167 HD
ATOM     25  C   UNL A   1      38.434  31.912  30.663  1.00  0.00     0.037 A 
ATOM     26  C   UNL A   1      44.299  28.411  32.212  1.00  0.00     0.037 A 
ATOM     27  C   UNL A   1      39.274  32.530  31.659  1.00  0.00     0.049 A 
ATOM     28  C   UNL A   1      43.955  29.705  32.885  1.00  0.00     0.074 A 
ATOM     29  C   UNL A   1      39.064  33.711  32.350  1.00  0.00     0.029 A 
ATOM     30  N   UNL A   1      40.479  32.013  32.113  1.00  0.00    -0.354 N 
ATOM     31  N   UNL A   1      42.901  30.467  32.714  1.00  0.00    -0.248 NA
ATOM     32  C   UNL A   1      44.918  30.214  33.871  1.00  0.00     0.031 C 
ATOM     33  C   UNL A   1      40.156  33.924  33.199  1.00  0.00     0.029 A 
ATOM     34  C   UNL A   1      41.027  32.856  33.066  1.00  0.00     0.049 A 
ATOM     35  H   UNL A   1      40.883  31.170  31.803  1.00  0.00     0.167 HD
ATOM     36  C   UNL A   1      43.070  31.544  33.576  1.00  0.00     0.074 A 
ATOM     37  C   UNL A   1      44.315  31.321  34.283  1.00  0.00     0.031 C 
ATOM     38  C   UNL A   1      42.268  32.621  33.759  1.00  0.00     0.037 A 
BRANCH  25  39
ATOM     39  C   UNL A   1      37.184  32.640  30.245  1.00  0.00     0.058 A 
ATOM     40  C   UNL A   1      37.169  33.537  29.166  1.00  0.00     0.135 A 
ATOM     41  C   UNL A   1      35.970  32.398  30.910  1.00  0.00     0.135 A 
ATOM     42  F   UNL A   1      38.303  33.816  28.504  1.00  0.00    -0.206 F 
ATOM     43  C   UNL A   1      36.000  34.187  28.777  1.00  0.00     0.059 A 
ATOM     44  C   UNL A   1      34.785  33.019  30.523  1.00  0.00     0.059 A 
ATOM     45  F   UNL A   1      35.925  31.546  31.947  1.00  0.00    -0.206 F 
ATOM     46  C   UNL A   1      34.814  33.924  29.463  1.00  0.00     0.060 A 
BRANCH  46  47
ATOM     47  S   UNL A   1      33.305  34.775  28.950  1.00  0.00     0.124 S 
ATOM     48  O   UNL A   1      32.585  34.874  30.216  1.00  0.00    -0.237 OA
ATOM     49  O   UNL A   1      33.820  36.031  28.415  1.00  0.00    -0.237 OA
ATOM     50  O   UNL A   1      32.722  33.869  27.966  1.00  0.00    -0.744 OA
ENDBRANCH  46  47
ENDBRANCH  25  39
BRANCH  26  51
ATOM     51  C   UNL A   1      45.528  27.659  32.568  1.00  0.00     0.058 A 
ATOM     52  C   UNL A   1      45.518  26.702  33.592  1.00  0.00     0.135 A 
ATOM     53  C   UNL A   1      46.723  27.847  31.857  1.00  0.00     0.135 A 
ATOM     54  F   UNL A   1      44.398  26.488  34.300  1.00  0.00    -0.206 F 
ATOM     55  C   UNL A   1      46.652  25.961  33.905  1.00  0.00     0.059 A 
ATOM     56  C   UNL A   1      47.862  27.099  32.133  1.00  0.00     0.059 A 
ATOM     57  F   UNL A   1      46.776  28.737  30.854  1.00  0.00    -0.206 F 
ATOM     58  C   UNL A   1      47.819  26.164  33.165  1.00  0.00     0.060 A 
BRANCH  58  59
ATOM     59  S   UNL A   1      49.266  25.146  33.523  1.00  0.00     0.124 S 
ATOM     60  O   UNL A   1      48.661  24.012  34.213  1.00  0.00    -0.237 OA
ATOM     61  O   UNL A   1      49.794  24.875  32.190  1.00  0.00    -0.237 OA
ATOM     62  O   UNL A   1      50.093  26.022  34.348  1.00  0.00    -0.744 OA
ENDBRANCH  58  59
ENDBRANCH  26  51
BRANCH  38  63
ATOM     63  C   UNL A   1      42.709  33.626  34.783  1.00  0.00     0.058 A 
ATOM     64  C   UNL A   1      43.579  34.676  34.455  1.00  0.00     0.135 A 
ATOM     65  C   UNL A   1      42.248  33.542  36.107  1.00  0.00     0.135 A 
ATOM     66  F   UNL A   1      44.055  34.795  33.205  1.00  0.00    -0.206 F 
ATOM     67  C   UNL A   1      44.004  35.593  35.412  1.00  0.00     0.059 A 
ATOM     68  C   UNL A   1      42.640  34.460  37.075  1.00  0.00     0.059 A 
ATOM     69  F   UNL A   1      41.406  32.560  36.468  1.00  0.00    -0.206 F 
ATOM     70  C   UNL A   1      43.532  35.472  36.721  1.00  0.00     0.060 A 
BRANCH  70  71
ATOM     71  S   UNL A   1      44.084  36.667  37.957  1.00  0.00     0.124 S 
ATOM     72  O   UNL A   1      42.825  37.307  38.327  1.00  0.00    -0.237 OA
ATOM     73  O   UNL A   1      44.683  35.812  38.977  1.00  0.00    -0.237 OA
ATOM     74  O   UNL A   1      45.024  37.505  37.220  1.00  0.00    -0.744 OA
ENDBRANCH  70  71
ENDBRANCH  38  63
ENDBRANCH  12  13
ENDBRANCH   5   7
ENDBRANCH   2   3
ENDBRANCH   1   2
BRANCH   1  75
ATOM     75  C   UNL A   1      41.959  22.128  27.319  1.00  0.00     0.023 C 
BRANCH  75  76
ATOM     76  C   UNL A   1      42.498  23.520  27.633  1.00  0.00     0.116 C 
BRANCH  76  77
ATOM     77  N   UNL A   1      43.936  23.462  27.773  1.00  0.00    -0.354 N 
ATOM     78  C   UNL A   1      44.880  23.428  26.792  1.00  0.00     0.242 C 
ATOM     79  H   UNL A   1      44.276  23.444  28.697  1.00  0.00     0.163 HD
ATOM     80  O   UNL A   1      46.022  23.074  27.104  1.00  0.00    -0.273 OA
BRANCH  78  81
ATOM     81  C   UNL A   1      44.549  23.867  25.346  1.00  0.00     0.176 C 
BRANCH  81  82
ATOM     82  N   UNL A   1      45.812  24.497  24.909  1.00  0.00    -0.339 N 
ATOM     83  C   UNL A   1      46.281  25.774  25.013  1.00  0.00     0.262 C 
ATOM     84  H   UNL A   1      46.432  23.879  24.458  1.00  0.00     0.164 HD
ATOM     85  O   UNL A   1      47.315  26.055  24.404  1.00  0.00    -0.268 OA
BRANCH  83  86
ATOM     86  C   UNL A   1      45.560  26.728  25.828  1.00  0.00     0.093 A 
ATOM     87  C   UNL A   1      45.915  27.311  27.033  1.00  0.00     0.027 A 
ATOM     88  S   UNL A   1      44.077  27.359  25.241  1.00  0.00    -0.118 S 
ATOM     89  C   UNL A   1      44.941  28.250  27.488  1.00  0.00     0.033 A 
ATOM     90  C   UNL A   1      43.908  28.357  26.594  1.00  0.00     0.094 A 
ATOM     91  Cl  UNL A   1      42.538  29.383  26.730  1.00  0.00    -0.072 Cl
ENDBRANCH  83  86
ENDBRANCH  81  82
BRANCH  81  92
ATOM     92  C   UNL A   1      44.225  22.683  24.408  1.00  0.00     0.070 C 
BRANCH  92  93
ATOM     93  C   UNL A   1      44.823  21.330  24.739  1.00  0.00    -0.045 A 
ATOM     94  C   UNL A   1      46.193  21.050  24.594  1.00  0.00     0.007 A 
ATOM     95  C   UNL A   1      43.991  20.320  25.255  1.00  0.00     0.007 A 
ATOM     96  C   UNL A   1      46.691  19.762  24.840  1.00  0.00     0.046 A 
ATOM     97  C   UNL A   1      44.491  19.042  25.518  1.00  0.00     0.046 A 
ATOM     98  C   UNL A   1      45.828  18.763  25.275  1.00  0.00     0.115 A 
BRANCH  98  99
ATOM     99  O   UNL A   1      46.249  17.480  25.457  1.00  0.00    -0.508 OA
ATOM    100  H   UNL A   1      46.159  17.072  26.297  1.00  0.00     0.293 HD
ENDBRANCH  98  99
ENDBRANCH  92  93
ENDBRANCH  81  92
ENDBRANCH  78  81
ENDBRANCH  76  77
ENDBRANCH  75  76
ENDBRANCH   1  75
TORSDOF 19
ENDMDL
