MODEL 1
REMARK VINA RESULT:     -11.7      0.000      0.000
REMARK SMILES CC(C)N1C(=O)C[C@@H]([N@@H+]2CC[C@H](C(=O)NCCCCNC(=O)c3ccc(-c4c5nc(c(-c6c(F)cc(S(=O)(=O)[O-])cc6F)c6ccc([nH]6)c(-c6c(F)cc(S(=O)(=O)[O-])cc6F)c6nc(c(-c7c(F)cc(S(=O)(=O)[O-])cc7F)c7ccc4[nH]7)C=C6)C=C5)cc3)[C@@H]2C)C1=O
REMARK SMILES IDX 18 1 17 2 16 3 15 4 13 5 14 6 12 8 9 9 10 10 89 11 11 13
REMARK SMILES IDX 90 14 8 15 4 16 5 17 91 18 6 19 7 20 92 21 2 22 1 23 3 24
REMARK SMILES IDX 19 25 20 26 21 27 22 29 23 30 24 31 88 32 25 33 87 34 26 35
REMARK SMILES IDX 27 36 28 37 81 38 29 39 86 40 80 41 82 42 30 43 85 44 79 45
REMARK SMILES IDX 78 46 31 48 65 49 44 50 64 51 45 52 48 53 63 54 83 55 46 56
REMARK SMILES IDX 47 57 62 59 84 60 49 61 32 62 33 63 42 64 34 65 35 66 41 67
REMARK SMILES IDX 43 68 36 69 37 70 38 71 39 72 40 73 66 74 67 75 76 76 68 77
REMARK SMILES IDX 69 78 75 79 77 80 70 81 71 82 72 83 73 84 74 85 50 86 51 87
REMARK SMILES IDX 60 88 52 89 53 90 59 91 61 92 54 93 55 94 56 95 57 96 58 97
REMARK H PARENT 15 7 9 12 20 28 82 47 48 58
REMARK Flexibility Score: inf
ROOT
ATOM      1  C   UNL A   1      31.992  27.914  27.075  1.00  0.00     0.023 C 
ENDROOT
BRANCH   1   2
ATOM      2  C   UNL A   1      31.536  28.161  25.636  1.00  0.00     0.023 C 
BRANCH   2   3
ATOM      3  C   UNL A   1      31.414  26.913  24.766  1.00  0.00     0.116 C 
BRANCH   3   4
ATOM      4  N   UNL A   1      32.670  26.194  24.649  1.00  0.00    -0.356 N 
ATOM      5  C   UNL A   1      32.917  24.877  24.411  1.00  0.00     0.229 C 
ATOM      6  O   UNL A   1      34.091  24.533  24.259  1.00  0.00    -0.275 OA
ATOM      7  H   UNL A   1      33.474  26.751  24.761  1.00  0.00     0.163 HD
BRANCH   5   8
ATOM      8  C   UNL A   1      31.772  23.874  24.365  1.00  0.00     0.142 C 
ATOM      9  N   UNL A   1      32.336  21.595  24.905  1.00  0.00    -0.321 N 
ATOM     10  C   UNL A   1      32.712  21.844  23.512  1.00  0.00     0.264 C 
ATOM     11  C   UNL A   1      31.820  22.838  25.503  1.00  0.00     0.194 C 
ATOM     12  H   UNL A   1      31.550  20.947  24.934  1.00  0.00     0.349 HD
ATOM     13  C   UNL A   1      31.860  23.026  23.100  1.00  0.00     0.081 C 
ATOM     14  C   UNL A   1      32.414  23.340  26.819  1.00  0.00     0.076 C 
BRANCH   9  15
ATOM     15  C   UNL A   1      33.262  20.755  25.676  1.00  0.00     0.284 C 
ATOM     16  N   UNL A   1      34.270  18.889  24.636  1.00  0.00    -0.275 N 
ATOM     17  C   UNL A   1      35.295  19.739  24.958  1.00  0.00     0.236 C 
ATOM     18  C   UNL A   1      33.119  19.293  25.260  1.00  0.00     0.288 C 
ATOM     19  O   UNL A   1      36.492  19.506  24.877  1.00  0.00    -0.274 OA
ATOM     20  C   UNL A   1      34.750  21.018  25.509  1.00  0.00     0.176 C 
ATOM     21  O   UNL A   1      32.123  18.616  25.486  1.00  0.00    -0.267 OA
BRANCH  16  22
ATOM     22  C   UNL A   1      34.498  17.568  24.025  1.00  0.00     0.087 C 
ATOM     23  C   UNL A   1      34.466  16.401  25.021  1.00  0.00     0.031 C 
ATOM     24  C   UNL A   1      33.459  17.262  22.932  1.00  0.00     0.031 C 
ENDBRANCH  16  22
ENDBRANCH   9  15
ENDBRANCH   5   8
ENDBRANCH   3   4
ENDBRANCH   2   3
ENDBRANCH   1   2
BRANCH   1  25
ATOM     25  C   UNL A   1      33.370  28.460  27.437  1.00  0.00     0.116 C 
BRANCH  25  26
ATOM     26  N   UNL A   1      33.372  29.894  27.687  1.00  0.00    -0.352 N 
ATOM     27  C   UNL A   1      34.381  30.699  28.160  1.00  0.00     0.251 C 
ATOM     28  H   UNL A   1      32.525  30.355  27.486  1.00  0.00     0.163 HD
ATOM     29  O   UNL A   1      34.150  31.879  28.412  1.00  0.00    -0.269 OA
BRANCH  27  30
ATOM     30  C   UNL A   1      35.727  30.136  28.403  1.00  0.00     0.039 A 
ATOM     31  C   UNL A   1      36.650  30.127  27.354  1.00  0.00     0.014 A 
ATOM     32  C   UNL A   1      36.088  29.641  29.660  1.00  0.00     0.014 A 
ATOM     33  C   UNL A   1      37.961  29.705  27.588  1.00  0.00     0.010 A 
ATOM     34  C   UNL A   1      37.412  29.284  29.908  1.00  0.00     0.010 A 
ATOM     35  C   UNL A   1      38.365  29.327  28.879  1.00  0.00    -0.014 A 
BRANCH  35  36
ATOM     36  C   UNL A   1      39.790  29.032  29.182  1.00  0.00     0.031 A 
ATOM     37  C   UNL A   1      40.695  30.099  29.730  1.00  0.00     0.074 A 
ATOM     38  C   UNL A   1      40.290  27.818  28.875  1.00  0.00     0.049 A 
ATOM     39  N   UNL A   1      41.977  30.042  29.984  1.00  0.00    -0.248 NA
ATOM     40  C   UNL A   1      40.086  31.409  30.003  1.00  0.00     0.031 C 
ATOM     41  C   UNL A   1      39.529  26.719  28.276  1.00  0.00     0.029 A 
ATOM     42  N   UNL A   1      41.559  27.310  29.002  1.00  0.00    -0.354 N 
ATOM     43  C   UNL A   1      42.334  31.309  30.429  1.00  0.00     0.074 A 
ATOM     44  C   UNL A   1      41.139  32.126  30.370  1.00  0.00     0.031 C 
ATOM     45  C   UNL A   1      40.341  25.666  28.097  1.00  0.00     0.029 A 
ATOM     46  C   UNL A   1      41.688  26.024  28.533  1.00  0.00     0.049 A 
ATOM     47  H   UNL A   1      42.305  27.819  29.391  1.00  0.00     0.167 HD
ATOM     48  C   UNL A   1      43.541  31.746  30.861  1.00  0.00     0.037 A 
ATOM     49  C   UNL A   1      42.769  25.225  28.446  1.00  0.00     0.037 A 
ATOM     50  C   UNL A   1      44.720  30.922  30.938  1.00  0.00     0.049 A 
ATOM     51  C   UNL A   1      44.096  25.726  28.943  1.00  0.00     0.074 A 
ATOM     52  C   UNL A   1      45.964  31.245  31.449  1.00  0.00     0.029 A 
ATOM     53  N   UNL A   1      44.806  29.615  30.477  1.00  0.00    -0.354 N 
ATOM     54  N   UNL A   1      44.393  26.898  29.450  1.00  0.00    -0.248 NA
ATOM     55  C   UNL A   1      45.231  24.797  28.863  1.00  0.00     0.031 C 
ATOM     56  C   UNL A   1      46.816  30.153  31.254  1.00  0.00     0.029 A 
ATOM     57  C   UNL A   1      46.092  29.131  30.662  1.00  0.00     0.049 A 
ATOM     58  H   UNL A   1      44.063  29.108  30.078  1.00  0.00     0.167 HD
ATOM     59  C   UNL A   1      45.749  26.847  29.757  1.00  0.00     0.074 A 
ATOM     60  C   UNL A   1      46.206  25.519  29.398  1.00  0.00     0.031 C 
ATOM     61  C   UNL A   1      46.540  27.813  30.285  1.00  0.00     0.037 A 
BRANCH  48  62
ATOM     62  C   UNL A   1      43.649  33.187  31.279  1.00  0.00     0.058 A 
ATOM     63  C   UNL A   1      43.961  34.203  30.359  1.00  0.00     0.135 A 
ATOM     64  C   UNL A   1      43.415  33.563  32.612  1.00  0.00     0.135 A 
ATOM     65  F   UNL A   1      44.205  33.899  29.075  1.00  0.00    -0.206 F 
ATOM     66  C   UNL A   1      44.075  35.531  30.754  1.00  0.00     0.059 A 
ATOM     67  C   UNL A   1      43.496  34.890  33.023  1.00  0.00     0.059 A 
ATOM     68  F   UNL A   1      43.110  32.634  33.532  1.00  0.00    -0.206 F 
ATOM     69  C   UNL A   1      43.845  35.865  32.089  1.00  0.00     0.060 A 
BRANCH  69  70
ATOM     70  S   UNL A   1      44.012  37.592  32.589  1.00  0.00     0.124 S 
ATOM     71  O   UNL A   1      42.909  37.728  33.534  1.00  0.00    -0.237 OA
ATOM     72  O   UNL A   1      45.351  37.621  33.171  1.00  0.00    -0.237 OA
ATOM     73  O   UNL A   1      43.861  38.325  31.337  1.00  0.00    -0.744 OA
ENDBRANCH  69  70
ENDBRANCH  48  62
BRANCH  49  74
ATOM     74  C   UNL A   1      42.626  23.862  27.871  1.00  0.00     0.058 A 
ATOM     75  C   UNL A   1      42.561  22.732  28.699  1.00  0.00     0.135 A 
ATOM     76  C   UNL A   1      42.499  23.669  26.487  1.00  0.00     0.135 A 
ATOM     77  F   UNL A   1      42.686  22.867  30.028  1.00  0.00    -0.206 F 
ATOM     78  C   UNL A   1      42.373  21.457  28.176  1.00  0.00     0.059 A 
ATOM     79  C   UNL A   1      42.287  22.406  25.942  1.00  0.00     0.059 A 
ATOM     80  F   UNL A   1      42.538  24.721  25.654  1.00  0.00    -0.206 F 
ATOM     81  C   UNL A   1      42.227  21.305  26.795  1.00  0.00     0.060 A 
BRANCH  81  82
ATOM     82  S   UNL A   1      41.894  19.658  26.135  1.00  0.00     0.124 S 
ATOM     83  O   UNL A   1      42.391  18.804  27.207  1.00  0.00    -0.237 OA
ATOM     84  O   UNL A   1      40.444  19.685  25.960  1.00  0.00    -0.237 OA
ATOM     85  O   UNL A   1      42.665  19.631  24.895  1.00  0.00    -0.744 OA
ENDBRANCH  81  82
ENDBRANCH  49  74
BRANCH  61  86
ATOM     86  C   UNL A   1      47.987  27.472  30.510  1.00  0.00     0.058 A 
ATOM     87  C   UNL A   1      48.403  26.753  31.643  1.00  0.00     0.135 A 
ATOM     88  C   UNL A   1      48.962  27.823  29.563  1.00  0.00     0.135 A 
ATOM     89  F   UNL A   1      47.513  26.402  32.584  1.00  0.00    -0.206 F 
ATOM     90  C   UNL A   1      49.737  26.413  31.838  1.00  0.00     0.059 A 
ATOM     91  C   UNL A   1      50.299  27.470  29.725  1.00  0.00     0.059 A 
ATOM     92  F   UNL A   1      48.616  28.503  28.458  1.00  0.00    -0.206 F 
ATOM     93  C   UNL A   1      50.678  26.774  30.871  1.00  0.00     0.060 A 
BRANCH  93  94
ATOM     94  S   UNL A   1      52.402  26.296  31.119  1.00  0.00     0.124 S 
ATOM     95  O   UNL A   1      52.856  26.112  29.744  1.00  0.00    -0.237 OA
ATOM     96  O   UNL A   1      52.951  27.453  31.818  1.00  0.00    -0.237 OA
ATOM     97  O   UNL A   1      52.304  25.076  31.916  1.00  0.00    -0.744 OA
ENDBRANCH  93  94
ENDBRANCH  61  86
ENDBRANCH  35  36
ENDBRANCH  27  30
ENDBRANCH  25  26
ENDBRANCH   1  25
TORSDOF 16
ENDMDL
MODEL 2
REMARK VINA RESULT:     -11.7      4.952     10.503
REMARK SMILES CC(C)N1C(=O)C[C@@H]([N@@H+]2CC[C@H](C(=O)NCCCCNC(=O)c3ccc(-c4c5nc(c(-c6c(F)cc(S(=O)(=O)[O-])cc6F)c6ccc([nH]6)c(-c6c(F)cc(S(=O)(=O)[O-])cc6F)c6nc(c(-c7c(F)cc(S(=O)(=O)[O-])cc7F)c7ccc4[nH]7)C=C6)C=C5)cc3)[C@@H]2C)C1=O
REMARK SMILES IDX 18 1 17 2 16 3 15 4 13 5 14 6 12 8 9 9 10 10 89 11 11 13
REMARK SMILES IDX 90 14 8 15 4 16 5 17 91 18 6 19 7 20 92 21 2 22 1 23 3 24
REMARK SMILES IDX 19 25 20 26 21 27 22 29 23 30 24 31 88 32 25 33 87 34 26 35
REMARK SMILES IDX 27 36 28 37 81 38 29 39 86 40 80 41 82 42 30 43 85 44 79 45
REMARK SMILES IDX 78 46 31 48 65 49 44 50 64 51 45 52 48 53 63 54 83 55 46 56
REMARK SMILES IDX 47 57 62 59 84 60 49 61 32 62 33 63 42 64 34 65 35 66 41 67
REMARK SMILES IDX 43 68 36 69 37 70 38 71 39 72 40 73 66 74 67 75 76 76 68 77
REMARK SMILES IDX 69 78 75 79 77 80 70 81 71 82 72 83 73 84 74 85 50 86 51 87
REMARK SMILES IDX 60 88 52 89 53 90 59 91 61 92 54 93 55 94 56 95 57 96 58 97
REMARK H PARENT 15 7 9 12 20 28 82 47 48 58
REMARK Flexibility Score: inf
ROOT
ATOM      1  C   UNL A   1      40.036  21.945  26.922  1.00  0.00     0.023 C 
ENDROOT
BRANCH   1   2
ATOM      2  C   UNL A   1      38.862  22.482  26.102  1.00  0.00     0.023 C 
BRANCH   2   3
ATOM      3  C   UNL A   1      38.053  21.428  25.352  1.00  0.00     0.116 C 
BRANCH   3   4
ATOM      4  N   UNL A   1      37.417  21.959  24.161  1.00  0.00    -0.356 N 
ATOM      5  C   UNL A   1      36.301  22.727  24.020  1.00  0.00     0.229 C 
ATOM      6  O   UNL A   1      36.023  23.132  22.889  1.00  0.00    -0.275 OA
ATOM      7  H   UNL A   1      37.866  21.727  23.317  1.00  0.00     0.163 HD
BRANCH   5   8
ATOM      8  C   UNL A   1      35.424  23.039  25.225  1.00  0.00     0.142 C 
ATOM      9  N   UNL A   1      33.249  23.958  24.744  1.00  0.00    -0.321 N 
ATOM     10  C   UNL A   1      34.233  25.040  24.669  1.00  0.00     0.264 C 
ATOM     11  C   UNL A   1      33.940  22.685  25.010  1.00  0.00     0.194 C 
ATOM     12  H   UNL A   1      32.648  24.101  25.555  1.00  0.00     0.349 HD
ATOM     13  C   UNL A   1      35.402  24.540  25.491  1.00  0.00     0.081 C 
ATOM     14  C   UNL A   1      33.680  21.485  24.099  1.00  0.00     0.076 C 
BRANCH   9  15
ATOM     15  C   UNL A   1      32.175  23.999  23.743  1.00  0.00     0.284 C 
ATOM     16  N   UNL A   1      31.126  26.058  23.256  1.00  0.00    -0.275 N 
ATOM     17  C   UNL A   1      31.743  25.668  22.097  1.00  0.00     0.236 C 
ATOM     18  C   UNL A   1      31.114  25.018  24.148  1.00  0.00     0.288 C 
ATOM     19  O   UNL A   1      31.633  26.190  20.998  1.00  0.00    -0.274 OA
ATOM     20  C   UNL A   1      32.551  24.432  22.334  1.00  0.00     0.176 C 
ATOM     21  O   UNL A   1      30.374  24.880  25.114  1.00  0.00    -0.267 OA
BRANCH  16  22
ATOM     22  C   UNL A   1      30.300  27.275  23.344  1.00  0.00     0.087 C 
ATOM     23  C   UNL A   1      28.812  27.006  23.604  1.00  0.00     0.031 C 
ATOM     24  C   UNL A   1      30.794  28.217  24.456  1.00  0.00     0.031 C 
ENDBRANCH  16  22
ENDBRANCH   9  15
ENDBRANCH   5   8
ENDBRANCH   3   4
ENDBRANCH   2   3
ENDBRANCH   1   2
BRANCH   1  25
ATOM     25  C   UNL A   1      41.151  22.943  27.219  1.00  0.00     0.116 C 
BRANCH  25  26
ATOM     26  N   UNL A   1      41.429  23.841  26.107  1.00  0.00    -0.352 N 
ATOM     27  C   UNL A   1      41.526  25.212  26.095  1.00  0.00     0.251 C 
ATOM     28  H   UNL A   1      41.567  23.401  25.238  1.00  0.00     0.163 HD
ATOM     29  O   UNL A   1      41.656  25.802  25.025  1.00  0.00    -0.269 OA
BRANCH  27  30
ATOM     30  C   UNL A   1      41.434  25.975  27.358  1.00  0.00     0.039 A 
ATOM     31  C   UNL A   1      42.544  26.713  27.779  1.00  0.00     0.014 A 
ATOM     32  C   UNL A   1      40.258  25.985  28.113  1.00  0.00     0.014 A 
ATOM     33  C   UNL A   1      42.445  27.530  28.907  1.00  0.00     0.010 A 
ATOM     34  C   UNL A   1      40.140  26.851  29.199  1.00  0.00     0.010 A 
ATOM     35  C   UNL A   1      41.227  27.643  29.598  1.00  0.00    -0.014 A 
BRANCH  35  36
ATOM     36  C   UNL A   1      41.056  28.627  30.698  1.00  0.00     0.031 A 
ATOM     37  C   UNL A   1      41.866  28.518  31.959  1.00  0.00     0.074 A 
ATOM     38  C   UNL A   1      40.099  29.571  30.593  1.00  0.00     0.049 A 
ATOM     39  N   UNL A   1      41.799  29.241  33.047  1.00  0.00    -0.248 NA
ATOM     40  C   UNL A   1      42.863  27.438  32.015  1.00  0.00     0.031 C 
ATOM     41  C   UNL A   1      39.201  29.739  29.448  1.00  0.00     0.029 A 
ATOM     42  N   UNL A   1      39.705  30.553  31.468  1.00  0.00    -0.354 N 
ATOM     43  C   UNL A   1      42.729  28.696  33.924  1.00  0.00     0.074 A 
ATOM     44  C   UNL A   1      43.318  27.555  33.255  1.00  0.00     0.031 C 
ATOM     45  C   UNL A   1      38.370  30.766  29.685  1.00  0.00     0.029 A 
ATOM     46  C   UNL A   1      38.649  31.306  31.013  1.00  0.00     0.049 A 
ATOM     47  H   UNL A   1      40.138  30.702  32.339  1.00  0.00     0.167 HD
ATOM     48  C   UNL A   1      43.071  29.117  35.165  1.00  0.00     0.037 A 
ATOM     49  C   UNL A   1      37.968  32.309  31.600  1.00  0.00     0.037 A 
ATOM     50  C   UNL A   1      42.496  30.267  35.816  1.00  0.00     0.049 A 
ATOM     51  C   UNL A   1      38.372  32.769  32.972  1.00  0.00     0.074 A 
ATOM     52  C   UNL A   1      42.842  30.829  37.032  1.00  0.00     0.029 A 
ATOM     53  N   UNL A   1      41.446  31.021  35.313  1.00  0.00    -0.354 N 
ATOM     54  N   UNL A   1      39.320  32.301  33.748  1.00  0.00    -0.248 NA
ATOM     55  C   UNL A   1      37.622  33.894  33.546  1.00  0.00     0.031 C 
ATOM     56  C   UNL A   1      41.969  31.893  37.288  1.00  0.00     0.029 A 
ATOM     57  C   UNL A   1      41.109  32.023  36.210  1.00  0.00     0.049 A 
ATOM     58  H   UNL A   1      41.004  30.867  34.447  1.00  0.00     0.167 HD
ATOM     59  C   UNL A   1      39.286  33.079  34.901  1.00  0.00     0.074 A 
ATOM     60  C   UNL A   1      38.237  34.061  34.708  1.00  0.00     0.031 C 
ATOM     61  C   UNL A   1      40.052  32.985  36.016  1.00  0.00     0.037 A 
BRANCH  48  62
ATOM     62  C   UNL A   1      44.113  28.324  35.906  1.00  0.00     0.058 A 
ATOM     63  C   UNL A   1      45.485  28.586  35.758  1.00  0.00     0.135 A 
ATOM     64  C   UNL A   1      43.735  27.303  36.793  1.00  0.00     0.135 A 
ATOM     65  F   UNL A   1      45.903  29.543  34.915  1.00  0.00    -0.206 F 
ATOM     66  C   UNL A   1      46.445  27.840  36.434  1.00  0.00     0.059 A 
ATOM     67  C   UNL A   1      44.677  26.562  37.500  1.00  0.00     0.059 A 
ATOM     68  F   UNL A   1      42.437  27.012  36.975  1.00  0.00    -0.206 F 
ATOM     69  C   UNL A   1      46.031  26.826  37.299  1.00  0.00     0.060 A 
BRANCH  69  70
ATOM     70  S   UNL A   1      47.289  25.856  38.156  1.00  0.00     0.124 S 
ATOM     71  O   UNL A   1      47.665  26.759  39.239  1.00  0.00    -0.237 OA
ATOM     72  O   UNL A   1      46.548  24.663  38.555  1.00  0.00    -0.237 OA
ATOM     73  O   UNL A   1      48.310  25.642  37.135  1.00  0.00    -0.744 OA
ENDBRANCH  69  70
ENDBRANCH  48  62
BRANCH  49  74
ATOM     74  C   UNL A   1      36.838  32.948  30.874  1.00  0.00     0.058 A 
ATOM     75  C   UNL A   1      35.508  32.628  31.182  1.00  0.00     0.135 A 
ATOM     76  C   UNL A   1      37.067  33.928  29.896  1.00  0.00     0.135 A 
ATOM     77  F   UNL A   1      35.241  31.691  32.105  1.00  0.00    -0.206 F 
ATOM     78  C   UNL A   1      34.443  33.258  30.549  1.00  0.00     0.059 A 
ATOM     79  C   UNL A   1      36.018  34.588  29.264  1.00  0.00     0.059 A 
ATOM     80  F   UNL A   1      38.323  34.280  29.577  1.00  0.00    -0.206 F 
ATOM     81  C   UNL A   1      34.708  34.245  29.596  1.00  0.00     0.060 A 
BRANCH  81  82
ATOM     82  S   UNL A   1      33.319  35.120  28.844  1.00  0.00     0.124 S 
ATOM     83  O   UNL A   1      34.001  36.173  28.101  1.00  0.00    -0.237 OA
ATOM     84  O   UNL A   1      32.695  34.072  28.041  1.00  0.00    -0.237 OA
ATOM     85  O   UNL A   1      32.538  35.562  29.996  1.00  0.00    -0.744 OA
ENDBRANCH  81  82
ENDBRANCH  49  74
BRANCH  61  86
ATOM     86  C   UNL A   1      39.788  33.972  37.119  1.00  0.00     0.058 A 
ATOM     87  C   UNL A   1      38.913  33.672  38.175  1.00  0.00     0.135 A 
ATOM     88  C   UNL A   1      40.451  35.209  37.147  1.00  0.00     0.135 A 
ATOM     89  F   UNL A   1      38.247  32.508  38.191  1.00  0.00    -0.206 F 
ATOM     90  C   UNL A   1      38.690  34.574  39.211  1.00  0.00     0.059 A 
ATOM     91  C   UNL A   1      40.262  36.115  38.187  1.00  0.00     0.059 A 
ATOM     92  F   UNL A   1      41.304  35.541  36.165  1.00  0.00    -0.206 F 
ATOM     93  C   UNL A   1      39.372  35.793  39.209  1.00  0.00     0.060 A 
BRANCH  93  94
ATOM     94  S   UNL A   1      39.100  36.939  40.577  1.00  0.00     0.124 S 
ATOM     95  O   UNL A   1      38.461  36.074  41.564  1.00  0.00    -0.237 OA
ATOM     96  O   UNL A   1      40.456  37.373  40.898  1.00  0.00    -0.237 OA
ATOM     97  O   UNL A   1      38.241  37.965  39.993  1.00  0.00    -0.744 OA
ENDBRANCH  93  94
ENDBRANCH  61  86
ENDBRANCH  35  36
ENDBRANCH  27  30
ENDBRANCH  25  26
ENDBRANCH   1  25
TORSDOF 16
ENDMDL
MODEL 3
REMARK VINA RESULT:     -11.6      2.630      3.469
REMARK SMILES CC(C)N1C(=O)C[C@@H]([N@@H+]2CC[C@H](C(=O)NCCCCNC(=O)c3ccc(-c4c5nc(c(-c6c(F)cc(S(=O)(=O)[O-])cc6F)c6ccc([nH]6)c(-c6c(F)cc(S(=O)(=O)[O-])cc6F)c6nc(c(-c7c(F)cc(S(=O)(=O)[O-])cc7F)c7ccc4[nH]7)C=C6)C=C5)cc3)[C@@H]2C)C1=O
REMARK SMILES IDX 18 1 17 2 16 3 15 4 13 5 14 6 12 8 9 9 10 10 89 11 11 13
REMARK SMILES IDX 90 14 8 15 4 16 5 17 91 18 6 19 7 20 92 21 2 22 1 23 3 24
REMARK SMILES IDX 19 25 20 26 21 27 22 29 23 30 24 31 88 32 25 33 87 34 26 35
REMARK SMILES IDX 27 36 28 37 81 38 29 39 86 40 80 41 82 42 30 43 85 44 79 45
REMARK SMILES IDX 78 46 31 48 65 49 44 50 64 51 45 52 48 53 63 54 83 55 46 56
REMARK SMILES IDX 47 57 62 59 84 60 49 61 32 62 33 63 42 64 34 65 35 66 41 67
REMARK SMILES IDX 43 68 36 69 37 70 38 71 39 72 40 73 66 74 67 75 76 76 68 77
REMARK SMILES IDX 69 78 75 79 77 80 70 81 71 82 72 83 73 84 74 85 50 86 51 87
REMARK SMILES IDX 60 88 52 89 53 90 59 91 61 92 54 93 55 94 56 95 57 96 58 97
REMARK H PARENT 15 7 9 12 20 28 82 47 48 58
REMARK Flexibility Score: inf
ROOT
ATOM      1  C   UNL A   1      33.804  29.922  27.141  1.00  0.00     0.023 C 
ENDROOT
BRANCH   1   2
ATOM      2  C   UNL A   1      33.573  28.968  25.967  1.00  0.00     0.023 C 
BRANCH   2   3
ATOM      3  C   UNL A   1      33.436  27.495  26.341  1.00  0.00     0.116 C 
BRANCH   3   4
ATOM      4  N   UNL A   1      32.654  26.748  25.373  1.00  0.00    -0.356 N 
ATOM      5  C   UNL A   1      32.339  25.425  25.321  1.00  0.00     0.229 C 
ATOM      6  O   UNL A   1      31.567  25.054  24.434  1.00  0.00    -0.275 OA
ATOM      7  H   UNL A   1      32.292  27.287  24.633  1.00  0.00     0.163 HD
BRANCH   5   8
ATOM      8  C   UNL A   1      32.951  24.447  26.316  1.00  0.00     0.142 C 
ATOM      9  N   UNL A   1      33.321  22.207  25.510  1.00  0.00    -0.321 N 
ATOM     10  C   UNL A   1      31.912  22.334  25.884  1.00  0.00     0.264 C 
ATOM     11  C   UNL A   1      33.994  23.505  25.686  1.00  0.00     0.194 C 
ATOM     12  H   UNL A   1      33.791  21.581  26.164  1.00  0.00     0.349 HD
ATOM     13  C   UNL A   1      31.884  23.498  26.852  1.00  0.00     0.081 C 
ATOM     14  C   UNL A   1      34.793  24.099  24.525  1.00  0.00     0.076 C 
BRANCH   9  15
ATOM     15  C   UNL A   1      33.595  21.411  24.306  1.00  0.00     0.284 C 
ATOM     16  N   UNL A   1      33.612  19.054  24.458  1.00  0.00    -0.275 N 
ATOM     17  C   UNL A   1      32.580  19.368  23.614  1.00  0.00     0.236 C 
ATOM     18  C   UNL A   1      34.391  20.161  24.670  1.00  0.00     0.288 C 
ATOM     19  O   UNL A   1      31.915  18.589  22.948  1.00  0.00    -0.274 OA
ATOM     20  C   UNL A   1      32.398  20.852  23.552  1.00  0.00     0.176 C 
ATOM     21  O   UNL A   1      35.551  20.185  25.065  1.00  0.00    -0.267 OA
BRANCH  16  22
ATOM     22  C   UNL A   1      33.994  17.663  24.759  1.00  0.00     0.087 C 
ATOM     23  C   UNL A   1      32.931  16.873  25.532  1.00  0.00     0.031 C 
ATOM     24  C   UNL A   1      34.307  16.871  23.477  1.00  0.00     0.031 C 
ENDBRANCH  16  22
ENDBRANCH   9  15
ENDBRANCH   5   8
ENDBRANCH   3   4
ENDBRANCH   2   3
ENDBRANCH   1   2
BRANCH   1  25
ATOM     25  C   UNL A   1      35.126  29.753  27.885  1.00  0.00     0.116 C 
BRANCH  25  26
ATOM     26  N   UNL A   1      35.266  30.655  29.019  1.00  0.00    -0.352 N 
ATOM     27  C   UNL A   1      36.354  30.878  29.829  1.00  0.00     0.251 C 
ATOM     28  H   UNL A   1      34.463  31.181  29.236  1.00  0.00     0.163 HD
ATOM     29  O   UNL A   1      36.239  31.603  30.814  1.00  0.00    -0.269 OA
BRANCH  27  30
ATOM     30  C   UNL A   1      37.644  30.217  29.538  1.00  0.00     0.039 A 
ATOM     31  C   UNL A   1      38.028  30.052  28.204  1.00  0.00     0.014 A 
ATOM     32  C   UNL A   1      38.483  29.783  30.568  1.00  0.00     0.014 A 
ATOM     33  C   UNL A   1      39.290  29.534  27.906  1.00  0.00     0.010 A 
ATOM     34  C   UNL A   1      39.767  29.329  30.271  1.00  0.00     0.010 A 
ATOM     35  C   UNL A   1      40.188  29.214  28.938  1.00  0.00    -0.014 A 
BRANCH  35  36
ATOM     36  C   UNL A   1      41.589  28.816  28.640  1.00  0.00     0.031 A 
ATOM     37  C   UNL A   1      42.688  29.841  28.608  1.00  0.00     0.074 A 
ATOM     38  C   UNL A   1      41.853  27.536  28.308  1.00  0.00     0.049 A 
ATOM     39  N   UNL A   1      43.950  29.688  28.297  1.00  0.00    -0.248 NA
ATOM     40  C   UNL A   1      42.315  31.224  28.943  1.00  0.00     0.031 C 
ATOM     41  C   UNL A   1      40.861  26.461  28.238  1.00  0.00     0.029 A 
ATOM     42  N   UNL A   1      43.028  26.925  27.947  1.00  0.00    -0.354 N 
ATOM     43  C   UNL A   1      44.518  30.953  28.381  1.00  0.00     0.074 A 
ATOM     44  C   UNL A   1      43.453  31.869  28.731  1.00  0.00     0.031 C 
ATOM     45  C   UNL A   1      41.469  25.323  27.868  1.00  0.00     0.029 A 
ATOM     46  C   UNL A   1      42.885  25.594  27.638  1.00  0.00     0.049 A 
ATOM     47  H   UNL A   1      43.891  27.397  27.913  1.00  0.00     0.167 HD
ATOM     48  C   UNL A   1      45.811  31.314  28.197  1.00  0.00     0.037 A 
ATOM     49  C   UNL A   1      43.786  24.691  27.202  1.00  0.00     0.037 A 
ATOM     50  C   UNL A   1      46.869  30.393  27.870  1.00  0.00     0.049 A 
ATOM     51  C   UNL A   1      45.217  25.110  27.018  1.00  0.00     0.074 A 
ATOM     52  C   UNL A   1      48.225  30.645  27.756  1.00  0.00     0.029 A 
ATOM     53  N   UNL A   1      46.690  29.046  27.589  1.00  0.00    -0.354 N 
ATOM     54  N   UNL A   1      45.756  26.292  27.194  1.00  0.00    -0.248 NA
ATOM     55  C   UNL A   1      46.164  24.074  26.583  1.00  0.00     0.031 C 
ATOM     56  C   UNL A   1      48.860  29.463  27.359  1.00  0.00     0.029 A 
ATOM     57  C   UNL A   1      47.907  28.462  27.269  1.00  0.00     0.049 A 
ATOM     58  H   UNL A   1      45.827  28.574  27.613  1.00  0.00     0.167 HD
ATOM     59  C   UNL A   1      47.106  26.143  26.899  1.00  0.00     0.074 A 
ATOM     60  C   UNL A   1      47.304  24.750  26.553  1.00  0.00     0.031 C 
ATOM     61  C   UNL A   1      48.090  27.077  26.910  1.00  0.00     0.037 A 
BRANCH  48  62
ATOM     62  C   UNL A   1      46.152  32.772  28.339  1.00  0.00     0.058 A 
ATOM     63  C   UNL A   1      46.083  33.657  27.251  1.00  0.00     0.135 A 
ATOM     64  C   UNL A   1      46.530  33.297  29.586  1.00  0.00     0.135 A 
ATOM     65  F   UNL A   1      45.738  33.207  26.034  1.00  0.00    -0.206 F 
ATOM     66  C   UNL A   1      46.414  35.002  27.384  1.00  0.00     0.059 A 
ATOM     67  C   UNL A   1      46.840  34.645  29.748  1.00  0.00     0.059 A 
ATOM     68  F   UNL A   1      46.610  32.497  30.660  1.00  0.00    -0.206 F 
ATOM     69  C   UNL A   1      46.796  35.485  28.636  1.00  0.00     0.060 A 
BRANCH  69  70
ATOM     70  S   UNL A   1      47.238  37.229  28.791  1.00  0.00     0.124 S 
ATOM     71  O   UNL A   1      48.232  37.371  27.731  1.00  0.00    -0.237 OA
ATOM     72  O   UNL A   1      45.962  37.898  28.556  1.00  0.00    -0.237 OA
ATOM     73  O   UNL A   1      47.754  37.331  30.152  1.00  0.00    -0.744 OA
ENDBRANCH  69  70
ENDBRANCH  48  62
BRANCH  49  74
ATOM     74  C   UNL A   1      43.349  23.298  26.925  1.00  0.00     0.058 A 
ATOM     75  C   UNL A   1      43.281  22.809  25.613  1.00  0.00     0.135 A 
ATOM     76  C   UNL A   1      43.039  22.413  27.970  1.00  0.00     0.135 A 
ATOM     77  F   UNL A   1      43.560  23.620  24.581  1.00  0.00    -0.206 F 
ATOM     78  C   UNL A   1      42.926  21.492  25.344  1.00  0.00     0.059 A 
ATOM     79  C   UNL A   1      42.703  21.085  27.728  1.00  0.00     0.059 A 
ATOM     80  F   UNL A   1      43.104  22.829  29.245  1.00  0.00    -0.206 F 
ATOM     81  C   UNL A   1      42.647  20.634  26.410  1.00  0.00     0.060 A 
BRANCH  81  82
ATOM     82  S   UNL A   1      42.274  18.903  26.055  1.00  0.00     0.124 S 
ATOM     83  O   UNL A   1      40.849  18.965  25.750  1.00  0.00    -0.237 OA
ATOM     84  O   UNL A   1      43.158  18.624  24.927  1.00  0.00    -0.237 OA
ATOM     85  O   UNL A   1      42.626  18.223  27.298  1.00  0.00    -0.744 OA
ENDBRANCH  81  82
ENDBRANCH  49  74
BRANCH  61  86
ATOM     86  C   UNL A   1      49.475  26.624  26.540  1.00  0.00     0.058 A 
ATOM     87  C   UNL A   1      50.333  26.042  27.487  1.00  0.00     0.135 A 
ATOM     88  C   UNL A   1      49.932  26.726  25.216  1.00  0.00     0.135 A 
ATOM     89  F   UNL A   1      49.949  25.929  28.767  1.00  0.00    -0.206 F 
ATOM     90  C   UNL A   1      51.604  25.597  27.138  1.00  0.00     0.059 A 
ATOM     91  C   UNL A   1      51.190  26.264  24.840  1.00  0.00     0.059 A 
ATOM     92  F   UNL A   1      49.147  27.267  24.270  1.00  0.00    -0.206 F 
ATOM     93  C   UNL A   1      52.023  25.710  25.811  1.00  0.00     0.060 A 
BRANCH  93  94
ATOM     94  S   UNL A   1      53.661  25.097  25.364  1.00  0.00     0.124 S 
ATOM     95  O   UNL A   1      53.447  23.653  25.371  1.00  0.00    -0.237 OA
ATOM     96  O   UNL A   1      53.875  25.699  24.052  1.00  0.00    -0.237 OA
ATOM     97  O   UNL A   1      54.517  25.609  26.431  1.00  0.00    -0.744 OA
ENDBRANCH  93  94
ENDBRANCH  61  86
ENDBRANCH  35  36
ENDBRANCH  27  30
ENDBRANCH  25  26
ENDBRANCH   1  25
TORSDOF 16
ENDMDL
