MODEL 1
REMARK VINA RESULT:     -11.3      0.000      0.000
REMARK SMILES NNC(=O)c1cccc([N+](=O)[O-])c1C(=O)NCCCCNC(=O)c1ccc(-c2c3nc(c(-c4c(F)cc(S(=O)(=O)[O-])cc4F)c4ccc([nH]4)c(-c4c(F)cc(S(=O)(=O)[O-])cc4F)c4nc(c(-c5c(F)cc(S(=O)(=O)[O-])cc5F)c5ccc2[nH]5)C=C4)C=C3)cc1
REMARK SMILES IDX 19 1 18 2 17 3 16 4 14 5 15 6 13 8 5 9 6 10 7 11 9 12 8 13
REMARK SMILES IDX 3 14 2 15 4 17 1 18 10 21 11 22 12 23 20 24 21 25 22 26
REMARK SMILES IDX 23 28 24 29 25 30 89 31 26 32 88 33 27 34 28 35 29 36 82 37
REMARK SMILES IDX 30 38 87 39 81 40 83 41 31 42 86 43 80 44 79 45 32 47 66 48
REMARK SMILES IDX 45 49 65 50 46 51 49 52 64 53 84 54 47 55 48 56 63 58 85 59
REMARK SMILES IDX 50 60 33 61 34 62 43 63 35 64 36 65 42 66 44 67 37 68 38 69
REMARK SMILES IDX 39 70 40 71 41 72 67 73 68 74 77 75 69 76 70 77 76 78 78 79
REMARK SMILES IDX 71 80 72 81 73 82 74 83 75 84 51 85 52 86 61 87 53 88 54 89
REMARK SMILES IDX 60 90 62 91 55 92 56 93 57 94 58 95 59 96
REMARK H PARENT 16 7 2 16 1 19 1 20 21 27 83 46 49 57
REMARK Flexibility Score: inf
ROOT
ATOM      1  C   UNL A   1      31.975  28.044  27.090  1.00  0.00     0.023 C 
ENDROOT
BRANCH   1   2
ATOM      2  C   UNL A   1      31.838  26.668  26.432  1.00  0.00     0.023 C 
BRANCH   2   3
ATOM      3  C   UNL A   1      32.862  26.310  25.360  1.00  0.00     0.116 C 
BRANCH   3   4
ATOM      4  N   UNL A   1      34.035  25.599  25.832  1.00  0.00    -0.352 N 
ATOM      5  C   UNL A   1      34.443  24.311  25.591  1.00  0.00     0.259 C 
ATOM      6  O   UNL A   1      35.594  23.987  25.877  1.00  0.00    -0.269 OA
ATOM      7  H   UNL A   1      34.631  26.122  26.416  1.00  0.00     0.163 HD
BRANCH   5   8
ATOM      8  C   UNL A   1      33.574  23.269  25.004  1.00  0.00     0.130 A 
ATOM      9  C   UNL A   1      32.617  22.542  25.725  1.00  0.00     0.060 A 
ATOM     10  C   UNL A   1      31.822  21.567  25.085  1.00  0.00     0.015 A 
ATOM     11  C   UNL A   1      31.904  21.362  23.709  1.00  0.00     0.008 A 
ATOM     12  C   UNL A   1      33.608  23.067  23.612  1.00  0.00     0.282 A 
ATOM     13  C   UNL A   1      32.788  22.129  22.961  1.00  0.00     0.086 A 
BRANCH   9  14
ATOM     14  C   UNL A   1      32.366  22.690  27.170  1.00  0.00     0.266 C 
ATOM     15  N   UNL A   1      33.204  22.098  28.095  1.00  0.00    -0.290 N 
ATOM     16  H   UNL A   1      32.927  22.109  29.040  1.00  0.00     0.184 HD
ATOM     17  O   UNL A   1      31.397  23.356  27.526  1.00  0.00    -0.268 OA
BRANCH  15  18
ATOM     18  N   UNL A   1      34.423  21.485  27.775  1.00  0.00    -0.248 NA
ATOM     19  H   UNL A   1      34.940  21.290  28.632  1.00  0.00     0.143 HD
ATOM     20  H   UNL A   1      34.972  22.107  27.181  1.00  0.00     0.143 HD
ENDBRANCH  15  18
ENDBRANCH   9  14
BRANCH  12  21
ATOM     21  N   UNL A   1      34.532  23.806  22.770  1.00  0.00     0.063 N 
ATOM     22  O   UNL A   1      35.637  23.285  22.560  1.00  0.00    -0.258 OA
ATOM     23  O   UNL A   1      34.190  24.947  22.431  1.00  0.00    -0.258 OA
ENDBRANCH  12  21
ENDBRANCH   5   8
ENDBRANCH   3   4
ENDBRANCH   2   3
ENDBRANCH   1   2
BRANCH   1  24
ATOM     24  C   UNL A   1      33.379  28.631  27.230  1.00  0.00     0.116 C 
BRANCH  24  25
ATOM     25  N   UNL A   1      33.418  30.002  27.713  1.00  0.00    -0.352 N 
ATOM     26  C   UNL A   1      34.455  30.730  28.263  1.00  0.00     0.251 C 
ATOM     27  H   UNL A   1      32.567  30.491  27.636  1.00  0.00     0.163 HD
ATOM     28  O   UNL A   1      34.258  31.877  28.634  1.00  0.00    -0.269 OA
BRANCH  26  29
ATOM     29  C   UNL A   1      35.792  30.113  28.454  1.00  0.00     0.039 A 
ATOM     30  C   UNL A   1      36.673  30.085  27.367  1.00  0.00     0.014 A 
ATOM     31  C   UNL A   1      36.189  29.586  29.682  1.00  0.00     0.014 A 
ATOM     32  C   UNL A   1      37.986  29.636  27.546  1.00  0.00     0.010 A 
ATOM     33  C   UNL A   1      37.519  29.212  29.879  1.00  0.00     0.010 A 
ATOM     34  C   UNL A   1      38.439  29.252  28.819  1.00  0.00    -0.014 A 
BRANCH  34  35
ATOM     35  C   UNL A   1      39.870  28.931  29.073  1.00  0.00     0.031 A 
ATOM     36  C   UNL A   1      40.804  29.983  29.609  1.00  0.00     0.074 A 
ATOM     37  C   UNL A   1      40.354  27.718  28.733  1.00  0.00     0.049 A 
ATOM     38  N   UNL A   1      42.100  29.930  29.777  1.00  0.00    -0.248 NA
ATOM     39  C   UNL A   1      40.203  31.276  29.975  1.00  0.00     0.031 C 
ATOM     40  C   UNL A   1      39.570  26.624  28.155  1.00  0.00     0.029 A 
ATOM     41  N   UNL A   1      41.626  27.207  28.806  1.00  0.00    -0.354 N 
ATOM     42  C   UNL A   1      42.475  31.184  30.244  1.00  0.00     0.074 A 
ATOM     43  C   UNL A   1      41.274  31.991  30.291  1.00  0.00     0.031 C 
ATOM     44  C   UNL A   1      40.373  25.568  27.943  1.00  0.00     0.029 A 
ATOM     45  C   UNL A   1      41.735  25.920  28.332  1.00  0.00     0.049 A 
ATOM     46  H   UNL A   1      42.391  27.713  29.165  1.00  0.00     0.167 HD
ATOM     47  C   UNL A   1      43.702  31.620  30.618  1.00  0.00     0.037 A 
ATOM     48  C   UNL A   1      42.809  25.115  28.210  1.00  0.00     0.037 A 
ATOM     49  C   UNL A   1      44.891  30.806  30.606  1.00  0.00     0.049 A 
ATOM     50  C   UNL A   1      44.159  25.615  28.649  1.00  0.00     0.074 A 
ATOM     51  C   UNL A   1      46.166  31.140  31.026  1.00  0.00     0.029 A 
ATOM     52  N   UNL A   1      44.949  29.496  30.155  1.00  0.00    -0.354 N 
ATOM     53  N   UNL A   1      44.483  26.788  29.138  1.00  0.00    -0.248 NA
ATOM     54  C   UNL A   1      45.288  24.681  28.524  1.00  0.00     0.031 C 
ATOM     55  C   UNL A   1      47.003  30.041  30.801  1.00  0.00     0.029 A 
ATOM     56  C   UNL A   1      46.241  29.011  30.276  1.00  0.00     0.049 A 
ATOM     57  H   UNL A   1      44.185  28.985  29.801  1.00  0.00     0.167 HD
ATOM     58  C   UNL A   1      45.847  26.725  29.402  1.00  0.00     0.074 A 
ATOM     59  C   UNL A   1      46.286  25.396  29.029  1.00  0.00     0.031 C 
ATOM     60  C   UNL A   1      46.662  27.682  29.910  1.00  0.00     0.037 A 
BRANCH  47  61
ATOM     61  C   UNL A   1      43.820  33.046  31.081  1.00  0.00     0.058 A 
ATOM     62  C   UNL A   1      44.133  34.084  30.189  1.00  0.00     0.135 A 
ATOM     63  C   UNL A   1      43.594  33.383  32.425  1.00  0.00     0.135 A 
ATOM     64  F   UNL A   1      44.372  33.816  28.896  1.00  0.00    -0.206 F 
ATOM     65  C   UNL A   1      44.256  35.401  30.619  1.00  0.00     0.059 A 
ATOM     66  C   UNL A   1      43.685  34.698  32.873  1.00  0.00     0.059 A 
ATOM     67  F   UNL A   1      43.289  32.431  33.320  1.00  0.00    -0.206 F 
ATOM     68  C   UNL A   1      44.033  35.698  31.965  1.00  0.00     0.060 A 
BRANCH  68  69
ATOM     69  S   UNL A   1      44.205  37.410  32.511  1.00  0.00     0.124 S 
ATOM     70  O   UNL A   1      45.618  37.456  32.877  1.00  0.00    -0.237 OA
ATOM     71  O   UNL A   1      43.836  38.160  31.315  1.00  0.00    -0.237 OA
ATOM     72  O   UNL A   1      43.265  37.506  33.624  1.00  0.00    -0.744 OA
ENDBRANCH  68  69
ENDBRANCH  47  61
BRANCH  48  73
ATOM     73  C   UNL A   1      42.651  23.740  27.668  1.00  0.00     0.058 A 
ATOM     74  C   UNL A   1      42.470  22.645  28.527  1.00  0.00     0.135 A 
ATOM     75  C   UNL A   1      42.668  23.491  26.286  1.00  0.00     0.135 A 
ATOM     76  F   UNL A   1      42.454  22.833  29.855  1.00  0.00    -0.206 F 
ATOM     77  C   UNL A   1      42.324  21.352  28.039  1.00  0.00     0.059 A 
ATOM     78  C   UNL A   1      42.503  22.208  25.773  1.00  0.00     0.059 A 
ATOM     79  F   UNL A   1      42.823  24.506  25.422  1.00  0.00    -0.206 F 
ATOM     80  C   UNL A   1      42.342  21.143  26.659  1.00  0.00     0.060 A 
BRANCH  80  81
ATOM     81  S   UNL A   1      42.101  19.466  26.033  1.00  0.00     0.124 S 
ATOM     82  O   UNL A   1      42.549  18.663  27.165  1.00  0.00    -0.237 OA
ATOM     83  O   UNL A   1      40.667  19.441  25.760  1.00  0.00    -0.237 OA
ATOM     84  O   UNL A   1      42.956  19.425  24.851  1.00  0.00    -0.744 OA
ENDBRANCH  80  81
ENDBRANCH  48  73
BRANCH  60  85
ATOM     85  C   UNL A   1      48.104  27.320  30.125  1.00  0.00     0.058 A 
ATOM     86  C   UNL A   1      49.081  27.576  29.152  1.00  0.00     0.135 A 
ATOM     87  C   UNL A   1      48.522  26.760  31.344  1.00  0.00     0.135 A 
ATOM     88  F   UNL A   1      48.733  28.104  27.967  1.00  0.00    -0.206 F 
ATOM     89  C   UNL A   1      50.421  27.272  29.370  1.00  0.00     0.059 A 
ATOM     90  C   UNL A   1      49.860  26.470  31.593  1.00  0.00     0.059 A 
ATOM     91  F   UNL A   1      47.628  26.505  32.312  1.00  0.00    -0.206 F 
ATOM     92  C   UNL A   1      50.801  26.720  30.595  1.00  0.00     0.060 A 
BRANCH  92  93
ATOM     93  S   UNL A   1      52.548  26.367  30.884  1.00  0.00     0.124 S 
ATOM     94  O   UNL A   1      53.057  26.262  29.520  1.00  0.00    -0.237 OA
ATOM     95  O   UNL A   1      52.986  27.539  31.636  1.00  0.00    -0.237 OA
ATOM     96  O   UNL A   1      52.521  25.119  31.642  1.00  0.00    -0.744 OA
ENDBRANCH  92  93
ENDBRANCH  60  85
ENDBRANCH  34  35
ENDBRANCH  26  29
ENDBRANCH  24  25
ENDBRANCH   1  24
TORSDOF 17
ENDMDL
MODEL 2
REMARK VINA RESULT:     -11.0      4.964     10.439
REMARK SMILES NNC(=O)c1cccc([N+](=O)[O-])c1C(=O)NCCCCNC(=O)c1ccc(-c2c3nc(c(-c4c(F)cc(S(=O)(=O)[O-])cc4F)c4ccc([nH]4)c(-c4c(F)cc(S(=O)(=O)[O-])cc4F)c4nc(c(-c5c(F)cc(S(=O)(=O)[O-])cc5F)c5ccc2[nH]5)C=C4)C=C3)cc1
REMARK SMILES IDX 19 1 18 2 17 3 16 4 14 5 15 6 13 8 5 9 6 10 7 11 9 12 8 13
REMARK SMILES IDX 3 14 2 15 4 17 1 18 10 21 11 22 12 23 20 24 21 25 22 26
REMARK SMILES IDX 23 28 24 29 25 30 89 31 26 32 88 33 27 34 28 35 29 36 82 37
REMARK SMILES IDX 30 38 87 39 81 40 83 41 31 42 86 43 80 44 79 45 32 47 66 48
REMARK SMILES IDX 45 49 65 50 46 51 49 52 64 53 84 54 47 55 48 56 63 58 85 59
REMARK SMILES IDX 50 60 33 61 34 62 43 63 35 64 36 65 42 66 44 67 37 68 38 69
REMARK SMILES IDX 39 70 40 71 41 72 67 73 68 74 77 75 69 76 70 77 76 78 78 79
REMARK SMILES IDX 71 80 72 81 73 82 74 83 75 84 51 85 52 86 61 87 53 88 54 89
REMARK SMILES IDX 60 90 62 91 55 92 56 93 57 94 58 95 59 96
REMARK H PARENT 16 7 2 16 1 19 1 20 21 27 83 46 49 57
REMARK Flexibility Score: inf
ROOT
ATOM      1  C   UNL A   1      37.612  23.787  26.021  1.00  0.00     0.023 C 
ENDROOT
BRANCH   1   2
ATOM      2  C   UNL A   1      37.142  22.802  24.946  1.00  0.00     0.023 C 
BRANCH   2   3
ATOM      3  C   UNL A   1      36.539  21.487  25.428  1.00  0.00     0.116 C 
BRANCH   3   4
ATOM      4  N   UNL A   1      35.584  21.602  26.514  1.00  0.00    -0.352 N 
ATOM      5  C   UNL A   1      34.212  21.609  26.485  1.00  0.00     0.259 C 
ATOM      6  O   UNL A   1      33.592  21.459  27.535  1.00  0.00    -0.269 OA
ATOM      7  H   UNL A   1      35.981  21.689  27.410  1.00  0.00     0.163 HD
BRANCH   5   8
ATOM      8  C   UNL A   1      33.416  21.793  25.252  1.00  0.00     0.130 A 
ATOM      9  C   UNL A   1      33.082  23.040  24.706  1.00  0.00     0.060 A 
ATOM     10  C   UNL A   1      32.323  23.126  23.520  1.00  0.00     0.015 A 
ATOM     11  C   UNL A   1      31.961  21.982  22.813  1.00  0.00     0.008 A 
ATOM     12  C   UNL A   1      33.069  20.657  24.497  1.00  0.00     0.282 A 
ATOM     13  C   UNL A   1      32.352  20.738  23.290  1.00  0.00     0.086 A 
BRANCH   9  14
ATOM     14  C   UNL A   1      33.447  24.339  25.301  1.00  0.00     0.266 C 
ATOM     15  N   UNL A   1      32.725  24.858  26.358  1.00  0.00    -0.290 N 
ATOM     16  H   UNL A   1      32.916  25.783  26.636  1.00  0.00     0.184 HD
ATOM     17  O   UNL A   1      34.411  24.941  24.834  1.00  0.00    -0.268 OA
BRANCH  15  18
ATOM     18  N   UNL A   1      31.738  24.152  27.060  1.00  0.00    -0.248 NA
ATOM     19  H   UNL A   1      31.325  23.448  26.448  1.00  0.00     0.143 HD
ATOM     20  H   UNL A   1      31.013  24.799  27.372  1.00  0.00     0.143 HD
ENDBRANCH  15  18
ENDBRANCH   9  14
BRANCH  12  21
ATOM     21  N   UNL A   1      33.412  19.322  24.952  1.00  0.00     0.063 N 
ATOM     22  O   UNL A   1      34.527  18.889  24.627  1.00  0.00    -0.258 OA
ATOM     23  O   UNL A   1      32.521  18.677  25.520  1.00  0.00    -0.258 OA
ENDBRANCH  12  21
ENDBRANCH   5   8
ENDBRANCH   3   4
ENDBRANCH   2   3
ENDBRANCH   1   2
BRANCH   1  24
ATOM     24  C   UNL A   1      38.829  23.397  26.859  1.00  0.00     0.116 C 
BRANCH  24  25
ATOM     25  N   UNL A   1      40.110  23.622  26.210  1.00  0.00    -0.352 N 
ATOM     26  C   UNL A   1      41.019  24.653  26.352  1.00  0.00     0.251 C 
ATOM     27  H   UNL A   1      40.373  22.928  25.563  1.00  0.00     0.163 HD
ATOM     28  O   UNL A   1      42.037  24.659  25.676  1.00  0.00    -0.269 OA
BRANCH  26  29
ATOM     29  C   UNL A   1      40.746  25.777  27.282  1.00  0.00     0.039 A 
ATOM     30  C   UNL A   1      39.831  25.575  28.321  1.00  0.00     0.014 A 
ATOM     31  C   UNL A   1      41.389  27.008  27.155  1.00  0.00     0.014 A 
ATOM     32  C   UNL A   1      39.651  26.564  29.293  1.00  0.00     0.010 A 
ATOM     33  C   UNL A   1      41.267  27.961  28.166  1.00  0.00     0.010 A 
ATOM     34  C   UNL A   1      40.413  27.743  29.258  1.00  0.00    -0.014 A 
BRANCH  34  35
ATOM     35  C   UNL A   1      40.366  28.735  30.367  1.00  0.00     0.031 A 
ATOM     36  C   UNL A   1      41.256  28.577  31.570  1.00  0.00     0.074 A 
ATOM     37  C   UNL A   1      39.454  29.730  30.336  1.00  0.00     0.049 A 
ATOM     38  N   UNL A   1      41.270  29.264  32.684  1.00  0.00    -0.248 NA
ATOM     39  C   UNL A   1      42.238  27.482  31.527  1.00  0.00     0.031 C 
ATOM     40  C   UNL A   1      38.494  29.966  29.254  1.00  0.00     0.029 A 
ATOM     41  N   UNL A   1      39.171  30.717  31.247  1.00  0.00    -0.354 N 
ATOM     42  C   UNL A   1      42.242  28.673  33.483  1.00  0.00     0.074 A 
ATOM     43  C   UNL A   1      42.764  27.543  32.742  1.00  0.00     0.031 C 
ATOM     44  C   UNL A   1      37.742  31.038  29.557  1.00  0.00     0.029 A 
ATOM     45  C   UNL A   1      38.137  31.542  30.869  1.00  0.00     0.049 A 
ATOM     46  H   UNL A   1      39.661  30.825  32.094  1.00  0.00     0.167 HD
ATOM     47  C   UNL A   1      42.674  29.046  34.711  1.00  0.00     0.037 A 
ATOM     48  C   UNL A   1      37.560  32.579  31.507  1.00  0.00     0.037 A 
ATOM     49  C   UNL A   1      42.181  30.191  35.432  1.00  0.00     0.049 A 
ATOM     50  C   UNL A   1      38.070  32.987  32.863  1.00  0.00     0.074 A 
ATOM     51  C   UNL A   1      42.601  30.685  36.655  1.00  0.00     0.029 A 
ATOM     52  N   UNL A   1      41.161  31.023  34.995  1.00  0.00    -0.354 N 
ATOM     53  N   UNL A   1      39.027  32.446  33.579  1.00  0.00    -0.248 NA
ATOM     54  C   UNL A   1      37.425  34.146  33.497  1.00  0.00     0.031 C 
ATOM     55  C   UNL A   1      41.815  31.798  36.971  1.00  0.00     0.029 A 
ATOM     56  C   UNL A   1      40.930  32.020  35.929  1.00  0.00     0.049 A 
ATOM     57  H   UNL A   1      40.672  30.920  34.146  1.00  0.00     0.167 HD
ATOM     58  C   UNL A   1      39.116  33.214  34.735  1.00  0.00     0.074 A 
ATOM     59  C   UNL A   1      38.123  34.263  34.619  1.00  0.00     0.031 C 
ATOM     60  C   UNL A   1      39.945  33.064  35.796  1.00  0.00     0.037 A 
BRANCH  47  61
ATOM     61  C   UNL A   1      43.745  28.207  35.353  1.00  0.00     0.058 A 
ATOM     62  C   UNL A   1      43.427  27.139  36.206  1.00  0.00     0.135 A 
ATOM     63  C   UNL A   1      45.102  28.458  35.095  1.00  0.00     0.135 A 
ATOM     64  F   UNL A   1      42.146  26.863  36.498  1.00  0.00    -0.206 F 
ATOM     65  C   UNL A   1      44.417  26.371  36.811  1.00  0.00     0.059 A 
ATOM     66  C   UNL A   1      46.109  27.687  35.668  1.00  0.00     0.059 A 
ATOM     67  F   UNL A   1      45.462  29.466  34.285  1.00  0.00    -0.206 F 
ATOM     68  C   UNL A   1      45.757  26.656  36.539  1.00  0.00     0.060 A 
BRANCH  68  69
ATOM     69  S   UNL A   1      47.031  25.658  37.338  1.00  0.00     0.124 S 
ATOM     70  O   UNL A   1      47.200  24.577  36.370  1.00  0.00    -0.237 OA
ATOM     71  O   UNL A   1      48.146  26.593  37.440  1.00  0.00    -0.237 OA
ATOM     72  O   UNL A   1      46.417  25.275  38.605  1.00  0.00    -0.744 OA
ENDBRANCH  68  69
ENDBRANCH  47  61
BRANCH  48  73
ATOM     73  C   UNL A   1      36.447  33.325  30.861  1.00  0.00     0.058 A 
ATOM     74  C   UNL A   1      35.131  33.196  31.328  1.00  0.00     0.135 A 
ATOM     75  C   UNL A   1      36.675  34.184  29.775  1.00  0.00     0.135 A 
ATOM     76  F   UNL A   1      34.863  32.380  32.359  1.00  0.00    -0.206 F 
ATOM     77  C   UNL A   1      34.077  33.881  30.735  1.00  0.00     0.059 A 
ATOM     78  C   UNL A   1      35.640  34.898  29.179  1.00  0.00     0.059 A 
ATOM     79  F   UNL A   1      37.920  34.354  29.301  1.00  0.00    -0.206 F 
ATOM     80  C   UNL A   1      34.341  34.731  29.660  1.00  0.00     0.060 A 
BRANCH  80  81
ATOM     81  S   UNL A   1      32.973  35.656  28.928  1.00  0.00     0.124 S 
ATOM     82  O   UNL A   1      33.679  36.746  28.264  1.00  0.00    -0.237 OA
ATOM     83  O   UNL A   1      32.363  34.661  28.050  1.00  0.00    -0.237 OA
ATOM     84  O   UNL A   1      32.169  36.035  30.085  1.00  0.00    -0.744 OA
ENDBRANCH  80  81
ENDBRANCH  48  73
BRANCH  60  85
ATOM     85  C   UNL A   1      39.844  34.076  36.903  1.00  0.00     0.058 A 
ATOM     86  C   UNL A   1      40.407  35.355  36.785  1.00  0.00     0.135 A 
ATOM     87  C   UNL A   1      39.129  33.778  38.074  1.00  0.00     0.135 A 
ATOM     88  F   UNL A   1      41.106  35.688  35.688  1.00  0.00    -0.206 F 
ATOM     89  C   UNL A   1      40.279  36.300  37.798  1.00  0.00     0.059 A 
ATOM     90  C   UNL A   1      38.969  34.715  39.090  1.00  0.00     0.059 A 
ATOM     91  F   UNL A   1      38.564  32.571  38.232  1.00  0.00    -0.206 F 
ATOM     92  C   UNL A   1      39.558  35.971  38.946  1.00  0.00     0.060 A 
BRANCH  92  93
ATOM     93  S   UNL A   1      39.364  37.218  40.238  1.00  0.00     0.124 S 
ATOM     94  O   UNL A   1      40.748  37.434  40.648  1.00  0.00    -0.237 OA
ATOM     95  O   UNL A   1      38.737  38.322  39.518  1.00  0.00    -0.237 OA
ATOM     96  O   UNL A   1      38.513  36.558  41.222  1.00  0.00    -0.744 OA
ENDBRANCH  92  93
ENDBRANCH  60  85
ENDBRANCH  34  35
ENDBRANCH  26  29
ENDBRANCH  24  25
ENDBRANCH   1  24
TORSDOF 17
ENDMDL
MODEL 3
REMARK VINA RESULT:     -11.0      6.117     10.994
REMARK SMILES NNC(=O)c1cccc([N+](=O)[O-])c1C(=O)NCCCCNC(=O)c1ccc(-c2c3nc(c(-c4c(F)cc(S(=O)(=O)[O-])cc4F)c4ccc([nH]4)c(-c4c(F)cc(S(=O)(=O)[O-])cc4F)c4nc(c(-c5c(F)cc(S(=O)(=O)[O-])cc5F)c5ccc2[nH]5)C=C4)C=C3)cc1
REMARK SMILES IDX 19 1 18 2 17 3 16 4 14 5 15 6 13 8 5 9 6 10 7 11 9 12 8 13
REMARK SMILES IDX 3 14 2 15 4 17 1 18 10 21 11 22 12 23 20 24 21 25 22 26
REMARK SMILES IDX 23 28 24 29 25 30 89 31 26 32 88 33 27 34 28 35 29 36 82 37
REMARK SMILES IDX 30 38 87 39 81 40 83 41 31 42 86 43 80 44 79 45 32 47 66 48
REMARK SMILES IDX 45 49 65 50 46 51 49 52 64 53 84 54 47 55 48 56 63 58 85 59
REMARK SMILES IDX 50 60 33 61 34 62 43 63 35 64 36 65 42 66 44 67 37 68 38 69
REMARK SMILES IDX 39 70 40 71 41 72 67 73 68 74 77 75 69 76 70 77 76 78 78 79
REMARK SMILES IDX 71 80 72 81 73 82 74 83 75 84 51 85 52 86 61 87 53 88 54 89
REMARK SMILES IDX 60 90 62 91 55 92 56 93 57 94 58 95 59 96
REMARK H PARENT 16 7 2 16 1 19 1 20 21 27 83 46 49 57
REMARK Flexibility Score: inf
ROOT
ATOM      1  C   UNL A   1      44.982  25.203  27.641  1.00  0.00     0.023 C 
ENDROOT
BRANCH   1   2
ATOM      2  C   UNL A   1      46.091  24.165  27.445  1.00  0.00     0.023 C 
BRANCH   2   3
ATOM      3  C   UNL A   1      45.688  22.832  26.822  1.00  0.00     0.116 C 
BRANCH   3   4
ATOM      4  N   UNL A   1      45.200  22.905  25.458  1.00  0.00    -0.352 N 
ATOM      5  C   UNL A   1      44.254  22.145  24.817  1.00  0.00     0.259 C 
ATOM      6  O   UNL A   1      43.805  22.533  23.741  1.00  0.00    -0.269 OA
ATOM      7  H   UNL A   1      45.611  23.609  24.906  1.00  0.00     0.163 HD
BRANCH   5   8
ATOM      8  C   UNL A   1      43.734  20.864  25.343  1.00  0.00     0.130 A 
ATOM      9  C   UNL A   1      44.384  19.630  25.200  1.00  0.00     0.060 A 
ATOM     10  C   UNL A   1      43.820  18.454  25.740  1.00  0.00     0.015 A 
ATOM     11  C   UNL A   1      42.653  18.499  26.500  1.00  0.00     0.008 A 
ATOM     12  C   UNL A   1      42.580  20.884  26.146  1.00  0.00     0.282 A 
ATOM     13  C   UNL A   1      42.037  19.723  26.725  1.00  0.00     0.086 A 
BRANCH   9  14
ATOM     14  C   UNL A   1      45.654  19.431  24.480  1.00  0.00     0.266 C 
ATOM     15  N   UNL A   1      45.662  19.148  23.128  1.00  0.00    -0.290 N 
ATOM     16  H   UNL A   1      46.518  18.890  22.716  1.00  0.00     0.184 HD
ATOM     17  O   UNL A   1      46.703  19.529  25.114  1.00  0.00    -0.268 OA
BRANCH  15  18
ATOM     18  N   UNL A   1      44.528  19.203  22.306  1.00  0.00    -0.248 NA
ATOM     19  H   UNL A   1      44.305  18.265  21.971  1.00  0.00     0.143 HD
ATOM     20  H   UNL A   1      44.715  19.812  21.509  1.00  0.00     0.143 HD
ENDBRANCH  15  18
ENDBRANCH   9  14
BRANCH  12  21
ATOM     21  N   UNL A   1      41.860  22.121  26.395  1.00  0.00     0.063 N 
ATOM     22  O   UNL A   1      42.371  22.912  27.200  1.00  0.00    -0.258 OA
ATOM     23  O   UNL A   1      40.740  22.231  25.879  1.00  0.00    -0.258 OA
ENDBRANCH  12  21
ENDBRANCH   5   8
ENDBRANCH   3   4
ENDBRANCH   2   3
ENDBRANCH   1   2
BRANCH   1  24
ATOM     24  C   UNL A   1      44.659  26.130  26.470  1.00  0.00     0.116 C 
BRANCH  24  25
ATOM     25  N   UNL A   1      43.529  25.708  25.658  1.00  0.00    -0.352 N 
ATOM     26  C   UNL A   1      42.179  25.972  25.793  1.00  0.00     0.251 C 
ATOM     27  H   UNL A   1      43.762  25.143  24.886  1.00  0.00     0.163 HD
ATOM     28  O   UNL A   1      41.386  25.486  25.001  1.00  0.00    -0.269 OA
BRANCH  26  29
ATOM     29  C   UNL A   1      41.681  26.799  26.920  1.00  0.00     0.039 A 
ATOM     30  C   UNL A   1      40.951  26.170  27.936  1.00  0.00     0.014 A 
ATOM     31  C   UNL A   1      41.937  28.167  26.997  1.00  0.00     0.014 A 
ATOM     32  C   UNL A   1      40.583  26.890  29.077  1.00  0.00     0.010 A 
ATOM     33  C   UNL A   1      41.639  28.864  28.168  1.00  0.00     0.010 A 
ATOM     34  C   UNL A   1      40.977  28.229  29.231  1.00  0.00    -0.014 A 
BRANCH  34  35
ATOM     35  C   UNL A   1      40.747  28.968  30.503  1.00  0.00     0.031 A 
ATOM     36  C   UNL A   1      39.665  30.011  30.592  1.00  0.00     0.074 A 
ATOM     37  C   UNL A   1      41.573  28.770  31.552  1.00  0.00     0.049 A 
ATOM     38  N   UNL A   1      39.395  30.841  31.568  1.00  0.00    -0.248 NA
ATOM     39  C   UNL A   1      38.791  30.160  29.418  1.00  0.00     0.031 C 
ATOM     40  C   UNL A   1      42.694  27.828  31.580  1.00  0.00     0.029 A 
ATOM     41  N   UNL A   1      41.609  29.362  32.789  1.00  0.00    -0.354 N 
ATOM     42  C   UNL A   1      38.340  31.626  31.118  1.00  0.00     0.074 A 
ATOM     43  C   UNL A   1      38.047  31.201  29.765  1.00  0.00     0.031 C 
ATOM     44  C   UNL A   1      43.296  27.894  32.779  1.00  0.00     0.029 A 
ATOM     45  C   UNL A   1      42.631  28.909  33.591  1.00  0.00     0.049 A 
ATOM     46  H   UNL A   1      40.965  30.048  33.077  1.00  0.00     0.167 HD
ATOM     47  C   UNL A   1      37.663  32.597  31.776  1.00  0.00     0.037 A 
ATOM     48  C   UNL A   1      43.002  29.274  34.834  1.00  0.00     0.037 A 
ATOM     49  C   UNL A   1      37.929  32.994  33.135  1.00  0.00     0.049 A 
ATOM     50  C   UNL A   1      42.223  30.342  35.553  1.00  0.00     0.074 A 
ATOM     51  C   UNL A   1      37.256  33.924  33.908  1.00  0.00     0.029 A 
ATOM     52  N   UNL A   1      38.947  32.481  33.925  1.00  0.00    -0.354 N 
ATOM     53  N   UNL A   1      41.194  31.036  35.129  1.00  0.00    -0.248 NA
ATOM     54  C   UNL A   1      42.653  30.676  36.919  1.00  0.00     0.031 C 
ATOM     55  C   UNL A   1      37.886  33.996  35.155  1.00  0.00     0.029 A 
ATOM     56  C   UNL A   1      38.929  33.083  35.172  1.00  0.00     0.049 A 
ATOM     57  H   UNL A   1      39.590  31.791  33.641  1.00  0.00     0.167 HD
ATOM     58  C   UNL A   1      40.838  31.869  36.184  1.00  0.00     0.074 A 
ATOM     59  C   UNL A   1      41.755  31.586  37.269  1.00  0.00     0.031 C 
ATOM     60  C   UNL A   1      39.841  32.785  36.248  1.00  0.00     0.037 A 
BRANCH  47  61
ATOM     61  C   UNL A   1      36.557  33.296  31.034  1.00  0.00     0.058 A 
ATOM     62  C   UNL A   1      36.828  34.203  29.997  1.00  0.00     0.135 A 
ATOM     63  C   UNL A   1      35.212  33.041  31.345  1.00  0.00     0.135 A 
ATOM     64  F   UNL A   1      38.097  34.494  29.667  1.00  0.00    -0.206 F 
ATOM     65  C   UNL A   1      35.807  34.860  29.319  1.00  0.00     0.059 A 
ATOM     66  C   UNL A   1      34.173  33.666  30.663  1.00  0.00     0.059 A 
ATOM     67  F   UNL A   1      34.896  32.181  32.326  1.00  0.00    -0.206 F 
ATOM     68  C   UNL A   1      34.481  34.588  29.662  1.00  0.00     0.060 A 
BRANCH  68  69
ATOM     69  S   UNL A   1      33.166  35.455  28.780  1.00  0.00     0.124 S 
ATOM     70  O   UNL A   1      32.375  35.983  29.889  1.00  0.00    -0.237 OA
ATOM     71  O   UNL A   1      33.906  36.445  28.005  1.00  0.00    -0.237 OA
ATOM     72  O   UNL A   1      32.528  34.400  28.001  1.00  0.00    -0.744 OA
ENDBRANCH  68  69
ENDBRANCH  47  61
BRANCH  48  73
ATOM     73  C   UNL A   1      44.156  28.606  35.493  1.00  0.00     0.058 A 
ATOM     74  C   UNL A   1      43.967  27.475  36.301  1.00  0.00     0.135 A 
ATOM     75  C   UNL A   1      45.468  29.076  35.322  1.00  0.00     0.135 A 
ATOM     76  F   UNL A   1      42.730  26.995  36.500  1.00  0.00    -0.206 F 
ATOM     77  C   UNL A   1      45.033  26.841  36.928  1.00  0.00     0.059 A 
ATOM     78  C   UNL A   1      46.553  28.444  35.922  1.00  0.00     0.059 A 
ATOM     79  F   UNL A   1      45.704  30.146  34.546  1.00  0.00    -0.206 F 
ATOM     80  C   UNL A   1      46.324  27.332  36.732  1.00  0.00     0.060 A 
BRANCH  80  81
ATOM     81  S   UNL A   1      47.708  26.471  37.510  1.00  0.00     0.124 S 
ATOM     82  O   UNL A   1      48.306  27.536  38.307  1.00  0.00    -0.237 OA
ATOM     83  O   UNL A   1      47.032  25.415  38.259  1.00  0.00    -0.237 OA
ATOM     84  O   UNL A   1      48.498  26.013  36.372  1.00  0.00    -0.744 OA
ENDBRANCH  80  81
ENDBRANCH  48  73
BRANCH  60  85
ATOM     85  C   UNL A   1      39.662  33.525  37.543  1.00  0.00     0.058 A 
ATOM     86  C   UNL A   1      40.371  34.703  37.822  1.00  0.00     0.135 A 
ATOM     87  C   UNL A   1      38.729  33.079  38.494  1.00  0.00     0.135 A 
ATOM     88  F   UNL A   1      41.279  35.167  36.949  1.00  0.00    -0.206 F 
ATOM     89  C   UNL A   1      40.176  35.405  39.007  1.00  0.00     0.059 A 
ATOM     90  C   UNL A   1      38.500  33.778  39.675  1.00  0.00     0.059 A 
ATOM     91  F   UNL A   1      38.018  31.963  38.270  1.00  0.00    -0.206 F 
ATOM     92  C   UNL A   1      39.237  34.935  39.927  1.00  0.00     0.060 A 
BRANCH  92  93
ATOM     93  S   UNL A   1      38.962  35.874  41.444  1.00  0.00     0.124 S 
ATOM     94  O   UNL A   1      40.149  35.533  42.221  1.00  0.00    -0.237 OA
ATOM     95  O   UNL A   1      38.897  37.248  40.956  1.00  0.00    -0.237 OA
ATOM     96  O   UNL A   1      37.703  35.337  41.953  1.00  0.00    -0.744 OA
ENDBRANCH  92  93
ENDBRANCH  60  85
ENDBRANCH  34  35
ENDBRANCH  26  29
ENDBRANCH  24  25
ENDBRANCH   1  24
TORSDOF 17
ENDMDL
