MODEL 1
REMARK VINA RESULT:     -11.0      0.000      0.000
REMARK SMILES CC1=NN(c2ccc(Cl)c(C(=O)NCCCCNC(=O)c3ccc(-c4c5nc(c(-c6c(F)cc(S(=O)(=O)[O-])cc6F)c6ccc([nH]6)c(-c6c(F)cc(S(=O)(=O)[O-])cc6F)c6nc(c(-c7c(F)cc(S(=O)(=O)[O-])cc7F)c7ccc4[nH]7)C=C6)C=C5)cc3)c2)C(=O)/C1=C\c1ccc(N(C)C)c(Br)c1
REMARK SMILES IDX 15 1 14 2 13 3 11 4 12 5 10 7 5 8 6 9 87 10 7 11 8 12 9 13
REMARK SMILES IDX 4 14 1 15 2 16 3 17 90 18 88 19 91 20 89 21 92 22 93 23
REMARK SMILES IDX 101 24 94 25 99 26 95 27 100 28 96 29 97 30 98 31 16 32
REMARK SMILES IDX 17 33 18 34 19 35 20 37 21 38 22 39 86 40 23 41 85 42 24 43
REMARK SMILES IDX 25 44 26 45 79 46 27 47 84 48 78 49 80 50 28 51 83 52 77 53
REMARK SMILES IDX 76 54 29 56 63 57 42 58 62 59 43 60 46 61 61 62 81 63 44 64
REMARK SMILES IDX 45 65 60 67 82 68 47 69 30 70 31 71 40 72 32 73 33 74 39 75
REMARK SMILES IDX 41 76 34 77 35 78 36 79 37 80 38 81 64 82 65 83 74 84 66 85
REMARK SMILES IDX 67 86 73 87 75 88 68 89 69 90 70 91 71 92 72 93 48 94 49 95
REMARK SMILES IDX 58 96 50 97 51 98 57 99 59 100 52 101 53 102 54 103 55 104
REMARK SMILES IDX 56 105
REMARK H PARENT 13 6 18 36 80 55 46 66
REMARK Flexibility Score: inf
ROOT
ATOM      1  C   UNL A   1      46.366  27.127  26.344  1.00  0.00     0.023 C 
ENDROOT
BRANCH   1   2
ATOM      2  C   UNL A   1      45.237  26.361  25.669  1.00  0.00     0.116 C 
BRANCH   2   3
ATOM      3  N   UNL A   1      44.279  27.181  24.948  1.00  0.00    -0.352 N 
ATOM      4  C   UNL A   1      42.943  27.412  25.198  1.00  0.00     0.252 C 
ATOM      5  O   UNL A   1      42.327  28.183  24.464  1.00  0.00    -0.269 OA
ATOM      6  H   UNL A   1      44.640  27.643  24.157  1.00  0.00     0.163 HD
BRANCH   4   7
ATOM      7  C   UNL A   1      42.196  26.706  26.274  1.00  0.00     0.060 A 
ATOM      8  C   UNL A   1      41.241  24.600  27.046  1.00  0.00     0.070 A 
ATOM      9  C   UNL A   1      40.823  25.246  28.215  1.00  0.00     0.030 A 
ATOM     10  C   UNL A   1      42.024  25.306  26.125  1.00  0.00     0.044 A 
ATOM     11  C   UNL A   1      40.969  26.618  28.359  1.00  0.00     0.023 A 
ATOM     12  C   UNL A   1      41.550  27.359  27.335  1.00  0.00     0.053 A 
ATOM     13  Cl  UNL A   1      41.219  29.056  27.378  1.00  0.00    -0.083 Cl
BRANCH   8  14
ATOM     14  N   UNL A   1      40.673  23.344  26.750  1.00  0.00    -0.196 N 
ATOM     15  C   UNL A   1      40.917  19.793  26.199  1.00  0.00     0.069 C 
ATOM     16  C   UNL A   1      40.577  21.243  26.314  1.00  0.00     0.071 C 
ATOM     17  N   UNL A   1      41.430  22.186  26.638  1.00  0.00    -0.169 NA
ATOM     18  C   UNL A   1      39.218  21.768  26.071  1.00  0.00     0.065 C 
ATOM     19  C   UNL A   1      39.308  23.187  26.464  1.00  0.00     0.280 C 
ATOM     20  C   UNL A   1      38.166  21.154  25.507  1.00  0.00     0.024 C 
ATOM     21  O   UNL A   1      38.395  23.994  26.494  1.00  0.00    -0.267 OA
BRANCH  20  22
ATOM     22  C   UNL A   1      36.974  21.898  25.070  1.00  0.00    -0.024 A 
ATOM     23  C   UNL A   1      36.863  22.442  23.803  1.00  0.00     0.010 A 
ATOM     24  C   UNL A   1      35.878  22.005  25.926  1.00  0.00     0.026 A 
ATOM     25  C   UNL A   1      35.657  23.051  23.400  1.00  0.00     0.028 A 
ATOM     26  C   UNL A   1      34.672  22.626  25.524  1.00  0.00     0.041 A 
ATOM     27  C   UNL A   1      34.506  23.174  24.225  1.00  0.00     0.051 A 
ATOM     28  Br  UNL A   1      33.384  22.641  26.940  1.00  0.00    -0.049 Br
BRANCH  27  29
ATOM     29  N   UNL A   1      33.363  23.803  23.722  1.00  0.00    -0.377 N 
ATOM     30  C   UNL A   1      33.185  25.256  23.745  1.00  0.00     0.143 C 
ATOM     31  C   UNL A   1      32.370  23.114  22.902  1.00  0.00     0.143 C 
ENDBRANCH  27  29
ENDBRANCH  20  22
ENDBRANCH   8  14
ENDBRANCH   4   7
ENDBRANCH   2   3
ENDBRANCH   1   2
BRANCH   1  32
ATOM     32  C   UNL A   1      47.519  26.290  26.895  1.00  0.00     0.023 C 
BRANCH  32  33
ATOM     33  C   UNL A   1      47.330  25.680  28.282  1.00  0.00     0.116 C 
BRANCH  33  34
ATOM     34  N   UNL A   1      46.535  24.461  28.296  1.00  0.00    -0.352 N 
ATOM     35  C   UNL A   1      45.353  24.184  28.946  1.00  0.00     0.251 C 
ATOM     36  H   UNL A   1      46.896  23.720  27.757  1.00  0.00     0.163 HD
ATOM     37  O   UNL A   1      44.871  23.057  28.878  1.00  0.00    -0.269 OA
BRANCH  35  38
ATOM     38  C   UNL A   1      44.685  25.226  29.762  1.00  0.00     0.039 A 
ATOM     39  C   UNL A   1      44.224  24.889  31.038  1.00  0.00     0.014 A 
ATOM     40  C   UNL A   1      44.532  26.530  29.288  1.00  0.00     0.014 A 
ATOM     41  C   UNL A   1      43.691  25.880  31.869  1.00  0.00     0.010 A 
ATOM     42  C   UNL A   1      44.085  27.531  30.147  1.00  0.00     0.010 A 
ATOM     43  C   UNL A   1      43.660  27.219  31.448  1.00  0.00    -0.014 A 
BRANCH  43  44
ATOM     44  C   UNL A   1      43.188  28.304  32.349  1.00  0.00     0.031 A 
ATOM     45  C   UNL A   1      43.913  28.586  33.639  1.00  0.00     0.074 A 
ATOM     46  C   UNL A   1      42.069  28.993  32.041  1.00  0.00     0.049 A 
ATOM     47  N   UNL A   1      43.619  29.445  34.582  1.00  0.00    -0.248 NA
ATOM     48  C   UNL A   1      45.108  27.774  33.920  1.00  0.00     0.031 C 
ATOM     49  C   UNL A   1      41.243  28.777  30.851  1.00  0.00     0.029 A 
ATOM     50  N   UNL A   1      41.429  30.009  32.706  1.00  0.00    -0.354 N 
ATOM     51  C   UNL A   1      44.579  29.265  35.571  1.00  0.00     0.074 A 
ATOM     52  C   UNL A   1      45.427  28.174  35.142  1.00  0.00     0.031 C 
ATOM     53  C   UNL A   1      40.225  29.654  30.856  1.00  0.00     0.029 A 
ATOM     54  C   UNL A   1      40.303  30.469  32.064  1.00  0.00     0.049 A 
ATOM     55  H   UNL A   1      41.746  30.374  33.564  1.00  0.00     0.167 HD
ATOM     56  C   UNL A   1      44.758  29.962  36.718  1.00  0.00     0.037 A 
ATOM     57  C   UNL A   1      39.431  31.437  32.408  1.00  0.00     0.037 A 
ATOM     58  C   UNL A   1      43.930  31.066  37.127  1.00  0.00     0.049 A 
ATOM     59  C   UNL A   1      39.655  32.207  33.682  1.00  0.00     0.074 A 
ATOM     60  C   UNL A   1      44.062  31.876  38.241  1.00  0.00     0.029 A 
ATOM     61  N   UNL A   1      42.816  31.520  36.434  1.00  0.00    -0.354 N 
ATOM     62  N   UNL A   1      40.608  32.066  34.574  1.00  0.00    -0.248 NA
ATOM     63  C   UNL A   1      38.694  33.273  33.994  1.00  0.00     0.031 C 
ATOM     64  C   UNL A   1      43.005  32.793  38.243  1.00  0.00     0.029 A 
ATOM     65  C   UNL A   1      42.243  32.587  37.104  1.00  0.00     0.049 A 
ATOM     66  H   UNL A   1      42.483  31.138  35.590  1.00  0.00     0.167 HD
ATOM     67  C   UNL A   1      40.377  33.043  35.534  1.00  0.00     0.074 A 
ATOM     68  C   UNL A   1      39.201  33.776  35.111  1.00  0.00     0.031 C 
ATOM     69  C   UNL A   1      41.078  33.313  36.664  1.00  0.00     0.037 A 
BRANCH  56  70
ATOM     70  C   UNL A   1      45.902  29.555  37.608  1.00  0.00     0.058 A 
ATOM     71  C   UNL A   1      47.129  30.239  37.588  1.00  0.00     0.135 A 
ATOM     72  C   UNL A   1      45.767  28.481  38.504  1.00  0.00     0.135 A 
ATOM     73  F   UNL A   1      47.319  31.264  36.742  1.00  0.00    -0.206 F 
ATOM     74  C   UNL A   1      48.192  29.851  38.396  1.00  0.00     0.059 A 
ATOM     75  C   UNL A   1      46.808  28.095  39.344  1.00  0.00     0.059 A 
ATOM     76  F   UNL A   1      44.617  27.793  38.567  1.00  0.00    -0.206 F 
ATOM     77  C   UNL A   1      48.023  28.774  39.269  1.00  0.00     0.060 A 
BRANCH  77  78
ATOM     78  S   UNL A   1      49.415  28.281  40.308  1.00  0.00     0.124 S 
ATOM     79  O   UNL A   1      48.990  26.956  40.750  1.00  0.00    -0.237 OA
ATOM     80  O   UNL A   1      50.532  28.306  39.368  1.00  0.00    -0.237 OA
ATOM     81  O   UNL A   1      49.447  29.309  41.343  1.00  0.00    -0.744 OA
ENDBRANCH  77  78
ENDBRANCH  56  70
BRANCH  57  82
ATOM     82  C   UNL A   1      38.287  31.761  31.512  1.00  0.00     0.058 A 
ATOM     83  C   UNL A   1      37.019  31.206  31.736  1.00  0.00     0.135 A 
ATOM     84  C   UNL A   1      38.433  32.640  30.428  1.00  0.00     0.135 A 
ATOM     85  F   UNL A   1      36.831  30.354  32.757  1.00  0.00    -0.206 F 
ATOM     86  C   UNL A   1      35.937  31.498  30.912  1.00  0.00     0.059 A 
ATOM     87  C   UNL A   1      37.360  32.967  29.603  1.00  0.00     0.059 A 
ATOM     88  F   UNL A   1      39.621  33.211  30.179  1.00  0.00    -0.206 F 
ATOM     89  C   UNL A   1      36.118  32.383  29.848  1.00  0.00     0.060 A 
BRANCH  89  90
ATOM     90  S   UNL A   1      34.694  32.796  28.815  1.00  0.00     0.124 S 
ATOM     91  O   UNL A   1      33.937  33.677  29.696  1.00  0.00    -0.237 OA
ATOM     92  O   UNL A   1      35.326  33.432  27.663  1.00  0.00    -0.237 OA
ATOM     93  O   UNL A   1      34.085  31.496  28.547  1.00  0.00    -0.744 OA
ENDBRANCH  89  90
ENDBRANCH  57  82
BRANCH  69  94
ATOM     94  C   UNL A   1      40.621  34.472  37.504  1.00  0.00     0.058 A 
ATOM     95  C   UNL A   1      39.604  34.337  38.462  1.00  0.00     0.135 A 
ATOM     96  C   UNL A   1      41.249  35.723  37.388  1.00  0.00     0.135 A 
ATOM     97  F   UNL A   1      38.968  33.165  38.609  1.00  0.00    -0.206 F 
ATOM     98  C   UNL A   1      39.212  35.406  39.262  1.00  0.00     0.059 A 
ATOM     99  C   UNL A   1      40.892  36.799  38.195  1.00  0.00     0.059 A 
ATOM    100  F   UNL A   1      42.234  35.904  36.494  1.00  0.00    -0.206 F 
ATOM    101  C   UNL A   1      39.865  36.633  39.122  1.00  0.00     0.060 A 
BRANCH 101 102
ATOM    102  S   UNL A   1      39.372  38.002  40.191  1.00  0.00     0.124 S 
ATOM    103  O   UNL A   1      40.497  38.918  40.033  1.00  0.00    -0.237 OA
ATOM    104  O   UNL A   1      38.114  38.431  39.590  1.00  0.00    -0.237 OA
ATOM    105  O   UNL A   1      39.251  37.378  41.506  1.00  0.00    -0.744 OA
ENDBRANCH 101 102
ENDBRANCH  69  94
ENDBRANCH  43  44
ENDBRANCH  35  38
ENDBRANCH  33  34
ENDBRANCH  32  33
ENDBRANCH   1  32
TORSDOF 17
ENDMDL
MODEL 2
REMARK VINA RESULT:     -10.9      6.528     11.408
REMARK SMILES CC1=NN(c2ccc(Cl)c(C(=O)NCCCCNC(=O)c3ccc(-c4c5nc(c(-c6c(F)cc(S(=O)(=O)[O-])cc6F)c6ccc([nH]6)c(-c6c(F)cc(S(=O)(=O)[O-])cc6F)c6nc(c(-c7c(F)cc(S(=O)(=O)[O-])cc7F)c7ccc4[nH]7)C=C6)C=C5)cc3)c2)C(=O)/C1=C\c1ccc(N(C)C)c(Br)c1
REMARK SMILES IDX 15 1 14 2 13 3 11 4 12 5 10 7 5 8 6 9 87 10 7 11 8 12 9 13
REMARK SMILES IDX 4 14 1 15 2 16 3 17 90 18 88 19 91 20 89 21 92 22 93 23
REMARK SMILES IDX 101 24 94 25 99 26 95 27 100 28 96 29 97 30 98 31 16 32
REMARK SMILES IDX 17 33 18 34 19 35 20 37 21 38 22 39 86 40 23 41 85 42 24 43
REMARK SMILES IDX 25 44 26 45 79 46 27 47 84 48 78 49 80 50 28 51 83 52 77 53
REMARK SMILES IDX 76 54 29 56 63 57 42 58 62 59 43 60 46 61 61 62 81 63 44 64
REMARK SMILES IDX 45 65 60 67 82 68 47 69 30 70 31 71 40 72 32 73 33 74 39 75
REMARK SMILES IDX 41 76 34 77 35 78 36 79 37 80 38 81 64 82 65 83 74 84 66 85
REMARK SMILES IDX 67 86 73 87 75 88 68 89 69 90 70 91 71 92 72 93 48 94 49 95
REMARK SMILES IDX 58 96 50 97 51 98 57 99 59 100 52 101 53 102 54 103 55 104
REMARK SMILES IDX 56 105
REMARK H PARENT 13 6 18 36 80 55 46 66
REMARK Flexibility Score: inf
ROOT
ATOM      1  C   UNL A   1      38.951  22.817  26.533  1.00  0.00     0.023 C 
ENDROOT
BRANCH   1   2
ATOM      2  C   UNL A   1      37.593  23.235  25.986  1.00  0.00     0.116 C 
BRANCH   2   3
ATOM      3  N   UNL A   1      37.500  23.291  24.538  1.00  0.00    -0.352 N 
ATOM      4  C   UNL A   1      36.535  22.789  23.690  1.00  0.00     0.252 C 
ATOM      5  O   UNL A   1      36.645  22.990  22.482  1.00  0.00    -0.269 OA
ATOM      6  H   UNL A   1      38.242  23.760  24.092  1.00  0.00     0.163 HD
BRANCH   4   7
ATOM      7  C   UNL A   1      35.407  21.948  24.172  1.00  0.00     0.060 A 
ATOM      8  C   UNL A   1      33.095  21.889  24.943  1.00  0.00     0.070 A 
ATOM      9  C   UNL A   1      33.198  20.499  25.069  1.00  0.00     0.030 A 
ATOM     10  C   UNL A   1      34.166  22.600  24.389  1.00  0.00     0.044 A 
ATOM     11  C   UNL A   1      34.412  19.857  24.878  1.00  0.00     0.023 A 
ATOM     12  C   UNL A   1      35.539  20.601  24.545  1.00  0.00     0.053 A 
ATOM     13  Cl  UNL A   1      37.051  19.815  24.838  1.00  0.00    -0.083 Cl
BRANCH   8  14
ATOM     14  N   UNL A   1      32.011  22.529  25.578  1.00  0.00    -0.196 N 
ATOM     15  C   UNL A   1      29.115  22.506  27.720  1.00  0.00     0.069 C 
ATOM     16  C   UNL A   1      30.225  22.751  26.750  1.00  0.00     0.071 C 
ATOM     17  N   UNL A   1      31.102  21.849  26.376  1.00  0.00    -0.169 NA
ATOM     18  C   UNL A   1      30.448  24.059  26.103  1.00  0.00     0.065 C 
ATOM     19  C   UNL A   1      31.724  23.889  25.383  1.00  0.00     0.280 C 
ATOM     20  C   UNL A   1      29.636  25.127  26.059  1.00  0.00     0.024 C 
ATOM     21  O   UNL A   1      32.331  24.744  24.763  1.00  0.00    -0.267 OA
BRANCH  20  22
ATOM     22  C   UNL A   1      29.872  26.246  25.134  1.00  0.00    -0.024 A 
ATOM     23  C   UNL A   1      29.209  26.362  23.925  1.00  0.00     0.010 A 
ATOM     24  C   UNL A   1      30.737  27.275  25.506  1.00  0.00     0.026 A 
ATOM     25  C   UNL A   1      29.393  27.509  23.126  1.00  0.00     0.028 A 
ATOM     26  C   UNL A   1      30.929  28.421  24.699  1.00  0.00     0.041 A 
ATOM     27  C   UNL A   1      30.249  28.591  23.464  1.00  0.00     0.051 A 
ATOM     28  Br  UNL A   1      32.204  29.620  25.472  1.00  0.00    -0.049 Br
BRANCH  27  29
ATOM     29  N   UNL A   1      30.359  29.679  22.591  1.00  0.00    -0.377 N 
ATOM     30  C   UNL A   1      31.491  29.851  21.679  1.00  0.00     0.143 C 
ATOM     31  C   UNL A   1      29.255  30.596  22.319  1.00  0.00     0.143 C 
ENDBRANCH  27  29
ENDBRANCH  20  22
ENDBRANCH   8  14
ENDBRANCH   4   7
ENDBRANCH   2   3
ENDBRANCH   1   2
BRANCH   1  32
ATOM     32  C   UNL A   1      39.606  21.608  25.869  1.00  0.00     0.023 C 
BRANCH  32  33
ATOM     33  C   UNL A   1      39.948  20.424  26.771  1.00  0.00     0.116 C 
BRANCH  33  34
ATOM     34  N   UNL A   1      40.894  19.482  26.189  1.00  0.00    -0.352 N 
ATOM     35  C   UNL A   1      42.221  19.651  25.864  1.00  0.00     0.251 C 
ATOM     36  H   UNL A   1      40.530  18.587  26.001  1.00  0.00     0.163 HD
ATOM     37  O   UNL A   1      42.834  18.738  25.316  1.00  0.00    -0.269 OA
BRANCH  35  38
ATOM     38  C   UNL A   1      42.900  20.940  26.130  1.00  0.00     0.039 A 
ATOM     39  C   UNL A   1      43.202  21.779  25.052  1.00  0.00     0.014 A 
ATOM     40  C   UNL A   1      43.220  21.336  27.430  1.00  0.00     0.014 A 
ATOM     41  C   UNL A   1      43.740  23.047  25.288  1.00  0.00     0.010 A 
ATOM     42  C   UNL A   1      43.672  22.632  27.668  1.00  0.00     0.010 A 
ATOM     43  C   UNL A   1      43.937  23.504  26.601  1.00  0.00    -0.014 A 
BRANCH  43  44
ATOM     44  C   UNL A   1      44.419  24.884  26.877  1.00  0.00     0.031 A 
ATOM     45  C   UNL A   1      43.457  25.939  27.357  1.00  0.00     0.074 A 
ATOM     46  C   UNL A   1      45.706  25.207  26.635  1.00  0.00     0.049 A 
ATOM     47  N   UNL A   1      43.672  27.208  27.593  1.00  0.00    -0.248 NA
ATOM     48  C   UNL A   1      42.062  25.519  27.570  1.00  0.00     0.031 C 
ATOM     49  C   UNL A   1      46.725  24.292  26.115  1.00  0.00     0.029 A 
ATOM     50  N   UNL A   1      46.378  26.394  26.788  1.00  0.00    -0.354 N 
ATOM     51  C   UNL A   1      42.441  27.739  27.964  1.00  0.00     0.074 A 
ATOM     52  C   UNL A   1      41.474  26.669  27.863  1.00  0.00     0.031 C 
ATOM     53  C   UNL A   1      47.896  24.943  26.021  1.00  0.00     0.029 A 
ATOM     54  C   UNL A   1      47.707  26.328  26.439  1.00  0.00     0.049 A 
ATOM     55  H   UNL A   1      45.949  27.217  27.117  1.00  0.00     0.167 HD
ATOM     56  C   UNL A   1      42.148  28.994  28.380  1.00  0.00     0.037 A 
ATOM     57  C   UNL A   1      48.665  27.276  26.452  1.00  0.00     0.037 A 
ATOM     58  C   UNL A   1      43.121  30.047  28.508  1.00  0.00     0.049 A 
ATOM     59  C   UNL A   1      48.319  28.661  26.928  1.00  0.00     0.074 A 
ATOM     60  C   UNL A   1      42.937  31.337  28.976  1.00  0.00     0.029 A 
ATOM     61  N   UNL A   1      44.462  29.933  28.171  1.00  0.00    -0.354 N 
ATOM     62  N   UNL A   1      47.163  29.128  27.338  1.00  0.00    -0.248 NA
ATOM     63  C   UNL A   1      49.408  29.647  26.954  1.00  0.00     0.031 C 
ATOM     64  C   UNL A   1      44.159  32.013  28.883  1.00  0.00     0.029 A 
ATOM     65  C   UNL A   1      45.114  31.131  28.405  1.00  0.00     0.049 A 
ATOM     66  H   UNL A   1      44.887  29.118  27.817  1.00  0.00     0.167 HD
ATOM     67  C   UNL A   1      47.393  30.450  27.698  1.00  0.00     0.074 A 
ATOM     68  C   UNL A   1      48.799  30.708  27.466  1.00  0.00     0.031 C 
ATOM     69  C   UNL A   1      46.518  31.369  28.180  1.00  0.00     0.037 A 
BRANCH  56  70
ATOM     70  C   UNL A   1      40.717  29.291  28.737  1.00  0.00     0.058 A 
ATOM     71  C   UNL A   1      39.734  29.468  27.748  1.00  0.00     0.135 A 
ATOM     72  C   UNL A   1      40.315  29.382  30.080  1.00  0.00     0.135 A 
ATOM     73  F   UNL A   1      40.064  29.407  26.448  1.00  0.00    -0.206 F 
ATOM     74  C   UNL A   1      38.415  29.761  28.076  1.00  0.00     0.059 A 
ATOM     75  C   UNL A   1      38.993  29.644  30.431  1.00  0.00     0.059 A 
ATOM     76  F   UNL A   1      41.210  29.219  31.066  1.00  0.00    -0.206 F 
ATOM     77  C   UNL A   1      38.055  29.851  29.421  1.00  0.00     0.060 A 
BRANCH  77  78
ATOM     78  S   UNL A   1      36.339  30.236  29.830  1.00  0.00     0.124 S 
ATOM     79  O   UNL A   1      36.367  31.695  29.852  1.00  0.00    -0.237 OA
ATOM     80  O   UNL A   1      35.609  29.634  28.718  1.00  0.00    -0.237 OA
ATOM     81  O   UNL A   1      36.145  29.592  31.125  1.00  0.00    -0.744 OA
ENDBRANCH  77  78
ENDBRANCH  56  70
BRANCH  57  82
ATOM     82  C   UNL A   1      50.053  26.936  26.038  1.00  0.00     0.058 A 
ATOM     83  C   UNL A   1      50.465  27.089  24.706  1.00  0.00     0.135 A 
ATOM     84  C   UNL A   1      50.999  26.467  26.963  1.00  0.00     0.135 A 
ATOM     85  F   UNL A   1      49.594  27.527  23.782  1.00  0.00    -0.206 F 
ATOM     86  C   UNL A   1      51.759  26.778  24.300  1.00  0.00     0.059 A 
ATOM     87  C   UNL A   1      52.307  26.173  26.586  1.00  0.00     0.059 A 
ATOM     88  F   UNL A   1      50.662  26.317  28.253  1.00  0.00    -0.206 F 
ATOM     89  C   UNL A   1      52.674  26.323  25.249  1.00  0.00     0.060 A 
BRANCH  89  90
ATOM     90  S   UNL A   1      54.366  25.973  24.722  1.00  0.00     0.124 S 
ATOM     91  O   UNL A   1      54.442  24.530  24.917  1.00  0.00    -0.237 OA
ATOM     92  O   UNL A   1      54.356  26.431  23.337  1.00  0.00    -0.237 OA
ATOM     93  O   UNL A   1      55.175  26.777  25.634  1.00  0.00    -0.744 OA
ENDBRANCH  89  90
ENDBRANCH  57  82
BRANCH  69  94
ATOM     94  C   UNL A   1      47.061  32.726  28.529  1.00  0.00     0.058 A 
ATOM     95  C   UNL A   1      47.571  33.013  29.805  1.00  0.00     0.135 A 
ATOM     96  C   UNL A   1      47.124  33.736  27.555  1.00  0.00     0.135 A 
ATOM     97  F   UNL A   1      47.529  32.085  30.773  1.00  0.00    -0.206 F 
ATOM     98  C   UNL A   1      48.106  34.261  30.109  1.00  0.00     0.059 A 
ATOM     99  C   UNL A   1      47.679  34.982  27.829  1.00  0.00     0.059 A 
ATOM    100  F   UNL A   1      46.659  33.510  26.316  1.00  0.00    -0.206 F 
ATOM    101  C   UNL A   1      48.157  35.239  29.113  1.00  0.00     0.060 A 
BRANCH 101 102
ATOM    102  S   UNL A   1      48.888  36.841  29.510  1.00  0.00     0.124 S 
ATOM    103  O   UNL A   1      48.178  37.724  28.591  1.00  0.00    -0.237 OA
ATOM    104  O   UNL A   1      48.556  36.995  30.922  1.00  0.00    -0.237 OA
ATOM    105  O   UNL A   1      50.307  36.648  29.223  1.00  0.00    -0.744 OA
ENDBRANCH 101 102
ENDBRANCH  69  94
ENDBRANCH  43  44
ENDBRANCH  35  38
ENDBRANCH  33  34
ENDBRANCH  32  33
ENDBRANCH   1  32
TORSDOF 17
ENDMDL
MODEL 3
REMARK VINA RESULT:     -10.8      3.171     10.068
REMARK SMILES CC1=NN(c2ccc(Cl)c(C(=O)NCCCCNC(=O)c3ccc(-c4c5nc(c(-c6c(F)cc(S(=O)(=O)[O-])cc6F)c6ccc([nH]6)c(-c6c(F)cc(S(=O)(=O)[O-])cc6F)c6nc(c(-c7c(F)cc(S(=O)(=O)[O-])cc7F)c7ccc4[nH]7)C=C6)C=C5)cc3)c2)C(=O)/C1=C\c1ccc(N(C)C)c(Br)c1
REMARK SMILES IDX 15 1 14 2 13 3 11 4 12 5 10 7 5 8 6 9 87 10 7 11 8 12 9 13
REMARK SMILES IDX 4 14 1 15 2 16 3 17 90 18 88 19 91 20 89 21 92 22 93 23
REMARK SMILES IDX 101 24 94 25 99 26 95 27 100 28 96 29 97 30 98 31 16 32
REMARK SMILES IDX 17 33 18 34 19 35 20 37 21 38 22 39 86 40 23 41 85 42 24 43
REMARK SMILES IDX 25 44 26 45 79 46 27 47 84 48 78 49 80 50 28 51 83 52 77 53
REMARK SMILES IDX 76 54 29 56 63 57 42 58 62 59 43 60 46 61 61 62 81 63 44 64
REMARK SMILES IDX 45 65 60 67 82 68 47 69 30 70 31 71 40 72 32 73 33 74 39 75
REMARK SMILES IDX 41 76 34 77 35 78 36 79 37 80 38 81 64 82 65 83 74 84 66 85
REMARK SMILES IDX 67 86 73 87 75 88 68 89 69 90 70 91 71 92 72 93 48 94 49 95
REMARK SMILES IDX 58 96 50 97 51 98 57 99 59 100 52 101 53 102 54 103 55 104
REMARK SMILES IDX 56 105
REMARK H PARENT 13 6 18 36 80 55 46 66
REMARK Flexibility Score: inf
ROOT
ATOM      1  C   UNL A   1      40.052  21.476  26.618  1.00  0.00     0.023 C 
ENDROOT
BRANCH   1   2
ATOM      2  C   UNL A   1      41.288  21.255  25.758  1.00  0.00     0.116 C 
BRANCH   2   3
ATOM      3  N   UNL A   1      41.771  19.886  25.709  1.00  0.00    -0.352 N 
ATOM      4  C   UNL A   1      43.052  19.402  25.550  1.00  0.00     0.252 C 
ATOM      5  O   UNL A   1      43.234  18.186  25.578  1.00  0.00    -0.269 OA
ATOM      6  H   UNL A   1      41.075  19.196  25.805  1.00  0.00     0.163 HD
BRANCH   4   7
ATOM      7  C   UNL A   1      44.213  20.289  25.270  1.00  0.00     0.060 A 
ATOM      8  C   UNL A   1      45.310  22.416  25.732  1.00  0.00     0.070 A 
ATOM      9  C   UNL A   1      46.338  22.048  24.858  1.00  0.00     0.030 A 
ATOM     10  C   UNL A   1      44.303  21.488  26.022  1.00  0.00     0.044 A 
ATOM     11  C   UNL A   1      46.249  20.888  24.103  1.00  0.00     0.023 A 
ATOM     12  C   UNL A   1      45.128  20.072  24.227  1.00  0.00     0.053 A 
ATOM     13  Cl  UNL A   1      44.870  18.976  22.915  1.00  0.00    -0.083 Cl
BRANCH   8  14
ATOM     14  N   UNL A   1      45.219  23.772  26.108  1.00  0.00    -0.196 N 
ATOM     15  C   UNL A   1      44.645  27.248  25.359  1.00  0.00     0.069 C 
ATOM     16  C   UNL A   1      44.989  25.897  25.896  1.00  0.00     0.071 C 
ATOM     17  N   UNL A   1      44.952  24.785  25.199  1.00  0.00    -0.169 NA
ATOM     18  C   UNL A   1      45.413  25.675  27.293  1.00  0.00     0.065 C 
ATOM     19  C   UNL A   1      45.474  24.206  27.418  1.00  0.00     0.280 C 
ATOM     20  C   UNL A   1      45.785  26.577  28.214  1.00  0.00     0.024 C 
ATOM     21  O   UNL A   1      45.715  23.570  28.430  1.00  0.00    -0.267 OA
BRANCH  20  22
ATOM     22  C   UNL A   1      46.456  26.182  29.462  1.00  0.00    -0.024 A 
ATOM     23  C   UNL A   1      47.834  26.159  29.587  1.00  0.00     0.010 A 
ATOM     24  C   UNL A   1      45.693  25.889  30.592  1.00  0.00     0.026 A 
ATOM     25  C   UNL A   1      48.425  25.878  30.837  1.00  0.00     0.028 A 
ATOM     26  C   UNL A   1      46.286  25.597  31.842  1.00  0.00     0.041 A 
ATOM     27  C   UNL A   1      47.695  25.588  32.021  1.00  0.00     0.051 A 
ATOM     28  Br  UNL A   1      44.967  25.203  33.172  1.00  0.00    -0.049 Br
BRANCH  27  29
ATOM     29  N   UNL A   1      48.386  25.317  33.206  1.00  0.00    -0.377 N 
ATOM     30  C   UNL A   1      49.155  26.336  33.924  1.00  0.00     0.143 C 
ATOM     31  C   UNL A   1      48.200  24.088  33.973  1.00  0.00     0.143 C 
ENDBRANCH  27  29
ENDBRANCH  20  22
ENDBRANCH   8  14
ENDBRANCH   4   7
ENDBRANCH   2   3
ENDBRANCH   1   2
BRANCH   1  32
ATOM     32  C   UNL A   1      40.139  22.592  27.657  1.00  0.00     0.023 C 
BRANCH  32  33
ATOM     33  C   UNL A   1      41.357  23.510  27.585  1.00  0.00     0.116 C 
BRANCH  33  34
ATOM     34  N   UNL A   1      41.479  24.245  26.334  1.00  0.00    -0.352 N 
ATOM     35  C   UNL A   1      41.347  25.593  26.084  1.00  0.00     0.251 C 
ATOM     36  H   UNL A   1      41.689  23.694  25.545  1.00  0.00     0.163 HD
ATOM     37  O   UNL A   1      41.427  26.008  24.931  1.00  0.00    -0.269 OA
BRANCH  35  38
ATOM     38  C   UNL A   1      41.066  26.536  27.192  1.00  0.00     0.039 A 
ATOM     39  C   UNL A   1      40.112  26.183  28.152  1.00  0.00     0.014 A 
ATOM     40  C   UNL A   1      41.750  27.748  27.303  1.00  0.00     0.014 A 
ATOM     41  C   UNL A   1      39.910  27.005  29.265  1.00  0.00     0.010 A 
ATOM     42  C   UNL A   1      41.612  28.518  28.455  1.00  0.00     0.010 A 
ATOM     43  C   UNL A   1      40.691  28.156  29.451  1.00  0.00    -0.014 A 
BRANCH  43  44
ATOM     44  C   UNL A   1      40.561  28.992  30.674  1.00  0.00     0.031 A 
ATOM     45  C   UNL A   1      39.510  30.069  30.746  1.00  0.00     0.074 A 
ATOM     46  C   UNL A   1      41.428  28.829  31.694  1.00  0.00     0.049 A 
ATOM     47  N   UNL A   1      39.281  30.938  31.697  1.00  0.00    -0.248 NA
ATOM     48  C   UNL A   1      38.619  30.207  29.582  1.00  0.00     0.031 C 
ATOM     49  C   UNL A   1      42.526  27.860  31.725  1.00  0.00     0.029 A 
ATOM     50  N   UNL A   1      41.527  29.477  32.901  1.00  0.00    -0.354 N 
ATOM     51  C   UNL A   1      38.235  31.734  31.240  1.00  0.00     0.074 A 
ATOM     52  C   UNL A   1      37.917  31.283  29.903  1.00  0.00     0.031 C 
ATOM     53  C   UNL A   1      43.168  27.958  32.901  1.00  0.00     0.029 A 
ATOM     54  C   UNL A   1      42.553  29.017  33.694  1.00  0.00     0.049 A 
ATOM     55  H   UNL A   1      40.921  30.203  33.173  1.00  0.00     0.167 HD
ATOM     56  C   UNL A   1      37.580  32.728  31.885  1.00  0.00     0.037 A 
ATOM     57  C   UNL A   1      42.954  29.405  34.921  1.00  0.00     0.037 A 
ATOM     58  C   UNL A   1      37.881  33.152  33.227  1.00  0.00     0.049 A 
ATOM     59  C   UNL A   1      42.204  30.505  35.624  1.00  0.00     0.074 A 
ATOM     60  C   UNL A   1      37.239  34.111  33.991  1.00  0.00     0.029 A 
ATOM     61  N   UNL A   1      38.909  32.643  34.008  1.00  0.00    -0.354 N 
ATOM     62  N   UNL A   1      41.175  31.202  35.201  1.00  0.00    -0.248 NA
ATOM     63  C   UNL A   1      42.661  30.866  36.972  1.00  0.00     0.031 C 
ATOM     64  C   UNL A   1      37.903  34.208  35.219  1.00  0.00     0.029 A 
ATOM     65  C   UNL A   1      38.929  33.276  35.238  1.00  0.00     0.049 A 
ATOM     66  H   UNL A   1      39.532  31.934  33.726  1.00  0.00     0.167 HD
ATOM     67  C   UNL A   1      40.845  32.061  36.243  1.00  0.00     0.074 A 
ATOM     68  C   UNL A   1      41.776  31.791  37.319  1.00  0.00     0.031 C 
ATOM     69  C   UNL A   1      39.856  32.988  36.304  1.00  0.00     0.037 A 
BRANCH  56  70
ATOM     70  C   UNL A   1      36.465  33.418  31.147  1.00  0.00     0.058 A 
ATOM     71  C   UNL A   1      36.717  34.241  30.036  1.00  0.00     0.135 A 
ATOM     72  C   UNL A   1      35.127  33.242  31.538  1.00  0.00     0.135 A 
ATOM     73  F   UNL A   1      37.977  34.457  29.626  1.00  0.00    -0.206 F 
ATOM     74  C   UNL A   1      35.689  34.893  29.365  1.00  0.00     0.059 A 
ATOM     75  C   UNL A   1      34.080  33.861  30.862  1.00  0.00     0.059 A 
ATOM     76  F   UNL A   1      34.827  32.465  32.591  1.00  0.00    -0.206 F 
ATOM     77  C   UNL A   1      34.373  34.700  29.788  1.00  0.00     0.060 A 
BRANCH  77  78
ATOM     78  S   UNL A   1      33.050  35.558  28.908  1.00  0.00     0.124 S 
ATOM     79  O   UNL A   1      33.803  36.559  28.157  1.00  0.00    -0.237 OA
ATOM     80  O   UNL A   1      32.456  34.487  28.113  1.00  0.00    -0.237 OA
ATOM     81  O   UNL A   1      32.210  36.079  29.981  1.00  0.00    -0.744 OA
ENDBRANCH  77  78
ENDBRANCH  56  70
BRANCH  57  82
ATOM     82  C   UNL A   1      44.098  28.719  35.581  1.00  0.00     0.058 A 
ATOM     83  C   UNL A   1      45.394  29.249  35.505  1.00  0.00     0.135 A 
ATOM     84  C   UNL A   1      43.919  27.534  36.311  1.00  0.00     0.135 A 
ATOM     85  F   UNL A   1      45.617  30.378  34.813  1.00  0.00    -0.206 F 
ATOM     86  C   UNL A   1      46.476  28.624  36.117  1.00  0.00     0.059 A 
ATOM     87  C   UNL A   1      44.981  26.903  36.952  1.00  0.00     0.059 A 
ATOM     88  F   UNL A   1      42.696  26.994  36.428  1.00  0.00    -0.206 F 
ATOM     89  C   UNL A   1      46.259  27.452  36.841  1.00  0.00     0.060 A 
BRANCH  89  90
ATOM     90  S   UNL A   1      47.662  26.677  37.676  1.00  0.00     0.124 S 
ATOM     91  O   UNL A   1      48.777  27.470  37.173  1.00  0.00    -0.237 OA
ATOM     92  O   UNL A   1      47.324  26.867  39.082  1.00  0.00    -0.237 OA
ATOM     93  O   UNL A   1      47.608  25.295  37.208  1.00  0.00    -0.744 OA
ENDBRANCH  89  90
ENDBRANCH  57  82
BRANCH  69  94
ATOM     94  C   UNL A   1      39.701  33.753  37.589  1.00  0.00     0.058 A 
ATOM     95  C   UNL A   1      40.359  34.973  37.808  1.00  0.00     0.135 A 
ATOM     96  C   UNL A   1      38.836  33.285  38.591  1.00  0.00     0.135 A 
ATOM     97  F   UNL A   1      41.201  35.461  36.885  1.00  0.00    -0.206 F 
ATOM     98  C   UNL A   1      40.181  35.692  38.985  1.00  0.00     0.059 A 
ATOM     99  C   UNL A   1      38.621  34.001  39.765  1.00  0.00     0.059 A 
ATOM    100  F   UNL A   1      38.174  32.128  38.427  1.00  0.00    -0.206 F 
ATOM    101  C   UNL A   1      39.307  35.199  39.958  1.00  0.00     0.060 A 
BRANCH 101 102
ATOM    102  S   UNL A   1      39.056  36.161  41.464  1.00  0.00     0.124 S 
ATOM    103  O   UNL A   1      40.313  35.936  42.170  1.00  0.00    -0.237 OA
ATOM    104  O   UNL A   1      38.853  37.509  40.944  1.00  0.00    -0.237 OA
ATOM    105  O   UNL A   1      37.878  35.545  42.068  1.00  0.00    -0.744 OA
ENDBRANCH 101 102
ENDBRANCH  69  94
ENDBRANCH  43  44
ENDBRANCH  35  38
ENDBRANCH  33  34
ENDBRANCH  32  33
ENDBRANCH   1  32
TORSDOF 17
ENDMDL
