MODEL 1
REMARK VINA RESULT:     -12.2      0.000      0.000
REMARK SMILES O=C(CNC(=O)N1CC(NCCCCNC(=O)c2ccc(-c3c4nc(c(-c5c(F)cc(S(=O)(=O)[O-])cc5F)c5ccc([nH]5)c(-c5c(F)cc(S(=O)(=O)[O-])cc5F)c5nc(c(-c6c(F)cc(S(=O)(=O)[O-])cc6F)c6ccc3[nH]6)C=C5)C=C4)cc2)=[NH+]c2ccccc21)N[C@H](C(=O)[O-])c1ccccc1
REMARK SMILES IDX 12 1 11 2 10 3 7 4 8 5 90 6 9 7 85 8 89 9 84 10 86 11 88 12
REMARK SMILES IDX 87 15 5 16 4 17 6 19 3 20 2 21 1 22 91 23 92 25 96 26 97 27
REMARK SMILES IDX 101 28 98 29 100 30 99 31 93 32 94 33 95 34 13 35 14 36
REMARK SMILES IDX 15 37 16 38 17 40 18 41 19 42 83 43 20 44 82 45 21 46 22 47
REMARK SMILES IDX 23 48 76 49 24 50 81 51 75 52 77 53 25 54 80 55 74 56 73 57
REMARK SMILES IDX 26 59 60 60 39 61 59 62 40 63 43 64 58 65 78 66 41 67 42 68
REMARK SMILES IDX 57 70 79 71 44 72 27 73 28 74 37 75 29 76 30 77 36 78 38 79
REMARK SMILES IDX 31 80 32 81 33 82 34 83 35 84 61 85 62 86 71 87 63 88 64 89
REMARK SMILES IDX 70 90 72 91 65 92 66 93 67 94 68 95 69 96 45 97 46 98 55 99
REMARK SMILES IDX 47 100 48 101 54 102 56 103 49 104 50 105 51 106 52 107
REMARK SMILES IDX 53 108
REMARK H PARENT 10 13 84 14 4 18 91 24 15 39 77 58 43 69
REMARK Flexibility Score: inf
ROOT
ATOM      1  C   UNL A   1      37.233  21.144  24.658  1.00  0.00     0.048 C 
ENDROOT
BRANCH   1   2
ATOM      2  C   UNL A   1      36.256  21.749  25.665  1.00  0.00     0.233 C 
BRANCH   2   3
ATOM      3  N   UNL A   1      35.910  23.099  25.292  1.00  0.00    -0.277 N 
ATOM      4  N   UNL A   1      32.598  23.893  26.589  1.00  0.00    -0.278 N 
ATOM      5  C   UNL A   1      33.927  23.370  26.854  1.00  0.00     0.255 C 
ATOM      6  C   UNL A   1      32.558  25.290  26.348  1.00  0.00     0.093 A 
ATOM      7  C   UNL A   1      34.881  23.876  25.763  1.00  0.00     0.268 C 
ATOM      8  C   UNL A   1      33.674  25.863  25.707  1.00  0.00     0.148 A 
ATOM      9  C   UNL A   1      31.455  26.077  26.698  1.00  0.00     0.031 A 
ATOM     10  N   UNL A   1      34.763  25.080  25.264  1.00  0.00    -0.241 N 
ATOM     11  C   UNL A   1      33.642  27.222  25.387  1.00  0.00     0.054 A 
ATOM     12  C   UNL A   1      31.449  27.437  26.390  1.00  0.00     0.002 A 
ATOM     13  H   UNL A   1      36.485  23.517  24.612  1.00  0.00     0.304 HD
ATOM     14  H   UNL A   1      35.409  25.427  24.606  1.00  0.00     0.312 HD
ATOM     15  C   UNL A   1      32.536  28.007  25.726  1.00  0.00     0.005 A 
BRANCH   4  16
ATOM     16  C   UNL A   1      31.528  23.041  26.651  1.00  0.00     0.323 C 
ATOM     17  N   UNL A   1      31.309  22.186  25.617  1.00  0.00    -0.329 N 
ATOM     18  H   UNL A   1      30.389  21.849  25.519  1.00  0.00     0.165 HD
ATOM     19  O   UNL A   1      30.812  22.943  27.649  1.00  0.00    -0.248 OA
BRANCH  17  20
ATOM     20  C   UNL A   1      32.273  21.711  24.635  1.00  0.00     0.218 C 
BRANCH  20  21
ATOM     21  C   UNL A   1      32.085  22.461  23.320  1.00  0.00     0.240 C 
ATOM     22  O   UNL A   1      31.976  21.869  22.249  1.00  0.00    -0.273 OA
ATOM     23  N   UNL A   1      32.087  23.833  23.449  1.00  0.00    -0.342 N 
ATOM     24  H   UNL A   1      32.289  24.225  24.330  1.00  0.00     0.164 HD
BRANCH  23  25
ATOM     25  C   UNL A   1      31.803  24.729  22.331  1.00  0.00     0.158 C 
BRANCH  25  26
ATOM     26  C   UNL A   1      30.904  25.890  22.712  1.00  0.00    -0.020 A 
ATOM     27  C   UNL A   1      31.160  27.200  22.282  1.00  0.00     0.006 A 
ATOM     28  C   UNL A   1      29.777  25.665  23.523  1.00  0.00     0.006 A 
ATOM     29  C   UNL A   1      30.305  28.248  22.629  1.00  0.00     0.000 A 
ATOM     30  C   UNL A   1      28.924  26.714  23.872  1.00  0.00     0.000 A 
ATOM     31  C   UNL A   1      29.186  28.005  23.420  1.00  0.00     0.000 A 
ENDBRANCH  25  26
BRANCH  25  32
ATOM     32  C   UNL A   1      33.045  25.098  21.488  1.00  0.00     0.068 C 
ATOM     33  O   UNL A   1      33.122  25.150  20.271  1.00  0.00    -0.548 OA
ATOM     34  O   UNL A   1      34.178  25.238  22.221  1.00  0.00    -0.548 OA
ENDBRANCH  25  32
ENDBRANCH  23  25
ENDBRANCH  20  21
ENDBRANCH  17  20
ENDBRANCH   4  16
ENDBRANCH   2   3
ENDBRANCH   1   2
BRANCH   1  35
ATOM     35  C   UNL A   1      38.099  20.005  25.205  1.00  0.00     0.025 C 
BRANCH  35  36
ATOM     36  C   UNL A   1      39.345  20.438  25.973  1.00  0.00     0.116 C 
BRANCH  36  37
ATOM     37  N   UNL A   1      40.362  19.401  26.036  1.00  0.00    -0.352 N 
ATOM     38  C   UNL A   1      41.720  19.524  26.207  1.00  0.00     0.251 C 
ATOM     39  H   UNL A   1      40.030  18.479  25.944  1.00  0.00     0.163 HD
ATOM     40  O   UNL A   1      42.433  18.530  26.097  1.00  0.00    -0.269 OA
BRANCH  38  41
ATOM     41  C   UNL A   1      42.323  20.847  26.488  1.00  0.00     0.039 A 
ATOM     42  C   UNL A   1      42.624  21.690  25.415  1.00  0.00     0.014 A 
ATOM     43  C   UNL A   1      42.601  21.257  27.795  1.00  0.00     0.014 A 
ATOM     44  C   UNL A   1      43.146  22.963  25.657  1.00  0.00     0.010 A 
ATOM     45  C   UNL A   1      43.045  22.555  28.038  1.00  0.00     0.010 A 
ATOM     46  C   UNL A   1      43.331  23.421  26.972  1.00  0.00    -0.014 A 
BRANCH  46  47
ATOM     47  C   UNL A   1      43.825  24.798  27.241  1.00  0.00     0.031 A 
ATOM     48  C   UNL A   1      45.274  25.145  27.015  1.00  0.00     0.074 A 
ATOM     49  C   UNL A   1      42.980  25.727  27.731  1.00  0.00     0.049 A 
ATOM     50  N   UNL A   1      45.892  26.280  27.215  1.00  0.00    -0.248 NA
ATOM     51  C   UNL A   1      46.148  24.068  26.522  1.00  0.00     0.031 C 
ATOM     52  C   UNL A   1      41.566  25.503  28.045  1.00  0.00     0.029 A 
ATOM     53  N   UNL A   1      43.183  27.046  28.055  1.00  0.00    -0.354 N 
ATOM     54  C   UNL A   1      47.223  26.054  26.883  1.00  0.00     0.074 A 
ATOM     55  C   UNL A   1      47.335  24.656  26.528  1.00  0.00     0.031 C 
ATOM     56  C   UNL A   1      41.025  26.650  28.485  1.00  0.00     0.029 A 
ATOM     57  C   UNL A   1      42.057  27.681  28.523  1.00  0.00     0.049 A 
ATOM     58  H   UNL A   1      44.055  27.495  27.961  1.00  0.00     0.167 HD
ATOM     59  C   UNL A   1      48.252  26.934  26.851  1.00  0.00     0.037 A 
ATOM     60  C   UNL A   1      41.875  28.950  28.939  1.00  0.00     0.037 A 
ATOM     61  C   UNL A   1      48.131  28.330  27.187  1.00  0.00     0.049 A 
ATOM     62  C   UNL A   1      43.033  29.909  28.895  1.00  0.00     0.074 A 
ATOM     63  C   UNL A   1      49.101  29.315  27.133  1.00  0.00     0.029 A 
ATOM     64  N   UNL A   1      46.970  28.939  27.642  1.00  0.00    -0.354 N 
ATOM     65  N   UNL A   1      44.270  29.692  28.513  1.00  0.00    -0.248 NA
ATOM     66  C   UNL A   1      42.772  31.287  29.331  1.00  0.00     0.031 C 
ATOM     67  C   UNL A   1      48.542  30.507  27.606  1.00  0.00     0.029 A 
ATOM     68  C   UNL A   1      47.207  30.281  27.896  1.00  0.00     0.049 A 
ATOM     69  H   UNL A   1      46.106  28.484  27.768  1.00  0.00     0.167 HD
ATOM     70  C   UNL A   1      44.924  30.915  28.630  1.00  0.00     0.074 A 
ATOM     71  C   UNL A   1      43.942  31.867  29.107  1.00  0.00     0.031 C 
ATOM     72  C   UNL A   1      46.219  31.221  28.366  1.00  0.00     0.037 A 
BRANCH  59  73
ATOM     73  C   UNL A   1      49.604  26.416  26.433  1.00  0.00     0.058 A 
ATOM     74  C   UNL A   1      50.095  26.600  25.130  1.00  0.00     0.135 A 
ATOM     75  C   UNL A   1      50.435  25.759  27.355  1.00  0.00     0.135 A 
ATOM     76  F   UNL A   1      49.339  27.207  24.200  1.00  0.00    -0.206 F 
ATOM     77  C   UNL A   1      51.346  26.123  24.749  1.00  0.00     0.059 A 
ATOM     78  C   UNL A   1      51.701  25.303  27.005  1.00  0.00     0.059 A 
ATOM     79  F   UNL A   1      50.017  25.556  28.615  1.00  0.00    -0.206 F 
ATOM     80  C   UNL A   1      52.142  25.476  25.694  1.00  0.00     0.060 A 
BRANCH  80  81
ATOM     81  S   UNL A   1      53.764  24.869  25.182  1.00  0.00     0.124 S 
ATOM     82  O   UNL A   1      54.611  25.352  26.268  1.00  0.00    -0.237 OA
ATOM     83  O   UNL A   1      53.555  23.427  25.134  1.00  0.00    -0.237 OA
ATOM     84  O   UNL A   1      53.975  25.514  23.889  1.00  0.00    -0.744 OA
ENDBRANCH  80  81
ENDBRANCH  59  73
BRANCH  60  85
ATOM     85  C   UNL A   1      40.534  29.394  29.409  1.00  0.00     0.058 A 
ATOM     86  C   UNL A   1      40.254  29.528  30.778  1.00  0.00     0.135 A 
ATOM     87  C   UNL A   1      39.507  29.698  28.501  1.00  0.00     0.135 A 
ATOM     88  F   UNL A   1      41.200  29.244  31.686  1.00  0.00    -0.206 F 
ATOM     89  C   UNL A   1      39.001  29.929  31.230  1.00  0.00     0.059 A 
ATOM     90  C   UNL A   1      38.255  30.128  28.928  1.00  0.00     0.059 A 
ATOM     91  F   UNL A   1      39.727  29.603  27.181  1.00  0.00    -0.206 F 
ATOM     92  C   UNL A   1      38.008  30.229  30.297  1.00  0.00     0.060 A 
BRANCH  92  93
ATOM     93  S   UNL A   1      36.399  30.788  30.895  1.00  0.00     0.124 S 
ATOM     94  O   UNL A   1      35.540  30.485  29.757  1.00  0.00    -0.237 OA
ATOM     95  O   UNL A   1      36.208  29.957  32.079  1.00  0.00    -0.237 OA
ATOM     96  O   UNL A   1      36.616  32.207  31.163  1.00  0.00    -0.744 OA
ENDBRANCH  92  93
ENDBRANCH  60  85
BRANCH  72  97
ATOM     97  C   UNL A   1      46.643  32.654  28.547  1.00  0.00     0.058 A 
ATOM     98  C   UNL A   1      47.224  33.112  29.740  1.00  0.00     0.135 A 
ATOM     99  C   UNL A   1      46.496  33.574  27.495  1.00  0.00     0.135 A 
ATOM    100  F   UNL A   1      47.384  32.278  30.779  1.00  0.00    -0.206 F 
ATOM    101  C   UNL A   1      47.613  34.440  29.895  1.00  0.00     0.059 A 
ATOM    102  C   UNL A   1      46.909  34.897  27.617  1.00  0.00     0.059 A 
ATOM    103  F   UNL A   1      45.958  33.188  26.327  1.00  0.00    -0.206 F 
ATOM    104  C   UNL A   1      47.450  35.324  28.828  1.00  0.00     0.060 A 
BRANCH 104 105
ATOM    105  S   UNL A   1      47.975  37.039  29.038  1.00  0.00     0.124 S 
ATOM    106  O   UNL A   1      49.422  36.890  29.165  1.00  0.00    -0.237 OA
ATOM    107  O   UNL A   1      47.508  37.663  27.803  1.00  0.00    -0.237 OA
ATOM    108  O   UNL A   1      47.279  37.462  30.249  1.00  0.00    -0.744 OA
ENDBRANCH 104 105
ENDBRANCH  72  97
ENDBRANCH  46  47
ENDBRANCH  38  41
ENDBRANCH  36  37
ENDBRANCH  35  36
ENDBRANCH   1  35
TORSDOF 19
ENDMDL
MODEL 2
REMARK VINA RESULT:     -11.6      0.525      7.897
REMARK SMILES O=C(CNC(=O)N1CC(NCCCCNC(=O)c2ccc(-c3c4nc(c(-c5c(F)cc(S(=O)(=O)[O-])cc5F)c5ccc([nH]5)c(-c5c(F)cc(S(=O)(=O)[O-])cc5F)c5nc(c(-c6c(F)cc(S(=O)(=O)[O-])cc6F)c6ccc3[nH]6)C=C5)C=C4)cc2)=[NH+]c2ccccc21)N[C@H](C(=O)[O-])c1ccccc1
REMARK SMILES IDX 12 1 11 2 10 3 7 4 8 5 90 6 9 7 85 8 89 9 84 10 86 11 88 12
REMARK SMILES IDX 87 15 5 16 4 17 6 19 3 20 2 21 1 22 91 23 92 25 96 26 97 27
REMARK SMILES IDX 101 28 98 29 100 30 99 31 93 32 94 33 95 34 13 35 14 36
REMARK SMILES IDX 15 37 16 38 17 40 18 41 19 42 83 43 20 44 82 45 21 46 22 47
REMARK SMILES IDX 23 48 76 49 24 50 81 51 75 52 77 53 25 54 80 55 74 56 73 57
REMARK SMILES IDX 26 59 60 60 39 61 59 62 40 63 43 64 58 65 78 66 41 67 42 68
REMARK SMILES IDX 57 70 79 71 44 72 27 73 28 74 37 75 29 76 30 77 36 78 38 79
REMARK SMILES IDX 31 80 32 81 33 82 34 83 35 84 61 85 62 86 71 87 63 88 64 89
REMARK SMILES IDX 70 90 72 91 65 92 66 93 67 94 68 95 69 96 45 97 46 98 55 99
REMARK SMILES IDX 47 100 48 101 54 102 56 103 49 104 50 105 51 106 52 107
REMARK SMILES IDX 53 108
REMARK H PARENT 10 13 84 14 4 18 91 24 15 39 77 58 43 69
REMARK Flexibility Score: inf
ROOT
ATOM      1  C   UNL A   1      38.022  21.868  25.117  1.00  0.00     0.048 C 
ENDROOT
BRANCH   1   2
ATOM      2  C   UNL A   1      36.530  22.039  25.397  1.00  0.00     0.233 C 
BRANCH   2   3
ATOM      3  N   UNL A   1      36.095  23.370  25.050  1.00  0.00    -0.277 N 
ATOM      4  N   UNL A   1      32.792  23.965  26.471  1.00  0.00    -0.278 N 
ATOM      5  C   UNL A   1      34.158  23.515  26.683  1.00  0.00     0.255 C 
ATOM      6  C   UNL A   1      32.665  25.359  26.245  1.00  0.00     0.093 A 
ATOM      7  C   UNL A   1      35.042  24.083  25.565  1.00  0.00     0.268 C 
ATOM      8  C   UNL A   1      33.723  26.000  25.571  1.00  0.00     0.148 A 
ATOM      9  C   UNL A   1      31.533  26.079  26.643  1.00  0.00     0.031 A 
ATOM     10  N   UNL A   1      34.838  25.283  25.083  1.00  0.00    -0.241 N 
ATOM     11  C   UNL A   1      33.603  27.357  25.267  1.00  0.00     0.054 A 
ATOM     12  C   UNL A   1      31.439  27.439  26.348  1.00  0.00     0.002 A 
ATOM     13  H   UNL A   1      36.621  23.826  24.354  1.00  0.00     0.304 HD
ATOM     14  H   UNL A   1      35.440  25.672  24.406  1.00  0.00     0.312 HD
ATOM     15  C   UNL A   1      32.467  28.075  25.653  1.00  0.00     0.005 A 
BRANCH   4  16
ATOM     16  C   UNL A   1      31.775  23.053  26.562  1.00  0.00     0.323 C 
ATOM     17  N   UNL A   1      31.570  22.193  25.529  1.00  0.00    -0.329 N 
ATOM     18  H   UNL A   1      30.668  21.805  25.460  1.00  0.00     0.165 HD
ATOM     19  O   UNL A   1      31.101  22.907  27.583  1.00  0.00    -0.248 OA
BRANCH  17  20
ATOM     20  C   UNL A   1      32.525  21.779  24.511  1.00  0.00     0.218 C 
BRANCH  20  21
ATOM     21  C   UNL A   1      32.247  22.523  23.208  1.00  0.00     0.240 C 
ATOM     22  O   UNL A   1      32.132  21.929  22.139  1.00  0.00    -0.273 OA
ATOM     23  N   UNL A   1      32.176  23.893  23.344  1.00  0.00    -0.342 N 
ATOM     24  H   UNL A   1      32.388  24.292  24.219  1.00  0.00     0.164 HD
BRANCH  23  25
ATOM     25  C   UNL A   1      31.801  24.774  22.242  1.00  0.00     0.158 C 
BRANCH  25  26
ATOM     26  C   UNL A   1      30.860  25.887  22.665  1.00  0.00    -0.020 A 
ATOM     27  C   UNL A   1      29.736  25.645  23.468  1.00  0.00     0.006 A 
ATOM     28  C   UNL A   1      31.106  27.208  22.247  1.00  0.00     0.006 A 
ATOM     29  C   UNL A   1      28.898  26.690  23.862  1.00  0.00     0.000 A 
ATOM     30  C   UNL A   1      30.266  28.252  22.639  1.00  0.00     0.000 A 
ATOM     31  C   UNL A   1      29.165  27.993  23.450  1.00  0.00     0.000 A 
ENDBRANCH  25  26
BRANCH  25  32
ATOM     32  C   UNL A   1      32.987  25.209  21.352  1.00  0.00     0.068 C 
ATOM     33  O   UNL A   1      33.042  25.189  20.132  1.00  0.00    -0.548 OA
ATOM     34  O   UNL A   1      34.112  25.508  22.050  1.00  0.00    -0.548 OA
ENDBRANCH  25  32
ENDBRANCH  23  25
ENDBRANCH  20  21
ENDBRANCH  17  20
ENDBRANCH   4  16
ENDBRANCH   2   3
ENDBRANCH   1   2
BRANCH   1  35
ATOM     35  C   UNL A   1      38.529  20.424  25.181  1.00  0.00     0.025 C 
BRANCH  35  36
ATOM     36  C   UNL A   1      39.348  20.069  26.419  1.00  0.00     0.116 C 
BRANCH  36  37
ATOM     37  N   UNL A   1      40.488  19.218  26.120  1.00  0.00    -0.352 N 
ATOM     38  C   UNL A   1      41.814  19.556  25.985  1.00  0.00     0.251 C 
ATOM     39  H   UNL A   1      40.281  18.264  25.999  1.00  0.00     0.163 HD
ATOM     40  O   UNL A   1      42.614  18.710  25.595  1.00  0.00    -0.269 OA
BRANCH  38  41
ATOM     41  C   UNL A   1      42.269  20.935  26.274  1.00  0.00     0.039 A 
ATOM     42  C   UNL A   1      42.568  21.280  27.594  1.00  0.00     0.014 A 
ATOM     43  C   UNL A   1      42.395  21.888  25.259  1.00  0.00     0.014 A 
ATOM     44  C   UNL A   1      43.049  22.560  27.885  1.00  0.00     0.010 A 
ATOM     45  C   UNL A   1      42.949  23.135  25.539  1.00  0.00     0.010 A 
ATOM     46  C   UNL A   1      43.275  23.489  26.856  1.00  0.00    -0.014 A 
BRANCH  46  47
ATOM     47  C   UNL A   1      43.846  24.831  27.148  1.00  0.00     0.031 A 
ATOM     48  C   UNL A   1      42.958  25.950  27.627  1.00  0.00     0.074 A 
ATOM     49  C   UNL A   1      45.159  25.057  26.942  1.00  0.00     0.049 A 
ATOM     50  N   UNL A   1      43.269  27.189  27.909  1.00  0.00    -0.248 NA
ATOM     51  C   UNL A   1      41.527  25.643  27.786  1.00  0.00     0.031 C 
ATOM     52  C   UNL A   1      46.117  24.073  26.429  1.00  0.00     0.029 A 
ATOM     53  N   UNL A   1      45.919  26.185  27.133  1.00  0.00    -0.354 N 
ATOM     54  C   UNL A   1      42.078  27.809  28.269  1.00  0.00     0.074 A 
ATOM     55  C   UNL A   1      41.028  26.827  28.110  1.00  0.00     0.031 C 
ATOM     56  C   UNL A   1      47.337  24.630  26.376  1.00  0.00     0.029 A 
ATOM     57  C   UNL A   1      47.246  26.020  26.813  1.00  0.00     0.049 A 
ATOM     58  H   UNL A   1      45.547  27.034  27.467  1.00  0.00     0.167 HD
ATOM     59  C   UNL A   1      41.879  29.073  28.716  1.00  0.00     0.037 A 
ATOM     60  C   UNL A   1      48.274  26.890  26.862  1.00  0.00     0.037 A 
ATOM     61  C   UNL A   1      42.932  30.041  28.891  1.00  0.00     0.049 A 
ATOM     62  C   UNL A   1      48.029  28.288  27.361  1.00  0.00     0.074 A 
ATOM     63  C   UNL A   1      42.841  31.328  29.391  1.00  0.00     0.029 A 
ATOM     64  N   UNL A   1      44.265  29.831  28.570  1.00  0.00    -0.354 N 
ATOM     65  N   UNL A   1      46.906  28.835  27.763  1.00  0.00    -0.248 NA
ATOM     66  C   UNL A   1      49.191  29.185  27.424  1.00  0.00     0.031 C 
ATOM     67  C   UNL A   1      44.109  31.915  29.322  1.00  0.00     0.029 A 
ATOM     68  C   UNL A   1      45.003  30.974  28.838  1.00  0.00     0.049 A 
ATOM     69  H   UNL A   1      44.633  28.994  28.205  1.00  0.00     0.167 HD
ATOM     70  C   UNL A   1      47.233  30.129  28.157  1.00  0.00     0.074 A 
ATOM     71  C   UNL A   1      48.660  30.276  27.956  1.00  0.00     0.031 C 
ATOM     72  C   UNL A   1      46.425  31.106  28.640  1.00  0.00     0.037 A 
BRANCH  59  73
ATOM     73  C   UNL A   1      40.470  29.482  29.054  1.00  0.00     0.058 A 
ATOM     74  C   UNL A   1      39.502  29.693  28.057  1.00  0.00     0.135 A 
ATOM     75  C   UNL A   1      40.068  29.630  30.392  1.00  0.00     0.135 A 
ATOM     76  F   UNL A   1      39.832  29.581  26.760  1.00  0.00    -0.206 F 
ATOM     77  C   UNL A   1      38.200  30.067  28.373  1.00  0.00     0.059 A 
ATOM     78  C   UNL A   1      38.763  29.971  30.731  1.00  0.00     0.059 A 
ATOM     79  F   UNL A   1      40.950  29.440  31.386  1.00  0.00    -0.206 F 
ATOM     80  C   UNL A   1      37.840  30.203  29.714  1.00  0.00     0.060 A 
BRANCH  80  81
ATOM     81  S   UNL A   1      36.144  30.684  30.104  1.00  0.00     0.124 S 
ATOM     82  O   UNL A   1      35.428  30.208  28.925  1.00  0.00    -0.237 OA
ATOM     83  O   UNL A   1      35.889  29.950  31.339  1.00  0.00    -0.237 OA
ATOM     84  O   UNL A   1      36.226  32.134  30.245  1.00  0.00    -0.744 OA
ENDBRANCH  80  81
ENDBRANCH  59  73
BRANCH  60  85
ATOM     85  C   UNL A   1      49.638  26.454  26.451  1.00  0.00     0.058 A 
ATOM     86  C   UNL A   1      50.474  25.760  27.339  1.00  0.00     0.135 A 
ATOM     87  C   UNL A   1      50.129  26.717  25.163  1.00  0.00     0.135 A 
ATOM     88  F   UNL A   1      50.053  25.490  28.584  1.00  0.00    -0.206 F 
ATOM     89  C   UNL A   1      51.755  25.360  26.973  1.00  0.00     0.059 A 
ATOM     90  C   UNL A   1      51.395  26.302  24.764  1.00  0.00     0.059 A 
ATOM     91  F   UNL A   1      49.363  27.361  24.270  1.00  0.00    -0.206 F 
ATOM     92  C   UNL A   1      52.206  25.634  25.681  1.00  0.00     0.060 A 
BRANCH  92  93
ATOM     93  S   UNL A   1      53.855  25.073  25.204  1.00  0.00     0.124 S 
ATOM     94  O   UNL A   1      54.690  25.731  26.201  1.00  0.00    -0.237 OA
ATOM     95  O   UNL A   1      53.732  23.624  25.328  1.00  0.00    -0.237 OA
ATOM     96  O   UNL A   1      53.994  25.568  23.837  1.00  0.00    -0.744 OA
ENDBRANCH  92  93
ENDBRANCH  60  85
BRANCH  72  97
ATOM     97  C   UNL A   1      47.071  32.410  29.027  1.00  0.00     0.058 A 
ATOM     98  C   UNL A   1      47.197  33.474  28.120  1.00  0.00     0.135 A 
ATOM     99  C   UNL A   1      47.537  32.608  30.338  1.00  0.00     0.135 A 
ATOM    100  F   UNL A   1      46.773  33.339  26.854  1.00  0.00    -0.206 F 
ATOM    101  C   UNL A   1      47.795  34.676  28.489  1.00  0.00     0.059 A 
ATOM    102  C   UNL A   1      48.107  33.812  30.737  1.00  0.00     0.059 A 
ATOM    103  F   UNL A   1      47.430  31.629  31.250  1.00  0.00    -0.206 F 
ATOM    104  C   UNL A   1      48.248  34.834  29.800  1.00  0.00     0.060 A 
BRANCH 104 105
ATOM    105  S   UNL A   1      49.005  36.405  30.270  1.00  0.00     0.124 S 
ATOM    106  O   UNL A   1      48.330  36.691  31.532  1.00  0.00    -0.237 OA
ATOM    107  O   UNL A   1      50.418  36.052  30.373  1.00  0.00    -0.237 OA
ATOM    108  O   UNL A   1      48.666  37.291  29.162  1.00  0.00    -0.744 OA
ENDBRANCH 104 105
ENDBRANCH  72  97
ENDBRANCH  46  47
ENDBRANCH  38  41
ENDBRANCH  36  37
ENDBRANCH  35  36
ENDBRANCH   1  35
TORSDOF 19
ENDMDL
MODEL 3
REMARK VINA RESULT:     -11.6      2.381      8.561
REMARK SMILES O=C(CNC(=O)N1CC(NCCCCNC(=O)c2ccc(-c3c4nc(c(-c5c(F)cc(S(=O)(=O)[O-])cc5F)c5ccc([nH]5)c(-c5c(F)cc(S(=O)(=O)[O-])cc5F)c5nc(c(-c6c(F)cc(S(=O)(=O)[O-])cc6F)c6ccc3[nH]6)C=C5)C=C4)cc2)=[NH+]c2ccccc21)N[C@H](C(=O)[O-])c1ccccc1
REMARK SMILES IDX 12 1 11 2 10 3 7 4 8 5 90 6 9 7 85 8 89 9 84 10 86 11 88 12
REMARK SMILES IDX 87 15 5 16 4 17 6 19 3 20 2 21 1 22 91 23 92 25 96 26 97 27
REMARK SMILES IDX 101 28 98 29 100 30 99 31 93 32 94 33 95 34 13 35 14 36
REMARK SMILES IDX 15 37 16 38 17 40 18 41 19 42 83 43 20 44 82 45 21 46 22 47
REMARK SMILES IDX 23 48 76 49 24 50 81 51 75 52 77 53 25 54 80 55 74 56 73 57
REMARK SMILES IDX 26 59 60 60 39 61 59 62 40 63 43 64 58 65 78 66 41 67 42 68
REMARK SMILES IDX 57 70 79 71 44 72 27 73 28 74 37 75 29 76 30 77 36 78 38 79
REMARK SMILES IDX 31 80 32 81 33 82 34 83 35 84 61 85 62 86 71 87 63 88 64 89
REMARK SMILES IDX 70 90 72 91 65 92 66 93 67 94 68 95 69 96 45 97 46 98 55 99
REMARK SMILES IDX 47 100 48 101 54 102 56 103 49 104 50 105 51 106 52 107
REMARK SMILES IDX 53 108
REMARK H PARENT 10 13 84 14 4 18 91 24 15 39 77 58 43 69
REMARK Flexibility Score: inf
ROOT
ATOM      1  C   UNL A   1      35.286  29.410  27.172  1.00  0.00     0.048 C 
ENDROOT
BRANCH   1   2
ATOM      2  C   UNL A   1      34.213  28.523  26.543  1.00  0.00     0.233 C 
BRANCH   2   3
ATOM      3  N   UNL A   1      33.505  29.236  25.506  1.00  0.00    -0.277 N 
ATOM      4  N   UNL A   1      30.497  27.384  24.611  1.00  0.00    -0.278 N 
ATOM      5  C   UNL A   1      31.320  27.955  25.664  1.00  0.00     0.255 C 
ATOM      6  C   UNL A   1      29.839  28.343  23.799  1.00  0.00     0.093 A 
ATOM      7  C   UNL A   1      32.227  29.030  25.050  1.00  0.00     0.268 C 
ATOM      8  C   UNL A   1      30.507  29.564  23.578  1.00  0.00     0.148 A 
ATOM      9  C   UNL A   1      28.594  28.095  23.212  1.00  0.00     0.031 A 
ATOM     10  N   UNL A   1      31.802  29.807  24.088  1.00  0.00    -0.241 N 
ATOM     11  C   UNL A   1      29.926  30.504  22.727  1.00  0.00     0.054 A 
ATOM     12  C   UNL A   1      28.018  29.055  22.380  1.00  0.00     0.002 A 
ATOM     13  H   UNL A   1      34.003  29.964  25.070  1.00  0.00     0.304 HD
ATOM     14  H   UNL A   1      32.363  30.535  23.732  1.00  0.00     0.312 HD
ATOM     15  C   UNL A   1      28.687  30.253  22.129  1.00  0.00     0.005 A 
BRANCH   4  16
ATOM     16  C   UNL A   1      30.380  26.022  24.530  1.00  0.00     0.323 C 
ATOM     17  N   UNL A   1      31.160  25.349  23.643  1.00  0.00    -0.329 N 
ATOM     18  H   UNL A   1      30.831  24.465  23.360  1.00  0.00     0.165 HD
ATOM     19  O   UNL A   1      29.672  25.367  25.296  1.00  0.00    -0.248 OA
BRANCH  17  20
ATOM     20  C   UNL A   1      32.422  25.779  23.060  1.00  0.00     0.218 C 
BRANCH  20  21
ATOM     21  C   UNL A   1      33.585  25.147  23.820  1.00  0.00     0.240 C 
ATOM     22  O   UNL A   1      34.278  25.799  24.596  1.00  0.00    -0.273 OA
ATOM     23  N   UNL A   1      33.793  23.817  23.525  1.00  0.00    -0.342 N 
ATOM     24  H   UNL A   1      33.258  23.401  22.810  1.00  0.00     0.164 HD
BRANCH  23  25
ATOM     25  C   UNL A   1      34.776  23.000  24.231  1.00  0.00     0.158 C 
BRANCH  25  26
ATOM     26  C   UNL A   1      34.310  21.574  24.461  1.00  0.00    -0.020 A 
ATOM     27  C   UNL A   1      32.952  21.226  24.452  1.00  0.00     0.006 A 
ATOM     28  C   UNL A   1      35.256  20.558  24.692  1.00  0.00     0.006 A 
ATOM     29  C   UNL A   1      32.551  19.902  24.643  1.00  0.00     0.000 A 
ATOM     30  C   UNL A   1      34.853  19.235  24.886  1.00  0.00     0.000 A 
ATOM     31  C   UNL A   1      33.500  18.907  24.857  1.00  0.00     0.000 A 
ENDBRANCH  25  26
BRANCH  25  32
ATOM     32  C   UNL A   1      36.219  23.150  23.699  1.00  0.00     0.068 C 
ATOM     33  O   UNL A   1      36.601  23.004  22.548  1.00  0.00    -0.548 OA
ATOM     34  O   UNL A   1      37.145  23.328  24.674  1.00  0.00    -0.548 OA
ENDBRANCH  25  32
ENDBRANCH  23  25
ENDBRANCH  20  21
ENDBRANCH  17  20
ENDBRANCH   4  16
ENDBRANCH   2   3
ENDBRANCH   1   2
BRANCH   1  35
ATOM     35  C   UNL A   1      34.786  30.764  27.682  1.00  0.00     0.025 C 
BRANCH  35  36
ATOM     36  C   UNL A   1      35.732  31.499  28.629  1.00  0.00     0.116 C 
BRANCH  36  37
ATOM     37  N   UNL A   1      35.589  31.077  30.013  1.00  0.00    -0.352 N 
ATOM     38  C   UNL A   1      36.482  30.404  30.814  1.00  0.00     0.251 C 
ATOM     39  H   UNL A   1      34.732  31.307  30.438  1.00  0.00     0.163 HD
ATOM     40  O   UNL A   1      36.123  30.017  31.922  1.00  0.00    -0.269 OA
BRANCH  38  41
ATOM     41  C   UNL A   1      37.853  30.120  30.333  1.00  0.00     0.039 A 
ATOM     42  C   UNL A   1      38.835  29.779  31.267  1.00  0.00     0.014 A 
ATOM     43  C   UNL A   1      38.179  30.193  28.976  1.00  0.00     0.014 A 
ATOM     44  C   UNL A   1      40.124  29.457  30.833  1.00  0.00     0.010 A 
ATOM     45  C   UNL A   1      39.440  29.795  28.539  1.00  0.00     0.010 A 
ATOM     46  C   UNL A   1      40.430  29.429  29.462  1.00  0.00    -0.014 A 
BRANCH  46  47
ATOM     47  C   UNL A   1      41.781  29.025  28.987  1.00  0.00     0.031 A 
ATOM     48  C   UNL A   1      42.901  30.031  28.930  1.00  0.00     0.074 A 
ATOM     49  C   UNL A   1      41.990  27.761  28.566  1.00  0.00     0.049 A 
ATOM     50  N   UNL A   1      44.134  29.871  28.523  1.00  0.00    -0.248 NA
ATOM     51  C   UNL A   1      42.587  31.403  29.362  1.00  0.00     0.031 C 
ATOM     52  C   UNL A   1      40.974  26.706  28.521  1.00  0.00     0.029 A 
ATOM     53  N   UNL A   1      43.123  27.147  28.093  1.00  0.00    -0.354 N 
ATOM     54  C   UNL A   1      44.739  31.117  28.642  1.00  0.00     0.074 A 
ATOM     55  C   UNL A   1      43.720  32.037  29.099  1.00  0.00     0.031 C 
ATOM     56  C   UNL A   1      41.537  25.571  28.077  1.00  0.00     0.029 A 
ATOM     57  C   UNL A   1      42.941  25.823  27.769  1.00  0.00     0.049 A 
ATOM     58  H   UNL A   1      43.985  27.612  27.994  1.00  0.00     0.167 HD
ATOM     59  C   UNL A   1      46.030  31.460  28.416  1.00  0.00     0.037 A 
ATOM     60  C   UNL A   1      43.805  24.914  27.275  1.00  0.00     0.037 A 
ATOM     61  C   UNL A   1      47.045  30.536  27.979  1.00  0.00     0.049 A 
ATOM     62  C   UNL A   1      45.234  25.319  27.031  1.00  0.00     0.074 A 
ATOM     63  C   UNL A   1      48.393  30.771  27.775  1.00  0.00     0.029 A 
ATOM     64  N   UNL A   1      46.825  29.200  27.675  1.00  0.00    -0.354 N 
ATOM     65  N   UNL A   1      45.804  26.486  27.215  1.00  0.00    -0.248 NA
ATOM     66  C   UNL A   1      46.141  24.281  26.522  1.00  0.00     0.031 C 
ATOM     67  C   UNL A   1      48.978  29.594  27.298  1.00  0.00     0.029 A 
ATOM     68  C   UNL A   1      48.007  28.606  27.262  1.00  0.00     0.049 A 
ATOM     69  H   UNL A   1      45.956  28.742  27.742  1.00  0.00     0.167 HD
ATOM     70  C   UNL A   1      47.142  26.314  26.876  1.00  0.00     0.074 A 
ATOM     71  C   UNL A   1      47.297  24.927  26.489  1.00  0.00     0.031 C 
ATOM     72  C   UNL A   1      48.151  27.221  26.885  1.00  0.00     0.037 A 
BRANCH  59  73
ATOM     73  C   UNL A   1      46.423  32.896  28.642  1.00  0.00     0.058 A 
ATOM     74  C   UNL A   1      46.905  33.345  29.883  1.00  0.00     0.135 A 
ATOM     75  C   UNL A   1      46.352  33.831  27.595  1.00  0.00     0.135 A 
ATOM     76  F   UNL A   1      46.981  32.500  30.924  1.00  0.00    -0.206 F 
ATOM     77  C   UNL A   1      47.271  34.671  30.086  1.00  0.00     0.059 A 
ATOM     78  C   UNL A   1      46.743  35.155  27.768  1.00  0.00     0.059 A 
ATOM     79  F   UNL A   1      45.899  33.459  26.387  1.00  0.00    -0.206 F 
ATOM     80  C   UNL A   1      47.187  35.570  29.022  1.00  0.00     0.060 A 
BRANCH  80  81
ATOM     81  S   UNL A   1      47.670  37.286  29.304  1.00  0.00     0.124 S 
ATOM     82  O   UNL A   1      49.123  37.202  29.185  1.00  0.00    -0.237 OA
ATOM     83  O   UNL A   1      46.985  37.984  28.223  1.00  0.00    -0.237 OA
ATOM     84  O   UNL A   1      47.167  37.564  30.646  1.00  0.00    -0.744 OA
ENDBRANCH  80  81
ENDBRANCH  59  73
BRANCH  60  85
ATOM     85  C   UNL A   1      43.348  23.524  27.003  1.00  0.00     0.058 A 
ATOM     86  C   UNL A   1      43.134  22.614  28.051  1.00  0.00     0.135 A 
ATOM     87  C   UNL A   1      43.111  23.077  25.694  1.00  0.00     0.135 A 
ATOM     88  F   UNL A   1      43.352  22.991  29.320  1.00  0.00    -0.206 F 
ATOM     89  C   UNL A   1      42.722  21.308  27.810  1.00  0.00     0.059 A 
ATOM     90  C   UNL A   1      42.670  21.784  25.429  1.00  0.00     0.059 A 
ATOM     91  F   UNL A   1      43.283  23.911  24.657  1.00  0.00    -0.206 F 
ATOM     92  C   UNL A   1      42.490  20.903  26.495  1.00  0.00     0.060 A 
BRANCH  92  93
ATOM     93  S   UNL A   1      41.913  19.218  26.198  1.00  0.00     0.124 S 
ATOM     94  O   UNL A   1      40.486  19.428  25.985  1.00  0.00    -0.237 OA
ATOM     95  O   UNL A   1      42.685  18.833  25.021  1.00  0.00    -0.237 OA
ATOM     96  O   UNL A   1      42.271  18.519  27.430  1.00  0.00    -0.744 OA
ENDBRANCH  92  93
ENDBRANCH  60  85
BRANCH  72  97
ATOM     97  C   UNL A   1      49.524  26.735  26.503  1.00  0.00     0.058 A 
ATOM     98  C   UNL A   1      50.374  26.109  27.426  1.00  0.00     0.135 A 
ATOM     99  C   UNL A   1      49.978  26.868  25.179  1.00  0.00     0.135 A 
ATOM    100  F   UNL A   1      49.993  25.960  28.705  1.00  0.00    -0.206 F 
ATOM    101  C   UNL A   1      51.641  25.662  27.061  1.00  0.00     0.059 A 
ATOM    102  C   UNL A   1      51.226  26.399  24.785  1.00  0.00     0.059 A 
ATOM    103  F   UNL A   1      49.200  27.447  24.251  1.00  0.00    -0.206 F 
ATOM    104  C   UNL A   1      52.058  25.813  25.737  1.00  0.00     0.060 A 
BRANCH 104 105
ATOM    105  S   UNL A   1      53.697  25.213  25.273  1.00  0.00     0.124 S 
ATOM    106  O   UNL A   1      54.536  25.829  26.296  1.00  0.00    -0.237 OA
ATOM    107  O   UNL A   1      53.539  23.765  25.371  1.00  0.00    -0.237 OA
ATOM    108  O   UNL A   1      53.876  25.728  23.920  1.00  0.00    -0.744 OA
ENDBRANCH 104 105
ENDBRANCH  72  97
ENDBRANCH  46  47
ENDBRANCH  38  41
ENDBRANCH  36  37
ENDBRANCH  35  36
ENDBRANCH   1  35
TORSDOF 19
ENDMDL
