MODEL 1
REMARK VINA RESULT:     -15.7      0.000      0.000
REMARK SMILES Cc1c(C(=O)NCCCCNC(=O)c2ccc(-c3c4nc(c(-c5c(F)cc(S(=O)(=O)[O-])cc5F)c5ccc([nH]5)c(-c5c(F)cc(S(=O)(=O)[O-])cc5F)c5nc(c(-c6c(F)cc(S(=O)(=O)[O-])cc6F)c6ccc3[nH]6)C=C5)C=C4)cc2)cccc1-n1c(C)cc(/C=C2/C(=O)NC(=S)N=C2O)c1C
REMARK SMILES IDX 8 1 7 2 6 3 4 4 5 5 3 7 1 8 2 9 83 10 80 11 82 12 81 13
REMARK SMILES IDX 84 14 85 15 99 16 86 17 87 18 88 19 100 20 89 21 90 22 91 23
REMARK SMILES IDX 97 24 92 25 93 26 96 27 94 28 95 30 98 31 9 33 10 34 11 35
REMARK SMILES IDX 12 36 13 38 14 39 15 40 79 41 16 42 78 43 17 44 18 45 19 46
REMARK SMILES IDX 72 47 20 48 77 49 71 50 73 51 21 52 76 53 70 54 69 55 22 57
REMARK SMILES IDX 56 58 35 59 55 60 36 61 39 62 54 63 74 64 37 65 38 66 53 68
REMARK SMILES IDX 75 69 40 70 23 71 24 72 33 73 25 74 26 75 32 76 34 77 27 78
REMARK SMILES IDX 28 79 29 80 30 81 31 82 57 83 58 84 67 85 59 86 60 87 66 88
REMARK SMILES IDX 68 89 61 90 62 91 63 92 64 93 65 94 41 95 42 96 51 97 43 98
REMARK SMILES IDX 44 99 50 100 52 101 45 102 46 103 47 104 48 105 49 106
REMARK H PARENT 6 6 93 29 98 32 11 37 73 56 39 67
REMARK Flexibility Score: inf
ROOT
ATOM      1  C   UNL A   1      31.940  29.365  27.068  1.00  0.00     0.023 C 
ENDROOT
BRANCH   1   2
ATOM      2  C   UNL A   1      31.947  30.368  25.896  1.00  0.00     0.116 C 
BRANCH   2   3
ATOM      3  N   UNL A   1      31.099  29.910  24.812  1.00  0.00    -0.352 N 
ATOM      4  C   UNL A   1      31.023  28.819  23.994  1.00  0.00     0.251 C 
ATOM      5  O   UNL A   1      30.077  28.872  23.194  1.00  0.00    -0.269 OA
ATOM      6  H   UNL A   1      30.388  30.561  24.612  1.00  0.00     0.163 HD
BRANCH   4   7
ATOM      7  C   UNL A   1      31.891  27.582  23.953  1.00  0.00     0.044 A 
ATOM      8  C   UNL A   1      30.141  25.696  24.036  1.00  0.00     0.047 C 
ATOM      9  C   UNL A   1      31.546  26.211  24.008  1.00  0.00    -0.014 A 
ATOM     10  C   UNL A   1      32.598  25.256  24.106  1.00  0.00     0.049 A 
ATOM     11  C   UNL A   1      33.276  27.905  24.018  1.00  0.00     0.014 A 
ATOM     12  C   UNL A   1      33.947  25.609  24.188  1.00  0.00     0.027 A 
ATOM     13  C   UNL A   1      34.286  26.946  24.143  1.00  0.00     0.003 A 
BRANCH  10  14
ATOM     14  N   UNL A   1      32.303  23.880  24.266  1.00  0.00    -0.318 N 
ATOM     15  C   UNL A   1      31.940  23.277  25.454  1.00  0.00     0.020 A 
ATOM     16  C   UNL A   1      32.553  22.901  23.304  1.00  0.00     0.027 A 
ATOM     17  C   UNL A   1      31.833  24.007  26.749  1.00  0.00     0.065 C 
ATOM     18  C   UNL A   1      31.781  21.931  25.194  1.00  0.00     0.031 A 
ATOM     19  C   UNL A   1      32.149  21.689  23.843  1.00  0.00    -0.003 A 
ATOM     20  C   UNL A   1      33.230  23.250  22.017  1.00  0.00     0.065 C 
BRANCH  19  21
ATOM     21  C   UNL A   1      32.262  20.373  23.298  1.00  0.00     0.029 C 
ATOM     22  C   UNL A   1      32.676  19.207  23.827  1.00  0.00     0.102 C 
ATOM     23  C   UNL A   1      32.496  18.005  22.975  1.00  0.00     0.262 C 
ATOM     24  C   UNL A   1      33.208  18.904  25.156  1.00  0.00     0.226 C 
ATOM     25  O   UNL A   1      32.338  18.025  21.761  1.00  0.00    -0.269 OA
ATOM     26  N   UNL A   1      32.512  16.827  23.674  1.00  0.00    -0.297 N 
ATOM     27  N   UNL A   1      33.269  17.750  25.714  1.00  0.00    -0.184 NA
ATOM     28  C   UNL A   1      32.815  16.670  25.003  1.00  0.00     0.203 C 
ATOM     29  H   UNL A   1      32.281  16.011  23.172  1.00  0.00     0.172 HD
ATOM     30  S   UNL A   1      32.679  15.131  25.656  1.00  0.00    -0.038 S 
BRANCH  24  31
ATOM     31  O   UNL A   1      33.755  19.920  25.826  1.00  0.00    -0.493 OA
ATOM     32  H   UNL A   1      34.038  20.686  25.367  1.00  0.00     0.295 HD
ENDBRANCH  24  31
ENDBRANCH  19  21
ENDBRANCH  10  14
ENDBRANCH   4   7
ENDBRANCH   2   3
ENDBRANCH   1   2
BRANCH   1  33
ATOM     33  C   UNL A   1      33.318  28.957  27.582  1.00  0.00     0.023 C 
BRANCH  33  34
ATOM     34  C   UNL A   1      34.432  29.616  26.793  1.00  0.00     0.116 C 
BRANCH  34  35
ATOM     35  N   UNL A   1      34.998  30.812  27.382  1.00  0.00    -0.352 N 
ATOM     36  C   UNL A   1      35.936  30.829  28.413  1.00  0.00     0.251 C 
ATOM     37  H   UNL A   1      34.697  31.680  27.028  1.00  0.00     0.163 HD
ATOM     38  O   UNL A   1      36.022  31.733  29.217  1.00  0.00    -0.269 OA
BRANCH  36  39
ATOM     39  C   UNL A   1      36.955  29.750  28.367  1.00  0.00     0.039 A 
ATOM     40  C   UNL A   1      37.128  28.978  29.522  1.00  0.00     0.014 A 
ATOM     41  C   UNL A   1      37.895  29.718  27.342  1.00  0.00     0.014 A 
ATOM     42  C   UNL A   1      38.332  28.303  29.722  1.00  0.00     0.010 A 
ATOM     43  C   UNL A   1      39.130  29.155  27.599  1.00  0.00     0.010 A 
ATOM     44  C   UNL A   1      39.363  28.471  28.800  1.00  0.00    -0.014 A 
BRANCH  44  45
ATOM     45  C   UNL A   1      40.730  27.985  28.986  1.00  0.00     0.031 A 
ATOM     46  C   UNL A   1      41.065  26.603  28.560  1.00  0.00     0.074 A 
ATOM     47  C   UNL A   1      41.698  28.817  29.423  1.00  0.00     0.049 A 
ATOM     48  N   UNL A   1      42.166  25.988  28.825  1.00  0.00    -0.248 NA
ATOM     49  C   UNL A   1      40.124  25.785  27.803  1.00  0.00     0.031 C 
ATOM     50  C   UNL A   1      43.142  28.610  29.361  1.00  0.00     0.029 A 
ATOM     51  N   UNL A   1      41.545  29.944  30.236  1.00  0.00    -0.354 N 
ATOM     52  C   UNL A   1      42.181  24.803  28.120  1.00  0.00     0.074 A 
ATOM     53  C   UNL A   1      40.880  24.727  27.500  1.00  0.00     0.031 C 
ATOM     54  C   UNL A   1      43.728  29.369  30.300  1.00  0.00     0.029 A 
ATOM     55  C   UNL A   1      42.671  29.976  31.090  1.00  0.00     0.049 A 
ATOM     56  H   UNL A   1      40.800  30.588  30.218  1.00  0.00     0.167 HD
ATOM     57  C   UNL A   1      43.326  24.061  28.080  1.00  0.00     0.037 A 
ATOM     58  C   UNL A   1      42.506  29.802  32.437  1.00  0.00     0.037 A 
ATOM     59  C   UNL A   1      44.316  24.582  29.023  1.00  0.00     0.049 A 
ATOM     60  C   UNL A   1      43.093  28.512  32.978  1.00  0.00     0.074 A 
ATOM     61  C   UNL A   1      45.389  25.453  28.930  1.00  0.00     0.029 A 
ATOM     62  N   UNL A   1      44.061  24.434  30.376  1.00  0.00    -0.354 N 
ATOM     63  N   UNL A   1      43.720  27.620  32.257  1.00  0.00    -0.248 NA
ATOM     64  C   UNL A   1      42.959  28.096  34.377  1.00  0.00     0.031 C 
ATOM     65  C   UNL A   1      45.705  25.903  30.247  1.00  0.00     0.029 A 
ATOM     66  C   UNL A   1      44.838  25.290  31.134  1.00  0.00     0.049 A 
ATOM     67  H   UNL A   1      43.408  23.800  30.750  1.00  0.00     0.167 HD
ATOM     68  C   UNL A   1      44.010  26.532  33.034  1.00  0.00     0.074 A 
ATOM     69  C   UNL A   1      43.538  26.884  34.361  1.00  0.00     0.031 C 
ATOM     70  C   UNL A   1      44.578  25.389  32.557  1.00  0.00     0.037 A 
BRANCH  57  71
ATOM     71  C   UNL A   1      43.618  22.979  27.059  1.00  0.00     0.058 A 
ATOM     72  C   UNL A   1      42.868  21.781  27.057  1.00  0.00     0.135 A 
ATOM     73  C   UNL A   1      44.651  23.020  26.101  1.00  0.00     0.135 A 
ATOM     74  F   UNL A   1      41.803  21.623  27.855  1.00  0.00    -0.206 F 
ATOM     75  C   UNL A   1      43.185  20.684  26.249  1.00  0.00     0.059 A 
ATOM     76  C   UNL A   1      45.029  21.916  25.331  1.00  0.00     0.059 A 
ATOM     77  F   UNL A   1      45.302  24.154  25.820  1.00  0.00    -0.206 F 
ATOM     78  C   UNL A   1      44.293  20.745  25.416  1.00  0.00     0.060 A 
BRANCH  78  79
ATOM     79  S   UNL A   1      44.748  19.294  24.447  1.00  0.00     0.124 S 
ATOM     80  O   UNL A   1      43.926  18.251  25.052  1.00  0.00    -0.237 OA
ATOM     81  O   UNL A   1      44.371  19.700  23.098  1.00  0.00    -0.237 OA
ATOM     82  O   UNL A   1      46.184  19.164  24.684  1.00  0.00    -0.744 OA
ENDBRANCH  78  79
ENDBRANCH  57  71
BRANCH  58  83
ATOM     83  C   UNL A   1      41.282  30.494  32.937  1.00  0.00     0.058 A 
ATOM     84  C   UNL A   1      40.156  29.690  33.213  1.00  0.00     0.135 A 
ATOM     85  C   UNL A   1      41.352  31.745  33.562  1.00  0.00     0.135 A 
ATOM     86  F   UNL A   1      40.024  28.492  32.618  1.00  0.00    -0.206 F 
ATOM     87  C   UNL A   1      39.255  30.016  34.218  1.00  0.00     0.059 A 
ATOM     88  C   UNL A   1      40.444  32.104  34.560  1.00  0.00     0.059 A 
ATOM     89  F   UNL A   1      42.391  32.562  33.328  1.00  0.00    -0.206 F 
ATOM     90  C   UNL A   1      39.460  31.189  34.940  1.00  0.00     0.060 A 
BRANCH  90  91
ATOM     91  S   UNL A   1      38.540  31.405  36.484  1.00  0.00     0.124 S 
ATOM     92  O   UNL A   1      37.438  32.264  36.067  1.00  0.00    -0.237 OA
ATOM     93  O   UNL A   1      38.175  30.026  36.812  1.00  0.00    -0.237 OA
ATOM     94  O   UNL A   1      39.520  32.022  37.370  1.00  0.00    -0.744 OA
ENDBRANCH  90  91
ENDBRANCH  58  83
BRANCH  70  95
ATOM     95  C   UNL A   1      44.932  24.257  33.464  1.00  0.00     0.058 A 
ATOM     96  C   UNL A   1      46.262  24.035  33.855  1.00  0.00     0.135 A 
ATOM     97  C   UNL A   1      43.978  23.305  33.866  1.00  0.00     0.135 A 
ATOM     98  F   UNL A   1      47.231  24.890  33.488  1.00  0.00    -0.206 F 
ATOM     99  C   UNL A   1      46.626  22.936  34.627  1.00  0.00     0.059 A 
ATOM    100  C   UNL A   1      44.324  22.180  34.608  1.00  0.00     0.059 A 
ATOM    101  F   UNL A   1      42.681  23.462  33.561  1.00  0.00    -0.206 F 
ATOM    102  C   UNL A   1      45.650  22.013  34.999  1.00  0.00     0.060 A 
BRANCH 102 103
ATOM    103  S   UNL A   1      46.119  20.572  35.977  1.00  0.00     0.124 S 
ATOM    104  O   UNL A   1      45.681  20.935  37.321  1.00  0.00    -0.237 OA
ATOM    105  O   UNL A   1      45.347  19.518  35.325  1.00  0.00    -0.237 OA
ATOM    106  O   UNL A   1      47.565  20.502  35.794  1.00  0.00    -0.744 OA
ENDBRANCH 102 103
ENDBRANCH  70  95
ENDBRANCH  44  45
ENDBRANCH  36  39
ENDBRANCH  34  35
ENDBRANCH  33  34
ENDBRANCH   1  33
TORSDOF 17
ENDMDL
MODEL 2
REMARK VINA RESULT:     -15.4      5.091     11.566
REMARK SMILES Cc1c(C(=O)NCCCCNC(=O)c2ccc(-c3c4nc(c(-c5c(F)cc(S(=O)(=O)[O-])cc5F)c5ccc([nH]5)c(-c5c(F)cc(S(=O)(=O)[O-])cc5F)c5nc(c(-c6c(F)cc(S(=O)(=O)[O-])cc6F)c6ccc3[nH]6)C=C5)C=C4)cc2)cccc1-n1c(C)cc(/C=C2/C(=O)NC(=S)N=C2O)c1C
REMARK SMILES IDX 8 1 7 2 6 3 4 4 5 5 3 7 1 8 2 9 83 10 80 11 82 12 81 13
REMARK SMILES IDX 84 14 85 15 99 16 86 17 87 18 88 19 100 20 89 21 90 22 91 23
REMARK SMILES IDX 97 24 92 25 93 26 96 27 94 28 95 30 98 31 9 33 10 34 11 35
REMARK SMILES IDX 12 36 13 38 14 39 15 40 79 41 16 42 78 43 17 44 18 45 19 46
REMARK SMILES IDX 72 47 20 48 77 49 71 50 73 51 21 52 76 53 70 54 69 55 22 57
REMARK SMILES IDX 56 58 35 59 55 60 36 61 39 62 54 63 74 64 37 65 38 66 53 68
REMARK SMILES IDX 75 69 40 70 23 71 24 72 33 73 25 74 26 75 32 76 34 77 27 78
REMARK SMILES IDX 28 79 29 80 30 81 31 82 57 83 58 84 67 85 59 86 60 87 66 88
REMARK SMILES IDX 68 89 61 90 62 91 63 92 64 93 65 94 41 95 42 96 51 97 43 98
REMARK SMILES IDX 44 99 50 100 52 101 45 102 46 103 47 104 48 105 49 106
REMARK H PARENT 6 6 93 29 98 32 11 37 73 56 39 67
REMARK Flexibility Score: inf
ROOT
ATOM      1  C   UNL A   1      36.973  21.250  25.669  1.00  0.00     0.023 C 
ENDROOT
BRANCH   1   2
ATOM      2  C   UNL A   1      36.749  20.083  24.684  1.00  0.00     0.116 C 
BRANCH   2   3
ATOM      3  N   UNL A   1      35.535  19.357  25.002  1.00  0.00    -0.352 N 
ATOM      4  C   UNL A   1      34.189  19.577  24.930  1.00  0.00     0.251 C 
ATOM      5  O   UNL A   1      33.513  18.614  25.323  1.00  0.00    -0.269 OA
ATOM      6  H   UNL A   1      35.735  18.465  25.369  1.00  0.00     0.163 HD
BRANCH   4   7
ATOM      7  C   UNL A   1      33.435  20.788  24.427  1.00  0.00     0.044 A 
ATOM      8  C   UNL A   1      33.686  22.430  26.393  1.00  0.00     0.047 C 
ATOM      9  C   UNL A   1      33.164  22.029  25.049  1.00  0.00    -0.014 A 
ATOM     10  C   UNL A   1      32.287  22.935  24.387  1.00  0.00     0.049 A 
ATOM     11  C   UNL A   1      32.791  20.531  23.183  1.00  0.00     0.014 A 
ATOM     12  C   UNL A   1      31.656  22.643  23.176  1.00  0.00     0.027 A 
ATOM     13  C   UNL A   1      31.912  21.429  22.571  1.00  0.00     0.003 A 
BRANCH  10  14
ATOM     14  N   UNL A   1      31.904  24.146  25.013  1.00  0.00    -0.318 N 
ATOM     15  C   UNL A   1      30.897  24.274  25.950  1.00  0.00     0.020 A 
ATOM     16  C   UNL A   1      32.330  25.413  24.613  1.00  0.00     0.027 A 
ATOM     17  C   UNL A   1      30.055  23.135  26.413  1.00  0.00     0.065 C 
ATOM     18  C   UNL A   1      30.815  25.611  26.278  1.00  0.00     0.031 A 
ATOM     19  C   UNL A   1      31.721  26.331  25.455  1.00  0.00    -0.003 A 
ATOM     20  C   UNL A   1      33.206  25.580  23.413  1.00  0.00     0.065 C 
BRANCH  19  21
ATOM     21  C   UNL A   1      31.764  27.760  25.419  1.00  0.00     0.029 C 
ATOM     22  C   UNL A   1      31.136  28.664  24.646  1.00  0.00     0.102 C 
ATOM     23  C   UNL A   1      31.324  30.087  25.024  1.00  0.00     0.262 C 
ATOM     24  C   UNL A   1      30.216  28.478  23.524  1.00  0.00     0.226 C 
ATOM     25  O   UNL A   1      32.235  30.509  25.726  1.00  0.00    -0.269 OA
ATOM     26  N   UNL A   1      30.363  30.923  24.520  1.00  0.00    -0.297 N 
ATOM     27  N   UNL A   1      29.398  29.346  23.048  1.00  0.00    -0.184 NA
ATOM     28  C   UNL A   1      29.383  30.591  23.619  1.00  0.00     0.203 C 
ATOM     29  H   UNL A   1      30.378  31.856  24.837  1.00  0.00     0.172 HD
ATOM     30  S   UNL A   1      28.263  31.773  23.218  1.00  0.00    -0.038 S 
BRANCH  24  31
ATOM     31  O   UNL A   1      30.286  27.310  22.881  1.00  0.00    -0.493 OA
ATOM     32  H   UNL A   1      30.213  27.285  21.947  1.00  0.00     0.295 HD
ENDBRANCH  24  31
ENDBRANCH  19  21
ENDBRANCH  10  14
ENDBRANCH   4   7
ENDBRANCH   2   3
ENDBRANCH   1   2
BRANCH   1  33
ATOM     33  C   UNL A   1      37.267  22.599  25.020  1.00  0.00     0.023 C 
BRANCH  33  34
ATOM     34  C   UNL A   1      37.819  23.597  26.019  1.00  0.00     0.116 C 
BRANCH  34  35
ATOM     35  N   UNL A   1      39.016  23.185  26.724  1.00  0.00    -0.352 N 
ATOM     36  C   UNL A   1      40.071  24.027  27.068  1.00  0.00     0.251 C 
ATOM     37  H   UNL A   1      39.090  22.237  26.979  1.00  0.00     0.163 HD
ATOM     38  O   UNL A   1      41.218  23.646  27.174  1.00  0.00    -0.269 OA
BRANCH  36  39
ATOM     39  C   UNL A   1      39.684  25.402  27.477  1.00  0.00     0.039 A 
ATOM     40  C   UNL A   1      40.220  26.466  26.743  1.00  0.00     0.014 A 
ATOM     41  C   UNL A   1      39.077  25.621  28.709  1.00  0.00     0.014 A 
ATOM     42  C   UNL A   1      40.298  27.731  27.325  1.00  0.00     0.010 A 
ATOM     43  C   UNL A   1      39.270  26.840  29.330  1.00  0.00     0.010 A 
ATOM     44  C   UNL A   1      39.906  27.890  28.653  1.00  0.00    -0.014 A 
BRANCH  44  45
ATOM     45  C   UNL A   1      40.116  29.103  29.441  1.00  0.00     0.031 A 
ATOM     46  C   UNL A   1      39.065  30.151  29.441  1.00  0.00     0.074 A 
ATOM     47  C   UNL A   1      41.190  29.216  30.250  1.00  0.00     0.049 A 
ATOM     48  N   UNL A   1      39.191  31.334  29.936  1.00  0.00    -0.248 NA
ATOM     49  C   UNL A   1      37.761  29.928  28.827  1.00  0.00     0.031 C 
ATOM     50  C   UNL A   1      41.394  30.180  31.327  1.00  0.00     0.029 A 
ATOM     51  N   UNL A   1      42.436  28.600  30.098  1.00  0.00    -0.354 N 
ATOM     52  C   UNL A   1      37.959  31.951  29.905  1.00  0.00     0.074 A 
ATOM     53  C   UNL A   1      37.102  31.028  29.200  1.00  0.00     0.031 C 
ATOM     54  C   UNL A   1      42.711  30.307  31.550  1.00  0.00     0.029 A 
ATOM     55  C   UNL A   1      43.400  29.539  30.528  1.00  0.00     0.049 A 
ATOM     56  H   UNL A   1      42.607  27.693  29.756  1.00  0.00     0.167 HD
ATOM     57  C   UNL A   1      37.788  33.141  30.552  1.00  0.00     0.037 A 
ATOM     58  C   UNL A   1      44.289  30.060  29.628  1.00  0.00     0.037 A 
ATOM     59  C   UNL A   1      39.073  33.677  31.002  1.00  0.00     0.049 A 
ATOM     60  C   UNL A   1      44.098  31.538  29.343  1.00  0.00     0.074 A 
ATOM     61  C   UNL A   1      39.790  33.629  32.186  1.00  0.00     0.029 A 
ATOM     62  N   UNL A   1      39.959  34.128  30.038  1.00  0.00    -0.354 N 
ATOM     63  N   UNL A   1      43.184  32.290  29.896  1.00  0.00    -0.248 NA
ATOM     64  C   UNL A   1      44.893  32.272  28.355  1.00  0.00     0.031 C 
ATOM     65  C   UNL A   1      41.147  33.962  31.892  1.00  0.00     0.029 A 
ATOM     66  C   UNL A   1      41.243  34.229  30.538  1.00  0.00     0.049 A 
ATOM     67  H   UNL A   1      39.705  34.349  29.113  1.00  0.00     0.167 HD
ATOM     68  C   UNL A   1      43.216  33.534  29.329  1.00  0.00     0.074 A 
ATOM     69  C   UNL A   1      44.319  33.487  28.386  1.00  0.00     0.031 C 
ATOM     70  C   UNL A   1      42.326  34.524  29.620  1.00  0.00     0.037 A 
BRANCH  57  71
ATOM     71  C   UNL A   1      36.445  33.729  30.938  1.00  0.00     0.058 A 
ATOM     72  C   UNL A   1      35.581  34.244  29.945  1.00  0.00     0.135 A 
ATOM     73  C   UNL A   1      35.969  33.877  32.256  1.00  0.00     0.135 A 
ATOM     74  F   UNL A   1      35.857  34.107  28.641  1.00  0.00    -0.206 F 
ATOM     75  C   UNL A   1      34.404  34.938  30.244  1.00  0.00     0.059 A 
ATOM     76  C   UNL A   1      34.832  34.623  32.584  1.00  0.00     0.059 A 
ATOM     77  F   UNL A   1      36.549  33.251  33.286  1.00  0.00    -0.206 F 
ATOM     78  C   UNL A   1      34.056  35.157  31.568  1.00  0.00     0.060 A 
BRANCH  78  79
ATOM     79  S   UNL A   1      32.586  36.131  31.944  1.00  0.00     0.124 S 
ATOM     80  O   UNL A   1      33.099  37.105  32.902  1.00  0.00    -0.237 OA
ATOM     81  O   UNL A   1      32.227  36.658  30.632  1.00  0.00    -0.237 OA
ATOM     82  O   UNL A   1      31.659  35.148  32.499  1.00  0.00    -0.744 OA
ENDBRANCH  78  79
ENDBRANCH  57  71
BRANCH  58  83
ATOM     83  C   UNL A   1      44.763  29.028  28.660  1.00  0.00     0.058 A 
ATOM     84  C   UNL A   1      44.179  29.034  27.375  1.00  0.00     0.135 A 
ATOM     85  C   UNL A   1      46.014  28.413  28.798  1.00  0.00     0.135 A 
ATOM     86  F   UNL A   1      42.967  29.585  27.191  1.00  0.00    -0.206 F 
ATOM     87  C   UNL A   1      44.890  28.643  26.248  1.00  0.00     0.059 A 
ATOM     88  C   UNL A   1      46.737  27.993  27.680  1.00  0.00     0.059 A 
ATOM     89  F   UNL A   1      46.614  28.362  29.997  1.00  0.00    -0.206 F 
ATOM     90  C   UNL A   1      46.200  28.201  26.409  1.00  0.00     0.060 A 
BRANCH  90  91
ATOM     91  S   UNL A   1      47.240  28.080  24.932  1.00  0.00     0.124 S 
ATOM     92  O   UNL A   1      48.552  28.452  25.449  1.00  0.00    -0.237 OA
ATOM     93  O   UNL A   1      47.083  26.671  24.568  1.00  0.00    -0.237 OA
ATOM     94  O   UNL A   1      46.629  29.036  24.017  1.00  0.00    -0.744 OA
ENDBRANCH  90  91
ENDBRANCH  58  83
BRANCH  70  95
ATOM     95  C   UNL A   1      42.449  35.885  29.017  1.00  0.00     0.058 A 
ATOM     96  C   UNL A   1      41.780  36.208  27.826  1.00  0.00     0.135 A 
ATOM     97  C   UNL A   1      43.323  36.852  29.545  1.00  0.00     0.135 A 
ATOM     98  F   UNL A   1      40.947  35.325  27.251  1.00  0.00    -0.206 F 
ATOM     99  C   UNL A   1      41.951  37.440  27.200  1.00  0.00     0.059 A 
ATOM    100  C   UNL A   1      43.536  38.075  28.919  1.00  0.00     0.059 A 
ATOM    101  F   UNL A   1      43.975  36.632  30.697  1.00  0.00    -0.206 F 
ATOM    102  C   UNL A   1      42.831  38.368  27.754  1.00  0.00     0.060 A 
BRANCH 102 103
ATOM    103  S   UNL A   1      43.077  39.955  26.935  1.00  0.00     0.124 S 
ATOM    104  O   UNL A   1      41.900  40.066  26.079  1.00  0.00    -0.237 OA
ATOM    105  O   UNL A   1      43.115  40.866  28.075  1.00  0.00    -0.237 OA
ATOM    106  O   UNL A   1      44.341  39.773  26.228  1.00  0.00    -0.744 OA
ENDBRANCH 102 103
ENDBRANCH  70  95
ENDBRANCH  44  45
ENDBRANCH  36  39
ENDBRANCH  34  35
ENDBRANCH  33  34
ENDBRANCH   1  33
TORSDOF 17
ENDMDL
MODEL 3
REMARK VINA RESULT:     -14.5      2.874      3.761
REMARK SMILES Cc1c(C(=O)NCCCCNC(=O)c2ccc(-c3c4nc(c(-c5c(F)cc(S(=O)(=O)[O-])cc5F)c5ccc([nH]5)c(-c5c(F)cc(S(=O)(=O)[O-])cc5F)c5nc(c(-c6c(F)cc(S(=O)(=O)[O-])cc6F)c6ccc3[nH]6)C=C5)C=C4)cc2)cccc1-n1c(C)cc(/C=C2/C(=O)NC(=S)N=C2O)c1C
REMARK SMILES IDX 8 1 7 2 6 3 4 4 5 5 3 7 1 8 2 9 83 10 80 11 82 12 81 13
REMARK SMILES IDX 84 14 85 15 99 16 86 17 87 18 88 19 100 20 89 21 90 22 91 23
REMARK SMILES IDX 97 24 92 25 93 26 96 27 94 28 95 30 98 31 9 33 10 34 11 35
REMARK SMILES IDX 12 36 13 38 14 39 15 40 79 41 16 42 78 43 17 44 18 45 19 46
REMARK SMILES IDX 72 47 20 48 77 49 71 50 73 51 21 52 76 53 70 54 69 55 22 57
REMARK SMILES IDX 56 58 35 59 55 60 36 61 39 62 54 63 74 64 37 65 38 66 53 68
REMARK SMILES IDX 75 69 40 70 23 71 24 72 33 73 25 74 26 75 32 76 34 77 27 78
REMARK SMILES IDX 28 79 29 80 30 81 31 82 57 83 58 84 67 85 59 86 60 87 66 88
REMARK SMILES IDX 68 89 61 90 62 91 63 92 64 93 65 94 41 95 42 96 51 97 43 98
REMARK SMILES IDX 44 99 50 100 52 101 45 102 46 103 47 104 48 105 49 106
REMARK H PARENT 6 6 93 29 98 32 11 37 73 56 39 67
REMARK Flexibility Score: inf
ROOT
ATOM      1  C   UNL A   1      31.420  30.077  25.820  1.00  0.00     0.023 C 
ENDROOT
BRANCH   1   2
ATOM      2  C   UNL A   1      30.803  29.747  24.445  1.00  0.00     0.116 C 
BRANCH   2   3
ATOM      3  N   UNL A   1      31.828  29.366  23.492  1.00  0.00    -0.352 N 
ATOM      4  C   UNL A   1      32.398  28.208  23.045  1.00  0.00     0.251 C 
ATOM      5  O   UNL A   1      33.263  28.392  22.175  1.00  0.00    -0.269 OA
ATOM      6  H   UNL A   1      32.217  30.154  23.048  1.00  0.00     0.163 HD
BRANCH   4   7
ATOM      7  C   UNL A   1      32.107  26.776  23.435  1.00  0.00     0.044 A 
ATOM      8  C   UNL A   1      34.213  26.147  24.774  1.00  0.00     0.047 C 
ATOM      9  C   UNL A   1      32.887  25.839  24.151  1.00  0.00    -0.014 A 
ATOM     10  C   UNL A   1      32.416  24.498  24.237  1.00  0.00     0.049 A 
ATOM     11  C   UNL A   1      30.907  26.298  22.834  1.00  0.00     0.014 A 
ATOM     12  C   UNL A   1      31.244  24.057  23.619  1.00  0.00     0.027 A 
ATOM     13  C   UNL A   1      30.485  24.967  22.912  1.00  0.00     0.003 A 
BRANCH  10  14
ATOM     14  N   UNL A   1      33.207  23.500  24.856  1.00  0.00    -0.318 N 
ATOM     15  C   UNL A   1      33.137  23.140  26.188  1.00  0.00     0.020 A 
ATOM     16  C   UNL A   1      34.319  22.895  24.270  1.00  0.00     0.027 A 
ATOM     17  C   UNL A   1      32.217  23.786  27.167  1.00  0.00     0.065 C 
ATOM     18  C   UNL A   1      34.092  22.168  26.397  1.00  0.00     0.031 A 
ATOM     19  C   UNL A   1      34.829  21.997  25.195  1.00  0.00    -0.003 A 
ATOM     20  C   UNL A   1      34.800  23.326  22.920  1.00  0.00     0.065 C 
BRANCH  19  21
ATOM     21  C   UNL A   1      36.004  21.186  25.118  1.00  0.00     0.029 C 
ATOM     22  C   UNL A   1      37.297  21.440  25.389  1.00  0.00     0.102 C 
ATOM     23  C   UNL A   1      38.214  20.274  25.335  1.00  0.00     0.262 C 
ATOM     24  C   UNL A   1      37.953  22.676  25.816  1.00  0.00     0.226 C 
ATOM     25  O   UNL A   1      37.976  19.223  24.753  1.00  0.00    -0.269 OA
ATOM     26  N   UNL A   1      39.387  20.463  26.017  1.00  0.00    -0.297 N 
ATOM     27  N   UNL A   1      39.103  22.782  26.376  1.00  0.00    -0.184 NA
ATOM     28  C   UNL A   1      39.821  21.634  26.586  1.00  0.00     0.203 C 
ATOM     29  H   UNL A   1      39.977  19.680  26.109  1.00  0.00     0.172 HD
ATOM     30  S   UNL A   1      41.258  21.594  27.449  1.00  0.00    -0.038 S 
BRANCH  24  31
ATOM     31  O   UNL A   1      37.324  23.817  25.525  1.00  0.00    -0.493 OA
ATOM     32  H   UNL A   1      36.449  23.797  25.190  1.00  0.00     0.295 HD
ENDBRANCH  24  31
ENDBRANCH  19  21
ENDBRANCH  10  14
ENDBRANCH   4   7
ENDBRANCH   2   3
ENDBRANCH   1   2
BRANCH   1  33
ATOM     33  C   UNL A   1      31.912  28.872  26.617  1.00  0.00     0.023 C 
BRANCH  33  34
ATOM     34  C   UNL A   1      33.198  29.174  27.362  1.00  0.00     0.116 C 
BRANCH  34  35
ATOM     35  N   UNL A   1      33.514  30.579  27.526  1.00  0.00    -0.352 N 
ATOM     36  C   UNL A   1      34.456  31.087  28.418  1.00  0.00     0.251 C 
ATOM     37  H   UNL A   1      33.025  31.224  26.965  1.00  0.00     0.163 HD
ATOM     38  O   UNL A   1      34.372  32.190  28.915  1.00  0.00    -0.269 OA
BRANCH  36  39
ATOM     39  C   UNL A   1      35.680  30.264  28.592  1.00  0.00     0.039 A 
ATOM     40  C   UNL A   1      35.897  29.693  29.853  1.00  0.00     0.014 A 
ATOM     41  C   UNL A   1      36.701  30.317  27.650  1.00  0.00     0.014 A 
ATOM     42  C   UNL A   1      37.191  29.331  30.227  1.00  0.00     0.010 A 
ATOM     43  C   UNL A   1      37.996  30.077  28.067  1.00  0.00     0.010 A 
ATOM     44  C   UNL A   1      38.249  29.612  29.365  1.00  0.00    -0.014 A 
BRANCH  44  45
ATOM     45  C   UNL A   1      39.662  29.467  29.711  1.00  0.00     0.031 A 
ATOM     46  C   UNL A   1      40.371  28.221  29.328  1.00  0.00     0.074 A 
ATOM     47  C   UNL A   1      40.341  30.497  30.259  1.00  0.00     0.049 A 
ATOM     48  N   UNL A   1      41.552  27.883  29.721  1.00  0.00    -0.248 NA
ATOM     49  C   UNL A   1      39.752  27.221  28.466  1.00  0.00     0.031 C 
ATOM     50  C   UNL A   1      41.789  30.648  30.368  1.00  0.00     0.029 A 
ATOM     51  N   UNL A   1      39.826  31.529  31.048  1.00  0.00    -0.354 N 
ATOM     52  C   UNL A   1      41.936  26.759  29.023  1.00  0.00     0.074 A 
ATOM     53  C   UNL A   1      40.773  26.386  28.254  1.00  0.00     0.031 C 
ATOM     54  C   UNL A   1      42.060  31.499  31.369  1.00  0.00     0.029 A 
ATOM     55  C   UNL A   1      40.804  31.808  32.029  1.00  0.00     0.049 A 
ATOM     56  H   UNL A   1      38.953  31.972  30.943  1.00  0.00     0.167 HD
ATOM     57  C   UNL A   1      43.225  26.318  29.118  1.00  0.00     0.037 A 
ATOM     58  C   UNL A   1      40.533  31.561  33.347  1.00  0.00     0.037 A 
ATOM     59  C   UNL A   1      43.943  27.037  30.171  1.00  0.00     0.049 A 
ATOM     60  C   UNL A   1      41.352  30.437  33.953  1.00  0.00     0.074 A 
ATOM     61  C   UNL A   1      44.774  28.144  30.205  1.00  0.00     0.029 A 
ATOM     62  N   UNL A   1      43.578  26.793  31.485  1.00  0.00    -0.354 N 
ATOM     63  N   UNL A   1      42.256  29.745  33.312  1.00  0.00    -0.248 NA
ATOM     64  C   UNL A   1      41.165  29.961  35.327  1.00  0.00     0.031 C 
ATOM     65  C   UNL A   1      44.817  28.620  31.551  1.00  0.00     0.029 A 
ATOM     66  C   UNL A   1      44.030  27.789  32.329  1.00  0.00     0.049 A 
ATOM     67  H   UNL A   1      43.061  26.009  31.780  1.00  0.00     0.167 HD
ATOM     68  C   UNL A   1      42.713  28.738  34.118  1.00  0.00     0.074 A 
ATOM     69  C   UNL A   1      42.021  28.927  35.380  1.00  0.00     0.031 C 
ATOM     70  C   UNL A   1      43.594  27.781  33.712  1.00  0.00     0.037 A 
BRANCH  57  71
ATOM     71  C   UNL A   1      43.887  25.369  28.139  1.00  0.00     0.058 A 
ATOM     72  C   UNL A   1      44.250  25.815  26.848  1.00  0.00     0.135 A 
ATOM     73  C   UNL A   1      44.136  24.001  28.373  1.00  0.00     0.135 A 
ATOM     74  F   UNL A   1      44.147  27.106  26.502  1.00  0.00    -0.206 F 
ATOM     75  C   UNL A   1      44.718  24.956  25.848  1.00  0.00     0.059 A 
ATOM     76  C   UNL A   1      44.540  23.112  27.373  1.00  0.00     0.059 A 
ATOM     77  F   UNL A   1      44.063  23.475  29.600  1.00  0.00    -0.206 F 
ATOM     78  C   UNL A   1      44.824  23.598  26.107  1.00  0.00     0.060 A 
BRANCH  78  79
ATOM     79  S   UNL A   1      45.340  22.486  24.784  1.00  0.00     0.124 S 
ATOM     80  O   UNL A   1      44.088  21.826  24.431  1.00  0.00    -0.237 OA
ATOM     81  O   UNL A   1      45.869  23.418  23.794  1.00  0.00    -0.237 OA
ATOM     82  O   UNL A   1      46.331  21.628  25.429  1.00  0.00    -0.744 OA
ENDBRANCH  78  79
ENDBRANCH  57  71
BRANCH  58  83
ATOM     83  C   UNL A   1      39.129  31.921  33.699  1.00  0.00     0.058 A 
ATOM     84  C   UNL A   1      38.830  33.293  33.833  1.00  0.00     0.135 A 
ATOM     85  C   UNL A   1      38.063  31.049  33.440  1.00  0.00     0.135 A 
ATOM     86  F   UNL A   1      39.811  34.170  34.110  1.00  0.00    -0.206 F 
ATOM     87  C   UNL A   1      37.577  33.802  33.516  1.00  0.00     0.059 A 
ATOM     88  C   UNL A   1      36.790  31.538  33.141  1.00  0.00     0.059 A 
ATOM     89  F   UNL A   1      38.281  29.731  33.317  1.00  0.00    -0.206 F 
ATOM     90  C   UNL A   1      36.589  32.919  33.092  1.00  0.00     0.060 A 
BRANCH  90  91
ATOM     91  S   UNL A   1      35.112  33.613  32.308  1.00  0.00     0.124 S 
ATOM     92  O   UNL A   1      34.660  34.577  33.304  1.00  0.00    -0.237 OA
ATOM     93  O   UNL A   1      35.666  34.188  31.080  1.00  0.00    -0.237 OA
ATOM     94  O   UNL A   1      34.256  32.448  32.124  1.00  0.00    -0.744 OA
ENDBRANCH  90  91
ENDBRANCH  58  83
BRANCH  70  95
ATOM     95  C   UNL A   1      44.107  26.744  34.654  1.00  0.00     0.058 A 
ATOM     96  C   UNL A   1      45.441  26.763  35.091  1.00  0.00     0.135 A 
ATOM     97  C   UNL A   1      43.319  25.647  35.048  1.00  0.00     0.135 A 
ATOM     98  F   UNL A   1      46.259  27.767  34.734  1.00  0.00    -0.206 F 
ATOM     99  C   UNL A   1      45.964  25.757  35.898  1.00  0.00     0.059 A 
ATOM    100  C   UNL A   1      43.830  24.612  35.825  1.00  0.00     0.059 A 
ATOM    101  F   UNL A   1      42.026  25.570  34.700  1.00  0.00    -0.206 F 
ATOM    102  C   UNL A   1      45.151  24.685  36.260  1.00  0.00     0.060 A 
BRANCH 102 103
ATOM    103  S   UNL A   1      45.828  23.364  37.284  1.00  0.00     0.124 S 
ATOM    104  O   UNL A   1      47.266  23.609  37.223  1.00  0.00    -0.237 OA
ATOM    105  O   UNL A   1      45.196  23.642  38.570  1.00  0.00    -0.237 OA
ATOM    106  O   UNL A   1      45.377  22.153  36.607  1.00  0.00    -0.744 OA
ENDBRANCH 102 103
ENDBRANCH  70  95
ENDBRANCH  44  45
ENDBRANCH  36  39
ENDBRANCH  34  35
ENDBRANCH  33  34
ENDBRANCH   1  33
TORSDOF 17
ENDMDL
