MODEL 1
REMARK VINA RESULT:     -10.9      0.000      0.000
REMARK SMILES CC(C)[NH2+][C@]1(C(=O)NCCCCNC(=O)c2ccc(-c3c4nc(c(-c5c(F)cc(S(=O)(=O)[O-])cc5F)c5ccc([nH]5)c(-c5c(F)cc(S(=O)(=O)[O-])cc5F)c5nc(c(-c6c(F)cc(S(=O)(=O)[O-])cc6F)c6ccc3[nH]6)C=C5)C=C4)cc2)CC[C@H]([N@H+](C)C2CCCC2)C1
REMARK SMILES IDX 11 1 10 2 9 3 8 4 6 5 7 6 5 8 82 9 92 10 83 11 84 12 4 13
REMARK SMILES IDX 2 16 1 17 3 18 85 19 86 20 87 22 88 23 91 24 89 25 90 26
REMARK SMILES IDX 12 27 13 28 14 29 15 31 16 32 17 33 81 34 18 35 80 36 19 37
REMARK SMILES IDX 20 38 21 39 74 40 22 41 79 42 73 43 75 44 23 45 78 46 72 47
REMARK SMILES IDX 71 48 24 50 58 51 37 52 57 53 38 54 41 55 56 56 76 57 39 58
REMARK SMILES IDX 40 59 55 61 77 62 42 63 25 64 26 65 35 66 27 67 28 68 34 69
REMARK SMILES IDX 36 70 29 71 30 72 31 73 32 74 33 75 59 76 60 77 69 78 61 79
REMARK SMILES IDX 62 80 68 81 70 82 63 83 64 84 65 85 66 86 67 87 43 88 44 89
REMARK SMILES IDX 53 90 45 91 46 92 52 93 54 94 47 95 48 96 49 97 50 98 51 99
REMARK H PARENT 8 7 4 14 4 15 85 21 13 30 75 49 41 60
REMARK Flexibility Score: inf
ROOT
ATOM      1  C   UNL A   1      37.813  21.294  25.336  1.00  0.00     0.023 C 
ENDROOT
BRANCH   1   2
ATOM      2  C   UNL A   1      37.378  22.622  24.729  1.00  0.00     0.023 C 
BRANCH   2   3
ATOM      3  C   UNL A   1      36.638  23.567  25.680  1.00  0.00     0.116 C 
BRANCH   3   4
ATOM      4  N   UNL A   1      35.821  22.837  26.635  1.00  0.00    -0.351 N 
ATOM      5  C   UNL A   1      34.481  22.941  26.900  1.00  0.00     0.281 C 
ATOM      6  O   UNL A   1      34.051  22.311  27.873  1.00  0.00    -0.268 OA
ATOM      7  H   UNL A   1      36.304  22.168  27.172  1.00  0.00     0.163 HD
BRANCH   5   8
ATOM      8  C   UNL A   1      33.533  23.784  25.996  1.00  0.00     0.181 C 
ATOM      9  C   UNL A   1      32.138  23.817  26.659  1.00  0.00     0.085 C 
ATOM     10  C   UNL A   1      33.853  25.292  26.058  1.00  0.00     0.144 C 
ATOM     11  C   UNL A   1      31.447  25.076  26.148  1.00  0.00     0.072 C 
ATOM     12  C   UNL A   1      32.553  26.062  25.708  1.00  0.00     0.191 C 
BRANCH   8  13
ATOM     13  N   UNL A   1      33.432  23.295  24.600  1.00  0.00    -0.331 N 
ATOM     14  H   UNL A   1      33.014  24.044  24.048  1.00  0.00     0.347 HD
ATOM     15  H   UNL A   1      34.389  23.037  24.357  1.00  0.00     0.347 HD
BRANCH  13  16
ATOM     16  C   UNL A   1      32.657  22.080  24.336  1.00  0.00     0.176 C 
ATOM     17  C   UNL A   1      31.921  22.308  23.012  1.00  0.00     0.075 C 
ATOM     18  C   UNL A   1      33.418  20.761  24.273  1.00  0.00     0.075 C 
ENDBRANCH  13  16
ENDBRANCH   8  13
BRANCH  12  19
ATOM     19  N   UNL A   1      32.291  26.473  24.300  1.00  0.00    -0.332 N 
ATOM     20  C   UNL A   1      33.455  27.091  23.658  1.00  0.00     0.333 C 
ATOM     21  H   UNL A   1      32.072  25.604  23.813  1.00  0.00     0.348 HD
BRANCH  19  22
ATOM     22  C   UNL A   1      31.143  27.408  24.191  1.00  0.00     0.184 C 
ATOM     23  C   UNL A   1      31.471  28.691  23.408  1.00  0.00     0.065 C 
ATOM     24  C   UNL A   1      29.902  26.932  23.425  1.00  0.00     0.065 C 
ATOM     25  C   UNL A   1      30.113  29.344  23.175  1.00  0.00     0.006 C 
ATOM     26  C   UNL A   1      29.098  28.206  23.180  1.00  0.00     0.006 C 
ENDBRANCH  19  22
ENDBRANCH  12  19
ENDBRANCH   5   8
ENDBRANCH   3   4
ENDBRANCH   2   3
ENDBRANCH   1   2
BRANCH   1  27
ATOM     27  C   UNL A   1      39.196  21.308  25.962  1.00  0.00     0.116 C 
BRANCH  27  28
ATOM     28  N   UNL A   1      39.877  20.020  25.923  1.00  0.00    -0.352 N 
ATOM     29  C   UNL A   1      41.225  19.787  26.075  1.00  0.00     0.251 C 
ATOM     30  H   UNL A   1      39.310  19.229  25.771  1.00  0.00     0.163 HD
ATOM     31  O   UNL A   1      41.694  18.663  25.956  1.00  0.00    -0.269 OA
BRANCH  29  32
ATOM     32  C   UNL A   1      42.093  20.950  26.333  1.00  0.00     0.039 A 
ATOM     33  C   UNL A   1      42.499  21.739  25.257  1.00  0.00     0.014 A 
ATOM     34  C   UNL A   1      42.368  21.329  27.650  1.00  0.00     0.014 A 
ATOM     35  C   UNL A   1      43.122  22.961  25.508  1.00  0.00     0.010 A 
ATOM     36  C   UNL A   1      42.912  22.580  27.896  1.00  0.00     0.010 A 
ATOM     37  C   UNL A   1      43.293  23.408  26.829  1.00  0.00    -0.014 A 
BRANCH  37  38
ATOM     38  C   UNL A   1      43.880  24.736  27.125  1.00  0.00     0.031 A 
ATOM     39  C   UNL A   1      42.986  25.845  27.604  1.00  0.00     0.074 A 
ATOM     40  C   UNL A   1      45.185  24.963  26.881  1.00  0.00     0.049 A 
ATOM     41  N   UNL A   1      43.274  27.101  27.822  1.00  0.00    -0.248 NA
ATOM     42  C   UNL A   1      41.571  25.506  27.825  1.00  0.00     0.031 C 
ATOM     43  C   UNL A   1      46.132  23.983  26.342  1.00  0.00     0.029 A 
ATOM     44  N   UNL A   1      45.938  26.097  27.038  1.00  0.00    -0.354 N 
ATOM     45  C   UNL A   1      42.073  27.706  28.169  1.00  0.00     0.074 A 
ATOM     46  C   UNL A   1      41.045  26.692  28.086  1.00  0.00     0.031 C 
ATOM     47  C   UNL A   1      47.344  24.553  26.237  1.00  0.00     0.029 A 
ATOM     48  C   UNL A   1      47.255  25.943  26.676  1.00  0.00     0.049 A 
ATOM     49  H   UNL A   1      45.570  26.945  27.380  1.00  0.00     0.167 HD
ATOM     50  C   UNL A   1      41.850  28.986  28.548  1.00  0.00     0.037 A 
ATOM     51  C   UNL A   1      48.274  26.823  26.700  1.00  0.00     0.037 A 
ATOM     52  C   UNL A   1      42.888  29.971  28.687  1.00  0.00     0.049 A 
ATOM     53  C   UNL A   1      48.020  28.217  27.202  1.00  0.00     0.074 A 
ATOM     54  C   UNL A   1      42.787  31.272  29.144  1.00  0.00     0.029 A 
ATOM     55  N   UNL A   1      44.224  29.754  28.382  1.00  0.00    -0.354 N 
ATOM     56  N   UNL A   1      46.889  28.757  27.591  1.00  0.00    -0.248 NA
ATOM     57  C   UNL A   1      49.177  29.119  27.280  1.00  0.00     0.031 C 
ATOM     58  C   UNL A   1      44.062  31.849  29.099  1.00  0.00     0.029 A 
ATOM     59  C   UNL A   1      44.959  30.898  28.639  1.00  0.00     0.049 A 
ATOM     60  H   UNL A   1      44.594  28.911  28.033  1.00  0.00     0.167 HD
ATOM     61  C   UNL A   1      47.201  30.054  27.980  1.00  0.00     0.074 A 
ATOM     62  C   UNL A   1      48.629  30.214  27.788  1.00  0.00     0.031 C 
ATOM     63  C   UNL A   1      46.382  31.026  28.450  1.00  0.00     0.037 A 
BRANCH  50  64
ATOM     64  C   UNL A   1      40.433  29.376  28.852  1.00  0.00     0.058 A 
ATOM     65  C   UNL A   1      39.994  29.580  30.171  1.00  0.00     0.135 A 
ATOM     66  C   UNL A   1      39.499  29.539  27.817  1.00  0.00     0.135 A 
ATOM     67  F   UNL A   1      40.843  29.417  31.199  1.00  0.00    -0.206 F 
ATOM     68  C   UNL A   1      38.669  29.893  30.456  1.00  0.00     0.059 A 
ATOM     69  C   UNL A   1      38.174  29.876  28.078  1.00  0.00     0.059 A 
ATOM     70  F   UNL A   1      39.865  29.352  26.540  1.00  0.00    -0.206 F 
ATOM     71  C   UNL A   1      37.764  30.031  29.402  1.00  0.00     0.060 A 
BRANCH  71  72
ATOM     72  S   UNL A   1      36.044  30.419  29.785  1.00  0.00     0.124 S 
ATOM     73  O   UNL A   1      35.342  29.687  28.735  1.00  0.00    -0.237 OA
ATOM     74  O   UNL A   1      35.892  29.889  31.136  1.00  0.00    -0.237 OA
ATOM     75  O   UNL A   1      35.994  31.874  29.678  1.00  0.00    -0.744 OA
ENDBRANCH  71  72
ENDBRANCH  50  64
BRANCH  51  76
ATOM     76  C   UNL A   1      49.633  26.396  26.278  1.00  0.00     0.058 A 
ATOM     77  C   UNL A   1      50.121  26.719  25.003  1.00  0.00     0.135 A 
ATOM     78  C   UNL A   1      50.478  25.685  27.143  1.00  0.00     0.135 A 
ATOM     79  F   UNL A   1      49.347  27.395  24.141  1.00  0.00    -0.206 F 
ATOM     80  C   UNL A   1      51.396  26.342  24.595  1.00  0.00     0.059 A 
ATOM     81  C   UNL A   1      51.765  25.313  26.763  1.00  0.00     0.059 A 
ATOM     82  F   UNL A   1      50.062  25.369  28.379  1.00  0.00    -0.206 F 
ATOM     83  C   UNL A   1      52.212  25.640  25.483  1.00  0.00     0.060 A 
BRANCH  83  84
ATOM     84  S   UNL A   1      53.889  25.208  24.967  1.00  0.00     0.124 S 
ATOM     85  O   UNL A   1      54.683  25.759  26.060  1.00  0.00    -0.237 OA
ATOM     86  O   UNL A   1      53.825  23.752  24.894  1.00  0.00    -0.237 OA
ATOM     87  O   UNL A   1      54.026  25.886  23.681  1.00  0.00    -0.744 OA
ENDBRANCH  83  84
ENDBRANCH  51  76
BRANCH  63  88
ATOM     88  C   UNL A   1      47.012  32.337  28.816  1.00  0.00     0.058 A 
ATOM     89  C   UNL A   1      47.134  33.376  27.880  1.00  0.00     0.135 A 
ATOM     90  C   UNL A   1      47.440  32.578  30.130  1.00  0.00     0.135 A 
ATOM     91  F   UNL A   1      46.744  33.189  26.609  1.00  0.00    -0.206 F 
ATOM     92  C   UNL A   1      47.674  34.607  28.233  1.00  0.00     0.059 A 
ATOM     93  C   UNL A   1      47.965  33.809  30.510  1.00  0.00     0.059 A 
ATOM     94  F   UNL A   1      47.334  31.618  31.062  1.00  0.00    -0.206 F 
ATOM     95  C   UNL A   1      48.086  34.814  29.550  1.00  0.00     0.060 A 
BRANCH  95  96
ATOM     96  S   UNL A   1      48.746  36.430  30.012  1.00  0.00     0.124 S 
ATOM     97  O   UNL A   1      48.379  37.237  28.852  1.00  0.00    -0.237 OA
ATOM     98  O   UNL A   1      48.022  36.727  31.245  1.00  0.00    -0.237 OA
ATOM     99  O   UNL A   1      50.173  36.178  30.177  1.00  0.00    -0.744 OA
ENDBRANCH  95  96
ENDBRANCH  63  88
ENDBRANCH  37  38
ENDBRANCH  29  32
ENDBRANCH  27  28
ENDBRANCH   1  27
TORSDOF 18
ENDMDL
MODEL 2
REMARK VINA RESULT:     -10.8      5.917     10.530
REMARK SMILES CC(C)[NH2+][C@]1(C(=O)NCCCCNC(=O)c2ccc(-c3c4nc(c(-c5c(F)cc(S(=O)(=O)[O-])cc5F)c5ccc([nH]5)c(-c5c(F)cc(S(=O)(=O)[O-])cc5F)c5nc(c(-c6c(F)cc(S(=O)(=O)[O-])cc6F)c6ccc3[nH]6)C=C5)C=C4)cc2)CC[C@H]([N@H+](C)C2CCCC2)C1
REMARK SMILES IDX 11 1 10 2 9 3 8 4 6 5 7 6 5 8 82 9 92 10 83 11 84 12 4 13
REMARK SMILES IDX 2 16 1 17 3 18 85 19 86 20 87 22 88 23 91 24 89 25 90 26
REMARK SMILES IDX 12 27 13 28 14 29 15 31 16 32 17 33 81 34 18 35 80 36 19 37
REMARK SMILES IDX 20 38 21 39 74 40 22 41 79 42 73 43 75 44 23 45 78 46 72 47
REMARK SMILES IDX 71 48 24 50 58 51 37 52 57 53 38 54 41 55 56 56 76 57 39 58
REMARK SMILES IDX 40 59 55 61 77 62 42 63 25 64 26 65 35 66 27 67 28 68 34 69
REMARK SMILES IDX 36 70 29 71 30 72 31 73 32 74 33 75 59 76 60 77 69 78 61 79
REMARK SMILES IDX 62 80 68 81 70 82 63 83 64 84 65 85 66 86 67 87 43 88 44 89
REMARK SMILES IDX 53 90 45 91 46 92 52 93 54 94 47 95 48 96 49 97 50 98 51 99
REMARK H PARENT 8 7 4 14 4 15 85 21 13 30 75 49 41 60
REMARK Flexibility Score: inf
ROOT
ATOM      1  C   UNL A   1      38.940  22.610  26.151  1.00  0.00     0.023 C 
ENDROOT
BRANCH   1   2
ATOM      2  C   UNL A   1      37.892  23.705  25.990  1.00  0.00     0.023 C 
BRANCH   2   3
ATOM      3  C   UNL A   1      36.526  23.235  25.484  1.00  0.00     0.116 C 
BRANCH   3   4
ATOM      4  N   UNL A   1      35.766  22.567  26.528  1.00  0.00    -0.351 N 
ATOM      5  C   UNL A   1      34.425  22.619  26.804  1.00  0.00     0.281 C 
ATOM      6  O   UNL A   1      34.046  22.075  27.847  1.00  0.00    -0.268 OA
ATOM      7  H   UNL A   1      36.295  21.990  27.126  1.00  0.00     0.163 HD
BRANCH   5   8
ATOM      8  C   UNL A   1      33.417  23.299  25.831  1.00  0.00     0.181 C 
ATOM      9  C   UNL A   1      32.012  23.233  26.469  1.00  0.00     0.085 C 
ATOM     10  C   UNL A   1      33.582  24.834  25.796  1.00  0.00     0.144 C 
ATOM     11  C   UNL A   1      31.208  24.379  25.864  1.00  0.00     0.072 C 
ATOM     12  C   UNL A   1      32.219  25.441  25.374  1.00  0.00     0.191 C 
BRANCH   8  13
ATOM     13  N   UNL A   1      33.397  22.712  24.470  1.00  0.00    -0.331 N 
ATOM     14  H   UNL A   1      32.980  23.405  23.849  1.00  0.00     0.347 HD
ATOM     15  H   UNL A   1      34.371  22.472  24.287  1.00  0.00     0.347 HD
BRANCH  13  16
ATOM     16  C   UNL A   1      32.675  21.454  24.259  1.00  0.00     0.176 C 
ATOM     17  C   UNL A   1      32.153  21.485  22.819  1.00  0.00     0.075 C 
ATOM     18  C   UNL A   1      33.439  20.157  24.494  1.00  0.00     0.075 C 
ENDBRANCH  13  16
ENDBRANCH   8  13
BRANCH  12  19
ATOM     19  N   UNL A   1      31.948  25.731  23.938  1.00  0.00    -0.332 N 
ATOM     20  C   UNL A   1      33.165  26.010  23.171  1.00  0.00     0.333 C 
ATOM     21  H   UNL A   1      31.523  24.876  23.578  1.00  0.00     0.348 HD
BRANCH  19  22
ATOM     22  C   UNL A   1      31.009  26.866  23.761  1.00  0.00     0.184 C 
ATOM     23  C   UNL A   1      31.384  28.105  24.592  1.00  0.00     0.065 C 
ATOM     24  C   UNL A   1      30.903  27.497  22.365  1.00  0.00     0.065 C 
ATOM     25  C   UNL A   1      30.484  29.209  24.046  1.00  0.00     0.006 C 
ATOM     26  C   UNL A   1      30.177  28.819  22.603  1.00  0.00     0.006 C 
ENDBRANCH  19  22
ENDBRANCH  12  19
ENDBRANCH   5   8
ENDBRANCH   3   4
ENDBRANCH   2   3
ENDBRANCH   1   2
BRANCH   1  27
ATOM     27  C   UNL A   1      40.161  23.017  26.957  1.00  0.00     0.116 C 
BRANCH  27  28
ATOM     28  N   UNL A   1      41.322  23.356  26.144  1.00  0.00    -0.352 N 
ATOM     29  C   UNL A   1      42.024  24.539  26.150  1.00  0.00     0.251 C 
ATOM     30  H   UNL A   1      41.639  22.662  25.521  1.00  0.00     0.163 HD
ATOM     31  O   UNL A   1      42.948  24.735  25.371  1.00  0.00    -0.269 OA
BRANCH  29  32
ATOM     32  C   UNL A   1      41.590  25.586  27.094  1.00  0.00     0.039 A 
ATOM     33  C   UNL A   1      40.676  25.253  28.093  1.00  0.00     0.014 A 
ATOM     34  C   UNL A   1      42.206  26.840  27.067  1.00  0.00     0.014 A 
ATOM     35  C   UNL A   1      40.435  26.163  29.122  1.00  0.00     0.010 A 
ATOM     36  C   UNL A   1      42.027  27.706  28.134  1.00  0.00     0.010 A 
ATOM     37  C   UNL A   1      41.141  27.376  29.172  1.00  0.00    -0.014 A 
BRANCH  37  38
ATOM     38  C   UNL A   1      40.965  28.327  30.294  1.00  0.00     0.031 A 
ATOM     39  C   UNL A   1      41.825  28.189  31.519  1.00  0.00     0.074 A 
ATOM     40  C   UNL A   1      39.983  29.247  30.246  1.00  0.00     0.049 A 
ATOM     41  N   UNL A   1      41.767  28.845  32.647  1.00  0.00    -0.248 NA
ATOM     42  C   UNL A   1      42.860  27.142  31.485  1.00  0.00     0.031 C 
ATOM     43  C   UNL A   1      39.036  29.424  29.141  1.00  0.00     0.029 A 
ATOM     44  N   UNL A   1      39.605  30.199  31.158  1.00  0.00    -0.354 N 
ATOM     45  C   UNL A   1      42.729  28.268  33.466  1.00  0.00     0.074 A 
ATOM     46  C   UNL A   1      43.323  27.178  32.724  1.00  0.00     0.031 C 
ATOM     47  C   UNL A   1      38.204  30.439  29.432  1.00  0.00     0.029 A 
ATOM     48  C   UNL A   1      38.541  30.966  30.751  1.00  0.00     0.049 A 
ATOM     49  H   UNL A   1      40.057  30.322  32.026  1.00  0.00     0.167 HD
ATOM     50  C   UNL A   1      43.102  28.632  34.716  1.00  0.00     0.037 A 
ATOM     51  C   UNL A   1      37.911  31.982  31.371  1.00  0.00     0.037 A 
ATOM     52  C   UNL A   1      42.548  29.756  35.421  1.00  0.00     0.049 A 
ATOM     53  C   UNL A   1      38.396  32.421  32.725  1.00  0.00     0.074 A 
ATOM     54  C   UNL A   1      42.910  30.263  36.655  1.00  0.00     0.029 A 
ATOM     55  N   UNL A   1      41.521  30.555  34.942  1.00  0.00    -0.354 N 
ATOM     56  N   UNL A   1      39.353  31.907  33.461  1.00  0.00    -0.248 NA
ATOM     57  C   UNL A   1      37.727  33.580  33.329  1.00  0.00     0.031 C 
ATOM     58  C   UNL A   1      42.089  31.362  36.932  1.00  0.00     0.029 A 
ATOM     59  C   UNL A   1      41.234  31.553  35.857  1.00  0.00     0.049 A 
ATOM     60  H   UNL A   1      41.063  30.431  34.080  1.00  0.00     0.167 HD
ATOM     61  C   UNL A   1      39.416  32.693  34.606  1.00  0.00     0.074 A 
ATOM     62  C   UNL A   1      38.406  33.722  34.459  1.00  0.00     0.031 C 
ATOM     63  C   UNL A   1      40.231  32.573  35.681  1.00  0.00     0.037 A 
BRANCH  50  64
ATOM     64  C   UNL A   1      44.169  27.810  35.381  1.00  0.00     0.058 A 
ATOM     65  C   UNL A   1      45.531  28.107  35.218  1.00  0.00     0.135 A 
ATOM     66  C   UNL A   1      43.827  26.708  36.180  1.00  0.00     0.135 A 
ATOM     67  F   UNL A   1      45.912  29.138  34.447  1.00  0.00    -0.206 F 
ATOM     68  C   UNL A   1      46.521  27.316  35.793  1.00  0.00     0.059 A 
ATOM     69  C   UNL A   1      44.800  25.918  36.785  1.00  0.00     0.059 A 
ATOM     70  F   UNL A   1      42.539  26.379  36.364  1.00  0.00    -0.206 F 
ATOM     71  C   UNL A   1      46.145  26.219  36.570  1.00  0.00     0.060 A 
BRANCH  71  72
ATOM     72  S   UNL A   1      47.437  25.189  37.296  1.00  0.00     0.124 S 
ATOM     73  O   UNL A   1      46.710  24.531  38.376  1.00  0.00    -0.237 OA
ATOM     74  O   UNL A   1      47.825  24.333  36.179  1.00  0.00    -0.237 OA
ATOM     75  O   UNL A   1      48.444  26.159  37.716  1.00  0.00    -0.744 OA
ENDBRANCH  71  72
ENDBRANCH  50  64
BRANCH  51  76
ATOM     76  C   UNL A   1      36.786  32.680  30.696  1.00  0.00     0.058 A 
ATOM     77  C   UNL A   1      35.460  32.450  31.091  1.00  0.00     0.135 A 
ATOM     78  C   UNL A   1      37.013  33.607  29.668  1.00  0.00     0.135 A 
ATOM     79  F   UNL A   1      35.196  31.569  32.068  1.00  0.00    -0.206 F 
ATOM     80  C   UNL A   1      34.395  33.104  30.484  1.00  0.00     0.059 A 
ATOM     81  C   UNL A   1      35.964  34.289  29.057  1.00  0.00     0.059 A 
ATOM     82  F   UNL A   1      38.265  33.876  29.268  1.00  0.00    -0.206 F 
ATOM     83  C   UNL A   1      34.657  34.025  29.467  1.00  0.00     0.060 A 
BRANCH  83  84
ATOM     84  S   UNL A   1      33.272  34.917  28.725  1.00  0.00     0.124 S 
ATOM     85  O   UNL A   1      33.959  36.002  28.034  1.00  0.00    -0.237 OA
ATOM     86  O   UNL A   1      32.668  33.898  27.873  1.00  0.00    -0.237 OA
ATOM     87  O   UNL A   1      32.471  35.310  29.881  1.00  0.00    -0.744 OA
ENDBRANCH  83  84
ENDBRANCH  51  76
BRANCH  63  88
ATOM     88  C   UNL A   1      40.086  33.594  36.770  1.00  0.00     0.058 A 
ATOM     89  C   UNL A   1      40.823  34.788  36.755  1.00  0.00     0.135 A 
ATOM     90  C   UNL A   1      39.157  33.403  37.804  1.00  0.00     0.135 A 
ATOM     91  F   UNL A   1      41.729  35.011  35.789  1.00  0.00    -0.206 F 
ATOM     92  C   UNL A   1      40.653  35.755  37.739  1.00  0.00     0.059 A 
ATOM     93  C   UNL A   1      38.956  34.366  38.788  1.00  0.00     0.059 A 
ATOM     94  F   UNL A   1      38.423  32.281  37.854  1.00  0.00    -0.206 F 
ATOM     95  C   UNL A   1      39.716  35.534  38.751  1.00  0.00     0.060 A 
BRANCH  95  96
ATOM     96  S   UNL A   1      39.469  36.814  40.001  1.00  0.00     0.124 S 
ATOM     97  O   UNL A   1      40.829  37.009  40.493  1.00  0.00    -0.237 OA
ATOM     98  O   UNL A   1      38.913  37.916  39.220  1.00  0.00    -0.237 OA
ATOM     99  O   UNL A   1      38.543  36.193  40.942  1.00  0.00    -0.744 OA
ENDBRANCH  95  96
ENDBRANCH  63  88
ENDBRANCH  37  38
ENDBRANCH  29  32
ENDBRANCH  27  28
ENDBRANCH   1  27
TORSDOF 18
ENDMDL
MODEL 3
REMARK VINA RESULT:     -10.7      5.124      8.247
REMARK SMILES CC(C)[NH2+][C@]1(C(=O)NCCCCNC(=O)c2ccc(-c3c4nc(c(-c5c(F)cc(S(=O)(=O)[O-])cc5F)c5ccc([nH]5)c(-c5c(F)cc(S(=O)(=O)[O-])cc5F)c5nc(c(-c6c(F)cc(S(=O)(=O)[O-])cc6F)c6ccc3[nH]6)C=C5)C=C4)cc2)CC[C@H]([N@H+](C)C2CCCC2)C1
REMARK SMILES IDX 11 1 10 2 9 3 8 4 6 5 7 6 5 8 82 9 92 10 83 11 84 12 4 13
REMARK SMILES IDX 2 16 1 17 3 18 85 19 86 20 87 22 88 23 91 24 89 25 90 26
REMARK SMILES IDX 12 27 13 28 14 29 15 31 16 32 17 33 81 34 18 35 80 36 19 37
REMARK SMILES IDX 20 38 21 39 74 40 22 41 79 42 73 43 75 44 23 45 78 46 72 47
REMARK SMILES IDX 71 48 24 50 58 51 37 52 57 53 38 54 41 55 56 56 76 57 39 58
REMARK SMILES IDX 40 59 55 61 77 62 42 63 25 64 26 65 35 66 27 67 28 68 34 69
REMARK SMILES IDX 36 70 29 71 30 72 31 73 32 74 33 75 59 76 60 77 69 78 61 79
REMARK SMILES IDX 62 80 68 81 70 82 63 83 64 84 65 85 66 86 67 87 43 88 44 89
REMARK SMILES IDX 53 90 45 91 46 92 52 93 54 94 47 95 48 96 49 97 50 98 51 99
REMARK H PARENT 8 7 4 14 4 15 85 21 13 30 75 49 41 60
REMARK Flexibility Score: inf
ROOT
ATOM      1  C   UNL A   1      32.054  28.205  27.638  1.00  0.00     0.023 C 
ENDROOT
BRANCH   1   2
ATOM      2  C   UNL A   1      31.295  27.377  26.608  1.00  0.00     0.023 C 
BRANCH   2   3
ATOM      3  C   UNL A   1      32.053  26.171  26.048  1.00  0.00     0.116 C 
BRANCH   3   4
ATOM      4  N   UNL A   1      31.582  25.808  24.722  1.00  0.00    -0.351 N 
ATOM      5  C   UNL A   1      32.138  24.966  23.795  1.00  0.00     0.281 C 
ATOM      6  O   UNL A   1      31.616  24.943  22.675  1.00  0.00    -0.268 OA
ATOM      7  H   UNL A   1      30.734  26.230  24.450  1.00  0.00     0.163 HD
BRANCH   5   8
ATOM      8  C   UNL A   1      33.349  24.052  24.145  1.00  0.00     0.181 C 
ATOM      9  C   UNL A   1      33.923  23.486  22.828  1.00  0.00     0.085 C 
ATOM     10  C   UNL A   1      34.581  24.862  24.604  1.00  0.00     0.144 C 
ATOM     11  C   UNL A   1      35.383  23.144  23.105  1.00  0.00     0.072 C 
ATOM     12  C   UNL A   1      35.841  24.011  24.299  1.00  0.00     0.191 C 
BRANCH   8  13
ATOM     13  N   UNL A   1      33.027  22.952  25.086  1.00  0.00    -0.331 N 
ATOM     14  H   UNL A   1      33.774  22.261  25.008  1.00  0.00     0.347 HD
ATOM     15  H   UNL A   1      32.935  23.416  25.990  1.00  0.00     0.347 HD
BRANCH  13  16
ATOM     16  C   UNL A   1      31.759  22.237  24.921  1.00  0.00     0.176 C 
ATOM     17  C   UNL A   1      32.101  20.744  24.865  1.00  0.00     0.075 C 
ATOM     18  C   UNL A   1      30.678  22.470  25.970  1.00  0.00     0.075 C 
ENDBRANCH  13  16
ENDBRANCH   8  13
BRANCH  12  19
ATOM     19  N   UNL A   1      36.403  23.116  25.350  1.00  0.00    -0.332 N 
ATOM     20  C   UNL A   1      37.600  23.667  25.991  1.00  0.00     0.333 C 
ATOM     21  H   UNL A   1      35.663  23.041  26.049  1.00  0.00     0.348 HD
BRANCH  19  22
ATOM     22  C   UNL A   1      36.729  21.767  24.824  1.00  0.00     0.184 C 
ATOM     23  C   UNL A   1      38.097  21.242  25.293  1.00  0.00     0.065 C 
ATOM     24  C   UNL A   1      35.830  20.597  25.246  1.00  0.00     0.065 C 
ATOM     25  C   UNL A   1      38.093  19.772  24.888  1.00  0.00     0.006 C 
ATOM     26  C   UNL A   1      36.627  19.352  24.863  1.00  0.00     0.006 C 
ENDBRANCH  19  22
ENDBRANCH  12  19
ENDBRANCH   5   8
ENDBRANCH   3   4
ENDBRANCH   2   3
ENDBRANCH   1   2
BRANCH   1  27
ATOM     27  C   UNL A   1      33.421  28.683  27.181  1.00  0.00     0.116 C 
BRANCH  27  28
ATOM     28  N   UNL A   1      33.533  30.131  27.061  1.00  0.00    -0.352 N 
ATOM     29  C   UNL A   1      34.600  30.916  27.433  1.00  0.00     0.251 C 
ATOM     30  H   UNL A   1      32.760  30.599  26.670  1.00  0.00     0.163 HD
ATOM     31  O   UNL A   1      34.555  32.135  27.345  1.00  0.00    -0.269 OA
BRANCH  29  32
ATOM     32  C   UNL A   1      35.784  30.238  27.994  1.00  0.00     0.039 A 
ATOM     33  C   UNL A   1      36.971  30.239  27.262  1.00  0.00     0.014 A 
ATOM     34  C   UNL A   1      35.741  29.741  29.300  1.00  0.00     0.014 A 
ATOM     35  C   UNL A   1      38.147  29.808  27.875  1.00  0.00     0.010 A 
ATOM     36  C   UNL A   1      36.925  29.392  29.932  1.00  0.00     0.010 A 
ATOM     37  C   UNL A   1      38.138  29.423  29.226  1.00  0.00    -0.014 A 
BRANCH  37  38
ATOM     38  C   UNL A   1      39.385  29.035  29.927  1.00  0.00     0.031 A 
ATOM     39  C   UNL A   1      39.812  29.800  31.147  1.00  0.00     0.074 A 
ATOM     40  C   UNL A   1      40.168  28.065  29.416  1.00  0.00     0.049 A 
ATOM     41  N   UNL A   1      40.911  29.693  31.846  1.00  0.00    -0.248 NA
ATOM     42  C   UNL A   1      38.900  30.855  31.619  1.00  0.00     0.031 C 
ATOM     43  C   UNL A   1      39.893  27.306  28.193  1.00  0.00     0.029 A 
ATOM     44  N   UNL A   1      41.364  27.560  29.855  1.00  0.00    -0.354 N 
ATOM     45  C   UNL A   1      40.839  30.688  32.813  1.00  0.00     0.074 A 
ATOM     46  C   UNL A   1      39.612  31.418  32.582  1.00  0.00     0.031 C 
ATOM     47  C   UNL A   1      40.881  26.417  27.994  1.00  0.00     0.029 A 
ATOM     48  C   UNL A   1      41.869  26.560  29.059  1.00  0.00     0.049 A 
ATOM     49  H   UNL A   1      41.819  27.883  30.667  1.00  0.00     0.167 HD
ATOM     50  C   UNL A   1      41.704  30.951  33.820  1.00  0.00     0.037 A 
ATOM     51  C   UNL A   1      43.000  25.838  29.179  1.00  0.00     0.037 A 
ATOM     52  C   UNL A   1      42.889  30.180  34.078  1.00  0.00     0.049 A 
ATOM     53  C   UNL A   1      43.906  26.094  30.351  1.00  0.00     0.074 A 
ATOM     54  C   UNL A   1      43.791  30.307  35.118  1.00  0.00     0.029 A 
ATOM     55  N   UNL A   1      43.328  29.125  33.292  1.00  0.00    -0.354 N 
ATOM     56  N   UNL A   1      43.789  26.996  31.298  1.00  0.00    -0.248 NA
ATOM     57  C   UNL A   1      45.088  25.233  30.481  1.00  0.00     0.031 C 
ATOM     58  C   UNL A   1      44.788  29.338  34.951  1.00  0.00     0.029 A 
ATOM     59  C   UNL A   1      44.490  28.592  33.821  1.00  0.00     0.049 A 
ATOM     60  H   UNL A   1      42.880  28.804  32.476  1.00  0.00     0.167 HD
ATOM     61  C   UNL A   1      44.872  26.797  32.147  1.00  0.00     0.074 A 
ATOM     62  C   UNL A   1      45.625  25.682  31.607  1.00  0.00     0.031 C 
ATOM     63  C   UNL A   1      45.213  27.474  33.269  1.00  0.00     0.037 A 
BRANCH  50  64
ATOM     64  C   UNL A   1      41.382  32.111  34.717  1.00  0.00     0.058 A 
ATOM     65  C   UNL A   1      40.465  31.989  35.774  1.00  0.00     0.135 A 
ATOM     66  C   UNL A   1      41.986  33.362  34.514  1.00  0.00     0.135 A 
ATOM     67  F   UNL A   1      39.843  30.820  35.998  1.00  0.00    -0.206 F 
ATOM     68  C   UNL A   1      40.128  33.076  36.574  1.00  0.00     0.059 A 
ATOM     69  C   UNL A   1      41.684  34.456  35.318  1.00  0.00     0.059 A 
ATOM     70  F   UNL A   1      42.866  33.533  33.516  1.00  0.00    -0.206 F 
ATOM     71  C   UNL A   1      40.738  34.308  36.333  1.00  0.00     0.060 A 
BRANCH  71  72
ATOM     72  S   UNL A   1      40.281  35.716  37.366  1.00  0.00     0.124 S 
ATOM     73  O   UNL A   1      41.578  36.116  37.900  1.00  0.00    -0.237 OA
ATOM     74  O   UNL A   1      39.682  36.634  36.402  1.00  0.00    -0.237 OA
ATOM     75  O   UNL A   1      39.354  35.138  38.333  1.00  0.00    -0.744 OA
ENDBRANCH  71  72
ENDBRANCH  50  64
BRANCH  51  76
ATOM     76  C   UNL A   1      43.311  24.776  28.187  1.00  0.00     0.058 A 
ATOM     77  C   UNL A   1      42.915  23.450  28.411  1.00  0.00     0.135 A 
ATOM     78  C   UNL A   1      43.980  25.068  26.990  1.00  0.00     0.135 A 
ATOM     79  F   UNL A   1      42.275  23.124  29.545  1.00  0.00    -0.206 F 
ATOM     80  C   UNL A   1      43.182  22.444  27.489  1.00  0.00     0.059 A 
ATOM     81  C   UNL A   1      44.242  24.082  26.042  1.00  0.00     0.059 A 
ATOM     82  F   UNL A   1      44.362  26.326  26.721  1.00  0.00    -0.206 F 
ATOM     83  C   UNL A   1      43.845  22.771  26.305  1.00  0.00     0.060 A 
BRANCH  83  84
ATOM     84  S   UNL A   1      44.133  21.470  25.084  1.00  0.00     0.124 S 
ATOM     85  O   UNL A   1      45.459  20.998  25.465  1.00  0.00    -0.237 OA
ATOM     86  O   UNL A   1      43.029  20.552  25.343  1.00  0.00    -0.237 OA
ATOM     87  O   UNL A   1      44.057  22.185  23.812  1.00  0.00    -0.744 OA
ENDBRANCH  83  84
ENDBRANCH  51  76
BRANCH  63  88
ATOM     88  C   UNL A   1      46.438  27.014  34.004  1.00  0.00     0.058 A 
ATOM     89  C   UNL A   1      47.703  27.551  33.724  1.00  0.00     0.135 A 
ATOM     90  C   UNL A   1      46.333  26.072  35.039  1.00  0.00     0.135 A 
ATOM     91  F   UNL A   1      47.852  28.451  32.738  1.00  0.00    -0.206 F 
ATOM     92  C   UNL A   1      48.829  27.159  34.438  1.00  0.00     0.059 A 
ATOM     93  C   UNL A   1      47.443  25.679  35.779  1.00  0.00     0.059 A 
ATOM     94  F   UNL A   1      45.142  25.538  35.348  1.00  0.00    -0.206 F 
ATOM     95  C   UNL A   1      48.689  26.222  35.464  1.00  0.00     0.060 A 
BRANCH  95  96
ATOM     96  S   UNL A   1      50.149  25.751  36.416  1.00  0.00     0.124 S 
ATOM     97  O   UNL A   1      50.462  24.445  35.843  1.00  0.00    -0.237 OA
ATOM     98  O   UNL A   1      51.090  26.822  36.104  1.00  0.00    -0.237 OA
ATOM     99  O   UNL A   1      49.664  25.734  37.792  1.00  0.00    -0.744 OA
ENDBRANCH  95  96
ENDBRANCH  63  88
ENDBRANCH  37  38
ENDBRANCH  29  32
ENDBRANCH  27  28
ENDBRANCH   1  27
TORSDOF 18
ENDMDL
