MODEL 1
REMARK VINA RESULT:     -12.7      0.000      0.000
REMARK SMILES C[C@@H](C(=O)NCCCCNC(=O)c1ccc(-c2c3nc(c(-c4c(F)cc(S(=O)(=O)[O-])cc4F)c4ccc([nH]4)c(-c4c(F)cc(S(=O)(=O)[O-])cc4F)c4nc(c(-c5c(F)cc(S(=O)(=O)[O-])cc5F)c5ccc2[nH]5)C=C4)C=C3)cc1)c1ccc(-c2ccc3[nH]ccc3c2)cc1
REMARK SMILES IDX 8 1 7 2 6 3 5 4 3 5 4 6 2 8 1 9 79 10 80 11 93 12 81 13
REMARK SMILES IDX 92 14 82 15 83 16 84 17 91 18 85 19 90 20 86 21 89 22 87 23
REMARK SMILES IDX 88 24 9 26 10 27 11 28 12 30 13 31 14 32 78 33 15 34 77 35
REMARK SMILES IDX 16 36 17 37 18 38 71 39 19 40 76 41 70 42 72 43 20 44 75 45
REMARK SMILES IDX 69 46 68 47 21 49 55 50 34 51 54 52 35 53 38 54 53 55 73 56
REMARK SMILES IDX 36 57 37 58 52 60 74 61 39 62 22 63 23 64 32 65 24 66 25 67
REMARK SMILES IDX 31 68 33 69 26 70 27 71 28 72 29 73 30 74 56 75 57 76 66 77
REMARK SMILES IDX 58 78 59 79 65 80 67 81 60 82 61 83 62 84 63 85 64 86 40 87
REMARK SMILES IDX 41 88 50 89 42 90 43 91 49 92 51 93 44 94 45 95 46 96 47 97
REMARK SMILES IDX 48 98
REMARK H PARENT 5 7 87 25 10 29 72 48 38 59
REMARK Flexibility Score: inf
ROOT
ATOM      1  C   UNL A   1      40.023  22.407  27.359  1.00  0.00     0.023 C 
ENDROOT
BRANCH   1   2
ATOM      2  C   UNL A   1      38.910  22.967  26.472  1.00  0.00     0.023 C 
BRANCH   2   3
ATOM      3  C   UNL A   1      38.080  21.905  25.747  1.00  0.00     0.116 C 
BRANCH   3   4
ATOM      4  N   UNL A   1      37.772  22.320  24.397  1.00  0.00    -0.356 N 
ATOM      5  C   UNL A   1      36.589  22.702  23.838  1.00  0.00     0.227 C 
ATOM      6  O   UNL A   1      36.614  22.932  22.628  1.00  0.00    -0.274 OA
ATOM      7  H   UNL A   1      38.541  22.327  23.781  1.00  0.00     0.163 HD
BRANCH   5   8
ATOM      8  C   UNL A   1      35.337  22.867  24.723  1.00  0.00     0.105 C 
ATOM      9  C   UNL A   1      34.293  21.767  24.504  1.00  0.00     0.023 C 
BRANCH   8  10
ATOM     10  C   UNL A   1      34.626  24.204  24.545  1.00  0.00    -0.036 A 
ATOM     11  C   UNL A   1      33.893  24.483  23.383  1.00  0.00     0.005 A 
ATOM     12  C   UNL A   1      34.599  25.133  25.595  1.00  0.00     0.005 A 
ATOM     13  C   UNL A   1      33.160  25.659  23.270  1.00  0.00     0.009 A 
ATOM     14  C   UNL A   1      33.848  26.308  25.486  1.00  0.00     0.009 A 
ATOM     15  C   UNL A   1      33.110  26.575  24.327  1.00  0.00    -0.018 A 
BRANCH  15  16
ATOM     16  C   UNL A   1      32.254  27.755  24.212  1.00  0.00    -0.018 A 
ATOM     17  C   UNL A   1      32.330  28.761  25.186  1.00  0.00     0.011 A 
ATOM     18  C   UNL A   1      31.304  27.859  23.181  1.00  0.00     0.019 A 
ATOM     19  C   UNL A   1      31.495  29.881  25.160  1.00  0.00     0.027 A 
ATOM     20  C   UNL A   1      30.420  28.955  23.161  1.00  0.00    -0.000 A 
ATOM     21  C   UNL A   1      30.547  29.943  24.136  1.00  0.00     0.045 A 
ATOM     22  C   UNL A   1      29.314  29.315  22.342  1.00  0.00     0.028 A 
ATOM     23  N   UNL A   1      29.588  30.895  23.875  1.00  0.00    -0.361 N 
ATOM     24  C   UNL A   1      28.809  30.504  22.819  1.00  0.00     0.083 A 
ATOM     25  H   UNL A   1      29.479  31.736  24.374  1.00  0.00     0.166 HD
ENDBRANCH  15  16
ENDBRANCH   8  10
ENDBRANCH   5   8
ENDBRANCH   3   4
ENDBRANCH   2   3
ENDBRANCH   1   2
BRANCH   1  26
ATOM     26  C   UNL A   1      41.236  23.313  27.514  1.00  0.00     0.116 C 
BRANCH  26  27
ATOM     27  N   UNL A   1      41.508  24.086  26.315  1.00  0.00    -0.352 N 
ATOM     28  C   UNL A   1      41.452  25.446  26.134  1.00  0.00     0.251 C 
ATOM     29  H   UNL A   1      41.768  23.564  25.523  1.00  0.00     0.163 HD
ATOM     30  O   UNL A   1      41.556  25.912  25.006  1.00  0.00    -0.269 OA
BRANCH  28  31
ATOM     31  C   UNL A   1      41.245  26.337  27.298  1.00  0.00     0.039 A 
ATOM     32  C   UNL A   1      40.168  26.087  28.151  1.00  0.00     0.014 A 
ATOM     33  C   UNL A   1      42.096  27.420  27.539  1.00  0.00     0.014 A 
ATOM     34  C   UNL A   1      39.959  26.910  29.259  1.00  0.00     0.010 A 
ATOM     35  C   UNL A   1      41.939  28.182  28.693  1.00  0.00     0.010 A 
ATOM     36  C   UNL A   1      40.851  27.957  29.547  1.00  0.00    -0.014 A 
BRANCH  36  37
ATOM     37  C   UNL A   1      40.621  28.860  30.703  1.00  0.00     0.031 A 
ATOM     38  C   UNL A   1      41.471  28.728  31.940  1.00  0.00     0.074 A 
ATOM     39  C   UNL A   1      39.635  29.778  30.652  1.00  0.00     0.049 A 
ATOM     40  N   UNL A   1      41.427  29.418  33.051  1.00  0.00    -0.248 NA
ATOM     41  C   UNL A   1      42.486  27.660  31.941  1.00  0.00     0.031 C 
ATOM     42  C   UNL A   1      38.713  29.968  29.530  1.00  0.00     0.029 A 
ATOM     43  N   UNL A   1      39.245  30.725  31.564  1.00  0.00    -0.354 N 
ATOM     44  C   UNL A   1      42.391  28.857  33.884  1.00  0.00     0.074 A 
ATOM     45  C   UNL A   1      42.959  27.733  33.176  1.00  0.00     0.031 C 
ATOM     46  C   UNL A   1      37.892  30.995  29.805  1.00  0.00     0.029 A 
ATOM     47  C   UNL A   1      38.204  31.512  31.133  1.00  0.00     0.049 A 
ATOM     48  H   UNL A   1      39.671  30.830  32.446  1.00  0.00     0.167 HD
ATOM     49  C   UNL A   1      42.788  29.261  35.114  1.00  0.00     0.037 A 
ATOM     50  C   UNL A   1      37.579  32.541  31.739  1.00  0.00     0.037 A 
ATOM     51  C   UNL A   1      42.238  30.402  35.798  1.00  0.00     0.049 A 
ATOM     52  C   UNL A   1      38.049  32.981  33.101  1.00  0.00     0.074 A 
ATOM     53  C   UNL A   1      42.611  30.934  37.019  1.00  0.00     0.029 A 
ATOM     54  N   UNL A   1      41.198  31.186  35.321  1.00  0.00    -0.354 N 
ATOM     55  N   UNL A   1      39.009  32.485  33.845  1.00  0.00    -0.248 NA
ATOM     56  C   UNL A   1      37.359  34.132  33.698  1.00  0.00     0.031 C 
ATOM     57  C   UNL A   1      41.762  32.009  37.305  1.00  0.00     0.029 A 
ATOM     58  C   UNL A   1      40.903  32.187  36.231  1.00  0.00     0.049 A 
ATOM     59  H   UNL A   1      40.738  31.052  34.461  1.00  0.00     0.167 HD
ATOM     60  C   UNL A   1      39.068  33.291  34.977  1.00  0.00     0.074 A 
ATOM     61  C   UNL A   1      38.050  34.309  34.815  1.00  0.00     0.031 C 
ATOM     62  C   UNL A   1      39.895  33.203  36.049  1.00  0.00     0.037 A 
BRANCH  49  63
ATOM     63  C   UNL A   1      43.865  28.461  35.798  1.00  0.00     0.058 A 
ATOM     64  C   UNL A   1      43.563  27.393  36.660  1.00  0.00     0.135 A 
ATOM     65  C   UNL A   1      45.220  28.749  35.568  1.00  0.00     0.135 A 
ATOM     66  F   UNL A   1      42.286  27.081  36.929  1.00  0.00    -0.206 F 
ATOM     67  C   UNL A   1      44.563  26.666  37.297  1.00  0.00     0.059 A 
ATOM     68  C   UNL A   1      46.238  28.013  36.170  1.00  0.00     0.059 A 
ATOM     69  F   UNL A   1      45.568  29.758  34.755  1.00  0.00    -0.206 F 
ATOM     70  C   UNL A   1      45.898  26.984  37.046  1.00  0.00     0.060 A 
BRANCH  70  71
ATOM     71  S   UNL A   1      47.184  26.029  37.880  1.00  0.00     0.124 S 
ATOM     72  O   UNL A   1      48.374  26.818  37.576  1.00  0.00    -0.237 OA
ATOM     73  O   UNL A   1      46.742  26.059  39.270  1.00  0.00    -0.237 OA
ATOM     74  O   UNL A   1      47.115  24.724  37.230  1.00  0.00    -0.744 OA
ENDBRANCH  70  71
ENDBRANCH  49  63
BRANCH  50  75
ATOM     75  C   UNL A   1      36.477  33.259  31.042  1.00  0.00     0.058 A 
ATOM     76  C   UNL A   1      36.738  34.086  29.939  1.00  0.00     0.135 A 
ATOM     77  C   UNL A   1      35.143  33.133  31.461  1.00  0.00     0.135 A 
ATOM     78  F   UNL A   1      37.998  34.244  29.503  1.00  0.00    -0.206 F 
ATOM     79  C   UNL A   1      35.723  34.780  29.289  1.00  0.00     0.059 A 
ATOM     80  C   UNL A   1      34.106  33.793  30.810  1.00  0.00     0.059 A 
ATOM     81  F   UNL A   1      34.836  32.340  32.499  1.00  0.00    -0.206 F 
ATOM     82  C   UNL A   1      34.408  34.625  29.732  1.00  0.00     0.060 A 
BRANCH  82  83
ATOM     83  S   UNL A   1      33.092  35.499  28.856  1.00  0.00     0.124 S 
ATOM     84  O   UNL A   1      32.238  35.927  29.958  1.00  0.00    -0.237 OA
ATOM     85  O   UNL A   1      33.832  36.556  28.172  1.00  0.00    -0.237 OA
ATOM     86  O   UNL A   1      32.530  34.471  27.984  1.00  0.00    -0.744 OA
ENDBRANCH  82  83
ENDBRANCH  50  75
BRANCH  62  87
ATOM     87  C   UNL A   1      39.782  34.272  37.101  1.00  0.00     0.058 A 
ATOM     88  C   UNL A   1      40.510  35.470  37.033  1.00  0.00     0.135 A 
ATOM     89  C   UNL A   1      38.902  34.103  38.184  1.00  0.00     0.135 A 
ATOM     90  F   UNL A   1      41.367  35.684  36.021  1.00  0.00    -0.206 F 
ATOM     91  C   UNL A   1      40.404  36.443  38.023  1.00  0.00     0.059 A 
ATOM     92  C   UNL A   1      38.753  35.077  39.166  1.00  0.00     0.059 A 
ATOM     93  F   UNL A   1      38.168  32.985  38.291  1.00  0.00    -0.206 F 
ATOM     94  C   UNL A   1      39.523  36.235  39.086  1.00  0.00     0.060 A 
BRANCH  94  95
ATOM     95  S   UNL A   1      39.390  37.506  40.362  1.00  0.00     0.124 S 
ATOM     96  O   UNL A   1      38.418  38.417  39.768  1.00  0.00    -0.237 OA
ATOM     97  O   UNL A   1      38.923  36.743  41.515  1.00  0.00    -0.237 OA
ATOM     98  O   UNL A   1      40.752  38.023  40.469  1.00  0.00    -0.744 OA
ENDBRANCH  94  95
ENDBRANCH  62  87
ENDBRANCH  36  37
ENDBRANCH  28  31
ENDBRANCH  26  27
ENDBRANCH   1  26
TORSDOF 16
ENDMDL
MODEL 2
REMARK VINA RESULT:     -12.7      4.787     10.701
REMARK SMILES C[C@@H](C(=O)NCCCCNC(=O)c1ccc(-c2c3nc(c(-c4c(F)cc(S(=O)(=O)[O-])cc4F)c4ccc([nH]4)c(-c4c(F)cc(S(=O)(=O)[O-])cc4F)c4nc(c(-c5c(F)cc(S(=O)(=O)[O-])cc5F)c5ccc2[nH]5)C=C4)C=C3)cc1)c1ccc(-c2ccc3[nH]ccc3c2)cc1
REMARK SMILES IDX 8 1 7 2 6 3 5 4 3 5 4 6 2 8 1 9 79 10 80 11 93 12 81 13
REMARK SMILES IDX 92 14 82 15 83 16 84 17 91 18 85 19 90 20 86 21 89 22 87 23
REMARK SMILES IDX 88 24 9 26 10 27 11 28 12 30 13 31 14 32 78 33 15 34 77 35
REMARK SMILES IDX 16 36 17 37 18 38 71 39 19 40 76 41 70 42 72 43 20 44 75 45
REMARK SMILES IDX 69 46 68 47 21 49 55 50 34 51 54 52 35 53 38 54 53 55 73 56
REMARK SMILES IDX 36 57 37 58 52 60 74 61 39 62 22 63 23 64 32 65 24 66 25 67
REMARK SMILES IDX 31 68 33 69 26 70 27 71 28 72 29 73 30 74 56 75 57 76 66 77
REMARK SMILES IDX 58 78 59 79 65 80 67 81 60 82 61 83 62 84 63 85 64 86 40 87
REMARK SMILES IDX 41 88 50 89 42 90 43 91 49 92 51 93 44 94 45 95 46 96 47 97
REMARK SMILES IDX 48 98
REMARK H PARENT 5 7 87 25 10 29 72 48 38 59
REMARK Flexibility Score: inf
ROOT
ATOM      1  C   UNL A   1      33.389  27.781  25.904  1.00  0.00     0.023 C 
ENDROOT
BRANCH   1   2
ATOM      2  C   UNL A   1      32.848  28.932  25.053  1.00  0.00     0.023 C 
BRANCH   2   3
ATOM      3  C   UNL A   1      31.322  29.012  24.987  1.00  0.00     0.116 C 
BRANCH   3   4
ATOM      4  N   UNL A   1      30.879  29.377  23.659  1.00  0.00    -0.356 N 
ATOM      5  C   UNL A   1      30.368  28.607  22.657  1.00  0.00     0.227 C 
ATOM      6  O   UNL A   1      30.145  29.187  21.594  1.00  0.00    -0.274 OA
ATOM      7  H   UNL A   1      30.961  30.334  23.444  1.00  0.00     0.163 HD
BRANCH   5   8
ATOM      8  C   UNL A   1      30.060  27.118  22.910  1.00  0.00     0.105 C 
ATOM      9  C   UNL A   1      29.147  26.886  24.118  1.00  0.00     0.023 C 
BRANCH   8  10
ATOM     10  C   UNL A   1      31.301  26.255  23.112  1.00  0.00    -0.036 A 
ATOM     11  C   UNL A   1      32.478  26.502  22.390  1.00  0.00     0.005 A 
ATOM     12  C   UNL A   1      31.320  25.270  24.110  1.00  0.00     0.005 A 
ATOM     13  C   UNL A   1      33.638  25.782  22.654  1.00  0.00     0.009 A 
ATOM     14  C   UNL A   1      32.492  24.558  24.385  1.00  0.00     0.009 A 
ATOM     15  C   UNL A   1      33.667  24.818  23.667  1.00  0.00    -0.018 A 
BRANCH  15  16
ATOM     16  C   UNL A   1      34.927  24.147  23.982  1.00  0.00    -0.018 A 
ATOM     17  C   UNL A   1      35.362  23.083  23.178  1.00  0.00     0.011 A 
ATOM     18  C   UNL A   1      35.670  24.504  25.120  1.00  0.00     0.019 A 
ATOM     19  C   UNL A   1      36.527  22.367  23.466  1.00  0.00     0.027 A 
ATOM     20  C   UNL A   1      36.821  23.767  25.458  1.00  0.00    -0.000 A 
ATOM     21  C   UNL A   1      37.229  22.731  24.617  1.00  0.00     0.045 A 
ATOM     22  C   UNL A   1      37.727  23.797  26.554  1.00  0.00     0.028 A 
ATOM     23  N   UNL A   1      38.376  22.199  25.159  1.00  0.00    -0.361 N 
ATOM     24  C   UNL A   1      38.661  22.806  26.353  1.00  0.00     0.083 A 
ATOM     25  H   UNL A   1      38.915  21.485  24.748  1.00  0.00     0.166 HD
ENDBRANCH  15  16
ENDBRANCH   8  10
ENDBRANCH   5   8
ENDBRANCH   3   4
ENDBRANCH   2   3
ENDBRANCH   1   2
BRANCH   1  26
ATOM     26  C   UNL A   1      33.884  28.182  27.285  1.00  0.00     0.116 C 
BRANCH  26  27
ATOM     27  N   UNL A   1      33.648  29.586  27.573  1.00  0.00    -0.352 N 
ATOM     28  C   UNL A   1      34.498  30.506  28.137  1.00  0.00     0.251 C 
ATOM     29  H   UNL A   1      32.757  29.925  27.332  1.00  0.00     0.163 HD
ATOM     30  O   UNL A   1      34.071  31.610  28.456  1.00  0.00    -0.269 OA
BRANCH  28  31
ATOM     31  C   UNL A   1      35.915  30.151  28.375  1.00  0.00     0.039 A 
ATOM     32  C   UNL A   1      36.821  30.262  27.318  1.00  0.00     0.014 A 
ATOM     33  C   UNL A   1      36.346  29.697  29.625  1.00  0.00     0.014 A 
ATOM     34  C   UNL A   1      38.163  29.940  27.522  1.00  0.00     0.010 A 
ATOM     35  C   UNL A   1      37.699  29.465  29.850  1.00  0.00     0.010 A 
ATOM     36  C   UNL A   1      38.617  29.551  28.794  1.00  0.00    -0.014 A 
BRANCH  36  37
ATOM     37  C   UNL A   1      40.037  29.173  29.016  1.00  0.00     0.031 A 
ATOM     38  C   UNL A   1      40.992  30.168  29.622  1.00  0.00     0.074 A 
ATOM     39  C   UNL A   1      40.470  27.950  28.650  1.00  0.00     0.049 A 
ATOM     40  N   UNL A   1      42.264  30.031  29.895  1.00  0.00    -0.248 NA
ATOM     41  C   UNL A   1      40.455  31.503  29.936  1.00  0.00     0.031 C 
ATOM     42  C   UNL A   1      39.652  26.919  28.008  1.00  0.00     0.029 A 
ATOM     43  N   UNL A   1      41.706  27.367  28.769  1.00  0.00    -0.354 N 
ATOM     44  C   UNL A   1      42.680  31.262  30.392  1.00  0.00     0.074 A 
ATOM     45  C   UNL A   1      41.542  32.151  30.326  1.00  0.00     0.031 C 
ATOM     46  C   UNL A   1      40.398  25.816  27.826  1.00  0.00     0.029 A 
ATOM     47  C   UNL A   1      41.753  26.073  28.305  1.00  0.00     0.049 A 
ATOM     48  H   UNL A   1      42.486  27.831  29.150  1.00  0.00     0.167 HD
ATOM     49  C   UNL A   1      43.890  31.612  30.889  1.00  0.00     0.037 A 
ATOM     50  C   UNL A   1      42.772  25.192  28.278  1.00  0.00     0.037 A 
ATOM     51  C   UNL A   1      45.009  30.710  30.981  1.00  0.00     0.049 A 
ATOM     52  C   UNL A   1      44.105  25.600  28.850  1.00  0.00     0.074 A 
ATOM     53  C   UNL A   1      46.259  30.945  31.524  1.00  0.00     0.029 A 
ATOM     54  N   UNL A   1      45.012  29.403  30.518  1.00  0.00    -0.354 N 
ATOM     55  N   UNL A   1      44.462  26.745  29.382  1.00  0.00    -0.248 NA
ATOM     56  C   UNL A   1      45.170  24.589  28.831  1.00  0.00     0.031 C 
ATOM     57  C   UNL A   1      47.036  29.795  31.342  1.00  0.00     0.029 A 
ATOM     58  C   UNL A   1      46.249  28.823  30.746  1.00  0.00     0.049 A 
ATOM     59  H   UNL A   1      44.247  28.952  30.092  1.00  0.00     0.167 HD
ATOM     60  C   UNL A   1      45.776  26.576  29.802  1.00  0.00     0.074 A 
ATOM     61  C   UNL A   1      46.149  25.217  29.466  1.00  0.00     0.031 C 
ATOM     62  C   UNL A   1      46.599  27.463  30.418  1.00  0.00     0.037 A 
BRANCH  49  63
ATOM     63  C   UNL A   1      44.067  33.030  31.366  1.00  0.00     0.058 A 
ATOM     64  C   UNL A   1      43.790  33.409  32.690  1.00  0.00     0.135 A 
ATOM     65  C   UNL A   1      44.545  34.020  30.491  1.00  0.00     0.135 A 
ATOM     66  F   UNL A   1      43.316  32.509  33.566  1.00  0.00    -0.206 F 
ATOM     67  C   UNL A   1      43.944  34.723  33.119  1.00  0.00     0.059 A 
ATOM     68  C   UNL A   1      44.739  35.334  30.909  1.00  0.00     0.059 A 
ATOM     69  F   UNL A   1      44.826  33.716  29.215  1.00  0.00    -0.206 F 
ATOM     70  C   UNL A   1      44.420  35.679  32.221  1.00  0.00     0.060 A 
BRANCH  70  71
ATOM     71  S   UNL A   1      44.616  37.379  32.795  1.00  0.00     0.124 S 
ATOM     72  O   UNL A   1      46.070  37.507  32.830  1.00  0.00    -0.237 OA
ATOM     73  O   UNL A   1      43.938  38.141  31.752  1.00  0.00    -0.237 OA
ATOM     74  O   UNL A   1      43.956  37.377  34.097  1.00  0.00    -0.744 OA
ENDBRANCH  70  71
ENDBRANCH  49  63
BRANCH  50  75
ATOM     75  C   UNL A   1      42.560  23.822  27.738  1.00  0.00     0.058 A 
ATOM     76  C   UNL A   1      42.542  23.586  26.356  1.00  0.00     0.135 A 
ATOM     77  C   UNL A   1      42.376  22.721  28.590  1.00  0.00     0.135 A 
ATOM     78  F   UNL A   1      42.708  24.605  25.499  1.00  0.00    -0.206 F 
ATOM     79  C   UNL A   1      42.325  22.315  25.834  1.00  0.00     0.059 A 
ATOM     80  C   UNL A   1      42.186  21.435  28.093  1.00  0.00     0.059 A 
ATOM     81  F   UNL A   1      42.403  22.888  29.921  1.00  0.00    -0.206 F 
ATOM     82  C   UNL A   1      42.150  21.244  26.712  1.00  0.00     0.060 A 
BRANCH  82  83
ATOM     83  S   UNL A   1      41.911  19.591  26.024  1.00  0.00     0.124 S 
ATOM     84  O   UNL A   1      42.349  18.746  27.129  1.00  0.00    -0.237 OA
ATOM     85  O   UNL A   1      40.478  19.583  25.742  1.00  0.00    -0.237 OA
ATOM     86  O   UNL A   1      42.774  19.590  24.847  1.00  0.00    -0.744 OA
ENDBRANCH  82  83
ENDBRANCH  50  75
BRANCH  62  87
ATOM     87  C   UNL A   1      47.961  26.973  30.830  1.00  0.00     0.058 A 
ATOM     88  C   UNL A   1      48.161  26.200  31.985  1.00  0.00     0.135 A 
ATOM     89  C   UNL A   1      49.083  27.259  30.034  1.00  0.00     0.135 A 
ATOM     90  F   UNL A   1      47.124  25.896  32.783  1.00  0.00    -0.206 F 
ATOM     91  C   UNL A   1      49.429  25.766  32.359  1.00  0.00     0.059 A 
ATOM     92  C   UNL A   1      50.354  26.807  30.370  1.00  0.00     0.059 A 
ATOM     93  F   UNL A   1      48.948  27.981  28.910  1.00  0.00    -0.206 F 
ATOM     94  C   UNL A   1      50.520  26.077  31.545  1.00  0.00     0.060 A 
BRANCH  94  95
ATOM     95  S   UNL A   1      52.160  25.507  32.038  1.00  0.00     0.124 S 
ATOM     96  O   UNL A   1      52.914  25.678  30.801  1.00  0.00    -0.237 OA
ATOM     97  O   UNL A   1      52.498  26.426  33.120  1.00  0.00    -0.237 OA
ATOM     98  O   UNL A   1      51.930  24.124  32.447  1.00  0.00    -0.744 OA
ENDBRANCH  94  95
ENDBRANCH  62  87
ENDBRANCH  36  37
ENDBRANCH  28  31
ENDBRANCH  26  27
ENDBRANCH   1  26
TORSDOF 16
ENDMDL
MODEL 3
REMARK VINA RESULT:     -12.6      6.601     12.420
REMARK SMILES C[C@@H](C(=O)NCCCCNC(=O)c1ccc(-c2c3nc(c(-c4c(F)cc(S(=O)(=O)[O-])cc4F)c4ccc([nH]4)c(-c4c(F)cc(S(=O)(=O)[O-])cc4F)c4nc(c(-c5c(F)cc(S(=O)(=O)[O-])cc5F)c5ccc2[nH]5)C=C4)C=C3)cc1)c1ccc(-c2ccc3[nH]ccc3c2)cc1
REMARK SMILES IDX 8 1 7 2 6 3 5 4 3 5 4 6 2 8 1 9 79 10 80 11 93 12 81 13
REMARK SMILES IDX 92 14 82 15 83 16 84 17 91 18 85 19 90 20 86 21 89 22 87 23
REMARK SMILES IDX 88 24 9 26 10 27 11 28 12 30 13 31 14 32 78 33 15 34 77 35
REMARK SMILES IDX 16 36 17 37 18 38 71 39 19 40 76 41 70 42 72 43 20 44 75 45
REMARK SMILES IDX 69 46 68 47 21 49 55 50 34 51 54 52 35 53 38 54 53 55 73 56
REMARK SMILES IDX 36 57 37 58 52 60 74 61 39 62 22 63 23 64 32 65 24 66 25 67
REMARK SMILES IDX 31 68 33 69 26 70 27 71 28 72 29 73 30 74 56 75 57 76 66 77
REMARK SMILES IDX 58 78 59 79 65 80 67 81 60 82 61 83 62 84 63 85 64 86 40 87
REMARK SMILES IDX 41 88 50 89 42 90 43 91 49 92 51 93 44 94 45 95 46 96 47 97
REMARK SMILES IDX 48 98
REMARK H PARENT 5 7 87 25 10 29 72 48 38 59
REMARK Flexibility Score: inf
ROOT
ATOM      1  C   UNL A   1      34.969  29.335  27.585  1.00  0.00     0.023 C 
ENDROOT
BRANCH   1   2
ATOM      2  C   UNL A   1      33.439  29.283  27.575  1.00  0.00     0.023 C 
BRANCH   2   3
ATOM      3  C   UNL A   1      32.779  30.190  26.534  1.00  0.00     0.116 C 
BRANCH   3   4
ATOM      4  N   UNL A   1      31.797  29.464  25.761  1.00  0.00    -0.356 N 
ATOM      5  C   UNL A   1      31.950  28.666  24.666  1.00  0.00     0.227 C 
ATOM      6  O   UNL A   1      30.910  28.234  24.167  1.00  0.00    -0.274 OA
ATOM      7  H   UNL A   1      30.869  29.562  26.075  1.00  0.00     0.163 HD
BRANCH   5   8
ATOM      8  C   UNL A   1      33.363  28.319  24.157  1.00  0.00     0.105 C 
ATOM      9  C   UNL A   1      33.602  28.745  22.705  1.00  0.00     0.023 C 
BRANCH   8  10
ATOM     10  C   UNL A   1      33.708  26.837  24.253  1.00  0.00    -0.036 A 
ATOM     11  C   UNL A   1      34.005  26.243  25.488  1.00  0.00     0.005 A 
ATOM     12  C   UNL A   1      33.624  26.018  23.117  1.00  0.00     0.005 A 
ATOM     13  C   UNL A   1      34.215  24.872  25.586  1.00  0.00     0.009 A 
ATOM     14  C   UNL A   1      33.820  24.637  23.220  1.00  0.00     0.009 A 
ATOM     15  C   UNL A   1      34.104  24.050  24.460  1.00  0.00    -0.018 A 
BRANCH  15  16
ATOM     16  C   UNL A   1      34.238  22.601  24.614  1.00  0.00    -0.018 A 
ATOM     17  C   UNL A   1      35.471  22.060  25.007  1.00  0.00     0.011 A 
ATOM     18  C   UNL A   1      33.171  21.742  24.304  1.00  0.00     0.019 A 
ATOM     19  C   UNL A   1      35.672  20.682  25.112  1.00  0.00     0.027 A 
ATOM     20  C   UNL A   1      33.364  20.348  24.357  1.00  0.00    -0.000 A 
ATOM     21  C   UNL A   1      34.600  19.854  24.774  1.00  0.00     0.045 A 
ATOM     22  C   UNL A   1      32.554  19.225  24.030  1.00  0.00     0.028 A 
ATOM     23  N   UNL A   1      34.513  18.481  24.756  1.00  0.00    -0.361 N 
ATOM     24  C   UNL A   1      33.296  18.090  24.265  1.00  0.00     0.083 A 
ATOM     25  H   UNL A   1      35.223  17.868  25.054  1.00  0.00     0.166 HD
ENDBRANCH  15  16
ENDBRANCH   8  10
ENDBRANCH   5   8
ENDBRANCH   3   4
ENDBRANCH   2   3
ENDBRANCH   1   2
BRANCH   1  26
ATOM     26  C   UNL A   1      35.563  30.611  28.161  1.00  0.00     0.116 C 
BRANCH  26  27
ATOM     27  N   UNL A   1      35.514  30.642  29.612  1.00  0.00    -0.352 N 
ATOM     28  C   UNL A   1      36.471  30.249  30.516  1.00  0.00     0.251 C 
ATOM     29  H   UNL A   1      34.681  30.991  30.002  1.00  0.00     0.163 HD
ATOM     30  O   UNL A   1      36.191  30.194  31.708  1.00  0.00    -0.269 OA
BRANCH  28  31
ATOM     31  C   UNL A   1      37.822  29.876  30.044  1.00  0.00     0.039 A 
ATOM     32  C   UNL A   1      38.132  30.047  28.693  1.00  0.00     0.014 A 
ATOM     33  C   UNL A   1      38.774  29.346  30.920  1.00  0.00     0.014 A 
ATOM     34  C   UNL A   1      39.403  29.709  28.227  1.00  0.00     0.010 A 
ATOM     35  C   UNL A   1      40.067  29.096  30.473  1.00  0.00     0.010 A 
ATOM     36  C   UNL A   1      40.387  29.243  29.116  1.00  0.00    -0.014 A 
BRANCH  36  37
ATOM     37  C   UNL A   1      41.733  28.848  28.627  1.00  0.00     0.031 A 
ATOM     38  C   UNL A   1      42.836  29.872  28.556  1.00  0.00     0.074 A 
ATOM     39  C   UNL A   1      41.955  27.581  28.224  1.00  0.00     0.049 A 
ATOM     40  N   UNL A   1      44.074  29.727  28.159  1.00  0.00    -0.248 NA
ATOM     41  C   UNL A   1      42.495  31.248  28.955  1.00  0.00     0.031 C 
ATOM     42  C   UNL A   1      40.953  26.513  28.199  1.00  0.00     0.029 A 
ATOM     43  N   UNL A   1      43.096  26.976  27.763  1.00  0.00    -0.354 N 
ATOM     44  C   UNL A   1      44.650  30.990  28.244  1.00  0.00     0.074 A 
ATOM     45  C   UNL A   1      43.611  31.901  28.669  1.00  0.00     0.031 C 
ATOM     46  C   UNL A   1      41.534  25.375  27.783  1.00  0.00     0.029 A 
ATOM     47  C   UNL A   1      42.937  25.640  27.480  1.00  0.00     0.049 A 
ATOM     48  H   UNL A   1      43.948  27.454  27.644  1.00  0.00     0.167 HD
ATOM     49  C   UNL A   1      45.935  31.354  28.018  1.00  0.00     0.037 A 
ATOM     50  C   UNL A   1      43.826  24.731  27.034  1.00  0.00     0.037 A 
ATOM     51  C   UNL A   1      46.970  30.434  27.626  1.00  0.00     0.049 A 
ATOM     52  C   UNL A   1      45.253  25.156  26.804  1.00  0.00     0.074 A 
ATOM     53  C   UNL A   1      48.316  30.686  27.432  1.00  0.00     0.029 A 
ATOM     54  N   UNL A   1      46.775  29.085  27.368  1.00  0.00    -0.354 N 
ATOM     55  N   UNL A   1      45.798  26.340  26.957  1.00  0.00    -0.248 NA
ATOM     56  C   UNL A   1      46.189  24.117  26.356  1.00  0.00     0.031 C 
ATOM     57  C   UNL A   1      48.925  29.501  27.005  1.00  0.00     0.029 A 
ATOM     58  C   UNL A   1      47.972  28.495  26.997  1.00  0.00     0.049 A 
ATOM     59  H   UNL A   1      45.912  28.615  27.438  1.00  0.00     0.167 HD
ATOM     60  C   UNL A   1      47.149  26.177  26.668  1.00  0.00     0.074 A 
ATOM     61  C   UNL A   1      47.336  24.779  26.336  1.00  0.00     0.031 C 
ATOM     62  C   UNL A   1      48.145  27.098  26.684  1.00  0.00     0.037 A 
BRANCH  49  63
ATOM     63  C   UNL A   1      46.289  32.808  28.186  1.00  0.00     0.058 A 
ATOM     64  C   UNL A   1      46.798  33.315  29.393  1.00  0.00     0.135 A 
ATOM     65  C   UNL A   1      46.143  33.704  27.114  1.00  0.00     0.135 A 
ATOM     66  F   UNL A   1      46.944  32.509  30.457  1.00  0.00    -0.206 F 
ATOM     67  C   UNL A   1      47.112  34.662  29.544  1.00  0.00     0.059 A 
ATOM     68  C   UNL A   1      46.483  35.049  27.232  1.00  0.00     0.059 A 
ATOM     69  F   UNL A   1      45.662  33.277  25.936  1.00  0.00    -0.206 F 
ATOM     70  C   UNL A   1      46.950  35.521  28.457  1.00  0.00     0.060 A 
BRANCH  70  71
ATOM     71  S   UNL A   1      47.364  37.266  28.669  1.00  0.00     0.124 S 
ATOM     72  O   UNL A   1      46.994  37.484  30.064  1.00  0.00    -0.237 OA
ATOM     73  O   UNL A   1      48.794  37.284  28.382  1.00  0.00    -0.237 OA
ATOM     74  O   UNL A   1      46.521  37.938  27.684  1.00  0.00    -0.744 OA
ENDBRANCH  70  71
ENDBRANCH  49  63
BRANCH  50  75
ATOM     75  C   UNL A   1      43.408  23.318  26.824  1.00  0.00     0.058 A 
ATOM     76  C   UNL A   1      43.139  22.476  27.913  1.00  0.00     0.135 A 
ATOM     77  C   UNL A   1      43.264  22.782  25.535  1.00  0.00     0.135 A 
ATOM     78  F   UNL A   1      43.266  22.939  29.167  1.00  0.00    -0.206 F 
ATOM     79  C   UNL A   1      42.766  21.147  27.736  1.00  0.00     0.059 A 
ATOM     80  C   UNL A   1      42.864  21.465  25.330  1.00  0.00     0.059 A 
ATOM     81  F   UNL A   1      43.490  23.550  24.457  1.00  0.00    -0.206 F 
ATOM     82  C   UNL A   1      42.630  20.652  26.438  1.00  0.00     0.060 A 
BRANCH  82  83
ATOM     83  S   UNL A   1      42.106  18.937  26.219  1.00  0.00     0.124 S 
ATOM     84  O   UNL A   1      40.725  19.105  25.779  1.00  0.00    -0.237 OA
ATOM     85  O   UNL A   1      43.044  18.458  25.208  1.00  0.00    -0.237 OA
ATOM     86  O   UNL A   1      42.280  18.360  27.548  1.00  0.00    -0.744 OA
ENDBRANCH  82  83
ENDBRANCH  50  75
BRANCH  62  87
ATOM     87  C   UNL A   1      49.541  26.613  26.399  1.00  0.00     0.058 A 
ATOM     88  C   UNL A   1      50.335  25.999  27.379  1.00  0.00     0.135 A 
ATOM     89  C   UNL A   1      50.080  26.742  25.107  1.00  0.00     0.135 A 
ATOM     90  F   UNL A   1      49.871  25.851  28.631  1.00  0.00    -0.206 F 
ATOM     91  C   UNL A   1      51.629  25.569  27.102  1.00  0.00     0.059 A 
ATOM     92  C   UNL A   1      51.358  26.288  24.799  1.00  0.00     0.059 A 
ATOM     93  F   UNL A   1      49.360  27.307  24.126  1.00  0.00    -0.206 F 
ATOM     94  C   UNL A   1      52.132  25.720  25.809  1.00  0.00     0.060 A 
BRANCH  94  95
ATOM     95  S   UNL A   1      53.811  25.155  25.460  1.00  0.00     0.124 S 
ATOM     96  O   UNL A   1      54.048  25.736  24.143  1.00  0.00    -0.237 OA
ATOM     97  O   UNL A   1      54.572  25.741  26.558  1.00  0.00    -0.237 OA
ATOM     98  O   UNL A   1      53.693  23.700  25.492  1.00  0.00    -0.744 OA
ENDBRANCH  94  95
ENDBRANCH  62  87
ENDBRANCH  36  37
ENDBRANCH  28  31
ENDBRANCH  26  27
ENDBRANCH   1  26
TORSDOF 16
ENDMDL
