MODEL 1
REMARK VINA RESULT:     -12.4      0.000      0.000
REMARK SMILES C[C@H]1[C@@H](C(=O)NCCCCNC(=O)c2ccc(-c3c4nc(c(-c5c(F)cc(S(=O)(=O)[O-])cc5F)c5ccc([nH]5)c(-c5c(F)cc(S(=O)(=O)[O-])cc5F)c5nc(c(-c6c(F)cc(S(=O)(=O)[O-])cc6F)c6ccc3[nH]6)C=C5)C=C4)cc2)CCN1C(=O)/C=C/c1cccc(F)c1
REMARK SMILES IDX 8 1 7 2 6 3 4 4 5 5 3 7 1 8 2 9 82 10 80 11 81 12 83 13
REMARK SMILES IDX 84 14 85 15 86 16 87 17 88 18 93 19 89 20 91 21 90 22 92 23
REMARK SMILES IDX 9 24 10 25 11 26 12 27 13 29 14 30 15 31 79 32 16 33 78 34
REMARK SMILES IDX 17 35 18 36 19 37 72 38 20 39 77 40 71 41 73 42 21 43 76 44
REMARK SMILES IDX 70 45 69 46 22 48 56 49 35 50 55 51 36 52 39 53 54 54 74 55
REMARK SMILES IDX 37 56 38 57 53 59 75 60 40 61 23 62 24 63 33 64 25 65 26 66
REMARK SMILES IDX 32 67 34 68 27 69 28 70 29 71 30 72 31 73 57 74 58 75 67 76
REMARK SMILES IDX 59 77 60 78 66 79 68 80 61 81 62 82 63 83 64 84 65 85 41 86
REMARK SMILES IDX 42 87 51 88 43 89 44 90 50 91 52 92 45 93 46 94 47 95 48 96
REMARK SMILES IDX 49 97
REMARK H PARENT 6 6 11 28 73 47 39 58
REMARK Flexibility Score: inf
ROOT
ATOM      1  C   UNL A   1      37.470  23.650  25.396  1.00  0.00     0.023 C 
ENDROOT
BRANCH   1   2
ATOM      2  C   UNL A   1      36.881  23.099  24.095  1.00  0.00     0.116 C 
BRANCH   2   3
ATOM      3  N   UNL A   1      36.431  21.734  24.293  1.00  0.00    -0.356 N 
ATOM      4  C   UNL A   1      35.200  21.236  24.604  1.00  0.00     0.225 C 
ATOM      5  O   UNL A   1      35.141  20.039  24.888  1.00  0.00    -0.275 OA
ATOM      6  H   UNL A   1      37.133  21.051  24.182  1.00  0.00     0.163 HD
BRANCH   4   7
ATOM      7  C   UNL A   1      33.944  22.101  24.491  1.00  0.00     0.102 C 
ATOM      8  C   UNL A   1      34.165  22.752  27.031  1.00  0.00     0.032 C 
ATOM      9  C   UNL A   1      33.520  23.004  25.673  1.00  0.00     0.094 C 
ATOM     10  N   UNL A   1      32.078  22.804  25.812  1.00  0.00    -0.336 N 
ATOM     11  C   UNL A   1      32.677  21.267  24.169  1.00  0.00     0.037 C 
ATOM     12  C   UNL A   1      31.733  21.486  25.336  1.00  0.00     0.121 C 
BRANCH  10  13
ATOM     13  C   UNL A   1      31.184  23.567  26.538  1.00  0.00     0.246 C 
ATOM     14  O   UNL A   1      30.530  23.140  27.485  1.00  0.00    -0.270 OA
BRANCH  13  15
ATOM     15  C   UNL A   1      31.133  25.021  26.220  1.00  0.00     0.072 C 
ATOM     16  C   UNL A   1      30.335  25.508  25.258  1.00  0.00     0.014 C 
BRANCH  16  17
ATOM     17  C   UNL A   1      30.357  26.880  24.721  1.00  0.00    -0.023 A 
ATOM     18  C   UNL A   1      29.557  27.166  23.600  1.00  0.00     0.008 A 
ATOM     19  C   UNL A   1      31.190  27.894  25.211  1.00  0.00     0.047 A 
ATOM     20  C   UNL A   1      29.588  28.423  22.986  1.00  0.00     0.004 A 
ATOM     21  C   UNL A   1      31.212  29.145  24.596  1.00  0.00     0.123 A 
ATOM     22  C   UNL A   1      30.422  29.418  23.487  1.00  0.00     0.039 A 
ATOM     23  F   UNL A   1      32.018  30.100  25.079  1.00  0.00    -0.207 F 
ENDBRANCH  16  17
ENDBRANCH  13  15
ENDBRANCH  10  13
ENDBRANCH   4   7
ENDBRANCH   2   3
ENDBRANCH   1   2
BRANCH   1  24
ATOM     24  C   UNL A   1      38.478  22.762  26.100  1.00  0.00     0.023 C 
BRANCH  24  25
ATOM     25  C   UNL A   1      39.481  23.514  26.950  1.00  0.00     0.116 C 
BRANCH  25  26
ATOM     26  N   UNL A   1      40.721  23.846  26.253  1.00  0.00    -0.352 N 
ATOM     27  C   UNL A   1      41.476  24.995  26.337  1.00  0.00     0.251 C 
ATOM     28  H   UNL A   1      41.064  23.156  25.640  1.00  0.00     0.163 HD
ATOM     29  O   UNL A   1      42.467  25.148  25.629  1.00  0.00    -0.269 OA
BRANCH  27  30
ATOM     30  C   UNL A   1      41.036  26.057  27.262  1.00  0.00     0.039 A 
ATOM     31  C   UNL A   1      40.103  25.756  28.255  1.00  0.00     0.014 A 
ATOM     32  C   UNL A   1      41.661  27.305  27.224  1.00  0.00     0.014 A 
ATOM     33  C   UNL A   1      39.878  26.678  29.279  1.00  0.00     0.010 A 
ATOM     34  C   UNL A   1      41.532  28.158  28.307  1.00  0.00     0.010 A 
ATOM     35  C   UNL A   1      40.635  27.859  29.344  1.00  0.00    -0.014 A 
BRANCH  35  36
ATOM     36  C   UNL A   1      40.502  28.819  30.468  1.00  0.00     0.031 A 
ATOM     37  C   UNL A   1      41.384  28.661  31.678  1.00  0.00     0.074 A 
ATOM     38  C   UNL A   1      39.534  29.757  30.447  1.00  0.00     0.049 A 
ATOM     39  N   UNL A   1      41.343  29.294  32.820  1.00  0.00    -0.248 NA
ATOM     40  C   UNL A   1      42.414  27.610  31.614  1.00  0.00     0.031 C 
ATOM     41  C   UNL A   1      38.565  29.959  29.366  1.00  0.00     0.029 A 
ATOM     42  N   UNL A   1      39.199  30.715  31.370  1.00  0.00    -0.354 N 
ATOM     43  C   UNL A   1      42.309  28.693  33.618  1.00  0.00     0.074 A 
ATOM     44  C   UNL A   1      42.872  27.602  32.856  1.00  0.00     0.031 C 
ATOM     45  C   UNL A   1      37.770  30.998  29.673  1.00  0.00     0.029 A 
ATOM     46  C   UNL A   1      38.147  31.513  30.985  1.00  0.00     0.049 A 
ATOM     47  H   UNL A   1      39.668  30.821  32.230  1.00  0.00     0.167 HD
ATOM     48  C   UNL A   1      42.719  29.042  34.859  1.00  0.00     0.037 A 
ATOM     49  C   UNL A   1      37.560  32.547  31.620  1.00  0.00     0.037 A 
ATOM     50  C   UNL A   1      42.208  30.175  35.579  1.00  0.00     0.049 A 
ATOM     51  C   UNL A   1      38.080  32.962  32.968  1.00  0.00     0.074 A 
ATOM     52  C   UNL A   1      42.611  30.671  36.805  1.00  0.00     0.029 A 
ATOM     53  N   UNL A   1      41.191  31.001  35.123  1.00  0.00    -0.354 N 
ATOM     54  N   UNL A   1      39.038  32.420  33.683  1.00  0.00    -0.248 NA
ATOM     55  C   UNL A   1      37.448  34.131  33.595  1.00  0.00     0.031 C 
ATOM     56  C   UNL A   1      41.822  31.788  37.101  1.00  0.00     0.029 A 
ATOM     57  C   UNL A   1      40.950  32.004  36.046  1.00  0.00     0.049 A 
ATOM     58  H   UNL A   1      40.711  30.891  34.271  1.00  0.00     0.167 HD
ATOM     59  C   UNL A   1      39.140  33.196  34.832  1.00  0.00     0.074 A 
ATOM     60  C   UNL A   1      38.153  34.252  34.711  1.00  0.00     0.031 C 
ATOM     61  C   UNL A   1      39.971  33.050  35.893  1.00  0.00     0.037 A 
BRANCH  48  62
ATOM     62  C   UNL A   1      43.791  28.200  35.494  1.00  0.00     0.058 A 
ATOM     63  C   UNL A   1      43.475  27.120  36.334  1.00  0.00     0.135 A 
ATOM     64  C   UNL A   1      45.148  28.476  35.263  1.00  0.00     0.135 A 
ATOM     65  F   UNL A   1      42.194  26.827  36.606  1.00  0.00    -0.206 F 
ATOM     66  C   UNL A   1      44.465  26.369  36.956  1.00  0.00     0.059 A 
ATOM     67  C   UNL A   1      46.156  27.718  35.851  1.00  0.00     0.059 A 
ATOM     68  F   UNL A   1      45.505  29.499  34.471  1.00  0.00    -0.206 F 
ATOM     69  C   UNL A   1      45.804  26.679  36.712  1.00  0.00     0.060 A 
BRANCH  69  70
ATOM     70  S   UNL A   1      47.079  25.700  37.533  1.00  0.00     0.124 S 
ATOM     71  O   UNL A   1      47.000  26.211  38.898  1.00  0.00    -0.237 OA
ATOM     72  O   UNL A   1      46.602  24.336  37.340  1.00  0.00    -0.237 OA
ATOM     73  O   UNL A   1      48.294  26.046  36.803  1.00  0.00    -0.744 OA
ENDBRANCH  69  70
ENDBRANCH  48  62
BRANCH  49  74
ATOM     74  C   UNL A   1      36.448  33.288  30.967  1.00  0.00     0.058 A 
ATOM     75  C   UNL A   1      36.692  34.118  29.862  1.00  0.00     0.135 A 
ATOM     76  C   UNL A   1      35.125  33.175  31.420  1.00  0.00     0.135 A 
ATOM     77  F   UNL A   1      37.942  34.260  29.395  1.00  0.00    -0.206 F 
ATOM     78  C   UNL A   1      35.668  34.823  29.237  1.00  0.00     0.059 A 
ATOM     79  C   UNL A   1      34.080  33.855  30.799  1.00  0.00     0.059 A 
ATOM     80  F   UNL A   1      34.836  32.381  32.461  1.00  0.00    -0.206 F 
ATOM     81  C   UNL A   1      34.364  34.685  29.714  1.00  0.00     0.060 A 
BRANCH  81  82
ATOM     82  S   UNL A   1      33.034  35.565  28.866  1.00  0.00     0.124 S 
ATOM     83  O   UNL A   1      33.782  36.543  28.084  1.00  0.00    -0.237 OA
ATOM     84  O   UNL A   1      32.391  34.498  28.107  1.00  0.00    -0.237 OA
ATOM     85  O   UNL A   1      32.240  36.108  29.965  1.00  0.00    -0.744 OA
ENDBRANCH  81  82
ENDBRANCH  49  74
BRANCH  61  86
ATOM     86  C   UNL A   1      39.874  34.070  36.990  1.00  0.00     0.058 A 
ATOM     87  C   UNL A   1      40.500  35.320  36.885  1.00  0.00     0.135 A 
ATOM     88  C   UNL A   1      39.091  33.814  38.127  1.00  0.00     0.135 A 
ATOM     89  F   UNL A   1      41.262  35.608  35.818  1.00  0.00    -0.206 F 
ATOM     90  C   UNL A   1      40.368  36.281  37.882  1.00  0.00     0.059 A 
ATOM     91  C   UNL A   1      38.928  34.768  39.125  1.00  0.00     0.059 A 
ATOM     92  F   UNL A   1      38.465  32.636  38.266  1.00  0.00    -0.206 F 
ATOM     93  C   UNL A   1      39.579  35.995  38.998  1.00  0.00     0.060 A 
BRANCH  93  94
ATOM     94  S   UNL A   1      39.380  37.264  40.266  1.00  0.00     0.124 S 
ATOM     95  O   UNL A   1      38.680  38.309  39.529  1.00  0.00    -0.237 OA
ATOM     96  O   UNL A   1      38.595  36.570  41.283  1.00  0.00    -0.237 OA
ATOM     97  O   UNL A   1      40.753  37.576  40.650  1.00  0.00    -0.744 OA
ENDBRANCH  93  94
ENDBRANCH  61  86
ENDBRANCH  35  36
ENDBRANCH  27  30
ENDBRANCH  25  26
ENDBRANCH  24  25
ENDBRANCH   1  24
TORSDOF 17
ENDMDL
MODEL 2
REMARK VINA RESULT:     -12.2      2.905      3.812
REMARK SMILES C[C@H]1[C@@H](C(=O)NCCCCNC(=O)c2ccc(-c3c4nc(c(-c5c(F)cc(S(=O)(=O)[O-])cc5F)c5ccc([nH]5)c(-c5c(F)cc(S(=O)(=O)[O-])cc5F)c5nc(c(-c6c(F)cc(S(=O)(=O)[O-])cc6F)c6ccc3[nH]6)C=C5)C=C4)cc2)CCN1C(=O)/C=C/c1cccc(F)c1
REMARK SMILES IDX 8 1 7 2 6 3 4 4 5 5 3 7 1 8 2 9 82 10 80 11 81 12 83 13
REMARK SMILES IDX 84 14 85 15 86 16 87 17 88 18 93 19 89 20 91 21 90 22 92 23
REMARK SMILES IDX 9 24 10 25 11 26 12 27 13 29 14 30 15 31 79 32 16 33 78 34
REMARK SMILES IDX 17 35 18 36 19 37 72 38 20 39 77 40 71 41 73 42 21 43 76 44
REMARK SMILES IDX 70 45 69 46 22 48 56 49 35 50 55 51 36 52 39 53 54 54 74 55
REMARK SMILES IDX 37 56 38 57 53 59 75 60 40 61 23 62 24 63 33 64 25 65 26 66
REMARK SMILES IDX 32 67 34 68 27 69 28 70 29 71 30 72 31 73 57 74 58 75 67 76
REMARK SMILES IDX 59 77 60 78 66 79 68 80 61 81 62 82 63 83 64 84 65 85 41 86
REMARK SMILES IDX 42 87 51 88 43 89 44 90 50 91 52 92 45 93 46 94 47 95 48 96
REMARK SMILES IDX 49 97
REMARK H PARENT 6 6 11 28 73 47 39 58
REMARK Flexibility Score: inf
ROOT
ATOM      1  C   UNL A   1      35.659  21.785  26.265  1.00  0.00     0.023 C 
ENDROOT
BRANCH   1   2
ATOM      2  C   UNL A   1      34.415  21.502  27.111  1.00  0.00     0.116 C 
BRANCH   2   3
ATOM      3  N   UNL A   1      33.482  20.681  26.364  1.00  0.00    -0.356 N 
ATOM      4  C   UNL A   1      32.579  21.012  25.397  1.00  0.00     0.225 C 
ATOM      5  O   UNL A   1      31.783  20.135  25.057  1.00  0.00    -0.275 OA
ATOM      6  H   UNL A   1      33.505  19.723  26.592  1.00  0.00     0.163 HD
BRANCH   4   7
ATOM      7  C   UNL A   1      32.632  22.369  24.693  1.00  0.00     0.102 C 
ATOM      8  C   UNL A   1      31.041  23.383  26.529  1.00  0.00     0.032 C 
ATOM      9  C   UNL A   1      31.995  23.610  25.361  1.00  0.00     0.094 C 
ATOM     10  N   UNL A   1      31.253  24.282  24.295  1.00  0.00    -0.336 N 
ATOM     11  C   UNL A   1      32.003  22.327  23.276  1.00  0.00     0.037 C 
ATOM     12  C   UNL A   1      30.846  23.308  23.312  1.00  0.00     0.121 C 
BRANCH  10  13
ATOM     13  C   UNL A   1      30.731  25.561  24.304  1.00  0.00     0.246 C 
ATOM     14  O   UNL A   1      29.565  25.827  24.028  1.00  0.00    -0.270 OA
BRANCH  13  15
ATOM     15  C   UNL A   1      31.619  26.643  24.816  1.00  0.00     0.072 C 
ATOM     16  C   UNL A   1      31.418  27.216  26.012  1.00  0.00     0.014 C 
BRANCH  16  17
ATOM     17  C   UNL A   1      32.095  28.421  26.523  1.00  0.00    -0.023 A 
ATOM     18  C   UNL A   1      31.538  29.675  26.216  1.00  0.00     0.008 A 
ATOM     19  C   UNL A   1      33.306  28.393  27.228  1.00  0.00     0.047 A 
ATOM     20  C   UNL A   1      32.169  30.864  26.597  1.00  0.00     0.004 A 
ATOM     21  C   UNL A   1      33.925  29.583  27.608  1.00  0.00     0.123 A 
ATOM     22  C   UNL A   1      33.371  30.817  27.297  1.00  0.00     0.039 A 
ATOM     23  F   UNL A   1      35.084  29.534  28.279  1.00  0.00    -0.207 F 
ENDBRANCH  16  17
ENDBRANCH  13  15
ENDBRANCH  10  13
ENDBRANCH   4   7
ENDBRANCH   2   3
ENDBRANCH   1   2
BRANCH   1  24
ATOM     24  C   UNL A   1      36.005  23.246  26.057  1.00  0.00     0.023 C 
BRANCH  24  25
ATOM     25  C   UNL A   1      37.162  23.482  25.108  1.00  0.00     0.116 C 
BRANCH  25  26
ATOM     26  N   UNL A   1      38.332  22.651  25.380  1.00  0.00    -0.352 N 
ATOM     27  C   UNL A   1      39.444  22.949  26.136  1.00  0.00     0.251 C 
ATOM     28  H   UNL A   1      38.325  21.757  24.968  1.00  0.00     0.163 HD
ATOM     29  O   UNL A   1      40.380  22.160  26.213  1.00  0.00    -0.269 OA
BRANCH  27  30
ATOM     30  C   UNL A   1      39.503  24.261  26.809  1.00  0.00     0.039 A 
ATOM     31  C   UNL A   1      38.986  24.393  28.097  1.00  0.00     0.014 A 
ATOM     32  C   UNL A   1      40.201  25.310  26.209  1.00  0.00     0.014 A 
ATOM     33  C   UNL A   1      39.264  25.549  28.828  1.00  0.00     0.010 A 
ATOM     34  C   UNL A   1      40.584  26.395  26.980  1.00  0.00     0.010 A 
ATOM     35  C   UNL A   1      40.115  26.532  28.296  1.00  0.00    -0.014 A 
BRANCH  35  36
ATOM     36  C   UNL A   1      40.521  27.728  29.075  1.00  0.00     0.031 A 
ATOM     37  C   UNL A   1      41.847  27.726  29.788  1.00  0.00     0.074 A 
ATOM     38  C   UNL A   1      39.668  28.761  29.223  1.00  0.00     0.049 A 
ATOM     39  N   UNL A   1      42.336  28.599  30.628  1.00  0.00    -0.248 NA
ATOM     40  C   UNL A   1      42.716  26.556  29.569  1.00  0.00     0.031 C 
ATOM     41  C   UNL A   1      38.322  28.847  28.647  1.00  0.00     0.029 A 
ATOM     42  N   UNL A   1      39.803  29.938  29.915  1.00  0.00    -0.354 N 
ATOM     43  C   UNL A   1      43.543  28.066  31.064  1.00  0.00     0.074 A 
ATOM     44  C   UNL A   1      43.680  26.765  30.451  1.00  0.00     0.031 C 
ATOM     45  C   UNL A   1      37.773  30.027  28.980  1.00  0.00     0.029 A 
ATOM     46  C   UNL A   1      38.709  30.766  29.820  1.00  0.00     0.049 A 
ATOM     47  H   UNL A   1      40.609  30.170  30.431  1.00  0.00     0.167 HD
ATOM     48  C   UNL A   1      44.472  28.624  31.873  1.00  0.00     0.037 A 
ATOM     49  C   UNL A   1      38.491  31.986  30.350  1.00  0.00     0.037 A 
ATOM     50  C   UNL A   1      44.363  29.949  32.418  1.00  0.00     0.049 A 
ATOM     51  C   UNL A   1      39.569  32.618  31.187  1.00  0.00     0.074 A 
ATOM     52  C   UNL A   1      45.282  30.647  33.178  1.00  0.00     0.029 A 
ATOM     53  N   UNL A   1      43.269  30.783  32.240  1.00  0.00    -0.354 N 
ATOM     54  N   UNL A   1      40.732  32.125  31.540  1.00  0.00    -0.248 NA
ATOM     55  C   UNL A   1      39.310  33.973  31.693  1.00  0.00     0.031 C 
ATOM     56  C   UNL A   1      44.735  31.900  33.479  1.00  0.00     0.029 A 
ATOM     57  C   UNL A   1      43.489  31.991  32.880  1.00  0.00     0.049 A 
ATOM     58  H   UNL A   1      42.456  30.551  31.736  1.00  0.00     0.167 HD
ATOM     59  C   UNL A   1      41.355  33.117  32.288  1.00  0.00     0.074 A 
ATOM     60  C   UNL A   1      40.443  34.243  32.328  1.00  0.00     0.031 C 
ATOM     61  C   UNL A   1      42.569  33.100  32.890  1.00  0.00     0.037 A 
BRANCH  48  62
ATOM     62  C   UNL A   1      45.695  27.808  32.186  1.00  0.00     0.058 A 
ATOM     63  C   UNL A   1      45.703  26.869  33.231  1.00  0.00     0.135 A 
ATOM     64  C   UNL A   1      46.871  27.965  31.438  1.00  0.00     0.135 A 
ATOM     65  F   UNL A   1      44.611  26.695  33.992  1.00  0.00    -0.206 F 
ATOM     66  C   UNL A   1      46.847  26.145  33.549  1.00  0.00     0.059 A 
ATOM     67  C   UNL A   1      48.019  27.230  31.719  1.00  0.00     0.059 A 
ATOM     68  F   UNL A   1      46.919  28.851  30.430  1.00  0.00    -0.206 F 
ATOM     69  C   UNL A   1      48.001  26.336  32.790  1.00  0.00     0.060 A 
BRANCH  69  70
ATOM     70  S   UNL A   1      49.481  25.396  33.220  1.00  0.00     0.124 S 
ATOM     71  O   UNL A   1      48.955  24.467  34.215  1.00  0.00    -0.237 OA
ATOM     72  O   UNL A   1      49.861  24.805  31.942  1.00  0.00    -0.237 OA
ATOM     73  O   UNL A   1      50.392  26.415  33.732  1.00  0.00    -0.744 OA
ENDBRANCH  69  70
ENDBRANCH  48  62
BRANCH  49  74
ATOM     74  C   UNL A   1      37.222  32.708  30.065  1.00  0.00     0.058 A 
ATOM     75  C   UNL A   1      36.061  32.434  30.803  1.00  0.00     0.135 A 
ATOM     76  C   UNL A   1      37.146  33.691  29.066  1.00  0.00     0.135 A 
ATOM     77  F   UNL A   1      36.085  31.499  31.765  1.00  0.00    -0.206 F 
ATOM     78  C   UNL A   1      34.863  33.095  30.551  1.00  0.00     0.059 A 
ATOM     79  C   UNL A   1      35.963  34.380  28.810  1.00  0.00     0.059 A 
ATOM     80  F   UNL A   1      38.233  34.003  28.345  1.00  0.00    -0.206 F 
ATOM     81  C   UNL A   1      34.824  34.068  29.551  1.00  0.00     0.060 A 
BRANCH  81  82
ATOM     82  S   UNL A   1      33.277  34.956  29.266  1.00  0.00     0.124 S 
ATOM     83  O   UNL A   1      32.613  34.084  28.303  1.00  0.00    -0.237 OA
ATOM     84  O   UNL A   1      32.692  34.994  30.601  1.00  0.00    -0.237 OA
ATOM     85  O   UNL A   1      33.725  36.246  28.749  1.00  0.00    -0.744 OA
ENDBRANCH  81  82
ENDBRANCH  49  74
BRANCH  61  86
ATOM     86  C   UNL A   1      42.996  34.343  33.615  1.00  0.00     0.058 A 
ATOM     87  C   UNL A   1      42.811  34.483  34.998  1.00  0.00     0.135 A 
ATOM     88  C   UNL A   1      43.654  35.374  32.927  1.00  0.00     0.135 A 
ATOM     89  F   UNL A   1      42.183  33.526  35.698  1.00  0.00    -0.206 F 
ATOM     90  C   UNL A   1      43.251  35.617  35.675  1.00  0.00     0.059 A 
ATOM     91  C   UNL A   1      44.121  36.505  33.586  1.00  0.00     0.059 A 
ATOM     92  F   UNL A   1      43.862  35.279  31.604  1.00  0.00    -0.206 F 
ATOM     93  C   UNL A   1      43.906  36.621  34.959  1.00  0.00     0.060 A 
BRANCH  93  94
ATOM     94  S   UNL A   1      44.510  38.068  35.854  1.00  0.00     0.124 S 
ATOM     95  O   UNL A   1      43.748  37.986  37.094  1.00  0.00    -0.237 OA
ATOM     96  O   UNL A   1      45.939  37.793  35.968  1.00  0.00    -0.237 OA
ATOM     97  O   UNL A   1      44.162  39.179  34.973  1.00  0.00    -0.744 OA
ENDBRANCH  93  94
ENDBRANCH  61  86
ENDBRANCH  35  36
ENDBRANCH  27  30
ENDBRANCH  25  26
ENDBRANCH  24  25
ENDBRANCH   1  24
TORSDOF 17
ENDMDL
MODEL 3
REMARK VINA RESULT:     -12.2      6.508     12.269
REMARK SMILES C[C@H]1[C@@H](C(=O)NCCCCNC(=O)c2ccc(-c3c4nc(c(-c5c(F)cc(S(=O)(=O)[O-])cc5F)c5ccc([nH]5)c(-c5c(F)cc(S(=O)(=O)[O-])cc5F)c5nc(c(-c6c(F)cc(S(=O)(=O)[O-])cc6F)c6ccc3[nH]6)C=C5)C=C4)cc2)CCN1C(=O)/C=C/c1cccc(F)c1
REMARK SMILES IDX 8 1 7 2 6 3 4 4 5 5 3 7 1 8 2 9 82 10 80 11 81 12 83 13
REMARK SMILES IDX 84 14 85 15 86 16 87 17 88 18 93 19 89 20 91 21 90 22 92 23
REMARK SMILES IDX 9 24 10 25 11 26 12 27 13 29 14 30 15 31 79 32 16 33 78 34
REMARK SMILES IDX 17 35 18 36 19 37 72 38 20 39 77 40 71 41 73 42 21 43 76 44
REMARK SMILES IDX 70 45 69 46 22 48 56 49 35 50 55 51 36 52 39 53 54 54 74 55
REMARK SMILES IDX 37 56 38 57 53 59 75 60 40 61 23 62 24 63 33 64 25 65 26 66
REMARK SMILES IDX 32 67 34 68 27 69 28 70 29 71 30 72 31 73 57 74 58 75 67 76
REMARK SMILES IDX 59 77 60 78 66 79 68 80 61 81 62 82 63 83 64 84 65 85 41 86
REMARK SMILES IDX 42 87 51 88 43 89 44 90 50 91 52 92 45 93 46 94 47 95 48 96
REMARK SMILES IDX 49 97
REMARK H PARENT 6 6 11 28 73 47 39 58
REMARK Flexibility Score: inf
ROOT
ATOM      1  C   UNL A   1      34.732  32.243  28.182  1.00  0.00     0.023 C 
ENDROOT
BRANCH   1   2
ATOM      2  C   UNL A   1      34.353  30.800  27.842  1.00  0.00     0.116 C 
BRANCH   2   3
ATOM      3  N   UNL A   1      33.340  30.783  26.804  1.00  0.00    -0.356 N 
ATOM      4  C   UNL A   1      32.767  29.743  26.134  1.00  0.00     0.225 C 
ATOM      5  O   UNL A   1      32.056  30.029  25.169  1.00  0.00    -0.275 OA
ATOM      6  H   UNL A   1      33.011  31.673  26.539  1.00  0.00     0.163 HD
BRANCH   4   7
ATOM      7  C   UNL A   1      32.910  28.304  26.631  1.00  0.00     0.102 C 
ATOM      8  C   UNL A   1      33.613  27.539  24.213  1.00  0.00     0.032 C 
ATOM      9  C   UNL A   1      33.506  27.222  25.700  1.00  0.00     0.094 C 
ATOM     10  N   UNL A   1      32.630  26.059  25.853  1.00  0.00    -0.336 N 
ATOM     11  C   UNL A   1      31.562  27.704  27.108  1.00  0.00     0.037 C 
ATOM     12  C   UNL A   1      31.307  26.506  26.214  1.00  0.00     0.121 C 
BRANCH  10  13
ATOM     13  C   UNL A   1      32.870  24.761  25.446  1.00  0.00     0.246 C 
ATOM     14  O   UNL A   1      32.187  24.166  24.619  1.00  0.00    -0.270 OA
BRANCH  13  15
ATOM     15  C   UNL A   1      34.115  24.120  25.955  1.00  0.00     0.072 C 
ATOM     16  C   UNL A   1      35.275  24.198  25.285  1.00  0.00     0.014 C 
BRANCH  16  17
ATOM     17  C   UNL A   1      36.502  23.437  25.580  1.00  0.00    -0.023 A 
ATOM     18  C   UNL A   1      37.552  24.102  26.240  1.00  0.00     0.008 A 
ATOM     19  C   UNL A   1      36.715  22.115  25.170  1.00  0.00     0.047 A 
ATOM     20  C   UNL A   1      38.776  23.469  26.480  1.00  0.00     0.004 A 
ATOM     21  C   UNL A   1      37.938  21.490  25.418  1.00  0.00     0.123 A 
ATOM     22  C   UNL A   1      38.970  22.155  26.065  1.00  0.00     0.039 A 
ATOM     23  F   UNL A   1      38.122  20.226  25.014  1.00  0.00    -0.207 F 
ENDBRANCH  16  17
ENDBRANCH  13  15
ENDBRANCH  10  13
ENDBRANCH   4   7
ENDBRANCH   2   3
ENDBRANCH   1   2
BRANCH   1  24
ATOM     24  C   UNL A   1      36.194  32.607  28.007  1.00  0.00     0.023 C 
BRANCH  24  25
ATOM     25  C   UNL A   1      36.978  32.671  29.301  1.00  0.00     0.116 C 
BRANCH  25  26
ATOM     26  N   UNL A   1      36.327  31.999  30.424  1.00  0.00    -0.352 N 
ATOM     27  C   UNL A   1      36.656  30.801  31.018  1.00  0.00     0.251 C 
ATOM     28  H   UNL A   1      35.549  32.464  30.807  1.00  0.00     0.163 HD
ATOM     29  O   UNL A   1      35.963  30.335  31.917  1.00  0.00    -0.269 OA
BRANCH  27  30
ATOM     30  C   UNL A   1      37.832  30.066  30.512  1.00  0.00     0.039 A 
ATOM     31  C   UNL A   1      38.017  29.935  29.136  1.00  0.00     0.014 A 
ATOM     32  C   UNL A   1      38.813  29.639  31.409  1.00  0.00     0.014 A 
ATOM     33  C   UNL A   1      39.242  29.470  28.654  1.00  0.00     0.010 A 
ATOM     34  C   UNL A   1      40.067  29.303  30.927  1.00  0.00     0.010 A 
ATOM     35  C   UNL A   1      40.296  29.208  29.546  1.00  0.00    -0.014 A 
BRANCH  35  36
ATOM     36  C   UNL A   1      41.646  28.810  29.073  1.00  0.00     0.031 A 
ATOM     37  C   UNL A   1      42.731  29.849  28.991  1.00  0.00     0.074 A 
ATOM     38  C   UNL A   1      41.865  27.556  28.630  1.00  0.00     0.049 A 
ATOM     39  N   UNL A   1      43.931  29.753  28.482  1.00  0.00    -0.248 NA
ATOM     40  C   UNL A   1      42.403  31.192  29.499  1.00  0.00     0.031 C 
ATOM     41  C   UNL A   1      40.871  26.480  28.584  1.00  0.00     0.029 A 
ATOM     42  N   UNL A   1      42.999  26.975  28.120  1.00  0.00    -0.354 N 
ATOM     43  C   UNL A   1      44.480  31.027  28.573  1.00  0.00     0.074 A 
ATOM     44  C   UNL A   1      43.461  31.892  29.120  1.00  0.00     0.031 C 
ATOM     45  C   UNL A   1      41.448  25.363  28.109  1.00  0.00     0.029 A 
ATOM     46  C   UNL A   1      42.841  25.651  27.783  1.00  0.00     0.049 A 
ATOM     47  H   UNL A   1      43.848  27.461  28.007  1.00  0.00     0.167 HD
ATOM     48  C   UNL A   1      45.733  31.432  28.264  1.00  0.00     0.037 A 
ATOM     49  C   UNL A   1      43.724  24.770  27.273  1.00  0.00     0.037 A 
ATOM     50  C   UNL A   1      46.764  30.549  27.791  1.00  0.00     0.049 A 
ATOM     51  C   UNL A   1      45.133  25.226  27.005  1.00  0.00     0.074 A 
ATOM     52  C   UNL A   1      48.090  30.836  27.529  1.00  0.00     0.029 A 
ATOM     53  N   UNL A   1      46.582  29.199  27.530  1.00  0.00    -0.354 N 
ATOM     54  N   UNL A   1      45.653  26.421  27.155  1.00  0.00    -0.248 NA
ATOM     55  C   UNL A   1      46.076  24.215  26.506  1.00  0.00     0.031 C 
ATOM     56  C   UNL A   1      48.709  29.660  27.088  1.00  0.00     0.029 A 
ATOM     57  C   UNL A   1      47.773  28.637  27.106  1.00  0.00     0.049 A 
ATOM     58  H   UNL A   1      45.732  28.713  27.629  1.00  0.00     0.167 HD
ATOM     59  C   UNL A   1      46.990  26.301  26.792  1.00  0.00     0.074 A 
ATOM     60  C   UNL A   1      47.199  24.914  26.426  1.00  0.00     0.031 C 
ATOM     61  C   UNL A   1      47.957  27.250  26.762  1.00  0.00     0.037 A 
BRANCH  48  62
ATOM     62  C   UNL A   1      46.055  32.888  28.458  1.00  0.00     0.058 A 
ATOM     63  C   UNL A   1      46.528  33.377  29.687  1.00  0.00     0.135 A 
ATOM     64  C   UNL A   1      45.888  33.803  27.408  1.00  0.00     0.135 A 
ATOM     65  F   UNL A   1      46.684  32.548  30.730  1.00  0.00    -0.206 F 
ATOM     66  C   UNL A   1      46.784  34.730  29.880  1.00  0.00     0.059 A 
ATOM     67  C   UNL A   1      46.167  35.158  27.570  1.00  0.00     0.059 A 
ATOM     68  F   UNL A   1      45.436  33.389  26.214  1.00  0.00    -0.206 F 
ATOM     69  C   UNL A   1      46.597  35.613  28.817  1.00  0.00     0.060 A 
BRANCH  69  70
ATOM     70  S   UNL A   1      46.925  37.367  29.085  1.00  0.00     0.124 S 
ATOM     71  O   UNL A   1      46.445  37.946  27.835  1.00  0.00    -0.237 OA
ATOM     72  O   UNL A   1      46.122  37.660  30.268  1.00  0.00    -0.237 OA
ATOM     73  O   UNL A   1      48.370  37.415  29.285  1.00  0.00    -0.744 OA
ENDBRANCH  69  70
ENDBRANCH  48  62
BRANCH  49  74
ATOM     74  C   UNL A   1      43.317  23.361  27.030  1.00  0.00     0.058 A 
ATOM     75  C   UNL A   1      43.093  22.896  25.725  1.00  0.00     0.135 A 
ATOM     76  C   UNL A   1      43.158  22.450  28.085  1.00  0.00     0.135 A 
ATOM     77  F   UNL A   1      43.229  23.731  24.684  1.00  0.00    -0.206 F 
ATOM     78  C   UNL A   1      42.709  21.582  25.474  1.00  0.00     0.059 A 
ATOM     79  C   UNL A   1      42.794  21.125  27.858  1.00  0.00     0.059 A 
ATOM     80  F   UNL A   1      43.379  22.840  29.349  1.00  0.00    -0.206 F 
ATOM     81  C   UNL A   1      42.562  20.703  26.549  1.00  0.00     0.060 A 
BRANCH  81  82
ATOM     82  S   UNL A   1      42.112  18.987  26.209  1.00  0.00     0.124 S 
ATOM     83  O   UNL A   1      40.704  19.120  25.850  1.00  0.00    -0.237 OA
ATOM     84  O   UNL A   1      43.018  18.639  25.120  1.00  0.00    -0.237 OA
ATOM     85  O   UNL A   1      42.381  18.315  27.477  1.00  0.00    -0.744 OA
ENDBRANCH  81  82
ENDBRANCH  49  74
BRANCH  61  86
ATOM     86  C   UNL A   1      49.334  26.818  26.350  1.00  0.00     0.058 A 
ATOM     87  C   UNL A   1      50.220  26.231  27.264  1.00  0.00     0.135 A 
ATOM     88  C   UNL A   1      49.743  26.934  25.012  1.00  0.00     0.135 A 
ATOM     89  F   UNL A   1      49.875  26.103  28.555  1.00  0.00    -0.206 F 
ATOM     90  C   UNL A   1      51.479  25.788  26.868  1.00  0.00     0.059 A 
ATOM     91  C   UNL A   1      50.986  26.478  24.591  1.00  0.00     0.059 A 
ATOM     92  F   UNL A   1      48.923  27.479  24.100  1.00  0.00    -0.206 F 
ATOM     93  C   UNL A   1      51.851  25.914  25.529  1.00  0.00     0.060 A 
BRANCH  93  94
ATOM     94  S   UNL A   1      53.469  25.298  25.017  1.00  0.00     0.124 S 
ATOM     95  O   UNL A   1      53.319  23.864  25.238  1.00  0.00    -0.237 OA
ATOM     96  O   UNL A   1      53.539  25.721  23.622  1.00  0.00    -0.237 OA
ATOM     97  O   UNL A   1      54.391  25.981  25.919  1.00  0.00    -0.744 OA
ENDBRANCH  93  94
ENDBRANCH  61  86
ENDBRANCH  35  36
ENDBRANCH  27  30
ENDBRANCH  25  26
ENDBRANCH  24  25
ENDBRANCH   1  24
TORSDOF 17
ENDMDL
