MODEL 1
REMARK VINA RESULT:     -11.8      0.000      0.000
REMARK SMILES COc1cc(C(=O)N[C@H]2CCCC[C@H]2C(=O)NCCCCNC(=O)c2ccc(-c3c4nc(c(-c5c(F)cc(S(=O)(=O)[O-])cc5F)c5ccc([nH]5)c(-c5c(F)cc(S(=O)(=O)[O-])cc5F)c5nc(c(-c6c(F)cc(S(=O)(=O)[O-])cc6F)c6ccc3[nH]6)C=C5)C=C4)cc2)cc(Cl)c1OC
REMARK SMILES IDX 19 1 18 2 17 3 15 4 16 5 14 7 9 8 10 9 11 10 13 11 12 12
REMARK SMILES IDX 8 13 6 14 7 15 5 17 3 18 4 19 94 20 92 21 91 22 93 23 2 24
REMARK SMILES IDX 1 25 95 26 96 27 20 28 21 29 22 30 23 31 24 33 25 34 26 35
REMARK SMILES IDX 90 36 27 37 89 38 28 39 29 40 30 41 83 42 31 43 88 44 82 45
REMARK SMILES IDX 84 46 32 47 87 48 81 49 80 50 33 52 67 53 46 54 66 55 47 56
REMARK SMILES IDX 50 57 65 58 85 59 48 60 49 61 64 63 86 64 51 65 34 66 35 67
REMARK SMILES IDX 44 68 36 69 37 70 43 71 45 72 38 73 39 74 40 75 41 76 42 77
REMARK SMILES IDX 68 78 69 79 78 80 70 81 71 82 77 83 79 84 72 85 73 86 74 87
REMARK SMILES IDX 75 88 76 89 52 90 53 91 62 92 54 93 55 94 61 95 63 96 56 97
REMARK SMILES IDX 57 98 58 99 59 100 60 101
REMARK H PARENT 17 6 8 16 22 32 84 51 50 62
REMARK Flexibility Score: inf
ROOT
ATOM      1  C   UNL A   1      32.147  26.565  26.317  1.00  0.00     0.023 C 
ENDROOT
BRANCH   1   2
ATOM      2  C   UNL A   1      30.835  25.793  26.403  1.00  0.00     0.116 C 
BRANCH   2   3
ATOM      3  N   UNL A   1      30.479  25.200  25.126  1.00  0.00    -0.356 N 
ATOM      4  C   UNL A   1      30.183  25.773  23.929  1.00  0.00     0.225 C 
ATOM      5  O   UNL A   1      29.794  25.028  23.024  1.00  0.00    -0.275 OA
ATOM      6  H   UNL A   1      30.447  24.217  25.127  1.00  0.00     0.163 HD
BRANCH   4   7
ATOM      7  C   UNL A   1      30.334  27.267  23.657  1.00  0.00     0.101 C 
ATOM      8  C   UNL A   1      31.570  27.696  22.822  1.00  0.00     0.094 C 
ATOM      9  C   UNL A   1      31.505  29.176  22.388  1.00  0.00     0.026 C 
ATOM     10  C   UNL A   1      30.130  29.614  21.901  1.00  0.00     0.002 C 
ATOM     11  C   UNL A   1      28.979  27.923  23.330  1.00  0.00     0.015 C 
ATOM     12  C   UNL A   1      29.099  29.400  22.996  1.00  0.00     0.001 C 
BRANCH   8  13
ATOM     13  N   UNL A   1      31.905  26.887  21.656  1.00  0.00    -0.349 N 
ATOM     14  C   UNL A   1      32.719  25.798  21.442  1.00  0.00     0.251 C 
ATOM     15  O   UNL A   1      32.990  25.572  20.258  1.00  0.00    -0.269 OA
ATOM     16  H   UNL A   1      31.447  27.187  20.838  1.00  0.00     0.164 HD
BRANCH  14  17
ATOM     17  C   UNL A   1      33.221  24.836  22.478  1.00  0.00     0.045 A 
ATOM     18  C   UNL A   1      33.209  22.500  23.251  1.00  0.00     0.163 A 
ATOM     19  C   UNL A   1      32.823  23.488  22.333  1.00  0.00     0.064 A 
ATOM     20  C   UNL A   1      34.038  22.844  24.333  1.00  0.00     0.179 A 
ATOM     21  C   UNL A   1      34.407  24.181  24.504  1.00  0.00     0.087 A 
ATOM     22  C   UNL A   1      34.004  25.158  23.582  1.00  0.00     0.038 A 
ATOM     23  Cl  UNL A   1      35.321  24.744  25.863  1.00  0.00    -0.080 Cl
BRANCH  18  24
ATOM     24  O   UNL A   1      32.852  21.177  23.164  1.00  0.00    -0.493 OA
ATOM     25  C   UNL A   1      31.870  20.810  22.203  1.00  0.00     0.278 C 
ENDBRANCH  18  24
BRANCH  20  26
ATOM     26  O   UNL A   1      34.342  21.845  25.225  1.00  0.00    -0.491 OA
ATOM     27  C   UNL A   1      35.649  21.296  25.085  1.00  0.00     0.278 C 
ENDBRANCH  20  26
ENDBRANCH  14  17
ENDBRANCH   8  13
ENDBRANCH   4   7
ENDBRANCH   2   3
ENDBRANCH   1   2
BRANCH   1  28
ATOM     28  C   UNL A   1      32.169  27.916  27.009  1.00  0.00     0.023 C 
BRANCH  28  29
ATOM     29  C   UNL A   1      33.547  28.530  27.167  1.00  0.00     0.116 C 
BRANCH  29  30
ATOM     30  N   UNL A   1      33.524  29.892  27.689  1.00  0.00    -0.352 N 
ATOM     31  C   UNL A   1      34.526  30.606  28.309  1.00  0.00     0.251 C 
ATOM     32  H   UNL A   1      32.670  30.370  27.584  1.00  0.00     0.163 HD
ATOM     33  O   UNL A   1      34.300  31.715  28.773  1.00  0.00    -0.269 OA
BRANCH  31  34
ATOM     34  C   UNL A   1      35.864  29.992  28.442  1.00  0.00     0.039 A 
ATOM     35  C   UNL A   1      36.749  30.050  27.362  1.00  0.00     0.014 A 
ATOM     36  C   UNL A   1      36.267  29.439  29.658  1.00  0.00     0.014 A 
ATOM     37  C   UNL A   1      38.072  29.640  27.540  1.00  0.00     0.010 A 
ATOM     38  C   UNL A   1      37.605  29.140  29.862  1.00  0.00     0.010 A 
ATOM     39  C   UNL A   1      38.524  29.232  28.805  1.00  0.00    -0.014 A 
BRANCH  39  40
ATOM     40  C   UNL A   1      39.946  28.886  29.056  1.00  0.00     0.031 A 
ATOM     41  C   UNL A   1      40.883  29.936  29.591  1.00  0.00     0.074 A 
ATOM     42  C   UNL A   1      40.415  27.669  28.709  1.00  0.00     0.049 A 
ATOM     43  N   UNL A   1      42.178  29.882  29.756  1.00  0.00    -0.248 NA
ATOM     44  C   UNL A   1      40.289  31.239  29.943  1.00  0.00     0.031 C 
ATOM     45  C   UNL A   1      39.625  26.592  28.107  1.00  0.00     0.029 A 
ATOM     46  N   UNL A   1      41.679  27.140  28.797  1.00  0.00    -0.354 N 
ATOM     47  C   UNL A   1      42.557  31.148  30.187  1.00  0.00     0.074 A 
ATOM     48  C   UNL A   1      41.365  31.964  30.210  1.00  0.00     0.031 C 
ATOM     49  C   UNL A   1      40.416  25.525  27.902  1.00  0.00     0.029 A 
ATOM     50  C   UNL A   1      41.774  25.852  28.325  1.00  0.00     0.049 A 
ATOM     51  H   UNL A   1      42.446  27.636  29.164  1.00  0.00     0.167 HD
ATOM     52  C   UNL A   1      43.783  31.584  30.558  1.00  0.00     0.037 A 
ATOM     53  C   UNL A   1      42.838  25.030  28.237  1.00  0.00     0.037 A 
ATOM     54  C   UNL A   1      44.950  30.746  30.606  1.00  0.00     0.049 A 
ATOM     55  C   UNL A   1      44.177  25.515  28.724  1.00  0.00     0.074 A 
ATOM     56  C   UNL A   1      46.216  31.059  31.067  1.00  0.00     0.029 A 
ATOM     57  N   UNL A   1      44.990  29.424  30.186  1.00  0.00    -0.354 N 
ATOM     58  N   UNL A   1      44.500  26.691  29.206  1.00  0.00    -0.248 NA
ATOM     59  C   UNL A   1      45.293  24.560  28.664  1.00  0.00     0.031 C 
ATOM     60  C   UNL A   1      47.031  29.934  30.901  1.00  0.00     0.029 A 
ATOM     61  C   UNL A   1      46.262  28.910  30.368  1.00  0.00     0.049 A 
ATOM     62  H   UNL A   1      44.227  28.925  29.815  1.00  0.00     0.167 HD
ATOM     63  C   UNL A   1      45.851  26.611  29.527  1.00  0.00     0.074 A 
ATOM     64  C   UNL A   1      46.280  25.268  29.198  1.00  0.00     0.031 C 
ATOM     65  C   UNL A   1      46.663  27.564  30.047  1.00  0.00     0.037 A 
BRANCH  52  66
ATOM     66  C   UNL A   1      43.920  33.025  30.964  1.00  0.00     0.058 A 
ATOM     67  C   UNL A   1      44.214  34.030  30.029  1.00  0.00     0.135 A 
ATOM     68  C   UNL A   1      43.728  33.409  32.301  1.00  0.00     0.135 A 
ATOM     69  F   UNL A   1      44.426  33.714  28.741  1.00  0.00    -0.206 F 
ATOM     70  C   UNL A   1      44.343  35.361  30.408  1.00  0.00     0.059 A 
ATOM     71  C   UNL A   1      43.823  34.740  32.698  1.00  0.00     0.059 A 
ATOM     72  F   UNL A   1      43.447  32.488  33.236  1.00  0.00    -0.206 F 
ATOM     73  C   UNL A   1      44.146  35.707  31.746  1.00  0.00     0.060 A 
BRANCH  73  74
ATOM     74  S   UNL A   1      44.305  37.440  32.221  1.00  0.00     0.124 S 
ATOM     75  O   UNL A   1      43.359  37.526  33.329  1.00  0.00    -0.237 OA
ATOM     76  O   UNL A   1      45.714  37.539  32.585  1.00  0.00    -0.237 OA
ATOM     77  O   UNL A   1      43.921  38.160  31.011  1.00  0.00    -0.744 OA
ENDBRANCH  73  74
ENDBRANCH  52  66
BRANCH  53  78
ATOM     78  C   UNL A   1      42.677  23.654  27.695  1.00  0.00     0.058 A 
ATOM     79  C   UNL A   1      42.686  23.420  26.312  1.00  0.00     0.135 A 
ATOM     80  C   UNL A   1      42.517  22.548  28.544  1.00  0.00     0.135 A 
ATOM     81  F   UNL A   1      42.832  24.446  25.460  1.00  0.00    -0.206 F 
ATOM     82  C   UNL A   1      42.519  22.143  25.786  1.00  0.00     0.059 A 
ATOM     83  C   UNL A   1      42.371  21.257  28.042  1.00  0.00     0.059 A 
ATOM     84  F   UNL A   1      42.521  22.716  29.875  1.00  0.00    -0.206 F 
ATOM     85  C   UNL A   1      42.360  21.067  26.661  1.00  0.00     0.060 A 
BRANCH  85  86
ATOM     86  S   UNL A   1      42.184  19.407  25.970  1.00  0.00     0.124 S 
ATOM     87  O   UNL A   1      43.038  19.488  24.792  1.00  0.00    -0.237 OA
ATOM     88  O   UNL A   1      42.674  18.566  27.058  1.00  0.00    -0.237 OA
ATOM     89  O   UNL A   1      40.751  19.305  25.708  1.00  0.00    -0.744 OA
ENDBRANCH  85  86
ENDBRANCH  53  78
BRANCH  65  90
ATOM     90  C   UNL A   1      48.088  27.181  30.324  1.00  0.00     0.058 A 
ATOM     91  C   UNL A   1      49.098  27.378  29.371  1.00  0.00     0.135 A 
ATOM     92  C   UNL A   1      48.454  26.670  31.579  1.00  0.00     0.135 A 
ATOM     93  F   UNL A   1      48.796  27.859  28.155  1.00  0.00    -0.206 F 
ATOM     94  C   UNL A   1      50.425  27.066  29.649  1.00  0.00     0.059 A 
ATOM     95  C   UNL A   1      49.777  26.374  31.886  1.00  0.00     0.059 A 
ATOM     96  F   UNL A   1      47.524  26.475  32.528  1.00  0.00    -0.206 F 
ATOM     97  C   UNL A   1      50.755  26.566  30.910  1.00  0.00     0.060 A 
BRANCH  97  98
ATOM     98  S   UNL A   1      52.485  26.204  31.275  1.00  0.00     0.124 S 
ATOM     99  O   UNL A   1      53.078  26.237  29.942  1.00  0.00    -0.237 OA
ATOM    100  O   UNL A   1      52.856  27.303  32.161  1.00  0.00    -0.237 OA
ATOM    101  O   UNL A   1      52.431  24.890  31.907  1.00  0.00    -0.744 OA
ENDBRANCH  97  98
ENDBRANCH  65  90
ENDBRANCH  39  40
ENDBRANCH  31  34
ENDBRANCH  29  30
ENDBRANCH  28  29
ENDBRANCH   1  28
TORSDOF 18
ENDMDL
MODEL 2
REMARK VINA RESULT:     -11.6      4.935     10.514
REMARK SMILES COc1cc(C(=O)N[C@H]2CCCC[C@H]2C(=O)NCCCCNC(=O)c2ccc(-c3c4nc(c(-c5c(F)cc(S(=O)(=O)[O-])cc5F)c5ccc([nH]5)c(-c5c(F)cc(S(=O)(=O)[O-])cc5F)c5nc(c(-c6c(F)cc(S(=O)(=O)[O-])cc6F)c6ccc3[nH]6)C=C5)C=C4)cc2)cc(Cl)c1OC
REMARK SMILES IDX 19 1 18 2 17 3 15 4 16 5 14 7 9 8 10 9 11 10 13 11 12 12
REMARK SMILES IDX 8 13 6 14 7 15 5 17 3 18 4 19 94 20 92 21 91 22 93 23 2 24
REMARK SMILES IDX 1 25 95 26 96 27 20 28 21 29 22 30 23 31 24 33 25 34 26 35
REMARK SMILES IDX 90 36 27 37 89 38 28 39 29 40 30 41 83 42 31 43 88 44 82 45
REMARK SMILES IDX 84 46 32 47 87 48 81 49 80 50 33 52 67 53 46 54 66 55 47 56
REMARK SMILES IDX 50 57 65 58 85 59 48 60 49 61 64 63 86 64 51 65 34 66 35 67
REMARK SMILES IDX 44 68 36 69 37 70 43 71 45 72 38 73 39 74 40 75 41 76 42 77
REMARK SMILES IDX 68 78 69 79 78 80 70 81 71 82 77 83 79 84 72 85 73 86 74 87
REMARK SMILES IDX 75 88 76 89 52 90 53 91 62 92 54 93 55 94 61 95 63 96 56 97
REMARK SMILES IDX 57 98 58 99 59 100 60 101
REMARK H PARENT 17 6 8 16 22 32 84 51 50 62
REMARK Flexibility Score: inf
ROOT
ATOM      1  C   UNL A   1      39.081  22.901  26.481  1.00  0.00     0.023 C 
ENDROOT
BRANCH   1   2
ATOM      2  C   UNL A   1      38.107  21.955  25.790  1.00  0.00     0.116 C 
BRANCH   2   3
ATOM      3  N   UNL A   1      37.748  22.430  24.466  1.00  0.00    -0.356 N 
ATOM      4  C   UNL A   1      36.533  22.636  23.892  1.00  0.00     0.225 C 
ATOM      5  O   UNL A   1      36.514  22.938  22.695  1.00  0.00    -0.275 OA
ATOM      6  H   UNL A   1      38.514  22.640  23.885  1.00  0.00     0.163 HD
BRANCH   4   7
ATOM      7  C   UNL A   1      35.217  22.537  24.660  1.00  0.00     0.101 C 
ATOM      8  C   UNL A   1      34.267  23.761  24.564  1.00  0.00     0.094 C 
ATOM      9  C   UNL A   1      32.871  23.472  25.157  1.00  0.00     0.026 C 
ATOM     10  C   UNL A   1      32.314  22.106  24.781  1.00  0.00     0.002 C 
ATOM     11  C   UNL A   1      34.599  21.131  24.546  1.00  0.00     0.015 C 
ATOM     12  C   UNL A   1      33.258  21.012  25.250  1.00  0.00     0.001 C 
BRANCH   8  13
ATOM     13  N   UNL A   1      34.094  24.373  23.251  1.00  0.00    -0.349 N 
ATOM     14  C   UNL A   1      33.523  25.542  22.802  1.00  0.00     0.251 C 
ATOM     15  O   UNL A   1      33.290  25.579  21.590  1.00  0.00    -0.269 OA
ATOM     16  H   UNL A   1      34.468  23.827  22.523  1.00  0.00     0.164 HD
BRANCH  14  17
ATOM     17  C   UNL A   1      33.246  26.774  23.613  1.00  0.00     0.045 A 
ATOM     18  C   UNL A   1      31.762  28.715  23.909  1.00  0.00     0.163 A 
ATOM     19  C   UNL A   1      32.111  27.530  23.242  1.00  0.00     0.064 A 
ATOM     20  C   UNL A   1      32.539  29.155  24.994  1.00  0.00     0.179 A 
ATOM     21  C   UNL A   1      33.683  28.433  25.344  1.00  0.00     0.087 A 
ATOM     22  C   UNL A   1      34.024  27.256  24.661  1.00  0.00     0.038 A 
ATOM     23  Cl  UNL A   1      34.783  28.944  26.580  1.00  0.00    -0.080 Cl
BRANCH  18  24
ATOM     24  O   UNL A   1      30.674  29.491  23.594  1.00  0.00    -0.493 OA
ATOM     25  C   UNL A   1      29.990  29.222  22.376  1.00  0.00     0.278 C 
ENDBRANCH  18  24
BRANCH  20  26
ATOM     26  O   UNL A   1      32.177  30.346  25.574  1.00  0.00    -0.491 OA
ATOM     27  C   UNL A   1      31.597  30.226  26.870  1.00  0.00     0.278 C 
ENDBRANCH  20  26
ENDBRANCH  14  17
ENDBRANCH   8  13
ENDBRANCH   4   7
ENDBRANCH   2   3
ENDBRANCH   1   2
BRANCH   1  28
ATOM     28  C   UNL A   1      40.240  22.246  27.210  1.00  0.00     0.023 C 
BRANCH  28  29
ATOM     29  C   UNL A   1      41.518  23.063  27.242  1.00  0.00     0.116 C 
BRANCH  29  30
ATOM     30  N   UNL A   1      41.678  23.943  26.091  1.00  0.00    -0.352 N 
ATOM     31  C   UNL A   1      41.714  25.320  26.043  1.00  0.00     0.251 C 
ATOM     32  H   UNL A   1      41.774  23.490  25.223  1.00  0.00     0.163 HD
ATOM     33  O   UNL A   1      41.760  25.901  24.968  1.00  0.00    -0.269 OA
BRANCH  31  34
ATOM     34  C   UNL A   1      41.652  26.081  27.310  1.00  0.00     0.039 A 
ATOM     35  C   UNL A   1      42.662  27.001  27.600  1.00  0.00     0.014 A 
ATOM     36  C   UNL A   1      40.554  25.943  28.160  1.00  0.00     0.014 A 
ATOM     37  C   UNL A   1      42.516  27.854  28.697  1.00  0.00     0.010 A 
ATOM     38  C   UNL A   1      40.360  26.864  29.178  1.00  0.00     0.010 A 
ATOM     39  C   UNL A   1      41.340  27.827  29.462  1.00  0.00    -0.014 A 
BRANCH  39  40
ATOM     40  C   UNL A   1      41.106  28.785  30.573  1.00  0.00     0.031 A 
ATOM     41  C   UNL A   1      41.917  28.669  31.837  1.00  0.00     0.074 A 
ATOM     42  C   UNL A   1      40.104  29.685  30.488  1.00  0.00     0.049 A 
ATOM     43  N   UNL A   1      41.785  29.313  32.966  1.00  0.00    -0.248 NA
ATOM     44  C   UNL A   1      42.990  27.659  31.847  1.00  0.00     0.031 C 
ATOM     45  C   UNL A   1      39.196  29.843  29.350  1.00  0.00     0.029 A 
ATOM     46  N   UNL A   1      39.670  30.627  31.388  1.00  0.00    -0.354 N 
ATOM     47  C   UNL A   1      42.723  28.760  33.829  1.00  0.00     0.074 A 
ATOM     48  C   UNL A   1      43.384  27.693  33.111  1.00  0.00     0.031 C 
ATOM     49  C   UNL A   1      38.330  30.837  29.610  1.00  0.00     0.029 A 
ATOM     50  C   UNL A   1      38.597  31.364  30.944  1.00  0.00     0.049 A 
ATOM     51  H   UNL A   1      40.088  30.763  32.269  1.00  0.00     0.167 HD
ATOM     52  C   UNL A   1      43.028  29.125  35.096  1.00  0.00     0.037 A 
ATOM     53  C   UNL A   1      37.903  32.348  31.548  1.00  0.00     0.037 A 
ATOM     54  C   UNL A   1      42.420  30.235  35.777  1.00  0.00     0.049 A 
ATOM     55  C   UNL A   1      38.308  32.785  32.930  1.00  0.00     0.074 A 
ATOM     56  C   UNL A   1      42.729  30.756  37.019  1.00  0.00     0.029 A 
ATOM     57  N   UNL A   1      41.384  31.003  35.265  1.00  0.00    -0.354 N 
ATOM     58  N   UNL A   1      39.254  32.303  33.700  1.00  0.00    -0.248 NA
ATOM     59  C   UNL A   1      37.560  33.903  33.522  1.00  0.00     0.031 C 
ATOM     60  C   UNL A   1      41.861  31.824  37.273  1.00  0.00     0.029 A 
ATOM     61  C   UNL A   1      41.035  31.988  36.173  1.00  0.00     0.049 A 
ATOM     62  H   UNL A   1      40.960  30.869  34.387  1.00  0.00     0.167 HD
ATOM     63  C   UNL A   1      39.230  33.073  34.858  1.00  0.00     0.074 A 
ATOM     64  C   UNL A   1      38.186  34.060  34.681  1.00  0.00     0.031 C 
ATOM     65  C   UNL A   1      40.001  32.971  35.968  1.00  0.00     0.037 A 
BRANCH  52  66
ATOM     66  C   UNL A   1      44.080  28.331  35.818  1.00  0.00     0.058 A 
ATOM     67  C   UNL A   1      43.748  27.248  36.647  1.00  0.00     0.135 A 
ATOM     68  C   UNL A   1      45.440  28.642  35.660  1.00  0.00     0.135 A 
ATOM     69  F   UNL A   1      42.461  26.920  36.848  1.00  0.00    -0.206 F 
ATOM     70  C   UNL A   1      44.724  26.518  37.316  1.00  0.00     0.059 A 
ATOM     71  C   UNL A   1      46.435  27.907  36.297  1.00  0.00     0.059 A 
ATOM     72  F   UNL A   1      45.812  29.671  34.882  1.00  0.00    -0.206 F 
ATOM     73  C   UNL A   1      46.066  26.856  37.135  1.00  0.00     0.060 A 
BRANCH  73  74
ATOM     74  S   UNL A   1      47.321  25.892  38.001  1.00  0.00     0.124 S 
ATOM     75  O   UNL A   1      46.657  24.600  38.132  1.00  0.00    -0.237 OA
ATOM     76  O   UNL A   1      48.446  25.933  37.073  1.00  0.00    -0.237 OA
ATOM     77  O   UNL A   1      47.515  26.628  39.247  1.00  0.00    -0.744 OA
ENDBRANCH  73  74
ENDBRANCH  52  66
BRANCH  53  78
ATOM     78  C   UNL A   1      36.774  33.010  30.841  1.00  0.00     0.058 A 
ATOM     79  C   UNL A   1      35.444  32.740  31.197  1.00  0.00     0.135 A 
ATOM     80  C   UNL A   1      36.999  33.925  29.801  1.00  0.00     0.135 A 
ATOM     81  F   UNL A   1      35.179  31.868  32.182  1.00  0.00    -0.206 F 
ATOM     82  C   UNL A   1      34.375  33.335  30.536  1.00  0.00     0.059 A 
ATOM     83  C   UNL A   1      35.946  34.551  29.139  1.00  0.00     0.059 A 
ATOM     84  F   UNL A   1      38.252  34.232  29.435  1.00  0.00    -0.206 F 
ATOM     85  C   UNL A   1      34.637  34.239  29.505  1.00  0.00     0.060 A 
BRANCH  85  86
ATOM     86  S   UNL A   1      33.244  35.038  28.678  1.00  0.00     0.124 S 
ATOM     87  O   UNL A   1      33.917  36.074  27.904  1.00  0.00    -0.237 OA
ATOM     88  O   UNL A   1      32.670  33.939  27.909  1.00  0.00    -0.237 OA
ATOM     89  O   UNL A   1      32.423  35.510  29.789  1.00  0.00    -0.744 OA
ENDBRANCH  85  86
ENDBRANCH  53  78
BRANCH  65  90
ATOM     90  C   UNL A   1      39.770  33.971  37.064  1.00  0.00     0.058 A 
ATOM     91  C   UNL A   1      38.971  33.668  38.176  1.00  0.00     0.135 A 
ATOM     92  C   UNL A   1      40.407  35.221  37.029  1.00  0.00     0.135 A 
ATOM     93  F   UNL A   1      38.338  32.487  38.252  1.00  0.00    -0.206 F 
ATOM     94  C   UNL A   1      38.798  34.580  39.212  1.00  0.00     0.059 A 
ATOM     95  C   UNL A   1      40.267  36.138  38.064  1.00  0.00     0.059 A 
ATOM     96  F   UNL A   1      41.191  35.553  35.990  1.00  0.00    -0.206 F 
ATOM     97  C   UNL A   1      39.451  35.813  39.148  1.00  0.00     0.060 A 
BRANCH  97  98
ATOM     98  S   UNL A   1      39.254  36.972  40.517  1.00  0.00     0.124 S 
ATOM     99  O   UNL A   1      38.509  38.052  39.881  1.00  0.00    -0.237 OA
ATOM    100  O   UNL A   1      38.514  36.180  41.494  1.00  0.00    -0.237 OA
ATOM    101  O   UNL A   1      40.629  37.290  40.892  1.00  0.00    -0.744 OA
ENDBRANCH  97  98
ENDBRANCH  65  90
ENDBRANCH  39  40
ENDBRANCH  31  34
ENDBRANCH  29  30
ENDBRANCH  28  29
ENDBRANCH   1  28
TORSDOF 18
ENDMDL
MODEL 3
REMARK VINA RESULT:     -11.5      4.954     10.498
REMARK SMILES COc1cc(C(=O)N[C@H]2CCCC[C@H]2C(=O)NCCCCNC(=O)c2ccc(-c3c4nc(c(-c5c(F)cc(S(=O)(=O)[O-])cc5F)c5ccc([nH]5)c(-c5c(F)cc(S(=O)(=O)[O-])cc5F)c5nc(c(-c6c(F)cc(S(=O)(=O)[O-])cc6F)c6ccc3[nH]6)C=C5)C=C4)cc2)cc(Cl)c1OC
REMARK SMILES IDX 19 1 18 2 17 3 15 4 16 5 14 7 9 8 10 9 11 10 13 11 12 12
REMARK SMILES IDX 8 13 6 14 7 15 5 17 3 18 4 19 94 20 92 21 91 22 93 23 2 24
REMARK SMILES IDX 1 25 95 26 96 27 20 28 21 29 22 30 23 31 24 33 25 34 26 35
REMARK SMILES IDX 90 36 27 37 89 38 28 39 29 40 30 41 83 42 31 43 88 44 82 45
REMARK SMILES IDX 84 46 32 47 87 48 81 49 80 50 33 52 67 53 46 54 66 55 47 56
REMARK SMILES IDX 50 57 65 58 85 59 48 60 49 61 64 63 86 64 51 65 34 66 35 67
REMARK SMILES IDX 44 68 36 69 37 70 43 71 45 72 38 73 39 74 40 75 41 76 42 77
REMARK SMILES IDX 68 78 69 79 78 80 70 81 71 82 77 83 79 84 72 85 73 86 74 87
REMARK SMILES IDX 75 88 76 89 52 90 53 91 62 92 54 93 55 94 61 95 63 96 56 97
REMARK SMILES IDX 57 98 58 99 59 100 60 101
REMARK H PARENT 17 6 8 16 22 32 84 51 50 62
REMARK Flexibility Score: inf
ROOT
ATOM      1  C   UNL A   1      39.101  22.894  26.651  1.00  0.00     0.023 C 
ENDROOT
BRANCH   1   2
ATOM      2  C   UNL A   1      38.163  21.943  25.918  1.00  0.00     0.116 C 
BRANCH   2   3
ATOM      3  N   UNL A   1      37.834  22.432  24.591  1.00  0.00    -0.356 N 
ATOM      4  C   UNL A   1      36.643  22.514  23.941  1.00  0.00     0.225 C 
ATOM      5  O   UNL A   1      36.664  22.868  22.758  1.00  0.00    -0.275 OA
ATOM      6  H   UNL A   1      38.604  22.762  24.075  1.00  0.00     0.163 HD
BRANCH   4   7
ATOM      7  C   UNL A   1      35.303  22.218  24.611  1.00  0.00     0.101 C 
ATOM      8  C   UNL A   1      34.127  23.167  24.253  1.00  0.00     0.094 C 
ATOM      9  C   UNL A   1      32.770  22.647  24.773  1.00  0.00     0.026 C 
ATOM     10  C   UNL A   1      32.566  21.152  24.568  1.00  0.00     0.002 C 
ATOM     11  C   UNL A   1      35.019  20.705  24.664  1.00  0.00     0.015 C 
ATOM     12  C   UNL A   1      33.666  20.376  25.272  1.00  0.00     0.001 C 
BRANCH   8  13
ATOM     13  N   UNL A   1      33.973  23.545  22.853  1.00  0.00    -0.349 N 
ATOM     14  C   UNL A   1      33.141  24.407  22.175  1.00  0.00     0.251 C 
ATOM     15  O   UNL A   1      33.094  24.236  20.953  1.00  0.00    -0.269 OA
ATOM     16  H   UNL A   1      34.604  23.079  22.260  1.00  0.00     0.164 HD
BRANCH  14  17
ATOM     17  C   UNL A   1      32.375  25.559  22.757  1.00  0.00     0.045 A 
ATOM     18  C   UNL A   1      32.536  27.795  23.772  1.00  0.00     0.163 A 
ATOM     19  C   UNL A   1      33.136  26.668  23.189  1.00  0.00     0.064 A 
ATOM     20  C   UNL A   1      31.138  27.843  23.909  1.00  0.00     0.179 A 
ATOM     21  C   UNL A   1      30.381  26.735  23.517  1.00  0.00     0.087 A 
ATOM     22  C   UNL A   1      30.998  25.613  22.946  1.00  0.00     0.038 A 
ATOM     23  Cl  UNL A   1      28.668  26.630  23.751  1.00  0.00    -0.080 Cl
BRANCH  18  24
ATOM     24  O   UNL A   1      33.222  28.900  24.212  1.00  0.00    -0.493 OA
ATOM     25  C   UNL A   1      33.871  28.826  25.476  1.00  0.00     0.278 C 
ENDBRANCH  18  24
BRANCH  20  26
ATOM     26  O   UNL A   1      30.613  28.949  24.531  1.00  0.00    -0.491 OA
ATOM     27  C   UNL A   1      29.950  29.864  23.663  1.00  0.00     0.278 C 
ENDBRANCH  20  26
ENDBRANCH  14  17
ENDBRANCH   8  13
ENDBRANCH   4   7
ENDBRANCH   2   3
ENDBRANCH   1   2
BRANCH   1  28
ATOM     28  C   UNL A   1      40.325  22.262  27.288  1.00  0.00     0.023 C 
BRANCH  28  29
ATOM     29  C   UNL A   1      41.578  23.115  27.251  1.00  0.00     0.116 C 
BRANCH  29  30
ATOM     30  N   UNL A   1      41.641  24.012  26.103  1.00  0.00    -0.352 N 
ATOM     31  C   UNL A   1      41.601  25.389  26.066  1.00  0.00     0.251 C 
ATOM     32  H   UNL A   1      41.724  23.570  25.227  1.00  0.00     0.163 HD
ATOM     33  O   UNL A   1      41.570  25.979  24.996  1.00  0.00    -0.269 OA
BRANCH  31  34
ATOM     34  C   UNL A   1      41.551  26.136  27.341  1.00  0.00     0.039 A 
ATOM     35  C   UNL A   1      42.617  26.975  27.679  1.00  0.00     0.014 A 
ATOM     36  C   UNL A   1      40.418  26.069  28.152  1.00  0.00     0.014 A 
ATOM     37  C   UNL A   1      42.496  27.822  28.783  1.00  0.00     0.010 A 
ATOM     38  C   UNL A   1      40.258  26.990  29.177  1.00  0.00     0.010 A 
ATOM     39  C   UNL A   1      41.296  27.874  29.509  1.00  0.00    -0.014 A 
BRANCH  39  40
ATOM     40  C   UNL A   1      41.095  28.832  30.625  1.00  0.00     0.031 A 
ATOM     41  C   UNL A   1      41.937  28.710  31.868  1.00  0.00     0.074 A 
ATOM     42  C   UNL A   1      40.098  29.738  30.566  1.00  0.00     0.049 A 
ATOM     43  N   UNL A   1      41.837  29.355  33.001  1.00  0.00    -0.248 NA
ATOM     44  C   UNL A   1      43.003  27.693  31.852  1.00  0.00     0.031 C 
ATOM     45  C   UNL A   1      39.163  29.903  29.450  1.00  0.00     0.029 A 
ATOM     46  N   UNL A   1      39.692  30.682  31.477  1.00  0.00    -0.354 N 
ATOM     47  C   UNL A   1      42.793  28.794  33.840  1.00  0.00     0.074 A 
ATOM     48  C   UNL A   1      43.429  27.724  33.106  1.00  0.00     0.031 C 
ATOM     49  C   UNL A   1      38.310  30.902  29.732  1.00  0.00     0.029 A 
ATOM     50  C   UNL A   1      38.613  31.426  31.060  1.00  0.00     0.049 A 
ATOM     51  H   UNL A   1      40.132  30.815  32.347  1.00  0.00     0.167 HD
ATOM     52  C   UNL A   1      43.131  29.156  35.099  1.00  0.00     0.037 A 
ATOM     53  C   UNL A   1      37.940  32.414  31.681  1.00  0.00     0.037 A 
ATOM     54  C   UNL A   1      42.547  30.270  35.795  1.00  0.00     0.049 A 
ATOM     55  C   UNL A   1      38.382  32.847  33.053  1.00  0.00     0.074 A 
ATOM     56  C   UNL A   1      42.891  30.789  37.030  1.00  0.00     0.029 A 
ATOM     57  N   UNL A   1      41.504  31.045  35.310  1.00  0.00    -0.354 N 
ATOM     58  N   UNL A   1      39.344  32.359  33.799  1.00  0.00    -0.248 NA
ATOM     59  C   UNL A   1      37.656  33.970  33.663  1.00  0.00     0.031 C 
ATOM     60  C   UNL A   1      42.036  31.861  37.306  1.00  0.00     0.029 A 
ATOM     61  C   UNL A   1      41.183  32.032  36.227  1.00  0.00     0.049 A 
ATOM     62  H   UNL A   1      41.058  30.914  34.443  1.00  0.00     0.167 HD
ATOM     63  C   UNL A   1      39.353  33.128  34.958  1.00  0.00     0.074 A 
ATOM     64  C   UNL A   1      38.311  34.122  34.807  1.00  0.00     0.031 C 
ATOM     65  C   UNL A   1      40.151  33.021  36.048  1.00  0.00     0.037 A 
BRANCH  52  66
ATOM     66  C   UNL A   1      44.196  28.356  35.795  1.00  0.00     0.058 A 
ATOM     67  C   UNL A   1      45.559  28.661  35.653  1.00  0.00     0.135 A 
ATOM     68  C   UNL A   1      43.848  27.286  36.635  1.00  0.00     0.135 A 
ATOM     69  F   UNL A   1      45.947  29.663  34.847  1.00  0.00    -0.206 F 
ATOM     70  C   UNL A   1      46.542  27.917  36.296  1.00  0.00     0.059 A 
ATOM     71  C   UNL A   1      44.813  26.545  37.310  1.00  0.00     0.059 A 
ATOM     72  F   UNL A   1      42.559  26.949  36.802  1.00  0.00    -0.206 F 
ATOM     73  C   UNL A   1      46.158  26.860  37.123  1.00  0.00     0.060 A 
BRANCH  73  74
ATOM     74  S   UNL A   1      47.445  25.910  37.959  1.00  0.00     0.124 S 
ATOM     75  O   UNL A   1      46.845  24.581  38.000  1.00  0.00    -0.237 OA
ATOM     76  O   UNL A   1      48.583  26.062  37.059  1.00  0.00    -0.237 OA
ATOM     77  O   UNL A   1      47.577  26.580  39.250  1.00  0.00    -0.744 OA
ENDBRANCH  73  74
ENDBRANCH  52  66
BRANCH  53  78
ATOM     78  C   UNL A   1      36.798  33.084  31.002  1.00  0.00     0.058 A 
ATOM     79  C   UNL A   1      37.017  34.017  29.979  1.00  0.00     0.135 A 
ATOM     80  C   UNL A   1      35.470  32.804  31.359  1.00  0.00     0.135 A 
ATOM     81  F   UNL A   1      38.270  34.320  29.606  1.00  0.00    -0.206 F 
ATOM     82  C   UNL A   1      35.963  34.667  29.345  1.00  0.00     0.059 A 
ATOM     83  C   UNL A   1      34.397  33.425  30.724  1.00  0.00     0.059 A 
ATOM     84  F   UNL A   1      35.206  31.905  32.319  1.00  0.00    -0.206 F 
ATOM     85  C   UNL A   1      34.655  34.365  29.727  1.00  0.00     0.060 A 
BRANCH  85  86
ATOM     86  S   UNL A   1      33.291  35.184  28.871  1.00  0.00     0.124 S 
ATOM     87  O   UNL A   1      33.988  36.248  28.160  1.00  0.00    -0.237 OA
ATOM     88  O   UNL A   1      32.754  34.108  28.044  1.00  0.00    -0.237 OA
ATOM     89  O   UNL A   1      32.423  35.616  29.963  1.00  0.00    -0.744 OA
ENDBRANCH  85  86
ENDBRANCH  53  78
BRANCH  65  90
ATOM     90  C   UNL A   1      39.954  34.021  37.150  1.00  0.00     0.058 A 
ATOM     91  C   UNL A   1      40.606  35.263  37.139  1.00  0.00     0.135 A 
ATOM     92  C   UNL A   1      39.053  33.759  38.195  1.00  0.00     0.135 A 
ATOM     93  F   UNL A   1      41.480  35.558  36.163  1.00  0.00    -0.206 F 
ATOM     94  C   UNL A   1      40.385  36.205  38.136  1.00  0.00     0.059 A 
ATOM     95  C   UNL A   1      38.799  34.696  39.189  1.00  0.00     0.059 A 
ATOM     96  F   UNL A   1      38.396  32.589  38.243  1.00  0.00    -0.206 F 
ATOM     97  C   UNL A   1      39.478  35.913  39.158  1.00  0.00     0.060 A 
BRANCH  97  98
ATOM     98  S   UNL A   1      39.166  37.161  40.424  1.00  0.00     0.124 S 
ATOM     99  O   UNL A   1      38.265  38.070  39.724  1.00  0.00    -0.237 OA
ATOM    100  O   UNL A   1      38.566  36.376  41.498  1.00  0.00    -0.237 OA
ATOM    101  O   UNL A   1      40.495  37.690  40.713  1.00  0.00    -0.744 OA
ENDBRANCH  97  98
ENDBRANCH  65  90
ENDBRANCH  39  40
ENDBRANCH  31  34
ENDBRANCH  29  30
ENDBRANCH  28  29
ENDBRANCH   1  28
TORSDOF 18
ENDMDL
