MODEL 1
REMARK VINA RESULT:     -12.0      0.000      0.000
REMARK SMILES CC(C)(C)OC(=O)N1C[C@H](Cc2ccccc2)[C@H](C(=O)NCCCCNC(=O)c2ccc(-c3c4nc(c(-c5c(F)cc(S(=O)(=O)[O-])cc5F)c5ccc([nH]5)c(-c5c(F)cc(S(=O)(=O)[O-])cc5F)c5nc(c(-c6c(F)cc(S(=O)(=O)[O-])cc6F)c6ccc3[nH]6)C=C5)C=C4)cc2)C1
REMARK SMILES IDX 23 1 22 2 21 3 19 4 20 5 18 7 8 8 9 9 95 10 10 11 6 12 7 13
REMARK SMILES IDX 5 14 2 15 1 16 3 17 4 18 11 19 12 20 13 21 17 22 14 23 16 24
REMARK SMILES IDX 15 25 24 26 25 27 26 28 27 29 28 31 29 32 30 33 94 34 31 35
REMARK SMILES IDX 93 36 32 37 33 38 34 39 87 40 35 41 92 42 86 43 88 44 36 45
REMARK SMILES IDX 91 46 85 47 84 48 37 50 71 51 50 52 70 53 51 54 54 55 69 56
REMARK SMILES IDX 89 57 52 58 53 59 68 61 90 62 55 63 38 64 39 65 48 66 40 67
REMARK SMILES IDX 41 68 47 69 49 70 42 71 43 72 44 73 45 74 46 75 72 76 73 77
REMARK SMILES IDX 82 78 74 79 75 80 81 81 83 82 76 83 77 84 78 85 79 86 80 87
REMARK SMILES IDX 56 88 57 89 66 90 58 91 59 92 65 93 67 94 60 95 61 96 62 97
REMARK SMILES IDX 63 98 64 99
REMARK H PARENT 21 6 26 30 88 49 54 60
REMARK Flexibility Score: inf
ROOT
ATOM      1  C   UNL A   1      37.726  24.079  26.643  1.00  0.00     0.023 C 
ENDROOT
BRANCH   1   2
ATOM      2  C   UNL A   1      36.417  23.772  25.901  1.00  0.00     0.116 C 
BRANCH   2   3
ATOM      3  N   UNL A   1      36.666  23.381  24.521  1.00  0.00    -0.356 N 
ATOM      4  C   UNL A   1      35.873  23.257  23.423  1.00  0.00     0.225 C 
ATOM      5  O   UNL A   1      36.422  22.820  22.404  1.00  0.00    -0.275 OA
ATOM      6  H   UNL A   1      37.609  23.159  24.344  1.00  0.00     0.163 HD
BRANCH   4   7
ATOM      7  C   UNL A   1      34.383  23.606  23.357  1.00  0.00     0.103 C 
ATOM      8  N   UNL A   1      32.897  24.450  24.968  1.00  0.00    -0.307 N 
ATOM      9  C   UNL A   1      32.208  23.315  24.389  1.00  0.00     0.128 C 
ATOM     10  C   UNL A   1      34.009  24.861  24.144  1.00  0.00     0.137 C 
ATOM     11  C   UNL A   1      33.314  22.515  23.701  1.00  0.00     0.027 C 
BRANCH   8  12
ATOM     12  C   UNL A   1      32.586  25.092  26.136  1.00  0.00     0.410 C 
ATOM     13  O   UNL A   1      31.807  24.630  26.960  1.00  0.00    -0.224 OA
BRANCH  12  14
ATOM     14  O   UNL A   1      33.177  26.307  26.208  1.00  0.00    -0.444 OA
BRANCH  14  15
ATOM     15  C   UNL A   1      32.438  27.540  26.006  1.00  0.00     0.106 C 
ATOM     16  C   UNL A   1      33.431  28.483  25.307  1.00  0.00     0.056 C 
ATOM     17  C   UNL A   1      32.076  28.102  27.380  1.00  0.00     0.056 C 
ATOM     18  C   UNL A   1      31.201  27.412  25.107  1.00  0.00     0.056 C 
ENDBRANCH  14  15
ENDBRANCH  12  14
ENDBRANCH   8  12
BRANCH  11  19
ATOM     19  C   UNL A   1      33.833  21.419  24.618  1.00  0.00     0.041 C 
BRANCH  19  20
ATOM     20  C   UNL A   1      33.605  19.967  24.288  1.00  0.00    -0.048 A 
ATOM     21  C   UNL A   1      34.605  19.028  24.600  1.00  0.00     0.004 A 
ATOM     22  C   UNL A   1      32.497  19.558  23.544  1.00  0.00     0.004 A 
ATOM     23  C   UNL A   1      34.509  17.711  24.157  1.00  0.00     0.000 A 
ATOM     24  C   UNL A   1      32.403  18.237  23.102  1.00  0.00     0.000 A 
ATOM     25  C   UNL A   1      33.410  17.317  23.401  1.00  0.00     0.000 A 
ENDBRANCH  19  20
ENDBRANCH  11  19
ENDBRANCH   4   7
ENDBRANCH   2   3
ENDBRANCH   1   2
BRANCH   1  26
ATOM     26  C   UNL A   1      38.874  23.117  26.407  1.00  0.00     0.023 C 
BRANCH  26  27
ATOM     27  C   UNL A   1      40.189  23.559  27.009  1.00  0.00     0.116 C 
BRANCH  27  28
ATOM     28  N   UNL A   1      41.119  24.117  26.034  1.00  0.00    -0.352 N 
ATOM     29  C   UNL A   1      41.620  25.397  25.976  1.00  0.00     0.251 C 
ATOM     30  H   UNL A   1      41.427  23.501  25.332  1.00  0.00     0.163 HD
ATOM     31  O   UNL A   1      42.312  25.754  25.029  1.00  0.00    -0.269 OA
BRANCH  29  32
ATOM     32  C   UNL A   1      41.271  26.337  27.059  1.00  0.00     0.039 A 
ATOM     33  C   UNL A   1      40.453  25.906  28.105  1.00  0.00     0.014 A 
ATOM     34  C   UNL A   1      41.832  27.616  27.075  1.00  0.00     0.014 A 
ATOM     35  C   UNL A   1      40.247  26.747  29.199  1.00  0.00     0.010 A 
ATOM     36  C   UNL A   1      41.727  28.395  28.216  1.00  0.00     0.010 A 
ATOM     37  C   UNL A   1      40.908  27.984  29.275  1.00  0.00    -0.014 A 
BRANCH  37  38
ATOM     38  C   UNL A   1      40.705  28.908  30.416  1.00  0.00     0.031 A 
ATOM     39  C   UNL A   1      41.575  28.762  31.638  1.00  0.00     0.074 A 
ATOM     40  C   UNL A   1      39.712  29.819  30.385  1.00  0.00     0.049 A 
ATOM     41  N   UNL A   1      41.509  29.391  32.782  1.00  0.00    -0.248 NA
ATOM     42  C   UNL A   1      42.634  27.737  31.581  1.00  0.00     0.031 C 
ATOM     43  C   UNL A   1      38.768  30.011  29.282  1.00  0.00     0.029 A 
ATOM     44  N   UNL A   1      39.329  30.752  31.314  1.00  0.00    -0.354 N 
ATOM     45  C   UNL A   1      42.493  28.819  33.582  1.00  0.00     0.074 A 
ATOM     46  C   UNL A   1      43.088  27.744  32.823  1.00  0.00     0.031 C 
ATOM     47  C   UNL A   1      37.937  31.022  29.585  1.00  0.00     0.029 A 
ATOM     48  C   UNL A   1      38.266  31.527  30.913  1.00  0.00     0.049 A 
ATOM     49  H   UNL A   1      39.774  30.857  32.186  1.00  0.00     0.167 HD
ATOM     50  C   UNL A   1      42.893  29.184  34.822  1.00  0.00     0.037 A 
ATOM     51  C   UNL A   1      37.636  32.533  31.549  1.00  0.00     0.037 A 
ATOM     52  C   UNL A   1      42.330  30.291  35.544  1.00  0.00     0.049 A 
ATOM     53  C   UNL A   1      38.123  32.947  32.914  1.00  0.00     0.074 A 
ATOM     54  C   UNL A   1      42.696  30.788  36.782  1.00  0.00     0.029 A 
ATOM     55  N   UNL A   1      41.290  31.086  35.082  1.00  0.00    -0.354 N 
ATOM     56  N   UNL A   1      39.090  32.431  33.635  1.00  0.00    -0.248 NA
ATOM     57  C   UNL A   1      37.443  34.086  33.544  1.00  0.00     0.031 C 
ATOM     58  C   UNL A   1      41.855  31.864  37.083  1.00  0.00     0.029 A 
ATOM     59  C   UNL A   1      40.998  32.067  36.013  1.00  0.00     0.049 A 
ATOM     60  H   UNL A   1      40.829  30.967  34.221  1.00  0.00     0.167 HD
ATOM     61  C   UNL A   1      39.160  33.206  34.788  1.00  0.00     0.074 A 
ATOM     62  C   UNL A   1      38.141  34.228  34.663  1.00  0.00     0.031 C 
ATOM     63  C   UNL A   1      39.992  33.087  35.852  1.00  0.00     0.037 A 
BRANCH  50  64
ATOM     64  C   UNL A   1      44.003  28.390  35.453  1.00  0.00     0.058 A 
ATOM     65  C   UNL A   1      45.354  28.695  35.216  1.00  0.00     0.135 A 
ATOM     66  C   UNL A   1      43.717  27.319  36.314  1.00  0.00     0.135 A 
ATOM     67  F   UNL A   1      45.686  29.695  34.385  1.00  0.00    -0.206 F 
ATOM     68  C   UNL A   1      46.380  27.943  35.777  1.00  0.00     0.059 A 
ATOM     69  C   UNL A   1      44.728  26.573  36.912  1.00  0.00     0.059 A 
ATOM     70  F   UNL A   1      42.444  26.981  36.574  1.00  0.00    -0.206 F 
ATOM     71  C   UNL A   1      46.056  26.883  36.624  1.00  0.00     0.060 A 
BRANCH  71  72
ATOM     72  S   UNL A   1      47.400  25.919  37.348  1.00  0.00     0.124 S 
ATOM     73  O   UNL A   1      46.826  25.544  38.636  1.00  0.00    -0.237 OA
ATOM     74  O   UNL A   1      47.560  24.833  36.386  1.00  0.00    -0.237 OA
ATOM     75  O   UNL A   1      48.507  26.869  37.407  1.00  0.00    -0.744 OA
ENDBRANCH  71  72
ENDBRANCH  50  64
BRANCH  51  76
ATOM     76  C   UNL A   1      36.513  33.250  30.887  1.00  0.00     0.058 A 
ATOM     77  C   UNL A   1      36.754  34.154  29.842  1.00  0.00     0.135 A 
ATOM     78  C   UNL A   1      35.181  33.044  31.277  1.00  0.00     0.135 A 
ATOM     79  F   UNL A   1      38.011  34.388  29.434  1.00  0.00    -0.206 F 
ATOM     80  C   UNL A   1      35.718  34.846  29.221  1.00  0.00     0.059 A 
ATOM     81  C   UNL A   1      34.126  33.705  30.654  1.00  0.00     0.059 A 
ATOM     82  F   UNL A   1      34.894  32.173  32.257  1.00  0.00    -0.206 F 
ATOM     83  C   UNL A   1      34.407  34.614  29.635  1.00  0.00     0.060 A 
BRANCH  83  84
ATOM     84  S   UNL A   1      33.067  35.491  28.798  1.00  0.00     0.124 S 
ATOM     85  O   UNL A   1      32.433  34.413  28.050  1.00  0.00    -0.237 OA
ATOM     86  O   UNL A   1      32.303  36.027  29.921  1.00  0.00    -0.237 OA
ATOM     87  O   UNL A   1      33.770  36.489  27.997  1.00  0.00    -0.744 OA
ENDBRANCH  83  84
ENDBRANCH  51  76
BRANCH  63  88
ATOM     88  C   UNL A   1      39.875  34.117  36.939  1.00  0.00     0.058 A 
ATOM     89  C   UNL A   1      40.562  35.338  36.879  1.00  0.00     0.135 A 
ATOM     90  C   UNL A   1      39.015  33.897  38.027  1.00  0.00     0.135 A 
ATOM     91  F   UNL A   1      41.399  35.594  35.860  1.00  0.00    -0.206 F 
ATOM     92  C   UNL A   1      40.422  36.298  37.876  1.00  0.00     0.059 A 
ATOM     93  C   UNL A   1      38.838  34.853  39.020  1.00  0.00     0.059 A 
ATOM     94  F   UNL A   1      38.325  32.749  38.124  1.00  0.00    -0.206 F 
ATOM     95  C   UNL A   1      39.556  36.046  38.942  1.00  0.00     0.060 A 
BRANCH  95  96
ATOM     96  S   UNL A   1      39.356  37.312  40.213  1.00  0.00     0.124 S 
ATOM     97  O   UNL A   1      38.743  36.546  41.294  1.00  0.00    -0.237 OA
ATOM     98  O   UNL A   1      40.732  37.744  40.443  1.00  0.00    -0.237 OA
ATOM     99  O   UNL A   1      38.494  38.301  39.575  1.00  0.00    -0.744 OA
ENDBRANCH  95  96
ENDBRANCH  63  88
ENDBRANCH  37  38
ENDBRANCH  29  32
ENDBRANCH  27  28
ENDBRANCH  26  27
ENDBRANCH   1  26
TORSDOF 19
ENDMDL
MODEL 2
REMARK VINA RESULT:     -11.9      6.598     11.828
REMARK SMILES CC(C)(C)OC(=O)N1C[C@H](Cc2ccccc2)[C@H](C(=O)NCCCCNC(=O)c2ccc(-c3c4nc(c(-c5c(F)cc(S(=O)(=O)[O-])cc5F)c5ccc([nH]5)c(-c5c(F)cc(S(=O)(=O)[O-])cc5F)c5nc(c(-c6c(F)cc(S(=O)(=O)[O-])cc6F)c6ccc3[nH]6)C=C5)C=C4)cc2)C1
REMARK SMILES IDX 23 1 22 2 21 3 19 4 20 5 18 7 8 8 9 9 95 10 10 11 6 12 7 13
REMARK SMILES IDX 5 14 2 15 1 16 3 17 4 18 11 19 12 20 13 21 17 22 14 23 16 24
REMARK SMILES IDX 15 25 24 26 25 27 26 28 27 29 28 31 29 32 30 33 94 34 31 35
REMARK SMILES IDX 93 36 32 37 33 38 34 39 87 40 35 41 92 42 86 43 88 44 36 45
REMARK SMILES IDX 91 46 85 47 84 48 37 50 71 51 50 52 70 53 51 54 54 55 69 56
REMARK SMILES IDX 89 57 52 58 53 59 68 61 90 62 55 63 38 64 39 65 48 66 40 67
REMARK SMILES IDX 41 68 47 69 49 70 42 71 43 72 44 73 45 74 46 75 72 76 73 77
REMARK SMILES IDX 82 78 74 79 75 80 81 81 83 82 76 83 77 84 78 85 79 86 80 87
REMARK SMILES IDX 56 88 57 89 66 90 58 91 59 92 65 93 67 94 60 95 61 96 62 97
REMARK SMILES IDX 63 98 64 99
REMARK H PARENT 21 6 26 30 88 49 54 60
REMARK Flexibility Score: inf
ROOT
ATOM      1  C   UNL A   1      33.409  29.348  25.826  1.00  0.00     0.023 C 
ENDROOT
BRANCH   1   2
ATOM      2  C   UNL A   1      32.038  28.825  25.370  1.00  0.00     0.116 C 
BRANCH   2   3
ATOM      3  N   UNL A   1      31.670  29.361  24.067  1.00  0.00    -0.356 N 
ATOM      4  C   UNL A   1      31.042  28.837  22.980  1.00  0.00     0.225 C 
ATOM      5  O   UNL A   1      30.959  29.579  21.993  1.00  0.00    -0.275 OA
ATOM      6  H   UNL A   1      31.930  30.303  23.948  1.00  0.00     0.163 HD
BRANCH   4   7
ATOM      7  C   UNL A   1      30.449  27.428  22.888  1.00  0.00     0.103 C 
ATOM      8  N   UNL A   1      30.285  25.689  24.457  1.00  0.00    -0.307 N 
ATOM      9  C   UNL A   1      30.829  25.064  23.270  1.00  0.00     0.128 C 
ATOM     10  C   UNL A   1      29.720  26.982  24.154  1.00  0.00     0.137 C 
ATOM     11  C   UNL A   1      31.354  26.233  22.437  1.00  0.00     0.027 C 
BRANCH   8  12
ATOM     12  C   UNL A   1      30.278  25.176  25.726  1.00  0.00     0.410 C 
ATOM     13  O   UNL A   1      29.404  25.438  26.543  1.00  0.00    -0.224 OA
BRANCH  12  14
ATOM     14  O   UNL A   1      31.380  24.430  25.968  1.00  0.00    -0.444 OA
BRANCH  14  15
ATOM     15  C   UNL A   1      31.300  23.028  26.341  1.00  0.00     0.106 C 
ATOM     16  C   UNL A   1      32.365  22.852  27.435  1.00  0.00     0.056 C 
ATOM     17  C   UNL A   1      31.676  22.194  25.117  1.00  0.00     0.056 C 
ATOM     18  C   UNL A   1      29.950  22.592  26.926  1.00  0.00     0.056 C 
ENDBRANCH  14  15
ENDBRANCH  12  14
ENDBRANCH   8  12
BRANCH  11  19
ATOM     19  C   UNL A   1      32.835  26.455  22.697  1.00  0.00     0.041 C 
BRANCH  19  20
ATOM     20  C   UNL A   1      33.643  25.442  23.464  1.00  0.00    -0.048 A 
ATOM     21  C   UNL A   1      34.069  25.751  24.769  1.00  0.00     0.004 A 
ATOM     22  C   UNL A   1      34.108  24.275  22.856  1.00  0.00     0.004 A 
ATOM     23  C   UNL A   1      34.959  24.920  25.444  1.00  0.00     0.000 A 
ATOM     24  C   UNL A   1      35.001  23.443  23.535  1.00  0.00     0.000 A 
ATOM     25  C   UNL A   1      35.431  23.768  24.823  1.00  0.00     0.000 A 
ENDBRANCH  19  20
ENDBRANCH  11  19
ENDBRANCH   4   7
ENDBRANCH   2   3
ENDBRANCH   1   2
BRANCH   1  26
ATOM     26  C   UNL A   1      33.908  28.841  27.165  1.00  0.00     0.023 C 
BRANCH  26  27
ATOM     27  C   UNL A   1      35.267  29.373  27.563  1.00  0.00     0.116 C 
BRANCH  27  28
ATOM     28  N   UNL A   1      35.273  30.052  28.853  1.00  0.00    -0.352 N 
ATOM     29  C   UNL A   1      36.317  30.181  29.739  1.00  0.00     0.251 C 
ATOM     30  H   UNL A   1      34.424  30.471  29.123  1.00  0.00     0.163 HD
ATOM     31  O   UNL A   1      36.141  30.688  30.842  1.00  0.00    -0.269 OA
BRANCH  29  32
ATOM     32  C   UNL A   1      37.640  29.659  29.346  1.00  0.00     0.039 A 
ATOM     33  C   UNL A   1      38.073  29.811  28.028  1.00  0.00     0.014 A 
ATOM     34  C   UNL A   1      38.480  29.099  30.310  1.00  0.00     0.014 A 
ATOM     35  C   UNL A   1      39.379  29.451  27.694  1.00  0.00     0.010 A 
ATOM     36  C   UNL A   1      39.811  28.861  30.004  1.00  0.00     0.010 A 
ATOM     37  C   UNL A   1      40.265  29.004  28.687  1.00  0.00    -0.014 A 
BRANCH  37  38
ATOM     38  C   UNL A   1      41.657  28.603  28.369  1.00  0.00     0.031 A 
ATOM     39  C   UNL A   1      42.738  29.652  28.373  1.00  0.00     0.074 A 
ATOM     40  C   UNL A   1      41.933  27.332  28.015  1.00  0.00     0.049 A 
ATOM     41  N   UNL A   1      43.995  29.546  28.031  1.00  0.00    -0.248 NA
ATOM     42  C   UNL A   1      42.340  31.015  28.770  1.00  0.00     0.031 C 
ATOM     43  C   UNL A   1      40.958  26.245  27.917  1.00  0.00     0.029 A 
ATOM     44  N   UNL A   1      43.121  26.742  27.668  1.00  0.00    -0.354 N 
ATOM     45  C   UNL A   1      44.524  30.827  28.146  1.00  0.00     0.074 A 
ATOM     46  C   UNL A   1      43.439  31.706  28.513  1.00  0.00     0.031 C 
ATOM     47  C   UNL A   1      41.592  25.114  27.566  1.00  0.00     0.029 A 
ATOM     48  C   UNL A   1      43.011  25.402  27.383  1.00  0.00     0.049 A 
ATOM     49  H   UNL A   1      43.974  27.234  27.624  1.00  0.00     0.167 HD
ATOM     50  C   UNL A   1      45.808  31.230  28.000  1.00  0.00     0.037 A 
ATOM     51  C   UNL A   1      43.953  24.510  27.021  1.00  0.00     0.037 A 
ATOM     52  C   UNL A   1      46.889  30.336  27.691  1.00  0.00     0.049 A 
ATOM     53  C   UNL A   1      45.382  24.972  26.901  1.00  0.00     0.074 A 
ATOM     54  C   UNL A   1      48.238  30.622  27.575  1.00  0.00     0.029 A 
ATOM     55  N   UNL A   1      46.745  28.974  27.462  1.00  0.00    -0.354 N 
ATOM     56  N   UNL A   1      45.875  26.176  27.066  1.00  0.00    -0.248 NA
ATOM     57  C   UNL A   1      46.383  23.952  26.561  1.00  0.00     0.031 C 
ATOM     58  C   UNL A   1      48.905  29.438  27.247  1.00  0.00     0.029 A 
ATOM     59  C   UNL A   1      47.980  28.406  27.203  1.00  0.00     0.049 A 
ATOM     60  H   UNL A   1      45.891  28.487  27.482  1.00  0.00     0.167 HD
ATOM     61  C   UNL A   1      47.249  26.053  26.886  1.00  0.00     0.074 A 
ATOM     62  C   UNL A   1      47.506  24.655  26.606  1.00  0.00     0.031 C 
ATOM     63  C   UNL A   1      48.211  27.006  26.949  1.00  0.00     0.037 A 
BRANCH  50  64
ATOM     64  C   UNL A   1      46.104  32.691  28.200  1.00  0.00     0.058 A 
ATOM     65  C   UNL A   1      46.486  33.201  29.452  1.00  0.00     0.135 A 
ATOM     66  C   UNL A   1      46.014  33.591  27.127  1.00  0.00     0.135 A 
ATOM     67  F   UNL A   1      46.567  32.388  30.517  1.00  0.00    -0.206 F 
ATOM     68  C   UNL A   1      46.732  34.556  29.642  1.00  0.00     0.059 A 
ATOM     69  C   UNL A   1      46.287  34.947  27.288  1.00  0.00     0.059 A 
ATOM     70  F   UNL A   1      45.651  33.160  25.910  1.00  0.00    -0.206 F 
ATOM     71  C   UNL A   1      46.628  35.422  28.553  1.00  0.00     0.060 A 
BRANCH  71  72
ATOM     72  S   UNL A   1      46.955  37.178  28.816  1.00  0.00     0.124 S 
ATOM     73  O   UNL A   1      48.352  37.153  29.236  1.00  0.00    -0.237 OA
ATOM     74  O   UNL A   1      46.700  37.744  27.495  1.00  0.00    -0.237 OA
ATOM     75  O   UNL A   1      45.995  37.551  29.851  1.00  0.00    -0.744 OA
ENDBRANCH  71  72
ENDBRANCH  50  64
BRANCH  51  76
ATOM     76  C   UNL A   1      43.587  23.085  26.794  1.00  0.00     0.058 A 
ATOM     77  C   UNL A   1      43.591  22.538  25.503  1.00  0.00     0.135 A 
ATOM     78  C   UNL A   1      43.234  22.242  27.858  1.00  0.00     0.135 A 
ATOM     79  F   UNL A   1      43.919  23.305  24.451  1.00  0.00    -0.206 F 
ATOM     80  C   UNL A   1      43.236  21.213  25.269  1.00  0.00     0.059 A 
ATOM     81  C   UNL A   1      42.900  20.906  27.653  1.00  0.00     0.059 A 
ATOM     82  F   UNL A   1      43.234  22.709  29.116  1.00  0.00    -0.206 F 
ATOM     83  C   UNL A   1      42.891  20.404  26.352  1.00  0.00     0.060 A 
BRANCH  83  84
ATOM     84  S   UNL A   1      42.468  18.677  26.041  1.00  0.00     0.124 S 
ATOM     85  O   UNL A   1      43.359  18.349  24.936  1.00  0.00    -0.237 OA
ATOM     86  O   UNL A   1      42.779  18.049  27.322  1.00  0.00    -0.237 OA
ATOM     87  O   UNL A   1      41.046  18.734  25.712  1.00  0.00    -0.744 OA
ENDBRANCH  83  84
ENDBRANCH  51  76
BRANCH  63  88
ATOM     88  C   UNL A   1      49.635  26.564  26.768  1.00  0.00     0.058 A 
ATOM     89  C   UNL A   1      50.197  26.384  25.496  1.00  0.00     0.135 A 
ATOM     90  C   UNL A   1      50.461  26.377  27.887  1.00  0.00     0.135 A 
ATOM     91  F   UNL A   1      49.447  26.549  24.395  1.00  0.00    -0.206 F 
ATOM     92  C   UNL A   1      51.526  26.006  25.339  1.00  0.00     0.059 A 
ATOM     93  C   UNL A   1      51.800  26.026  27.754  1.00  0.00     0.059 A 
ATOM     94  F   UNL A   1      49.973  26.550  29.126  1.00  0.00    -0.206 F 
ATOM     95  C   UNL A   1      52.320  25.830  26.475  1.00  0.00     0.060 A 
BRANCH  95  96
ATOM     96  S   UNL A   1      54.052  25.371  26.259  1.00  0.00     0.124 S 
ATOM     97  O   UNL A   1      53.931  24.085  25.579  1.00  0.00    -0.237 OA
ATOM     98  O   UNL A   1      54.569  26.470  25.449  1.00  0.00    -0.237 OA
ATOM     99  O   UNL A   1      54.561  25.314  27.625  1.00  0.00    -0.744 OA
ENDBRANCH  95  96
ENDBRANCH  63  88
ENDBRANCH  37  38
ENDBRANCH  29  32
ENDBRANCH  27  28
ENDBRANCH  26  27
ENDBRANCH   1  26
TORSDOF 19
ENDMDL
MODEL 3
REMARK VINA RESULT:     -11.9      6.432     12.143
REMARK SMILES CC(C)(C)OC(=O)N1C[C@H](Cc2ccccc2)[C@H](C(=O)NCCCCNC(=O)c2ccc(-c3c4nc(c(-c5c(F)cc(S(=O)(=O)[O-])cc5F)c5ccc([nH]5)c(-c5c(F)cc(S(=O)(=O)[O-])cc5F)c5nc(c(-c6c(F)cc(S(=O)(=O)[O-])cc6F)c6ccc3[nH]6)C=C5)C=C4)cc2)C1
REMARK SMILES IDX 23 1 22 2 21 3 19 4 20 5 18 7 8 8 9 9 95 10 10 11 6 12 7 13
REMARK SMILES IDX 5 14 2 15 1 16 3 17 4 18 11 19 12 20 13 21 17 22 14 23 16 24
REMARK SMILES IDX 15 25 24 26 25 27 26 28 27 29 28 31 29 32 30 33 94 34 31 35
REMARK SMILES IDX 93 36 32 37 33 38 34 39 87 40 35 41 92 42 86 43 88 44 36 45
REMARK SMILES IDX 91 46 85 47 84 48 37 50 71 51 50 52 70 53 51 54 54 55 69 56
REMARK SMILES IDX 89 57 52 58 53 59 68 61 90 62 55 63 38 64 39 65 48 66 40 67
REMARK SMILES IDX 41 68 47 69 49 70 42 71 43 72 44 73 45 74 46 75 72 76 73 77
REMARK SMILES IDX 82 78 74 79 75 80 81 81 83 82 76 83 77 84 78 85 79 86 80 87
REMARK SMILES IDX 56 88 57 89 66 90 58 91 59 92 65 93 67 94 60 95 61 96 62 97
REMARK SMILES IDX 63 98 64 99
REMARK H PARENT 21 6 26 30 88 49 54 60
REMARK Flexibility Score: inf
ROOT
ATOM      1  C   UNL A   1      33.142  30.472  27.176  1.00  0.00     0.023 C 
ENDROOT
BRANCH   1   2
ATOM      2  C   UNL A   1      32.228  30.231  25.966  1.00  0.00     0.116 C 
BRANCH   2   3
ATOM      3  N   UNL A   1      32.985  29.783  24.806  1.00  0.00    -0.356 N 
ATOM      4  C   UNL A   1      33.267  28.559  24.285  1.00  0.00     0.225 C 
ATOM      5  O   UNL A   1      34.020  28.548  23.303  1.00  0.00    -0.275 OA
ATOM      6  H   UNL A   1      33.375  30.524  24.287  1.00  0.00     0.163 HD
BRANCH   4   7
ATOM      7  C   UNL A   1      32.739  27.222  24.815  1.00  0.00     0.103 C 
ATOM      8  N   UNL A   1      32.942  25.026  24.011  1.00  0.00    -0.307 N 
ATOM      9  C   UNL A   1      31.530  25.190  24.280  1.00  0.00     0.128 C 
ATOM     10  C   UNL A   1      33.719  26.063  24.647  1.00  0.00     0.137 C 
ATOM     11  C   UNL A   1      31.335  26.704  24.355  1.00  0.00     0.027 C 
BRANCH   8  12
ATOM     12  C   UNL A   1      33.527  24.041  23.262  1.00  0.00     0.410 C 
ATOM     13  O   UNL A   1      33.793  24.179  22.074  1.00  0.00    -0.224 OA
BRANCH  12  14
ATOM     14  O   UNL A   1      33.688  22.902  23.975  1.00  0.00    -0.444 OA
BRANCH  14  15
ATOM     15  C   UNL A   1      34.960  22.538  24.575  1.00  0.00     0.106 C 
ATOM     16  C   UNL A   1      34.945  21.002  24.624  1.00  0.00     0.056 C 
ATOM     17  C   UNL A   1      34.986  23.098  25.997  1.00  0.00     0.056 C 
ATOM     18  C   UNL A   1      36.198  22.969  23.777  1.00  0.00     0.056 C 
ENDBRANCH  14  15
ENDBRANCH  12  14
ENDBRANCH   8  12
BRANCH  11  19
ATOM     19  C   UNL A   1      30.891  27.256  23.009  1.00  0.00     0.041 C 
BRANCH  19  20
ATOM     20  C   UNL A   1      29.737  28.219  22.915  1.00  0.00    -0.048 A 
ATOM     21  C   UNL A   1      30.001  29.594  22.780  1.00  0.00     0.004 A 
ATOM     22  C   UNL A   1      28.422  27.796  23.113  1.00  0.00     0.004 A 
ATOM     23  C   UNL A   1      28.973  30.529  22.864  1.00  0.00     0.000 A 
ATOM     24  C   UNL A   1      27.393  28.736  23.197  1.00  0.00     0.000 A 
ATOM     25  C   UNL A   1      27.668  30.100  23.080  1.00  0.00     0.000 A 
ENDBRANCH  19  20
ENDBRANCH  11  19
ENDBRANCH   4   7
ENDBRANCH   2   3
ENDBRANCH   1   2
BRANCH   1  26
ATOM     26  C   UNL A   1      34.012  29.305  27.602  1.00  0.00     0.023 C 
BRANCH  26  27
ATOM     27  C   UNL A   1      35.419  29.692  28.000  1.00  0.00     0.116 C 
BRANCH  27  28
ATOM     28  N   UNL A   1      35.494  30.382  29.283  1.00  0.00    -0.352 N 
ATOM     29  C   UNL A   1      36.578  30.494  30.123  1.00  0.00     0.251 C 
ATOM     30  H   UNL A   1      34.667  30.821  29.584  1.00  0.00     0.163 HD
ATOM     31  O   UNL A   1      36.460  31.014  31.227  1.00  0.00    -0.269 OA
BRANCH  29  32
ATOM     32  C   UNL A   1      37.872  29.941  29.678  1.00  0.00     0.039 A 
ATOM     33  C   UNL A   1      38.207  29.982  28.324  1.00  0.00     0.014 A 
ATOM     34  C   UNL A   1      38.782  29.462  30.622  1.00  0.00     0.014 A 
ATOM     35  C   UNL A   1      39.487  29.595  27.927  1.00  0.00     0.010 A 
ATOM     36  C   UNL A   1      40.088  29.199  30.241  1.00  0.00     0.010 A 
ATOM     37  C   UNL A   1      40.446  29.231  28.886  1.00  0.00    -0.014 A 
BRANCH  37  38
ATOM     38  C   UNL A   1      41.812  28.804  28.502  1.00  0.00     0.031 A 
ATOM     39  C   UNL A   1      42.913  29.831  28.459  1.00  0.00     0.074 A 
ATOM     40  C   UNL A   1      42.047  27.530  28.132  1.00  0.00     0.049 A 
ATOM     41  N   UNL A   1      44.151  29.703  28.058  1.00  0.00    -0.248 NA
ATOM     42  C   UNL A   1      42.562  31.201  28.879  1.00  0.00     0.031 C 
ATOM     43  C   UNL A   1      41.046  26.462  28.075  1.00  0.00     0.029 A 
ATOM     44  N   UNL A   1      43.205  26.918  27.727  1.00  0.00    -0.354 N 
ATOM     45  C   UNL A   1      44.710  30.973  28.153  1.00  0.00     0.074 A 
ATOM     46  C   UNL A   1      43.660  31.871  28.573  1.00  0.00     0.031 C 
ATOM     47  C   UNL A   1      41.641  25.320  27.691  1.00  0.00     0.029 A 
ATOM     48  C   UNL A   1      43.055  25.581  27.443  1.00  0.00     0.049 A 
ATOM     49  H   UNL A   1      44.064  27.393  27.645  1.00  0.00     0.167 HD
ATOM     50  C   UNL A   1      45.993  31.350  27.948  1.00  0.00     0.037 A 
ATOM     51  C   UNL A   1      43.960  24.672  27.034  1.00  0.00     0.037 A 
ATOM     52  C   UNL A   1      47.041  30.437  27.585  1.00  0.00     0.049 A 
ATOM     53  C   UNL A   1      45.391  25.107  26.849  1.00  0.00     0.074 A 
ATOM     54  C   UNL A   1      48.388  30.697  27.408  1.00  0.00     0.029 A 
ATOM     55  N   UNL A   1      46.859  29.079  27.359  1.00  0.00    -0.354 N 
ATOM     56  N   UNL A   1      45.916  26.301  26.995  1.00  0.00    -0.248 NA
ATOM     57  C   UNL A   1      46.355  24.069  26.459  1.00  0.00     0.031 C 
ATOM     58  C   UNL A   1      49.016  29.501  27.044  1.00  0.00     0.029 A 
ATOM     59  C   UNL A   1      48.069  28.488  27.040  1.00  0.00     0.049 A 
ATOM     60  H   UNL A   1      45.997  28.608  27.417  1.00  0.00     0.167 HD
ATOM     61  C   UNL A   1      47.277  26.151  26.750  1.00  0.00     0.074 A 
ATOM     62  C   UNL A   1      47.493  24.750  26.453  1.00  0.00     0.031 C 
ATOM     63  C   UNL A   1      48.259  27.085  26.771  1.00  0.00     0.037 A 
BRANCH  50  64
ATOM     64  C   UNL A   1      46.327  32.804  28.139  1.00  0.00     0.058 A 
ATOM     65  C   UNL A   1      46.822  33.293  29.359  1.00  0.00     0.135 A 
ATOM     66  C   UNL A   1      46.160  33.720  27.088  1.00  0.00     0.135 A 
ATOM     67  F   UNL A   1      46.981  32.466  30.404  1.00  0.00    -0.206 F 
ATOM     68  C   UNL A   1      47.104  34.641  29.543  1.00  0.00     0.059 A 
ATOM     69  C   UNL A   1      46.466  35.069  27.240  1.00  0.00     0.059 A 
ATOM     70  F   UNL A   1      45.688  33.309  25.901  1.00  0.00    -0.206 F 
ATOM     71  C   UNL A   1      46.921  35.523  28.477  1.00  0.00     0.060 A 
BRANCH  71  72
ATOM     72  S   UNL A   1      47.295  37.271  28.732  1.00  0.00     0.124 S 
ATOM     73  O   UNL A   1      47.110  37.805  27.386  1.00  0.00    -0.237 OA
ATOM     74  O   UNL A   1      46.291  37.665  29.714  1.00  0.00    -0.237 OA
ATOM     75  O   UNL A   1      48.671  37.256  29.217  1.00  0.00    -0.744 OA
ENDBRANCH  71  72
ENDBRANCH  50  64
BRANCH  51  76
ATOM     76  C   UNL A   1      43.556  23.257  26.820  1.00  0.00     0.058 A 
ATOM     77  C   UNL A   1      43.477  22.719  25.527  1.00  0.00     0.135 A 
ATOM     78  C   UNL A   1      43.248  22.413  27.897  1.00  0.00     0.135 A 
ATOM     79  F   UNL A   1      43.760  23.487  24.463  1.00  0.00    -0.206 F 
ATOM     80  C   UNL A   1      43.086  21.402  25.306  1.00  0.00     0.059 A 
ATOM     81  C   UNL A   1      42.878  21.084  27.703  1.00  0.00     0.059 A 
ATOM     82  F   UNL A   1      43.327  22.871  29.156  1.00  0.00    -0.206 F 
ATOM     83  C   UNL A   1      42.787  20.592  26.401  1.00  0.00     0.060 A 
BRANCH  83  84
ATOM     84  S   UNL A   1      42.315  18.874  26.105  1.00  0.00     0.124 S 
ATOM     85  O   UNL A   1      42.551  18.274  27.412  1.00  0.00    -0.237 OA
ATOM     86  O   UNL A   1      40.917  19.005  25.704  1.00  0.00    -0.237 OA
ATOM     87  O   UNL A   1      43.225  18.455  25.043  1.00  0.00    -0.744 OA
ENDBRANCH  83  84
ENDBRANCH  51  76
BRANCH  63  88
ATOM     88  C   UNL A   1      49.665  26.616  26.522  1.00  0.00     0.058 A 
ATOM     89  C   UNL A   1      50.226  26.612  25.237  1.00  0.00     0.135 A 
ATOM     90  C   UNL A   1      50.476  26.220  27.597  1.00  0.00     0.135 A 
ATOM     91  F   UNL A   1      49.489  26.978  24.175  1.00  0.00    -0.206 F 
ATOM     92  C   UNL A   1      51.538  26.205  25.022  1.00  0.00     0.059 A 
ATOM     93  C   UNL A   1      51.798  25.837  27.410  1.00  0.00     0.059 A 
ATOM     94  F   UNL A   1      49.988  26.220  28.849  1.00  0.00    -0.206 F 
ATOM     95  C   UNL A   1      52.317  25.821  26.115  1.00  0.00     0.060 A 
BRANCH  95  96
ATOM     96  S   UNL A   1      54.029  25.327  25.829  1.00  0.00     0.124 S 
ATOM     97  O   UNL A   1      54.529  25.199  27.194  1.00  0.00    -0.237 OA
ATOM     98  O   UNL A   1      53.874  24.076  25.091  1.00  0.00    -0.237 OA
ATOM     99  O   UNL A   1      54.579  26.437  25.058  1.00  0.00    -0.744 OA
ENDBRANCH  95  96
ENDBRANCH  63  88
ENDBRANCH  37  38
ENDBRANCH  29  32
ENDBRANCH  27  28
ENDBRANCH  26  27
ENDBRANCH   1  26
TORSDOF 19
ENDMDL
