MODEL 1
REMARK VINA RESULT:     -13.0      0.000      0.000
REMARK SMILES Cc1cc(=O)n2nc(C)c(C(=O)NCCCCNC(=O)c3ccc(-c4c5nc(c(-c6c(F)cc(S(=O)(=O)[O-])cc6F)c6ccc([nH]6)c(-c6c(F)cc(S(=O)(=O)[O-])cc6F)c6nc(c(-c7c(F)cc(S(=O)(=O)[O-])cc7F)c7ccc4[nH]7)C=C6)C=C5)cc3)c2[nH]1
REMARK SMILES IDX 17 1 16 2 15 3 14 4 13 5 11 6 12 7 10 9 1 10 2 11 3 12 88 13
REMARK SMILES IDX 4 14 87 15 5 17 6 18 7 19 8 20 9 21 18 22 19 23 20 25 21 26
REMARK SMILES IDX 22 27 86 28 23 29 85 30 24 31 25 32 26 33 79 34 27 35 84 36
REMARK SMILES IDX 78 37 80 38 28 39 83 40 77 41 76 42 29 44 63 45 42 46 62 47
REMARK SMILES IDX 43 48 46 49 61 50 81 51 44 52 45 53 60 55 82 56 47 57 30 58
REMARK SMILES IDX 31 59 40 60 32 61 33 62 39 63 41 64 34 65 35 66 36 67 37 68
REMARK SMILES IDX 38 69 64 70 65 71 74 72 66 73 67 74 73 75 75 76 68 77 69 78
REMARK SMILES IDX 70 79 71 80 72 81 48 82 49 83 58 84 50 85 51 86 57 87 59 88
REMARK SMILES IDX 52 89 53 90 54 91 55 92 56 93
REMARK H PARENT 13 8 88 16 18 24 80 43 46 54
REMARK Flexibility Score: inf
ROOT
ATOM      1  C   UNL A   1      40.102  21.282  26.732  1.00  0.00     0.116 C 
ENDROOT
BRANCH   1   2
ATOM      2  C   UNL A   1      38.939  21.233  25.744  1.00  0.00     0.023 C 
BRANCH   2   3
ATOM      3  C   UNL A   1      37.913  22.366  25.910  1.00  0.00     0.023 C 
BRANCH   3   4
ATOM      4  C   UNL A   1      36.555  22.108  25.249  1.00  0.00     0.116 C 
BRANCH   4   5
ATOM      5  N   UNL A   1      35.533  21.793  26.220  1.00  0.00    -0.352 N 
ATOM      6  C   UNL A   1      34.308  21.186  26.184  1.00  0.00     0.256 C 
ATOM      7  O   UNL A   1      33.780  21.080  27.299  1.00  0.00    -0.269 OA
ATOM      8  H   UNL A   1      35.778  22.087  27.127  1.00  0.00     0.163 HD
BRANCH   6   9
ATOM      9  C   UNL A   1      33.604  20.686  24.996  1.00  0.00     0.105 A 
ATOM     10  C   UNL A   1      35.208  15.951  25.231  1.00  0.00     0.064 C 
ATOM     11  C   UNL A   1      34.404  17.043  24.584  1.00  0.00     0.019 A 
ATOM     12  C   UNL A   1      33.665  16.786  23.489  1.00  0.00     0.095 A 
ATOM     13  N   UNL A   1      34.446  18.308  25.144  1.00  0.00    -0.343 N 
ATOM     14  C   UNL A   1      32.864  17.874  22.864  1.00  0.00     0.274 A 
ATOM     15  C   UNL A   1      33.746  19.352  24.626  1.00  0.00     0.150 A 
ATOM     16  H   UNL A   1      35.002  18.456  25.941  1.00  0.00     0.168 HD
ATOM     17  O   UNL A   1      32.146  17.703  21.886  1.00  0.00    -0.267 OA
ATOM     18  N   UNL A   1      32.984  19.117  23.510  1.00  0.00    -0.179 N 
ATOM     19  N   UNL A   1      32.329  20.223  23.114  1.00  0.00    -0.168 NA
ATOM     20  C   UNL A   1      32.695  21.173  23.992  1.00  0.00     0.075 A 
ATOM     21  C   UNL A   1      32.076  22.498  23.750  1.00  0.00     0.070 C 
ENDBRANCH   6   9
ENDBRANCH   4   5
ENDBRANCH   3   4
ENDBRANCH   2   3
ENDBRANCH   1   2
BRANCH   1  22
ATOM     22  N   UNL A   1      41.407  21.360  26.079  1.00  0.00    -0.352 N 
ATOM     23  C   UNL A   1      42.180  22.493  25.878  1.00  0.00     0.251 C 
ATOM     24  H   UNL A   1      41.779  20.513  25.742  1.00  0.00     0.163 HD
ATOM     25  O   UNL A   1      43.046  22.529  25.027  1.00  0.00    -0.269 OA
BRANCH  23  26
ATOM     26  C   UNL A   1      41.916  23.654  26.748  1.00  0.00     0.039 A 
ATOM     27  C   UNL A   1      42.565  23.796  27.976  1.00  0.00     0.014 A 
ATOM     28  C   UNL A   1      41.078  24.648  26.248  1.00  0.00     0.014 A 
ATOM     29  C   UNL A   1      42.439  25.003  28.662  1.00  0.00     0.010 A 
ATOM     30  C   UNL A   1      41.047  25.873  26.872  1.00  0.00     0.010 A 
ATOM     31  C   UNL A   1      41.700  26.051  28.093  1.00  0.00    -0.014 A 
BRANCH  31  32
ATOM     32  C   UNL A   1      41.674  27.368  28.728  1.00  0.00     0.031 A 
ATOM     33  C   UNL A   1      42.842  28.265  28.469  1.00  0.00     0.074 A 
ATOM     34  C   UNL A   1      40.572  27.860  29.331  1.00  0.00     0.049 A 
ATOM     35  N   UNL A   1      43.703  28.723  29.319  1.00  0.00    -0.248 NA
ATOM     36  C   UNL A   1      43.130  28.644  27.078  1.00  0.00     0.031 C 
ATOM     37  C   UNL A   1      39.232  27.268  29.424  1.00  0.00     0.029 A 
ATOM     38  N   UNL A   1      40.405  29.077  29.912  1.00  0.00    -0.354 N 
ATOM     39  C   UNL A   1      44.536  29.595  28.615  1.00  0.00     0.074 A 
ATOM     40  C   UNL A   1      44.225  29.395  27.222  1.00  0.00     0.031 C 
ATOM     41  C   UNL A   1      38.349  28.210  29.821  1.00  0.00     0.029 A 
ATOM     42  C   UNL A   1      39.086  29.406  30.182  1.00  0.00     0.049 A 
ATOM     43  H   UNL A   1      41.157  29.674  30.124  1.00  0.00     0.167 HD
ATOM     44  C   UNL A   1      45.291  30.543  29.243  1.00  0.00     0.037 A 
ATOM     45  C   UNL A   1      38.623  30.584  30.663  1.00  0.00     0.037 A 
ATOM     46  C   UNL A   1      45.387  30.278  30.657  1.00  0.00     0.049 A 
ATOM     47  C   UNL A   1      39.760  31.247  31.351  1.00  0.00     0.074 A 
ATOM     48  C   UNL A   1      45.875  29.231  31.416  1.00  0.00     0.029 A 
ATOM     49  N   UNL A   1      44.597  31.010  31.512  1.00  0.00    -0.354 N 
ATOM     50  N   UNL A   1      40.329  30.775  32.429  1.00  0.00    -0.248 NA
ATOM     51  C   UNL A   1      40.566  32.186  30.585  1.00  0.00     0.031 C 
ATOM     52  C   UNL A   1      44.951  29.102  32.497  1.00  0.00     0.029 A 
ATOM     53  C   UNL A   1      43.998  30.113  32.362  1.00  0.00     0.049 A 
ATOM     54  H   UNL A   1      44.482  31.988  31.514  1.00  0.00     0.167 HD
ATOM     55  C   UNL A   1      41.685  31.022  32.259  1.00  0.00     0.074 A 
ATOM     56  C   UNL A   1      41.757  31.976  31.154  1.00  0.00     0.031 C 
ATOM     57  C   UNL A   1      42.636  30.231  32.842  1.00  0.00     0.037 A 
BRANCH  44  58
ATOM     58  C   UNL A   1      45.702  31.877  28.656  1.00  0.00     0.058 A 
ATOM     59  C   UNL A   1      44.715  32.753  28.151  1.00  0.00     0.135 A 
ATOM     60  C   UNL A   1      47.031  32.209  28.314  1.00  0.00     0.135 A 
ATOM     61  F   UNL A   1      43.414  32.546  28.415  1.00  0.00    -0.206 F 
ATOM     62  C   UNL A   1      45.017  33.820  27.300  1.00  0.00     0.059 A 
ATOM     63  C   UNL A   1      47.359  33.299  27.511  1.00  0.00     0.059 A 
ATOM     64  F   UNL A   1      48.069  31.437  28.657  1.00  0.00    -0.206 F 
ATOM     65  C   UNL A   1      46.344  34.068  26.966  1.00  0.00     0.060 A 
BRANCH  65  66
ATOM     66  S   UNL A   1      46.730  35.342  25.751  1.00  0.00     0.124 S 
ATOM     67  O   UNL A   1      46.163  36.527  26.385  1.00  0.00    -0.237 OA
ATOM     68  O   UNL A   1      48.187  35.280  25.697  1.00  0.00    -0.237 OA
ATOM     69  O   UNL A   1      46.043  34.879  24.550  1.00  0.00    -0.744 OA
ENDBRANCH  65  66
ENDBRANCH  44  58
BRANCH  45  70
ATOM     70  C   UNL A   1      37.350  31.257  30.307  1.00  0.00     0.058 A 
ATOM     71  C   UNL A   1      36.580  31.935  31.265  1.00  0.00     0.135 A 
ATOM     72  C   UNL A   1      36.986  31.458  28.958  1.00  0.00     0.135 A 
ATOM     73  F   UNL A   1      36.875  31.824  32.569  1.00  0.00    -0.206 F 
ATOM     74  C   UNL A   1      35.528  32.787  30.905  1.00  0.00     0.059 A 
ATOM     75  C   UNL A   1      35.938  32.292  28.576  1.00  0.00     0.059 A 
ATOM     76  F   UNL A   1      37.700  30.912  27.960  1.00  0.00    -0.206 F 
ATOM     77  C   UNL A   1      35.226  32.972  29.556  1.00  0.00     0.060 A 
BRANCH  77  78
ATOM     78  S   UNL A   1      33.969  34.183  29.083  1.00  0.00     0.124 S 
ATOM     79  O   UNL A   1      33.332  34.473  30.362  1.00  0.00    -0.237 OA
ATOM     80  O   UNL A   1      34.779  35.257  28.516  1.00  0.00    -0.237 OA
ATOM     81  O   UNL A   1      33.142  33.458  28.123  1.00  0.00    -0.744 OA
ENDBRANCH  77  78
ENDBRANCH  45  70
BRANCH  57  82
ATOM     82  C   UNL A   1      42.203  29.218  33.875  1.00  0.00     0.058 A 
ATOM     83  C   UNL A   1      41.876  27.883  33.576  1.00  0.00     0.135 A 
ATOM     84  C   UNL A   1      42.304  29.555  35.233  1.00  0.00     0.135 A 
ATOM     85  F   UNL A   1      41.861  27.444  32.313  1.00  0.00    -0.206 F 
ATOM     86  C   UNL A   1      41.631  26.937  34.573  1.00  0.00     0.059 A 
ATOM     87  C   UNL A   1      42.093  28.620  36.247  1.00  0.00     0.059 A 
ATOM     88  F   UNL A   1      42.677  30.794  35.592  1.00  0.00    -0.206 F 
ATOM     89  C   UNL A   1      41.748  27.314  35.909  1.00  0.00     0.060 A 
BRANCH  89  90
ATOM     90  S   UNL A   1      41.528  26.061  37.191  1.00  0.00     0.124 S 
ATOM     91  O   UNL A   1      42.674  26.305  38.060  1.00  0.00    -0.237 OA
ATOM     92  O   UNL A   1      40.224  26.406  37.751  1.00  0.00    -0.237 OA
ATOM     93  O   UNL A   1      41.563  24.803  36.449  1.00  0.00    -0.744 OA
ENDBRANCH  89  90
ENDBRANCH  57  82
ENDBRANCH  31  32
ENDBRANCH  23  26
ENDBRANCH   1  22
TORSDOF 14
ENDMDL
MODEL 2
REMARK VINA RESULT:     -13.0      1.317      2.211
REMARK SMILES Cc1cc(=O)n2nc(C)c(C(=O)NCCCCNC(=O)c3ccc(-c4c5nc(c(-c6c(F)cc(S(=O)(=O)[O-])cc6F)c6ccc([nH]6)c(-c6c(F)cc(S(=O)(=O)[O-])cc6F)c6nc(c(-c7c(F)cc(S(=O)(=O)[O-])cc7F)c7ccc4[nH]7)C=C6)C=C5)cc3)c2[nH]1
REMARK SMILES IDX 17 1 16 2 15 3 14 4 13 5 11 6 12 7 10 9 1 10 2 11 3 12 88 13
REMARK SMILES IDX 4 14 87 15 5 17 6 18 7 19 8 20 9 21 18 22 19 23 20 25 21 26
REMARK SMILES IDX 22 27 86 28 23 29 85 30 24 31 25 32 26 33 79 34 27 35 84 36
REMARK SMILES IDX 78 37 80 38 28 39 83 40 77 41 76 42 29 44 63 45 42 46 62 47
REMARK SMILES IDX 43 48 46 49 61 50 81 51 44 52 45 53 60 55 82 56 47 57 30 58
REMARK SMILES IDX 31 59 40 60 32 61 33 62 39 63 41 64 34 65 35 66 36 67 37 68
REMARK SMILES IDX 38 69 64 70 65 71 74 72 66 73 67 74 73 75 75 76 68 77 69 78
REMARK SMILES IDX 70 79 71 80 72 81 48 82 49 83 58 84 50 85 51 86 57 87 59 88
REMARK SMILES IDX 52 89 53 90 54 91 55 92 56 93
REMARK H PARENT 13 8 88 16 18 24 80 43 46 54
REMARK Flexibility Score: inf
ROOT
ATOM      1  C   UNL A   1      37.864  23.047  25.450  1.00  0.00     0.116 C 
ENDROOT
BRANCH   1   2
ATOM      2  C   UNL A   1      37.050  22.345  24.367  1.00  0.00     0.023 C 
BRANCH   2   3
ATOM      3  C   UNL A   1      35.751  23.069  23.975  1.00  0.00     0.023 C 
BRANCH   3   4
ATOM      4  C   UNL A   1      34.954  23.642  25.151  1.00  0.00     0.116 C 
BRANCH   4   5
ATOM      5  N   UNL A   1      34.537  22.613  26.075  1.00  0.00    -0.352 N 
ATOM      6  C   UNL A   1      33.850  21.435  25.977  1.00  0.00     0.256 C 
ATOM      7  O   UNL A   1      33.763  20.827  27.053  1.00  0.00    -0.269 OA
ATOM      8  H   UNL A   1      34.816  22.808  26.999  1.00  0.00     0.163 HD
BRANCH   6   9
ATOM      9  C   UNL A   1      33.233  20.869  24.771  1.00  0.00     0.105 A 
ATOM     10  C   UNL A   1      34.978  16.205  25.274  1.00  0.00     0.064 C 
ATOM     11  C   UNL A   1      34.177  17.244  24.542  1.00  0.00     0.019 A 
ATOM     12  C   UNL A   1      33.511  16.922  23.417  1.00  0.00     0.095 A 
ATOM     13  N   UNL A   1      34.144  18.529  25.055  1.00  0.00    -0.343 N 
ATOM     14  C   UNL A   1      32.712  17.958  22.708  1.00  0.00     0.274 A 
ATOM     15  C   UNL A   1      33.441  19.528  24.460  1.00  0.00     0.150 A 
ATOM     16  H   UNL A   1      34.647  18.725  25.877  1.00  0.00     0.168 HD
ATOM     17  O   UNL A   1      32.059  17.727  21.697  1.00  0.00    -0.267 OA
ATOM     18  N   UNL A   1      32.754  19.227  23.312  1.00  0.00    -0.179 N 
ATOM     19  N   UNL A   1      32.086  20.294  22.838  1.00  0.00    -0.168 NA
ATOM     20  C   UNL A   1      32.368  21.287  23.699  1.00  0.00     0.075 A 
ATOM     21  C   UNL A   1      31.720  22.580  23.373  1.00  0.00     0.070 C 
ENDBRANCH   6   9
ENDBRANCH   4   5
ENDBRANCH   3   4
ENDBRANCH   2   3
ENDBRANCH   1   2
BRANCH   1  22
ATOM     22  N   UNL A   1      38.554  22.117  26.342  1.00  0.00    -0.352 N 
ATOM     23  C   UNL A   1      39.686  22.365  27.103  1.00  0.00     0.251 C 
ATOM     24  H   UNL A   1      38.173  21.212  26.410  1.00  0.00     0.163 HD
ATOM     25  O   UNL A   1      40.388  21.462  27.512  1.00  0.00    -0.269 OA
BRANCH  23  26
ATOM     26  C   UNL A   1      40.001  23.774  27.405  1.00  0.00     0.039 A 
ATOM     27  C   UNL A   1      39.015  24.761  27.348  1.00  0.00     0.014 A 
ATOM     28  C   UNL A   1      41.290  24.057  27.851  1.00  0.00     0.014 A 
ATOM     29  C   UNL A   1      39.313  26.031  27.839  1.00  0.00     0.010 A 
ATOM     30  C   UNL A   1      41.543  25.277  28.435  1.00  0.00     0.010 A 
ATOM     31  C   UNL A   1      40.571  26.278  28.407  1.00  0.00    -0.014 A 
BRANCH  31  32
ATOM     32  C   UNL A   1      40.851  27.560  29.054  1.00  0.00     0.031 A 
ATOM     33  C   UNL A   1      41.949  28.386  28.466  1.00  0.00     0.074 A 
ATOM     34  C   UNL A   1      40.035  28.095  29.986  1.00  0.00     0.049 A 
ATOM     35  N   UNL A   1      43.066  28.740  29.014  1.00  0.00    -0.248 NA
ATOM     36  C   UNL A   1      41.820  28.815  27.065  1.00  0.00     0.031 C 
ATOM     37  C   UNL A   1      38.747  27.593  30.479  1.00  0.00     0.029 A 
ATOM     38  N   UNL A   1      40.156  29.290  30.623  1.00  0.00    -0.354 N 
ATOM     39  C   UNL A   1      43.706  29.588  28.108  1.00  0.00     0.074 A 
ATOM     40  C   UNL A   1      42.963  29.481  26.878  1.00  0.00     0.031 C 
ATOM     41  C   UNL A   1      38.111  28.572  31.158  1.00  0.00     0.029 A 
ATOM     42  C   UNL A   1      39.018  29.694  31.302  1.00  0.00     0.049 A 
ATOM     43  H   UNL A   1      40.983  29.822  30.603  1.00  0.00     0.167 HD
ATOM     44  C   UNL A   1      44.694  30.448  28.493  1.00  0.00     0.037 A 
ATOM     45  C   UNL A   1      38.825  30.875  31.936  1.00  0.00     0.037 A 
ATOM     46  C   UNL A   1      45.203  30.106  29.797  1.00  0.00     0.049 A 
ATOM     47  C   UNL A   1      40.169  31.422  32.249  1.00  0.00     0.074 A 
ATOM     48  C   UNL A   1      45.816  28.990  30.336  1.00  0.00     0.029 A 
ATOM     49  N   UNL A   1      44.780  30.845  30.876  1.00  0.00    -0.354 N 
ATOM     50  N   UNL A   1      41.005  30.858  33.080  1.00  0.00    -0.248 NA
ATOM     51  C   UNL A   1      40.771  32.341  31.294  1.00  0.00     0.031 C 
ATOM     52  C   UNL A   1      45.267  28.870  31.648  1.00  0.00     0.029 A 
ATOM     53  C   UNL A   1      44.405  29.950  31.847  1.00  0.00     0.049 A 
ATOM     54  H   UNL A   1      44.752  31.827  30.940  1.00  0.00     0.167 HD
ATOM     55  C   UNL A   1      42.257  31.019  32.500  1.00  0.00     0.074 A 
ATOM     56  C   UNL A   1      42.059  32.021  31.455  1.00  0.00     0.031 C 
ATOM     57  C   UNL A   1      43.275  30.136  32.733  1.00  0.00     0.037 A 
BRANCH  44  58
ATOM     58  C   UNL A   1      45.009  31.779  27.842  1.00  0.00     0.058 A 
ATOM     59  C   UNL A   1      46.265  31.977  27.226  1.00  0.00     0.135 A 
ATOM     60  C   UNL A   1      44.246  32.950  28.038  1.00  0.00     0.135 A 
ATOM     61  F   UNL A   1      47.079  30.937  26.979  1.00  0.00    -0.206 F 
ATOM     62  C   UNL A   1      46.761  33.246  26.915  1.00  0.00     0.059 A 
ATOM     63  C   UNL A   1      44.698  34.220  27.687  1.00  0.00     0.059 A 
ATOM     64  F   UNL A   1      43.067  32.935  28.672  1.00  0.00    -0.206 F 
ATOM     65  C   UNL A   1      45.977  34.365  27.174  1.00  0.00     0.060 A 
BRANCH  65  66
ATOM     66  S   UNL A   1      46.667  36.010  26.921  1.00  0.00     0.124 S 
ATOM     67  O   UNL A   1      47.580  35.772  25.809  1.00  0.00    -0.237 OA
ATOM     68  O   UNL A   1      45.475  36.796  26.614  1.00  0.00    -0.237 OA
ATOM     69  O   UNL A   1      47.297  36.311  28.202  1.00  0.00    -0.744 OA
ENDBRANCH  65  66
ENDBRANCH  44  58
BRANCH  45  70
ATOM     70  C   UNL A   1      37.564  31.652  32.016  1.00  0.00     0.058 A 
ATOM     71  C   UNL A   1      36.955  31.948  33.245  1.00  0.00     0.135 A 
ATOM     72  C   UNL A   1      37.057  32.333  30.888  1.00  0.00     0.135 A 
ATOM     73  F   UNL A   1      37.395  31.367  34.372  1.00  0.00    -0.206 F 
ATOM     74  C   UNL A   1      35.924  32.888  33.357  1.00  0.00     0.059 A 
ATOM     75  C   UNL A   1      36.026  33.265  30.972  1.00  0.00     0.059 A 
ATOM     76  F   UNL A   1      37.612  32.175  29.677  1.00  0.00    -0.206 F 
ATOM     77  C   UNL A   1      35.478  33.555  32.216  1.00  0.00     0.060 A 
BRANCH  77  78
ATOM     78  S   UNL A   1      34.252  34.875  32.378  1.00  0.00     0.124 S 
ATOM     79  O   UNL A   1      34.048  35.270  30.989  1.00  0.00    -0.237 OA
ATOM     80  O   UNL A   1      33.138  34.179  33.014  1.00  0.00    -0.237 OA
ATOM     81  O   UNL A   1      34.925  35.863  33.216  1.00  0.00    -0.744 OA
ENDBRANCH  77  78
ENDBRANCH  45  70
BRANCH  57  82
ATOM     82  C   UNL A   1      43.103  29.104  33.822  1.00  0.00     0.058 A 
ATOM     83  C   UNL A   1      43.316  29.362  35.189  1.00  0.00     0.135 A 
ATOM     84  C   UNL A   1      42.523  27.869  33.495  1.00  0.00     0.135 A 
ATOM     85  F   UNL A   1      43.765  30.552  35.603  1.00  0.00    -0.206 F 
ATOM     86  C   UNL A   1      42.999  28.431  36.178  1.00  0.00     0.059 A 
ATOM     87  C   UNL A   1      42.170  26.934  34.469  1.00  0.00     0.059 A 
ATOM     88  F   UNL A   1      42.230  27.582  32.216  1.00  0.00    -0.206 F 
ATOM     89  C   UNL A   1      42.419  27.219  35.809  1.00  0.00     0.060 A 
BRANCH  89  90
ATOM     90  S   UNL A   1      41.919  26.060  37.102  1.00  0.00     0.124 S 
ATOM     91  O   UNL A   1      42.023  24.775  36.419  1.00  0.00    -0.237 OA
ATOM     92  O   UNL A   1      42.910  26.304  38.147  1.00  0.00    -0.237 OA
ATOM     93  O   UNL A   1      40.561  26.484  37.433  1.00  0.00    -0.744 OA
ENDBRANCH  89  90
ENDBRANCH  57  82
ENDBRANCH  31  32
ENDBRANCH  23  26
ENDBRANCH   1  22
TORSDOF 14
ENDMDL
MODEL 3
REMARK VINA RESULT:     -12.6      4.330     10.260
REMARK SMILES Cc1cc(=O)n2nc(C)c(C(=O)NCCCCNC(=O)c3ccc(-c4c5nc(c(-c6c(F)cc(S(=O)(=O)[O-])cc6F)c6ccc([nH]6)c(-c6c(F)cc(S(=O)(=O)[O-])cc6F)c6nc(c(-c7c(F)cc(S(=O)(=O)[O-])cc7F)c7ccc4[nH]7)C=C6)C=C5)cc3)c2[nH]1
REMARK SMILES IDX 17 1 16 2 15 3 14 4 13 5 11 6 12 7 10 9 1 10 2 11 3 12 88 13
REMARK SMILES IDX 4 14 87 15 5 17 6 18 7 19 8 20 9 21 18 22 19 23 20 25 21 26
REMARK SMILES IDX 22 27 86 28 23 29 85 30 24 31 25 32 26 33 79 34 27 35 84 36
REMARK SMILES IDX 78 37 80 38 28 39 83 40 77 41 76 42 29 44 63 45 42 46 62 47
REMARK SMILES IDX 43 48 46 49 61 50 81 51 44 52 45 53 60 55 82 56 47 57 30 58
REMARK SMILES IDX 31 59 40 60 32 61 33 62 39 63 41 64 34 65 35 66 36 67 37 68
REMARK SMILES IDX 38 69 64 70 65 71 74 72 66 73 67 74 73 75 75 76 68 77 69 78
REMARK SMILES IDX 70 79 71 80 72 81 48 82 49 83 58 84 50 85 51 86 57 87 59 88
REMARK SMILES IDX 52 89 53 90 54 91 55 92 56 93
REMARK H PARENT 13 8 88 16 18 24 80 43 46 54
REMARK Flexibility Score: inf
ROOT
ATOM      1  C   UNL A   1      33.922  30.439  27.382  1.00  0.00     0.116 C 
ENDROOT
BRANCH   1   2
ATOM      2  C   UNL A   1      32.542  30.042  26.865  1.00  0.00     0.023 C 
BRANCH   2   3
ATOM      3  C   UNL A   1      32.264  28.529  26.887  1.00  0.00     0.023 C 
BRANCH   3   4
ATOM      4  C   UNL A   1      33.106  27.705  25.907  1.00  0.00     0.116 C 
BRANCH   4   5
ATOM      5  N   UNL A   1      33.176  28.321  24.602  1.00  0.00    -0.352 N 
ATOM      6  C   UNL A   1      32.287  28.575  23.595  1.00  0.00     0.256 C 
ATOM      7  O   UNL A   1      32.787  29.191  22.643  1.00  0.00    -0.269 OA
ATOM      8  H   UNL A   1      34.085  28.635  24.387  1.00  0.00     0.163 HD
BRANCH   6   9
ATOM      9  C   UNL A   1      30.871  28.190  23.548  1.00  0.00     0.105 A 
ATOM     10  C   UNL A   1      28.962  32.788  23.030  1.00  0.00     0.064 C 
ATOM     11  C   UNL A   1      28.806  31.299  23.148  1.00  0.00     0.019 A 
ATOM     12  C   UNL A   1      27.584  30.736  23.105  1.00  0.00     0.095 A 
ATOM     13  N   UNL A   1      29.947  30.529  23.299  1.00  0.00    -0.343 N 
ATOM     14  C   UNL A   1      27.444  29.259  23.212  1.00  0.00     0.274 A 
ATOM     15  C   UNL A   1      29.897  29.175  23.408  1.00  0.00     0.150 A 
ATOM     16  H   UNL A   1      30.821  30.977  23.330  1.00  0.00     0.168 HD
ATOM     17  O   UNL A   1      26.366  28.680  23.150  1.00  0.00    -0.267 OA
ATOM     18  N   UNL A   1      28.664  28.578  23.367  1.00  0.00    -0.179 N 
ATOM     19  N   UNL A   1      28.757  27.239  23.465  1.00  0.00    -0.168 NA
ATOM     20  C   UNL A   1      30.073  26.993  23.579  1.00  0.00     0.075 A 
ATOM     21  C   UNL A   1      30.418  25.555  23.692  1.00  0.00     0.070 C 
ENDBRANCH   6   9
ENDBRANCH   4   5
ENDBRANCH   3   4
ENDBRANCH   2   3
ENDBRANCH   1   2
BRANCH   1  22
ATOM     22  N   UNL A   1      33.875  31.510  28.376  1.00  0.00    -0.352 N 
ATOM     23  C   UNL A   1      34.779  31.747  29.400  1.00  0.00     0.251 C 
ATOM     24  H   UNL A   1      33.116  32.134  28.310  1.00  0.00     0.163 HD
ATOM     25  O   UNL A   1      34.477  32.408  30.374  1.00  0.00    -0.269 OA
BRANCH  23  26
ATOM     26  C   UNL A   1      36.128  31.171  29.256  1.00  0.00     0.039 A 
ATOM     27  C   UNL A   1      37.246  31.990  29.081  1.00  0.00     0.014 A 
ATOM     28  C   UNL A   1      36.253  29.792  29.409  1.00  0.00     0.014 A 
ATOM     29  C   UNL A   1      38.513  31.415  29.157  1.00  0.00     0.010 A 
ATOM     30  C   UNL A   1      37.503  29.250  29.595  1.00  0.00     0.010 A 
ATOM     31  C   UNL A   1      38.639  30.047  29.442  1.00  0.00    -0.014 A 
BRANCH  31  32
ATOM     32  C   UNL A   1      39.958  29.457  29.666  1.00  0.00     0.031 A 
ATOM     33  C   UNL A   1      40.353  29.207  31.086  1.00  0.00     0.074 A 
ATOM     34  C   UNL A   1      40.703  28.945  28.663  1.00  0.00     0.049 A 
ATOM     35  N   UNL A   1      41.328  29.738  31.750  1.00  0.00    -0.248 NA
ATOM     36  C   UNL A   1      39.515  28.305  31.891  1.00  0.00     0.031 C 
ATOM     37  C   UNL A   1      40.364  28.811  27.241  1.00  0.00     0.029 A 
ATOM     38  N   UNL A   1      41.913  28.331  28.744  1.00  0.00    -0.354 N 
ATOM     39  C   UNL A   1      41.350  29.112  32.998  1.00  0.00     0.074 A 
ATOM     40  C   UNL A   1      40.130  28.348  33.075  1.00  0.00     0.031 C 
ATOM     41  C   UNL A   1      41.237  27.968  26.648  1.00  0.00     0.029 A 
ATOM     42  C   UNL A   1      42.289  27.655  27.595  1.00  0.00     0.049 A 
ATOM     43  H   UNL A   1      42.474  28.365  29.551  1.00  0.00     0.167 HD
ATOM     44  C   UNL A   1      42.456  29.128  33.798  1.00  0.00     0.037 A 
ATOM     45  C   UNL A   1      43.388  26.881  27.429  1.00  0.00     0.037 A 
ATOM     46  C   UNL A   1      43.395  30.134  33.367  1.00  0.00     0.049 A 
ATOM     47  C   UNL A   1      44.373  27.303  28.457  1.00  0.00     0.074 A 
ATOM     48  C   UNL A   1      43.345  31.508  33.224  1.00  0.00     0.029 A 
ATOM     49  N   UNL A   1      44.495  29.732  32.648  1.00  0.00    -0.354 N 
ATOM     50  N   UNL A   1      44.934  28.483  28.481  1.00  0.00    -0.248 NA
ATOM     51  C   UNL A   1      44.388  26.583  29.722  1.00  0.00     0.031 C 
ATOM     52  C   UNL A   1      44.079  31.777  32.029  1.00  0.00     0.029 A 
ATOM     53  C   UNL A   1      44.578  30.562  31.556  1.00  0.00     0.049 A 
ATOM     54  H   UNL A   1      45.105  28.993  32.871  1.00  0.00     0.167 HD
ATOM     55  C   UNL A   1      44.997  28.826  29.825  1.00  0.00     0.074 A 
ATOM     56  C   UNL A   1      44.736  27.579  30.543  1.00  0.00     0.031 C 
ATOM     57  C   UNL A   1      44.985  30.130  30.235  1.00  0.00     0.037 A 
BRANCH  44  58
ATOM     58  C   UNL A   1      42.846  28.050  34.788  1.00  0.00     0.058 A 
ATOM     59  C   UNL A   1      43.063  28.389  36.143  1.00  0.00     0.135 A 
ATOM     60  C   UNL A   1      43.285  26.761  34.415  1.00  0.00     0.135 A 
ATOM     61  F   UNL A   1      42.681  29.586  36.619  1.00  0.00    -0.206 F 
ATOM     62  C   UNL A   1      43.743  27.551  37.030  1.00  0.00     0.059 A 
ATOM     63  C   UNL A   1      43.918  25.888  35.297  1.00  0.00     0.059 A 
ATOM     64  F   UNL A   1      43.214  26.322  33.152  1.00  0.00    -0.206 F 
ATOM     65  C   UNL A   1      44.189  26.310  36.588  1.00  0.00     0.060 A 
BRANCH  65  66
ATOM     66  S   UNL A   1      45.199  25.291  37.678  1.00  0.00     0.124 S 
ATOM     67  O   UNL A   1      44.566  25.533  38.969  1.00  0.00    -0.237 OA
ATOM     68  O   UNL A   1      45.008  23.959  37.111  1.00  0.00    -0.237 OA
ATOM     69  O   UNL A   1      46.537  25.849  37.515  1.00  0.00    -0.744 OA
ENDBRANCH  65  66
ENDBRANCH  44  58
BRANCH  45  70
ATOM     70  C   UNL A   1      43.494  25.639  26.625  1.00  0.00     0.058 A 
ATOM     71  C   UNL A   1      44.342  25.551  25.511  1.00  0.00     0.135 A 
ATOM     72  C   UNL A   1      42.941  24.425  27.087  1.00  0.00     0.135 A 
ATOM     73  F   UNL A   1      44.934  26.652  25.025  1.00  0.00    -0.206 F 
ATOM     74  C   UNL A   1      44.650  24.326  24.907  1.00  0.00     0.059 A 
ATOM     75  C   UNL A   1      43.224  23.196  26.496  1.00  0.00     0.059 A 
ATOM     76  F   UNL A   1      42.172  24.389  28.186  1.00  0.00    -0.206 F 
ATOM     77  C   UNL A   1      44.099  23.151  25.418  1.00  0.00     0.060 A 
BRANCH  77  78
ATOM     78  S   UNL A   1      44.610  21.556  24.735  1.00  0.00     0.124 S 
ATOM     79  O   UNL A   1      45.937  21.390  25.315  1.00  0.00    -0.237 OA
ATOM     80  O   UNL A   1      43.575  20.662  25.243  1.00  0.00    -0.237 OA
ATOM     81  O   UNL A   1      44.583  21.779  23.292  1.00  0.00    -0.744 OA
ENDBRANCH  77  78
ENDBRANCH  45  70
BRANCH  57  82
ATOM     82  C   UNL A   1      45.142  31.217  29.197  1.00  0.00     0.058 A 
ATOM     83  C   UNL A   1      46.381  31.624  28.668  1.00  0.00     0.135 A 
ATOM     84  C   UNL A   1      43.992  31.730  28.579  1.00  0.00     0.135 A 
ATOM     85  F   UNL A   1      47.527  31.105  29.123  1.00  0.00    -0.206 F 
ATOM     86  C   UNL A   1      46.475  32.519  27.602  1.00  0.00     0.059 A 
ATOM     87  C   UNL A   1      44.060  32.602  27.493  1.00  0.00     0.059 A 
ATOM     88  F   UNL A   1      42.776  31.333  28.988  1.00  0.00    -0.206 F 
ATOM     89  C   UNL A   1      45.307  32.999  27.015  1.00  0.00     0.060 A 
BRANCH  89  90
ATOM     90  S   UNL A   1      45.435  34.079  25.572  1.00  0.00     0.124 S 
ATOM     91  O   UNL A   1      44.739  33.308  24.548  1.00  0.00    -0.237 OA
ATOM     92  O   UNL A   1      44.758  35.292  26.022  1.00  0.00    -0.237 OA
ATOM     93  O   UNL A   1      46.876  34.218  25.377  1.00  0.00    -0.744 OA
ENDBRANCH  89  90
ENDBRANCH  57  82
ENDBRANCH  31  32
ENDBRANCH  23  26
ENDBRANCH   1  22
TORSDOF 14
ENDMDL
