MODEL 1
REMARK VINA RESULT:     -10.6      0.000      0.000
REMARK SMILES C[NH2+][C@@H](C)c1ccc(SCc2ccc(C(=O)NCCCCNC(=O)c3ccc(-c4c5nc(c(-c6c(F)cc(S(=O)(=O)[O-])cc6F)c6ccc([nH]6)c(-c6c(F)cc(S(=O)(=O)[O-])cc6F)c6nc(c(-c7c(F)cc(S(=O)(=O)[O-])cc7F)c7ccc4[nH]7)C=C6)C=C5)cc3)cc2)cc1
REMARK SMILES IDX 18 1 17 2 15 3 16 4 14 6 11 7 12 8 92 9 13 10 91 11 10 12
REMARK SMILES IDX 9 13 8 14 5 15 6 16 94 17 7 18 93 19 3 20 4 21 2 22 1 23
REMARK SMILES IDX 19 26 20 27 21 28 22 29 23 30 24 32 25 33 26 34 90 35 27 36
REMARK SMILES IDX 89 37 28 38 29 39 30 40 83 41 31 42 88 43 82 44 84 45 32 46
REMARK SMILES IDX 87 47 81 48 80 49 33 51 67 52 46 53 66 54 47 55 50 56 65 57
REMARK SMILES IDX 85 58 48 59 49 60 64 62 86 63 51 64 34 65 35 66 44 67 36 68
REMARK SMILES IDX 37 69 43 70 45 71 38 72 39 73 40 74 41 75 42 76 68 77 69 78
REMARK SMILES IDX 78 79 70 80 71 81 77 82 79 83 72 84 73 85 74 86 75 87 76 88
REMARK SMILES IDX 52 89 53 90 62 91 54 92 55 93 61 94 63 95 56 96 57 97 58 98
REMARK SMILES IDX 59 99 60 100
REMARK H PARENT 17 5 2 24 2 25 22 31 84 50 50 61
REMARK Flexibility Score: inf
ROOT
ATOM      1  C   UNL A   1      43.431  22.089  26.997  1.00  0.00     0.116 C 
ENDROOT
BRANCH   1   2
ATOM      2  N   UNL A   1      42.659  20.953  27.458  1.00  0.00    -0.352 N 
ATOM      3  C   UNL A   1      41.311  20.698  27.471  1.00  0.00     0.251 C 
ATOM      4  O   UNL A   1      40.950  19.598  27.895  1.00  0.00    -0.269 OA
ATOM      5  H   UNL A   1      43.205  20.227  27.836  1.00  0.00     0.163 HD
BRANCH   3   6
ATOM      6  C   UNL A   1      40.272  21.652  26.982  1.00  0.00     0.039 A 
ATOM      7  C   UNL A   1      38.132  23.291  26.069  1.00  0.00    -0.038 A 
ATOM      8  C   UNL A   1      38.214  21.938  25.702  1.00  0.00     0.005 A 
ATOM      9  C   UNL A   1      39.172  23.818  26.835  1.00  0.00     0.005 A 
ATOM     10  C   UNL A   1      39.273  21.135  26.145  1.00  0.00     0.014 A 
ATOM     11  C   UNL A   1      40.189  22.998  27.333  1.00  0.00     0.014 A 
BRANCH   7  12
ATOM     12  C   UNL A   1      36.915  24.080  25.640  1.00  0.00     0.110 C 
BRANCH  12  13
ATOM     13  S   UNL A   1      35.903  23.471  24.246  1.00  0.00    -0.121 SA
BRANCH  13  14
ATOM     14  C   UNL A   1      34.403  24.449  24.300  1.00  0.00     0.008 A 
ATOM     15  C   UNL A   1      32.040  25.994  24.610  1.00  0.00     0.009 A 
ATOM     16  C   UNL A   1      32.952  25.856  25.664  1.00  0.00     0.011 A 
ATOM     17  C   UNL A   1      32.316  25.318  23.411  1.00  0.00     0.011 A 
ATOM     18  C   UNL A   1      34.121  25.103  25.506  1.00  0.00     0.015 A 
ATOM     19  C   UNL A   1      33.491  24.571  23.250  1.00  0.00     0.015 A 
BRANCH  15  20
ATOM     20  C   UNL A   1      30.771  26.835  24.721  1.00  0.00     0.210 C 
ATOM     21  C   UNL A   1      29.859  26.685  23.494  1.00  0.00     0.081 C 
BRANCH  20  22
ATOM     22  N   UNL A   1      31.128  28.232  24.993  1.00  0.00    -0.343 N 
ATOM     23  C   UNL A   1      31.540  28.964  23.802  1.00  0.00     0.331 C 
ATOM     24  H   UNL A   1      30.317  28.701  25.396  1.00  0.00     0.346 HD
ATOM     25  H   UNL A   1      31.923  28.223  25.631  1.00  0.00     0.346 HD
ENDBRANCH  20  22
ENDBRANCH  15  20
ENDBRANCH  13  14
ENDBRANCH  12  13
ENDBRANCH   7  12
ENDBRANCH   3   6
ENDBRANCH   1   2
BRANCH   1  26
ATOM     26  C   UNL A   1      43.836  22.989  28.169  1.00  0.00     0.023 C 
BRANCH  26  27
ATOM     27  C   UNL A   1      45.144  23.751  27.951  1.00  0.00     0.023 C 
BRANCH  27  28
ATOM     28  C   UNL A   1      44.980  25.124  27.307  1.00  0.00     0.116 C 
BRANCH  28  29
ATOM     29  N   UNL A   1      44.108  25.113  26.143  1.00  0.00    -0.352 N 
ATOM     30  C   UNL A   1      42.910  25.769  25.974  1.00  0.00     0.251 C 
ATOM     31  H   UNL A   1      44.414  24.570  25.380  1.00  0.00     0.163 HD
ATOM     32  O   UNL A   1      42.235  25.580  24.973  1.00  0.00    -0.269 OA
BRANCH  30  33
ATOM     33  C   UNL A   1      42.432  26.665  27.048  1.00  0.00     0.039 A 
ATOM     34  C   UNL A   1      41.615  26.136  28.049  1.00  0.00     0.014 A 
ATOM     35  C   UNL A   1      42.832  28.004  27.092  1.00  0.00     0.014 A 
ATOM     36  C   UNL A   1      41.253  26.935  29.135  1.00  0.00     0.010 A 
ATOM     37  C   UNL A   1      42.524  28.778  28.206  1.00  0.00     0.010 A 
ATOM     38  C   UNL A   1      41.735  28.250  29.240  1.00  0.00    -0.014 A 
BRANCH  38  39
ATOM     39  C   UNL A   1      41.434  29.087  30.428  1.00  0.00     0.031 A 
ATOM     40  C   UNL A   1      42.251  28.935  31.682  1.00  0.00     0.074 A 
ATOM     41  C   UNL A   1      40.382  29.929  30.399  1.00  0.00     0.049 A 
ATOM     42  N   UNL A   1      42.095  29.516  32.842  1.00  0.00    -0.248 NA
ATOM     43  C   UNL A   1      43.374  27.985  31.632  1.00  0.00     0.031 C 
ATOM     44  C   UNL A   1      39.481  30.121  29.258  1.00  0.00     0.029 A 
ATOM     45  N   UNL A   1      39.881  30.771  31.359  1.00  0.00    -0.354 N 
ATOM     46  C   UNL A   1      43.084  28.992  33.664  1.00  0.00     0.074 A 
ATOM     47  C   UNL A   1      43.809  28.012  32.884  1.00  0.00     0.031 C 
ATOM     48  C   UNL A   1      38.551  31.034  29.581  1.00  0.00     0.029 A 
ATOM     49  C   UNL A   1      38.766  31.469  30.956  1.00  0.00     0.049 A 
ATOM     50  H   UNL A   1      40.282  30.868  32.253  1.00  0.00     0.167 HD
ATOM     51  C   UNL A   1      43.376  29.315  34.947  1.00  0.00     0.037 A 
ATOM     52  C   UNL A   1      38.001  32.355  31.625  1.00  0.00     0.037 A 
ATOM     53  C   UNL A   1      42.675  30.317  35.705  1.00  0.00     0.049 A 
ATOM     54  C   UNL A   1      38.362  32.711  33.041  1.00  0.00     0.074 A 
ATOM     55  C   UNL A   1      42.939  30.765  36.989  1.00  0.00     0.029 A 
ATOM     56  N   UNL A   1      41.577  31.031  35.250  1.00  0.00    -0.354 N 
ATOM     57  N   UNL A   1      39.344  32.254  33.781  1.00  0.00    -0.248 NA
ATOM     58  C   UNL A   1      37.516  33.707  33.713  1.00  0.00     0.031 C 
ATOM     59  C   UNL A   1      41.979  31.726  37.321  1.00  0.00     0.029 A 
ATOM     60  C   UNL A   1      41.142  31.906  36.231  1.00  0.00     0.049 A 
ATOM     61  H   UNL A   1      41.166  30.931  34.361  1.00  0.00     0.167 HD
ATOM     62  C   UNL A   1      39.251  32.927  34.994  1.00  0.00     0.074 A 
ATOM     63  C   UNL A   1      38.124  33.830  34.885  1.00  0.00     0.031 C 
ATOM     64  C   UNL A   1      40.028  32.808  36.098  1.00  0.00     0.037 A 
BRANCH  51  65
ATOM     65  C   UNL A   1      44.512  28.588  35.610  1.00  0.00     0.058 A 
ATOM     66  C   UNL A   1      44.302  27.404  36.334  1.00  0.00     0.135 A 
ATOM     67  C   UNL A   1      45.831  29.050  35.476  1.00  0.00     0.135 A 
ATOM     68  F   UNL A   1      43.058  26.929  36.508  1.00  0.00    -0.206 F 
ATOM     69  C   UNL A   1      45.358  26.711  36.918  1.00  0.00     0.059 A 
ATOM     70  C   UNL A   1      46.906  28.360  36.030  1.00  0.00     0.059 A 
ATOM     71  F   UNL A   1      46.087  30.178  34.797  1.00  0.00    -0.206 F 
ATOM     72  C   UNL A   1      46.658  27.196  36.758  1.00  0.00     0.060 A 
BRANCH  72  73
ATOM     73  S   UNL A   1      48.019  26.273  37.502  1.00  0.00     0.124 S 
ATOM     74  O   UNL A   1      48.973  26.224  36.399  1.00  0.00    -0.237 OA
ATOM     75  O   UNL A   1      48.394  27.122  38.628  1.00  0.00    -0.237 OA
ATOM     76  O   UNL A   1      47.408  24.997  37.860  1.00  0.00    -0.744 OA
ENDBRANCH  72  73
ENDBRANCH  51  65
BRANCH  52  77
ATOM     77  C   UNL A   1      36.830  32.983  30.959  1.00  0.00     0.058 A 
ATOM     78  C   UNL A   1      37.004  33.960  29.968  1.00  0.00     0.135 A 
ATOM     79  C   UNL A   1      35.517  32.627  31.302  1.00  0.00     0.135 A 
ATOM     80  F   UNL A   1      38.240  34.338  29.608  1.00  0.00    -0.206 F 
ATOM     81  C   UNL A   1      35.919  34.583  29.359  1.00  0.00     0.059 A 
ATOM     82  C   UNL A   1      34.415  33.218  30.691  1.00  0.00     0.059 A 
ATOM     83  F   UNL A   1      35.298  31.683  32.231  1.00  0.00    -0.206 F 
ATOM     84  C   UNL A   1      34.627  34.206  29.730  1.00  0.00     0.060 A 
BRANCH  84  85
ATOM     85  S   UNL A   1      33.223  34.999  28.915  1.00  0.00     0.124 S 
ATOM     86  O   UNL A   1      32.302  35.179  30.030  1.00  0.00    -0.237 OA
ATOM     87  O   UNL A   1      33.825  36.216  28.379  1.00  0.00    -0.237 OA
ATOM     88  O   UNL A   1      32.821  34.015  27.915  1.00  0.00    -0.744 OA
ENDBRANCH  84  85
ENDBRANCH  52  77
BRANCH  64  89
ATOM     89  C   UNL A   1      39.712  33.702  37.264  1.00  0.00     0.058 A 
ATOM     90  C   UNL A   1      38.767  33.340  38.235  1.00  0.00     0.135 A 
ATOM     91  C   UNL A   1      40.407  34.911  37.440  1.00  0.00     0.135 A 
ATOM     92  F   UNL A   1      38.072  32.198  38.110  1.00  0.00    -0.206 F 
ATOM     93  C   UNL A   1      38.503  34.156  39.331  1.00  0.00     0.059 A 
ATOM     94  C   UNL A   1      40.178  35.729  38.540  1.00  0.00     0.059 A 
ATOM     95  F   UNL A   1      41.329  35.296  36.544  1.00  0.00    -0.206 F 
ATOM     96  C   UNL A   1      39.215  35.349  39.475  1.00  0.00     0.060 A 
BRANCH  96  97
ATOM     97  S   UNL A   1      38.893  36.381  40.921  1.00  0.00     0.124 S 
ATOM     98  O   UNL A   1      38.014  35.521  41.705  1.00  0.00    -0.237 OA
ATOM     99  O   UNL A   1      40.232  36.585  41.466  1.00  0.00    -0.237 OA
ATOM    100  O   UNL A   1      38.267  37.572  40.354  1.00  0.00    -0.744 OA
ENDBRANCH  96  97
ENDBRANCH  64  89
ENDBRANCH  38  39
ENDBRANCH  30  33
ENDBRANCH  28  29
ENDBRANCH  27  28
ENDBRANCH  26  27
ENDBRANCH   1  26
TORSDOF 19
ENDMDL
MODEL 2
REMARK VINA RESULT:     -10.3      5.791     12.274
REMARK SMILES C[NH2+][C@@H](C)c1ccc(SCc2ccc(C(=O)NCCCCNC(=O)c3ccc(-c4c5nc(c(-c6c(F)cc(S(=O)(=O)[O-])cc6F)c6ccc([nH]6)c(-c6c(F)cc(S(=O)(=O)[O-])cc6F)c6nc(c(-c7c(F)cc(S(=O)(=O)[O-])cc7F)c7ccc4[nH]7)C=C6)C=C5)cc3)cc2)cc1
REMARK SMILES IDX 18 1 17 2 15 3 16 4 14 6 11 7 12 8 92 9 13 10 91 11 10 12
REMARK SMILES IDX 9 13 8 14 5 15 6 16 94 17 7 18 93 19 3 20 4 21 2 22 1 23
REMARK SMILES IDX 19 26 20 27 21 28 22 29 23 30 24 32 25 33 26 34 90 35 27 36
REMARK SMILES IDX 89 37 28 38 29 39 30 40 83 41 31 42 88 43 82 44 84 45 32 46
REMARK SMILES IDX 87 47 81 48 80 49 33 51 67 52 46 53 66 54 47 55 50 56 65 57
REMARK SMILES IDX 85 58 48 59 49 60 64 62 86 63 51 64 34 65 35 66 44 67 36 68
REMARK SMILES IDX 37 69 43 70 45 71 38 72 39 73 40 74 41 75 42 76 68 77 69 78
REMARK SMILES IDX 78 79 70 80 71 81 77 82 79 83 72 84 73 85 74 86 75 87 76 88
REMARK SMILES IDX 52 89 53 90 62 91 54 92 55 93 61 94 63 95 56 96 57 97 58 98
REMARK SMILES IDX 59 99 60 100
REMARK H PARENT 17 5 2 24 2 25 22 31 84 50 50 61
REMARK Flexibility Score: inf
ROOT
ATOM      1  C   UNL A   1      36.497  29.701  27.205  1.00  0.00     0.116 C 
ENDROOT
BRANCH   1   2
ATOM      2  N   UNL A   1      35.334  30.560  27.311  1.00  0.00    -0.352 N 
ATOM      3  C   UNL A   1      33.989  30.304  27.224  1.00  0.00     0.251 C 
ATOM      4  O   UNL A   1      33.223  31.254  27.405  1.00  0.00    -0.269 OA
ATOM      5  H   UNL A   1      35.551  31.505  27.475  1.00  0.00     0.163 HD
BRANCH   3   6
ATOM      6  C   UNL A   1      33.407  28.957  26.952  1.00  0.00     0.039 A 
ATOM      7  C   UNL A   1      32.083  26.498  26.402  1.00  0.00    -0.038 A 
ATOM      8  C   UNL A   1      31.450  27.511  27.138  1.00  0.00     0.005 A 
ATOM      9  C   UNL A   1      33.407  26.711  26.014  1.00  0.00     0.005 A 
ATOM     10  C   UNL A   1      32.105  28.717  27.415  1.00  0.00     0.014 A 
ATOM     11  C   UNL A   1      34.033  27.942  26.231  1.00  0.00     0.014 A 
BRANCH   7  12
ATOM     12  C   UNL A   1      31.289  25.259  26.052  1.00  0.00     0.110 C 
BRANCH  12  13
ATOM     13  S   UNL A   1      31.397  24.580  24.359  1.00  0.00    -0.121 SA
BRANCH  13  14
ATOM     14  C   UNL A   1      32.016  22.911  24.568  1.00  0.00     0.008 A 
ATOM     15  C   UNL A   1      33.106  20.340  25.081  1.00  0.00     0.009 A 
ATOM     16  C   UNL A   1      33.090  21.325  26.076  1.00  0.00     0.011 A 
ATOM     17  C   UNL A   1      32.598  20.676  23.816  1.00  0.00     0.011 A 
ATOM     18  C   UNL A   1      32.542  22.588  25.825  1.00  0.00     0.015 A 
ATOM     19  C   UNL A   1      32.041  21.939  23.567  1.00  0.00     0.015 A 
BRANCH  15  20
ATOM     20  C   UNL A   1      33.657  18.936  25.317  1.00  0.00     0.210 C 
ATOM     21  C   UNL A   1      34.016  18.218  24.008  1.00  0.00     0.081 C 
BRANCH  20  22
ATOM     22  N   UNL A   1      32.715  18.169  26.142  1.00  0.00    -0.343 N 
ATOM     23  C   UNL A   1      32.664  16.755  25.795  1.00  0.00     0.331 C 
ATOM     24  H   UNL A   1      32.998  18.253  27.118  1.00  0.00     0.346 HD
ATOM     25  H   UNL A   1      31.786  18.554  25.976  1.00  0.00     0.346 HD
ENDBRANCH  20  22
ENDBRANCH  15  20
ENDBRANCH  13  14
ENDBRANCH  12  13
ENDBRANCH   7  12
ENDBRANCH   3   6
ENDBRANCH   1   2
BRANCH   1  26
ATOM     26  C   UNL A   1      37.068  29.378  28.590  1.00  0.00     0.023 C 
BRANCH  26  27
ATOM     27  C   UNL A   1      36.137  29.736  29.750  1.00  0.00     0.023 C 
BRANCH  27  28
ATOM     28  C   UNL A   1      36.715  29.466  31.136  1.00  0.00     0.116 C 
BRANCH  28  29
ATOM     29  N   UNL A   1      36.714  30.638  31.998  1.00  0.00    -0.352 N 
ATOM     30  C   UNL A   1      37.789  31.401  32.393  1.00  0.00     0.251 C 
ATOM     31  H   UNL A   1      35.835  30.920  32.341  1.00  0.00     0.163 HD
ATOM     32  O   UNL A   1      37.646  32.300  33.209  1.00  0.00    -0.269 OA
BRANCH  30  33
ATOM     33  C   UNL A   1      39.127  31.081  31.850  1.00  0.00     0.039 A 
ATOM     34  C   UNL A   1      39.995  30.307  32.622  1.00  0.00     0.014 A 
ATOM     35  C   UNL A   1      39.496  31.499  30.569  1.00  0.00     0.014 A 
ATOM     36  C   UNL A   1      41.213  29.892  32.079  1.00  0.00     0.010 A 
ATOM     37  C   UNL A   1      40.680  31.032  30.008  1.00  0.00     0.010 A 
ATOM     38  C   UNL A   1      41.548  30.221  30.755  1.00  0.00    -0.014 A 
BRANCH  38  39
ATOM     39  C   UNL A   1      42.797  29.718  30.131  1.00  0.00     0.031 A 
ATOM     40  C   UNL A   1      42.823  28.358  29.491  1.00  0.00     0.074 A 
ATOM     41  C   UNL A   1      43.922  30.458  30.206  1.00  0.00     0.049 A 
ATOM     42  N   UNL A   1      43.832  27.714  28.964  1.00  0.00    -0.248 NA
ATOM     43  C   UNL A   1      41.554  27.612  29.463  1.00  0.00     0.031 C 
ATOM     44  C   UNL A   1      44.033  31.769  30.852  1.00  0.00     0.029 A 
ATOM     45  N   UNL A   1      45.191  30.208  29.748  1.00  0.00    -0.354 N 
ATOM     46  C   UNL A   1      43.327  26.486  28.559  1.00  0.00     0.074 A 
ATOM     47  C   UNL A   1      41.932  26.454  28.940  1.00  0.00     0.031 C 
ATOM     48  C   UNL A   1      45.295  32.212  30.734  1.00  0.00     0.029 A 
ATOM     49  C   UNL A   1      46.089  31.208  30.034  1.00  0.00     0.049 A 
ATOM     50  H   UNL A   1      45.434  29.389  29.259  1.00  0.00     0.167 HD
ATOM     51  C   UNL A   1      43.964  25.483  27.908  1.00  0.00     0.037 A 
ATOM     52  C   UNL A   1      47.408  31.301  29.768  1.00  0.00     0.037 A 
ATOM     53  C   UNL A   1      45.342  25.537  27.498  1.00  0.00     0.049 A 
ATOM     54  C   UNL A   1      48.085  30.183  29.024  1.00  0.00     0.074 A 
ATOM     55  C   UNL A   1      46.060  24.601  26.773  1.00  0.00     0.029 A 
ATOM     56  N   UNL A   1      46.210  26.583  27.771  1.00  0.00    -0.354 N 
ATOM     57  N   UNL A   1      47.574  29.055  28.589  1.00  0.00    -0.248 NA
ATOM     58  C   UNL A   1      49.514  30.349  28.729  1.00  0.00     0.031 C 
ATOM     59  C   UNL A   1      47.372  25.067  26.637  1.00  0.00     0.029 A 
ATOM     60  C   UNL A   1      47.461  26.311  27.242  1.00  0.00     0.049 A 
ATOM     61  H   UNL A   1      45.973  27.399  28.268  1.00  0.00     0.167 HD
ATOM     62  C   UNL A   1      48.612  28.392  27.944  1.00  0.00     0.074 A 
ATOM     63  C   UNL A   1      49.776  29.248  28.037  1.00  0.00     0.031 C 
ATOM     64  C   UNL A   1      48.603  27.183  27.331  1.00  0.00     0.037 A 
BRANCH  51  65
ATOM     65  C   UNL A   1      43.174  24.247  27.584  1.00  0.00     0.058 A 
ATOM     66  C   UNL A   1      42.444  24.134  26.390  1.00  0.00     0.135 A 
ATOM     67  C   UNL A   1      43.191  23.140  28.449  1.00  0.00     0.135 A 
ATOM     68  F   UNL A   1      42.381  25.169  25.536  1.00  0.00    -0.206 F 
ATOM     69  C   UNL A   1      41.743  22.976  26.073  1.00  0.00     0.059 A 
ATOM     70  C   UNL A   1      42.516  21.962  28.140  1.00  0.00     0.059 A 
ATOM     71  F   UNL A   1      43.870  23.196  29.605  1.00  0.00    -0.206 F 
ATOM     72  C   UNL A   1      41.787  21.893  26.953  1.00  0.00     0.060 A 
BRANCH  72  73
ATOM     73  S   UNL A   1      40.891  20.389  26.515  1.00  0.00     0.124 S 
ATOM     74  O   UNL A   1      40.795  19.720  27.809  1.00  0.00    -0.237 OA
ATOM     75  O   UNL A   1      39.639  20.916  25.980  1.00  0.00    -0.237 OA
ATOM     76  O   UNL A   1      41.764  19.746  25.539  1.00  0.00    -0.744 OA
ENDBRANCH  72  73
ENDBRANCH  51  65
BRANCH  52  77
ATOM     77  C   UNL A   1      48.173  32.505  30.188  1.00  0.00     0.058 A 
ATOM     78  C   UNL A   1      48.263  33.628  29.352  1.00  0.00     0.135 A 
ATOM     79  C   UNL A   1      48.832  32.556  31.425  1.00  0.00     0.135 A 
ATOM     80  F   UNL A   1      47.653  33.626  28.157  1.00  0.00    -0.206 F 
ATOM     81  C   UNL A   1      49.003  34.749  29.715  1.00  0.00     0.059 A 
ATOM     82  C   UNL A   1      49.558  33.675  31.822  1.00  0.00     0.059 A 
ATOM     83  F   UNL A   1      48.758  31.514  32.269  1.00  0.00    -0.206 F 
ATOM     84  C   UNL A   1      49.650  34.761  30.952  1.00  0.00     0.060 A 
BRANCH  84  85
ATOM     85  S   UNL A   1      50.584  36.232  31.429  1.00  0.00     0.124 S 
ATOM     86  O   UNL A   1      50.115  37.205  30.450  1.00  0.00    -0.237 OA
ATOM     87  O   UNL A   1      50.145  36.445  32.804  1.00  0.00    -0.237 OA
ATOM     88  O   UNL A   1      51.973  35.806  31.282  1.00  0.00    -0.744 OA
ENDBRANCH  84  85
ENDBRANCH  52  77
BRANCH  64  89
ATOM     89  C   UNL A   1      49.878  26.730  26.678  1.00  0.00     0.058 A 
ATOM     90  C   UNL A   1      50.800  25.915  27.350  1.00  0.00     0.135 A 
ATOM     91  C   UNL A   1      50.152  27.072  25.343  1.00  0.00     0.135 A 
ATOM     92  F   UNL A   1      50.588  25.565  28.629  1.00  0.00    -0.206 F 
ATOM     93  C   UNL A   1      51.963  25.470  26.729  1.00  0.00     0.059 A 
ATOM     94  C   UNL A   1      51.295  26.618  24.695  1.00  0.00     0.059 A 
ATOM     95  F   UNL A   1      49.295  27.841  24.654  1.00  0.00    -0.206 F 
ATOM     96  C   UNL A   1      52.200  25.826  25.400  1.00  0.00     0.060 A 
BRANCH  96  97
ATOM     97  S   UNL A   1      53.693  25.212  24.591  1.00  0.00     0.124 S 
ATOM     98  O   UNL A   1      53.424  25.536  23.194  1.00  0.00    -0.237 OA
ATOM     99  O   UNL A   1      54.744  25.996  25.233  1.00  0.00    -0.237 OA
ATOM    100  O   UNL A   1      53.695  23.789  24.918  1.00  0.00    -0.744 OA
ENDBRANCH  96  97
ENDBRANCH  64  89
ENDBRANCH  38  39
ENDBRANCH  30  33
ENDBRANCH  28  29
ENDBRANCH  27  28
ENDBRANCH  26  27
ENDBRANCH   1  26
TORSDOF 19
ENDMDL
MODEL 3
REMARK VINA RESULT:     -10.2      4.392      9.301
REMARK SMILES C[NH2+][C@@H](C)c1ccc(SCc2ccc(C(=O)NCCCCNC(=O)c3ccc(-c4c5nc(c(-c6c(F)cc(S(=O)(=O)[O-])cc6F)c6ccc([nH]6)c(-c6c(F)cc(S(=O)(=O)[O-])cc6F)c6nc(c(-c7c(F)cc(S(=O)(=O)[O-])cc7F)c7ccc4[nH]7)C=C6)C=C5)cc3)cc2)cc1
REMARK SMILES IDX 18 1 17 2 15 3 16 4 14 6 11 7 12 8 92 9 13 10 91 11 10 12
REMARK SMILES IDX 9 13 8 14 5 15 6 16 94 17 7 18 93 19 3 20 4 21 2 22 1 23
REMARK SMILES IDX 19 26 20 27 21 28 22 29 23 30 24 32 25 33 26 34 90 35 27 36
REMARK SMILES IDX 89 37 28 38 29 39 30 40 83 41 31 42 88 43 82 44 84 45 32 46
REMARK SMILES IDX 87 47 81 48 80 49 33 51 67 52 46 53 66 54 47 55 50 56 65 57
REMARK SMILES IDX 85 58 48 59 49 60 64 62 86 63 51 64 34 65 35 66 44 67 36 68
REMARK SMILES IDX 37 69 43 70 45 71 38 72 39 73 40 74 41 75 42 76 68 77 69 78
REMARK SMILES IDX 78 79 70 80 71 81 77 82 79 83 72 84 73 85 74 86 75 87 76 88
REMARK SMILES IDX 52 89 53 90 62 91 54 92 55 93 61 94 63 95 56 96 57 97 58 98
REMARK SMILES IDX 59 99 60 100
REMARK H PARENT 17 5 2 24 2 25 22 31 84 50 50 61
REMARK Flexibility Score: inf
ROOT
ATOM      1  C   UNL A   1      43.845  24.292  24.916  1.00  0.00     0.116 C 
ENDROOT
BRANCH   1   2
ATOM      2  N   UNL A   1      42.693  23.566  25.412  1.00  0.00    -0.352 N 
ATOM      3  C   UNL A   1      41.716  23.895  26.318  1.00  0.00     0.251 C 
ATOM      4  O   UNL A   1      40.820  23.068  26.504  1.00  0.00    -0.269 OA
ATOM      5  H   UNL A   1      42.593  22.667  25.027  1.00  0.00     0.163 HD
BRANCH   3   6
ATOM      6  C   UNL A   1      41.662  25.189  27.061  1.00  0.00     0.039 A 
ATOM      7  C   UNL A   1      41.334  27.682  28.394  1.00  0.00    -0.038 A 
ATOM      8  C   UNL A   1      40.794  27.468  27.115  1.00  0.00     0.005 A 
ATOM      9  C   UNL A   1      42.096  26.656  28.954  1.00  0.00     0.005 A 
ATOM     10  C   UNL A   1      40.964  26.244  26.457  1.00  0.00     0.014 A 
ATOM     11  C   UNL A   1      42.204  25.411  28.326  1.00  0.00     0.014 A 
BRANCH   7  12
ATOM     12  C   UNL A   1      41.034  28.989  29.092  1.00  0.00     0.110 C 
BRANCH  12  13
ATOM     13  S   UNL A   1      41.067  29.052  30.918  1.00  0.00    -0.121 SA
BRANCH  13  14
ATOM     14  C   UNL A   1      40.212  30.568  31.345  1.00  0.00     0.008 A 
ATOM     15  C   UNL A   1      38.965  33.069  31.850  1.00  0.00     0.009 A 
ATOM     16  C   UNL A   1      39.581  32.809  30.619  1.00  0.00     0.011 A 
ATOM     17  C   UNL A   1      39.014  32.068  32.834  1.00  0.00     0.011 A 
ATOM     18  C   UNL A   1      40.185  31.572  30.368  1.00  0.00     0.015 A 
ATOM     19  C   UNL A   1      39.612  30.826  32.578  1.00  0.00     0.015 A 
BRANCH  15  20
ATOM     20  C   UNL A   1      38.259  34.387  32.158  1.00  0.00     0.210 C 
ATOM     21  C   UNL A   1      38.001  34.577  33.660  1.00  0.00     0.081 C 
BRANCH  20  22
ATOM     22  N   UNL A   1      37.034  34.490  31.356  1.00  0.00    -0.343 N 
ATOM     23  C   UNL A   1      35.816  34.394  32.149  1.00  0.00     0.331 C 
ATOM     24  H   UNL A   1      37.037  35.389  30.874  1.00  0.00     0.346 HD
ATOM     25  H   UNL A   1      37.032  33.705  30.705  1.00  0.00     0.346 HD
ENDBRANCH  20  22
ENDBRANCH  15  20
ENDBRANCH  13  14
ENDBRANCH  12  13
ENDBRANCH   7  12
ENDBRANCH   3   6
ENDBRANCH   1   2
BRANCH   1  26
ATOM     26  C   UNL A   1      44.984  24.279  25.941  1.00  0.00     0.023 C 
BRANCH  26  27
ATOM     27  C   UNL A   1      46.379  24.149  25.327  1.00  0.00     0.023 C 
BRANCH  27  28
ATOM     28  C   UNL A   1      47.293  25.347  25.566  1.00  0.00     0.116 C 
BRANCH  28  29
ATOM     29  N   UNL A   1      47.442  26.199  24.396  1.00  0.00    -0.352 N 
ATOM     30  C   UNL A   1      47.046  27.508  24.244  1.00  0.00     0.251 C 
ATOM     31  H   UNL A   1      47.883  25.788  23.617  1.00  0.00     0.163 HD
ATOM     32  O   UNL A   1      47.147  28.065  23.161  1.00  0.00    -0.269 OA
BRANCH  30  33
ATOM     33  C   UNL A   1      46.451  28.210  25.401  1.00  0.00     0.039 A 
ATOM     34  C   UNL A   1      45.092  28.034  25.666  1.00  0.00     0.014 A 
ATOM     35  C   UNL A   1      47.242  28.995  26.245  1.00  0.00     0.014 A 
ATOM     36  C   UNL A   1      44.538  28.589  26.821  1.00  0.00     0.010 A 
ATOM     37  C   UNL A   1      46.704  29.493  27.426  1.00  0.00     0.010 A 
ATOM     38  C   UNL A   1      45.349  29.292  27.728  1.00  0.00    -0.014 A 
BRANCH  38  39
ATOM     39  C   UNL A   1      44.798  29.816  29.003  1.00  0.00     0.031 A 
ATOM     40  C   UNL A   1      44.301  31.233  29.082  1.00  0.00     0.074 A 
ATOM     41  C   UNL A   1      44.814  29.037  30.103  1.00  0.00     0.049 A 
ATOM     42  N   UNL A   1      43.859  31.895  30.119  1.00  0.00    -0.248 NA
ATOM     43  C   UNL A   1      44.331  32.018  27.837  1.00  0.00     0.031 C 
ATOM     44  C   UNL A   1      45.324  27.664  30.163  1.00  0.00     0.029 A 
ATOM     45  N   UNL A   1      44.403  29.291  31.387  1.00  0.00    -0.354 N 
ATOM     46  C   UNL A   1      43.575  33.174  29.659  1.00  0.00     0.074 A 
ATOM     47  C   UNL A   1      43.936  33.211  28.259  1.00  0.00     0.031 C 
ATOM     48  C   UNL A   1      45.179  27.195  31.413  1.00  0.00     0.029 A 
ATOM     49  C   UNL A   1      44.599  28.239  32.250  1.00  0.00     0.049 A 
ATOM     50  H   UNL A   1      44.005  30.148  31.665  1.00  0.00     0.167 HD
ATOM     51  C   UNL A   1      43.040  34.216  30.338  1.00  0.00     0.037 A 
ATOM     52  C   UNL A   1      44.344  28.131  33.569  1.00  0.00     0.037 A 
ATOM     53  C   UNL A   1      42.647  34.161  31.722  1.00  0.00     0.049 A 
ATOM     54  C   UNL A   1      43.729  29.298  34.294  1.00  0.00     0.074 A 
ATOM     55  C   UNL A   1      42.033  35.143  32.481  1.00  0.00     0.029 A 
ATOM     56  N   UNL A   1      42.824  33.065  32.552  1.00  0.00    -0.354 N 
ATOM     57  N   UNL A   1      43.405  30.480  33.825  1.00  0.00    -0.248 NA
ATOM     58  C   UNL A   1      43.440  29.117  35.723  1.00  0.00     0.031 C 
ATOM     59  C   UNL A   1      41.870  34.651  33.781  1.00  0.00     0.029 A 
ATOM     60  C   UNL A   1      42.345  33.349  33.820  1.00  0.00     0.049 A 
ATOM     61  H   UNL A   1      43.231  32.210  32.281  1.00  0.00     0.167 HD
ATOM     62  C   UNL A   1      42.847  31.172  34.895  1.00  0.00     0.074 A 
ATOM     63  C   UNL A   1      42.869  30.273  36.031  1.00  0.00     0.031 C 
ATOM     64  C   UNL A   1      42.361  32.437  34.934  1.00  0.00     0.037 A 
BRANCH  51  65
ATOM     65  C   UNL A   1      42.832  35.504  29.593  1.00  0.00     0.058 A 
ATOM     66  C   UNL A   1      43.759  36.556  29.672  1.00  0.00     0.135 A 
ATOM     67  C   UNL A   1      41.723  35.670  28.747  1.00  0.00     0.135 A 
ATOM     68  F   UNL A   1      44.827  36.456  30.479  1.00  0.00    -0.206 F 
ATOM     69  C   UNL A   1      43.585  37.734  28.953  1.00  0.00     0.059 A 
ATOM     70  C   UNL A   1      41.542  36.831  28.000  1.00  0.00     0.059 A 
ATOM     71  F   UNL A   1      40.805  34.697  28.638  1.00  0.00    -0.206 F 
ATOM     72  C   UNL A   1      42.474  37.862  28.118  1.00  0.00     0.060 A 
BRANCH  72  73
ATOM     73  S   UNL A   1      42.276  39.388  27.174  1.00  0.00     0.124 S 
ATOM     74  O   UNL A   1      43.570  39.486  26.506  1.00  0.00    -0.237 OA
ATOM     75  O   UNL A   1      41.140  39.077  26.313  1.00  0.00    -0.237 OA
ATOM     76  O   UNL A   1      42.023  40.392  28.202  1.00  0.00    -0.744 OA
ENDBRANCH  72  73
ENDBRANCH  51  65
BRANCH  52  77
ATOM     77  C   UNL A   1      44.651  26.867  34.290  1.00  0.00     0.058 A 
ATOM     78  C   UNL A   1      45.928  26.633  34.819  1.00  0.00     0.135 A 
ATOM     79  C   UNL A   1      43.680  25.869  34.458  1.00  0.00     0.135 A 
ATOM     80  F   UNL A   1      46.892  27.556  34.680  1.00  0.00    -0.206 F 
ATOM     81  C   UNL A   1      46.242  25.441  35.465  1.00  0.00     0.059 A 
ATOM     82  C   UNL A   1      43.961  24.679  35.122  1.00  0.00     0.059 A 
ATOM     83  F   UNL A   1      42.436  26.054  33.987  1.00  0.00    -0.206 F 
ATOM     84  C   UNL A   1      45.251  24.468  35.610  1.00  0.00     0.060 A 
BRANCH  84  85
ATOM     85  S   UNL A   1      45.658  22.936  36.476  1.00  0.00     0.124 S 
ATOM     86  O   UNL A   1      45.279  23.266  37.844  1.00  0.00    -0.237 OA
ATOM     87  O   UNL A   1      44.811  21.962  35.794  1.00  0.00    -0.237 OA
ATOM     88  O   UNL A   1      47.090  22.788  36.234  1.00  0.00    -0.744 OA
ENDBRANCH  84  85
ENDBRANCH  52  77
BRANCH  64  89
ATOM     89  C   UNL A   1      41.778  32.913  36.233  1.00  0.00     0.058 A 
ATOM     90  C   UNL A   1      42.531  33.664  37.148  1.00  0.00     0.135 A 
ATOM     91  C   UNL A   1      40.430  32.661  36.541  1.00  0.00     0.135 A 
ATOM     92  F   UNL A   1      43.825  33.927  36.904  1.00  0.00    -0.206 F 
ATOM     93  C   UNL A   1      41.975  34.132  38.335  1.00  0.00     0.059 A 
ATOM     94  C   UNL A   1      39.848  33.140  37.708  1.00  0.00     0.059 A 
ATOM     95  F   UNL A   1      39.665  31.956  35.693  1.00  0.00    -0.206 F 
ATOM     96  C   UNL A   1      40.632  33.865  38.605  1.00  0.00     0.060 A 
BRANCH  96  97
ATOM     97  S   UNL A   1      39.910  34.509  40.129  1.00  0.00     0.124 S 
ATOM     98  O   UNL A   1      39.489  35.843  39.713  1.00  0.00    -0.237 OA
ATOM     99  O   UNL A   1      38.835  33.558  40.395  1.00  0.00    -0.237 OA
ATOM    100  O   UNL A   1      41.022  34.468  41.075  1.00  0.00    -0.744 OA
ENDBRANCH  96  97
ENDBRANCH  64  89
ENDBRANCH  38  39
ENDBRANCH  30  33
ENDBRANCH  28  29
ENDBRANCH  27  28
ENDBRANCH  26  27
ENDBRANCH   1  26
TORSDOF 19
ENDMDL
