MODEL 1
REMARK VINA RESULT:     -11.7      0.000      0.000
REMARK SMILES O=C(NCCCCNC(=O)c1ccc(-c2c3nc(c(-c4c(F)cc(S(=O)(=O)[O-])cc4F)c4ccc([nH]4)c(-c4c(F)cc(S(=O)(=O)[O-])cc4F)c4nc(c(-c5c(F)cc(S(=O)(=O)[O-])cc5F)c5ccc2[nH]5)C=C4)C=C3)cc1)C1=Cc2cc(OC(F)(F)F)ccc2O[C@@H]1C(F)(F)F
REMARK SMILES IDX 6 1 5 2 4 3 3 4 1 5 2 6 77 8 78 9 91 10 79 11 90 12 80 13
REMARK SMILES IDX 89 14 81 15 88 16 87 17 92 18 93 19 94 20 95 21 82 22 83 23
REMARK SMILES IDX 84 24 85 25 86 26 7 27 8 28 9 29 10 31 11 32 12 33 76 34
REMARK SMILES IDX 13 35 75 36 14 37 15 38 16 39 69 40 17 41 74 42 68 43 70 44
REMARK SMILES IDX 18 45 73 46 67 47 66 48 19 50 53 51 32 52 52 53 33 54 36 55
REMARK SMILES IDX 51 56 71 57 34 58 35 59 50 61 72 62 37 63 20 64 21 65 30 66
REMARK SMILES IDX 22 67 23 68 29 69 31 70 24 71 25 72 26 73 27 74 28 75 54 76
REMARK SMILES IDX 55 77 64 78 56 79 57 80 63 81 65 82 58 83 59 84 60 85 61 86
REMARK SMILES IDX 62 87 38 88 39 89 48 90 40 91 41 92 47 93 49 94 42 95 43 96
REMARK SMILES IDX 44 97 45 98 46 99
REMARK H PARENT 3 7 8 30 70 49 36 60
REMARK Flexibility Score: inf
ROOT
ATOM      1  C   UNL A   1      32.295  28.855  26.361  1.00  0.00     0.023 C 
ENDROOT
BRANCH   1   2
ATOM      2  C   UNL A   1      31.486  27.575  26.599  1.00  0.00     0.023 C 
BRANCH   2   3
ATOM      3  C   UNL A   1      30.704  27.118  25.363  1.00  0.00     0.116 C 
BRANCH   3   4
ATOM      4  N   UNL A   1      30.477  25.670  25.315  1.00  0.00    -0.352 N 
ATOM      5  O   UNL A   1      31.093  23.479  25.342  1.00  0.00    -0.270 OA
ATOM      6  C   UNL A   1      31.372  24.648  25.111  1.00  0.00     0.251 C 
ATOM      7  H   UNL A   1      29.544  25.389  25.451  1.00  0.00     0.163 HD
BRANCH   6   8
ATOM      8  C   UNL A   1      32.702  25.029  24.613  1.00  0.00     0.067 C 
ATOM      9  C   UNL A   1      33.709  24.873  25.481  1.00  0.00     0.025 C 
ATOM     10  C   UNL A   1      32.888  25.159  23.133  1.00  0.00     0.314 C 
ATOM     11  C   UNL A   1      34.910  24.282  24.896  1.00  0.00     0.021 A 
ATOM     12  O   UNL A   1      33.972  24.334  22.631  1.00  0.00    -0.475 OA
ATOM     13  C   UNL A   1      35.849  23.725  25.768  1.00  0.00     0.058 A 
ATOM     14  C   UNL A   1      34.918  23.925  23.538  1.00  0.00     0.128 A 
ATOM     15  C   UNL A   1      36.699  22.717  25.317  1.00  0.00     0.130 A 
ATOM     16  C   UNL A   1      35.821  22.969  23.077  1.00  0.00     0.051 A 
ATOM     17  C   UNL A   1      36.693  22.344  23.971  1.00  0.00     0.050 A 
BRANCH  10  18
ATOM     18  C   UNL A   1      33.085  26.624  22.709  1.00  0.00     0.429 C 
ATOM     19  F   UNL A   1      33.615  27.356  23.721  1.00  0.00    -0.167 F 
ATOM     20  F   UNL A   1      33.934  26.743  21.661  1.00  0.00    -0.167 F 
ATOM     21  F   UNL A   1      31.922  27.220  22.354  1.00  0.00    -0.167 F 
ENDBRANCH  10  18
BRANCH  15  22
ATOM     22  O   UNL A   1      37.491  22.134  26.266  1.00  0.00    -0.406 OA
BRANCH  22  23
ATOM     23  C   UNL A   1      38.857  22.538  26.199  1.00  0.00     0.573 C 
ATOM     24  F   UNL A   1      39.441  22.456  27.416  1.00  0.00    -0.132 F 
ATOM     25  F   UNL A   1      39.525  21.783  25.307  1.00  0.00    -0.132 F 
ATOM     26  F   UNL A   1      38.899  23.825  25.792  1.00  0.00    -0.132 F 
ENDBRANCH  22  23
ENDBRANCH  15  22
ENDBRANCH   6   8
ENDBRANCH   3   4
ENDBRANCH   2   3
ENDBRANCH   1   2
BRANCH   1  27
ATOM     27  C   UNL A   1      33.514  29.053  27.260  1.00  0.00     0.116 C 
BRANCH  27  28
ATOM     28  N   UNL A   1      33.583  30.363  27.891  1.00  0.00    -0.352 N 
ATOM     29  C   UNL A   1      34.663  30.952  28.515  1.00  0.00     0.251 C 
ATOM     30  H   UNL A   1      32.755  30.895  27.869  1.00  0.00     0.163 HD
ATOM     31  O   UNL A   1      34.569  32.061  29.032  1.00  0.00    -0.269 OA
BRANCH  29  32
ATOM     32  C   UNL A   1      35.926  30.189  28.604  1.00  0.00     0.039 A 
ATOM     33  C   UNL A   1      36.788  30.179  27.505  1.00  0.00     0.014 A 
ATOM     34  C   UNL A   1      36.313  29.620  29.819  1.00  0.00     0.014 A 
ATOM     35  C   UNL A   1      38.091  29.697  27.656  1.00  0.00     0.010 A 
ATOM     36  C   UNL A   1      37.632  29.208  29.984  1.00  0.00     0.010 A 
ATOM     37  C   UNL A   1      38.542  29.266  28.914  1.00  0.00    -0.014 A 
BRANCH  37  38
ATOM     38  C   UNL A   1      39.962  28.896  29.162  1.00  0.00     0.031 A 
ATOM     39  C   UNL A   1      40.923  29.949  29.645  1.00  0.00     0.074 A 
ATOM     40  C   UNL A   1      40.412  27.668  28.827  1.00  0.00     0.049 A 
ATOM     41  N   UNL A   1      42.228  29.908  29.712  1.00  0.00    -0.248 NA
ATOM     42  C   UNL A   1      40.340  31.233  30.067  1.00  0.00     0.031 C 
ATOM     43  C   UNL A   1      39.592  26.574  28.298  1.00  0.00     0.029 A 
ATOM     44  N   UNL A   1      41.681  27.140  28.854  1.00  0.00    -0.354 N 
ATOM     45  C   UNL A   1      42.624  31.173  30.130  1.00  0.00     0.074 A 
ATOM     46  C   UNL A   1      41.423  31.966  30.279  1.00  0.00     0.031 C 
ATOM     47  C   UNL A   1      40.376  25.511  28.055  1.00  0.00     0.029 A 
ATOM     48  C   UNL A   1      41.759  25.854  28.366  1.00  0.00     0.049 A 
ATOM     49  H   UNL A   1      42.462  27.636  29.189  1.00  0.00     0.167 HD
ATOM     50  C   UNL A   1      43.875  31.626  30.377  1.00  0.00     0.037 A 
ATOM     51  C   UNL A   1      42.826  25.055  28.172  1.00  0.00     0.037 A 
ATOM     52  C   UNL A   1      45.055  30.809  30.306  1.00  0.00     0.049 A 
ATOM     53  C   UNL A   1      44.200  25.566  28.518  1.00  0.00     0.074 A 
ATOM     54  C   UNL A   1      46.355  31.148  30.636  1.00  0.00     0.029 A 
ATOM     55  N   UNL A   1      45.078  29.486  29.891  1.00  0.00    -0.354 N 
ATOM     56  N   UNL A   1      44.548  26.747  28.969  1.00  0.00    -0.248 NA
ATOM     57  C   UNL A   1      45.327  24.641  28.329  1.00  0.00     0.031 C 
ATOM     58  C   UNL A   1      47.170  30.037  30.397  1.00  0.00     0.029 A 
ATOM     59  C   UNL A   1      46.371  28.997  29.951  1.00  0.00     0.049 A 
ATOM     60  H   UNL A   1      44.291  28.972  29.598  1.00  0.00     0.167 HD
ATOM     61  C   UNL A   1      45.925  26.692  29.153  1.00  0.00     0.074 A 
ATOM     62  C   UNL A   1      46.349  25.364  28.766  1.00  0.00     0.031 C 
ATOM     63  C   UNL A   1      46.764  27.657  29.601  1.00  0.00     0.037 A 
BRANCH  50  64
ATOM     64  C   UNL A   1      44.040  33.067  30.767  1.00  0.00     0.058 A 
ATOM     65  C   UNL A   1      44.148  34.083  29.806  1.00  0.00     0.135 A 
ATOM     66  C   UNL A   1      44.020  33.442  32.121  1.00  0.00     0.135 A 
ATOM     67  F   UNL A   1      44.192  33.775  28.500  1.00  0.00    -0.206 F 
ATOM     68  C   UNL A   1      44.242  35.421  30.172  1.00  0.00     0.059 A 
ATOM     69  C   UNL A   1      44.087  34.776  32.509  1.00  0.00     0.059 A 
ATOM     70  F   UNL A   1      43.922  32.508  33.079  1.00  0.00    -0.206 F 
ATOM     71  C   UNL A   1      44.205  35.759  31.527  1.00  0.00     0.060 A 
BRANCH  71  72
ATOM     72  S   UNL A   1      44.285  37.503  31.984  1.00  0.00     0.124 S 
ATOM     73  O   UNL A   1      43.816  38.145  30.759  1.00  0.00    -0.237 OA
ATOM     74  O   UNL A   1      43.375  37.569  33.122  1.00  0.00    -0.237 OA
ATOM     75  O   UNL A   1      45.695  37.708  32.299  1.00  0.00    -0.744 OA
ENDBRANCH  71  72
ENDBRANCH  50  64
BRANCH  51  76
ATOM     76  C   UNL A   1      42.655  23.680  27.627  1.00  0.00     0.058 A 
ATOM     77  C   UNL A   1      42.521  22.577  28.484  1.00  0.00     0.135 A 
ATOM     78  C   UNL A   1      42.660  23.434  26.245  1.00  0.00     0.135 A 
ATOM     79  F   UNL A   1      42.516  22.761  29.814  1.00  0.00    -0.206 F 
ATOM     80  C   UNL A   1      42.435  21.277  27.996  1.00  0.00     0.059 A 
ATOM     81  C   UNL A   1      42.552  22.144  25.732  1.00  0.00     0.059 A 
ATOM     82  F   UNL A   1      42.767  24.455  25.380  1.00  0.00    -0.206 F 
ATOM     83  C   UNL A   1      42.459  21.071  26.617  1.00  0.00     0.060 A 
BRANCH  83  84
ATOM     84  S   UNL A   1      42.341  19.381  25.988  1.00  0.00     0.124 S 
ATOM     85  O   UNL A   1      40.916  19.277  25.699  1.00  0.00    -0.237 OA
ATOM     86  O   UNL A   1      43.227  19.419  24.829  1.00  0.00    -0.237 OA
ATOM     87  O   UNL A   1      42.821  18.575  27.107  1.00  0.00    -0.744 OA
ENDBRANCH  83  84
ENDBRANCH  51  76
BRANCH  63  88
ATOM     88  C   UNL A   1      48.214  27.302  29.762  1.00  0.00     0.058 A 
ATOM     89  C   UNL A   1      49.141  27.511  28.731  1.00  0.00     0.135 A 
ATOM     90  C   UNL A   1      48.692  26.834  30.996  1.00  0.00     0.135 A 
ATOM     91  F   UNL A   1      48.731  27.952  27.531  1.00  0.00    -0.206 F 
ATOM     92  C   UNL A   1      50.496  27.261  28.917  1.00  0.00     0.059 A 
ATOM     93  C   UNL A   1      50.045  26.597  31.211  1.00  0.00     0.059 A 
ATOM     94  F   UNL A   1      47.842  26.628  32.015  1.00  0.00    -0.206 F 
ATOM     95  C   UNL A   1      50.940  26.811  30.162  1.00  0.00     0.060 A 
BRANCH  95  96
ATOM     96  S   UNL A   1      52.709  26.554  30.414  1.00  0.00     0.124 S 
ATOM     97  O   UNL A   1      53.123  27.855  30.930  1.00  0.00    -0.237 OA
ATOM     98  O   UNL A   1      52.734  25.456  31.374  1.00  0.00    -0.237 OA
ATOM     99  O   UNL A   1      53.197  26.223  29.079  1.00  0.00    -0.744 OA
ENDBRANCH  95  96
ENDBRANCH  63  88
ENDBRANCH  37  38
ENDBRANCH  29  32
ENDBRANCH  27  28
ENDBRANCH   1  27
TORSDOF 17
ENDMDL
MODEL 2
REMARK VINA RESULT:     -11.5      1.523      3.606
REMARK SMILES O=C(NCCCCNC(=O)c1ccc(-c2c3nc(c(-c4c(F)cc(S(=O)(=O)[O-])cc4F)c4ccc([nH]4)c(-c4c(F)cc(S(=O)(=O)[O-])cc4F)c4nc(c(-c5c(F)cc(S(=O)(=O)[O-])cc5F)c5ccc2[nH]5)C=C4)C=C3)cc1)C1=Cc2cc(OC(F)(F)F)ccc2O[C@@H]1C(F)(F)F
REMARK SMILES IDX 6 1 5 2 4 3 3 4 1 5 2 6 77 8 78 9 91 10 79 11 90 12 80 13
REMARK SMILES IDX 89 14 81 15 88 16 87 17 92 18 93 19 94 20 95 21 82 22 83 23
REMARK SMILES IDX 84 24 85 25 86 26 7 27 8 28 9 29 10 31 11 32 12 33 76 34
REMARK SMILES IDX 13 35 75 36 14 37 15 38 16 39 69 40 17 41 74 42 68 43 70 44
REMARK SMILES IDX 18 45 73 46 67 47 66 48 19 50 53 51 32 52 52 53 33 54 36 55
REMARK SMILES IDX 51 56 71 57 34 58 35 59 50 61 72 62 37 63 20 64 21 65 30 66
REMARK SMILES IDX 22 67 23 68 29 69 31 70 24 71 25 72 26 73 27 74 28 75 54 76
REMARK SMILES IDX 55 77 64 78 56 79 57 80 63 81 65 82 58 83 59 84 60 85 61 86
REMARK SMILES IDX 62 87 38 88 39 89 48 90 40 91 41 92 47 93 49 94 42 95 43 96
REMARK SMILES IDX 44 97 45 98 46 99
REMARK H PARENT 3 7 8 30 70 49 36 60
REMARK Flexibility Score: inf
ROOT
ATOM      1  C   UNL A   1      31.745  28.231  27.468  1.00  0.00     0.023 C 
ENDROOT
BRANCH   1   2
ATOM      2  C   UNL A   1      31.371  27.074  26.535  1.00  0.00     0.023 C 
BRANCH   2   3
ATOM      3  C   UNL A   1      32.216  25.817  26.766  1.00  0.00     0.116 C 
BRANCH   3   4
ATOM      4  N   UNL A   1      31.448  24.571  26.676  1.00  0.00    -0.352 N 
ATOM      5  O   UNL A   1      30.856  22.567  25.772  1.00  0.00    -0.270 OA
ATOM      6  C   UNL A   1      31.326  23.688  25.630  1.00  0.00     0.251 C 
ATOM      7  H   UNL A   1      30.946  24.330  27.488  1.00  0.00     0.163 HD
BRANCH   6   8
ATOM      8  C   UNL A   1      31.807  24.152  24.320  1.00  0.00     0.067 C 
ATOM      9  C   UNL A   1      30.923  24.850  23.597  1.00  0.00     0.025 C 
ATOM     10  C   UNL A   1      33.285  24.172  24.080  1.00  0.00     0.314 C 
ATOM     11  C   UNL A   1      31.488  26.034  22.954  1.00  0.00     0.021 A 
ATOM     12  O   UNL A   1      33.766  25.478  23.668  1.00  0.00    -0.475 OA
ATOM     13  C   UNL A   1      30.600  27.021  22.517  1.00  0.00     0.058 A 
ATOM     14  C   UNL A   1      32.844  26.347  23.141  1.00  0.00     0.128 A 
ATOM     15  C   UNL A   1      31.034  28.340  22.402  1.00  0.00     0.130 A 
ATOM     16  C   UNL A   1      33.287  27.654  22.953  1.00  0.00     0.051 A 
ATOM     17  C   UNL A   1      32.378  28.658  22.611  1.00  0.00     0.050 A 
BRANCH  10  18
ATOM     18  C   UNL A   1      33.713  23.096  23.069  1.00  0.00     0.429 C 
ATOM     19  F   UNL A   1      33.107  23.286  21.870  1.00  0.00    -0.167 F 
ATOM     20  F   UNL A   1      35.046  23.117  22.834  1.00  0.00    -0.167 F 
ATOM     21  F   UNL A   1      33.397  21.845  23.480  1.00  0.00    -0.167 F 
ENDBRANCH  10  18
BRANCH  15  22
ATOM     22  O   UNL A   1      30.070  29.261  22.102  1.00  0.00    -0.406 OA
BRANCH  22  23
ATOM     23  C   UNL A   1      29.412  29.796  23.248  1.00  0.00     0.573 C 
ATOM     24  F   UNL A   1      28.119  29.402  23.286  1.00  0.00    -0.132 F 
ATOM     25  F   UNL A   1      30.050  29.420  24.372  1.00  0.00    -0.132 F 
ATOM     26  F   UNL A   1      29.445  31.144  23.165  1.00  0.00    -0.132 F 
ENDBRANCH  22  23
ENDBRANCH  15  22
ENDBRANCH   6   8
ENDBRANCH   3   4
ENDBRANCH   2   3
ENDBRANCH   1   2
BRANCH   1  27
ATOM     27  C   UNL A   1      33.111  28.871  27.226  1.00  0.00     0.116 C 
BRANCH  27  28
ATOM     28  N   UNL A   1      33.205  30.257  27.659  1.00  0.00    -0.352 N 
ATOM     29  C   UNL A   1      34.307  30.920  28.161  1.00  0.00     0.251 C 
ATOM     30  H   UNL A   1      32.380  30.789  27.585  1.00  0.00     0.163 HD
ATOM     31  O   UNL A   1      34.233  32.093  28.515  1.00  0.00    -0.269 OA
BRANCH  29  32
ATOM     32  C   UNL A   1      35.568  30.166  28.323  1.00  0.00     0.039 A 
ATOM     33  C   UNL A   1      36.463  30.109  27.251  1.00  0.00     0.014 A 
ATOM     34  C   UNL A   1      35.920  29.655  29.574  1.00  0.00     0.014 A 
ATOM     35  C   UNL A   1      37.762  29.639  27.463  1.00  0.00     0.010 A 
ATOM     36  C   UNL A   1      37.234  29.256  29.797  1.00  0.00     0.010 A 
ATOM     37  C   UNL A   1      38.176  29.267  28.753  1.00  0.00    -0.014 A 
BRANCH  37  38
ATOM     38  C   UNL A   1      39.588  28.914  29.060  1.00  0.00     0.031 A 
ATOM     39  C   UNL A   1      40.515  29.977  29.585  1.00  0.00     0.074 A 
ATOM     40  C   UNL A   1      40.067  27.692  28.742  1.00  0.00     0.049 A 
ATOM     41  N   UNL A   1      41.817  29.952  29.707  1.00  0.00    -0.248 NA
ATOM     42  C   UNL A   1      39.899  31.253  29.984  1.00  0.00     0.031 C 
ATOM     43  C   UNL A   1      39.283  26.590  28.177  1.00  0.00     0.029 A 
ATOM     44  N   UNL A   1      41.340  27.180  28.821  1.00  0.00    -0.354 N 
ATOM     45  C   UNL A   1      42.178  31.220  30.143  1.00  0.00     0.074 A 
ATOM     46  C   UNL A   1      40.963  31.999  30.243  1.00  0.00     0.031 C 
ATOM     47  C   UNL A   1      40.090  25.537  27.964  1.00  0.00     0.029 A 
ATOM     48  C   UNL A   1      41.454  25.896  28.334  1.00  0.00     0.049 A 
ATOM     49  H   UNL A   1      42.100  27.685  29.190  1.00  0.00     0.167 HD
ATOM     50  C   UNL A   1      43.412  31.689  30.444  1.00  0.00     0.037 A 
ATOM     51  C   UNL A   1      42.538  25.110  28.184  1.00  0.00     0.037 A 
ATOM     52  C   UNL A   1      44.605  30.885  30.421  1.00  0.00     0.049 A 
ATOM     53  C   UNL A   1      43.890  25.637  28.588  1.00  0.00     0.074 A 
ATOM     54  C   UNL A   1      45.885  31.240  30.806  1.00  0.00     0.029 A 
ATOM     55  N   UNL A   1      44.662  29.564  30.005  1.00  0.00    -0.354 N 
ATOM     56  N   UNL A   1      44.204  26.821  29.056  1.00  0.00    -0.248 NA
ATOM     57  C   UNL A   1      45.035  24.726  28.446  1.00  0.00     0.031 C 
ATOM     58  C   UNL A   1      46.723  30.139  30.600  1.00  0.00     0.029 A 
ATOM     59  C   UNL A   1      45.956  29.090  30.119  1.00  0.00     0.049 A 
ATOM     60  H   UNL A   1      43.894  29.041  29.678  1.00  0.00     0.167 HD
ATOM     61  C   UNL A   1      45.572  26.783  29.298  1.00  0.00     0.074 A 
ATOM     62  C   UNL A   1      46.029  25.460  28.927  1.00  0.00     0.031 C 
ATOM     63  C   UNL A   1      46.380  27.756  29.783  1.00  0.00     0.037 A 
BRANCH  50  64
ATOM     64  C   UNL A   1      43.544  33.130  30.843  1.00  0.00     0.058 A 
ATOM     65  C   UNL A   1      43.443  33.536  32.182  1.00  0.00     0.135 A 
ATOM     66  C   UNL A   1      43.845  34.108  29.881  1.00  0.00     0.135 A 
ATOM     67  F   UNL A   1      43.138  32.643  33.138  1.00  0.00    -0.206 F 
ATOM     68  C   UNL A   1      43.625  34.863  32.553  1.00  0.00     0.059 A 
ATOM     69  C   UNL A   1      44.055  35.437  30.233  1.00  0.00     0.059 A 
ATOM     70  F   UNL A   1      43.948  33.772  28.586  1.00  0.00    -0.206 F 
ATOM     71  C   UNL A   1      43.936  35.807  31.572  1.00  0.00     0.060 A 
BRANCH  71  72
ATOM     72  S   UNL A   1      44.210  37.518  32.076  1.00  0.00     0.124 S 
ATOM     73  O   UNL A   1      45.644  37.511  32.354  1.00  0.00    -0.237 OA
ATOM     74  O   UNL A   1      43.800  38.262  30.889  1.00  0.00    -0.237 OA
ATOM     75  O   UNL A   1      43.345  37.673  33.240  1.00  0.00    -0.744 OA
ENDBRANCH  71  72
ENDBRANCH  50  64
BRANCH  51  76
ATOM     76  C   UNL A   1      42.407  23.735  27.629  1.00  0.00     0.058 A 
ATOM     77  C   UNL A   1      42.311  22.622  28.480  1.00  0.00     0.135 A 
ATOM     78  C   UNL A   1      42.413  23.499  26.246  1.00  0.00     0.135 A 
ATOM     79  F   UNL A   1      42.306  22.796  29.810  1.00  0.00    -0.206 F 
ATOM     80  C   UNL A   1      42.263  21.323  27.982  1.00  0.00     0.059 A 
ATOM     81  C   UNL A   1      42.342  22.210  25.724  1.00  0.00     0.059 A 
ATOM     82  F   UNL A   1      42.484  24.529  25.388  1.00  0.00    -0.206 F 
ATOM     83  C   UNL A   1      42.287  21.128  26.601  1.00  0.00     0.060 A 
BRANCH  83  84
ATOM     84  S   UNL A   1      42.218  19.440  25.960  1.00  0.00     0.124 S 
ATOM     85  O   UNL A   1      43.110  19.529  24.810  1.00  0.00    -0.237 OA
ATOM     86  O   UNL A   1      42.708  18.658  27.090  1.00  0.00    -0.237 OA
ATOM     87  O   UNL A   1      40.802  19.259  25.651  1.00  0.00    -0.744 OA
ENDBRANCH  83  84
ENDBRANCH  51  76
BRANCH  63  88
ATOM     88  C   UNL A   1      47.826  27.419  30.004  1.00  0.00     0.058 A 
ATOM     89  C   UNL A   1      48.781  27.569  28.988  1.00  0.00     0.135 A 
ATOM     90  C   UNL A   1      48.272  27.028  31.277  1.00  0.00     0.135 A 
ATOM     91  F   UNL A   1      48.401  27.934  27.753  1.00  0.00    -0.206 F 
ATOM     92  C   UNL A   1      50.131  27.337  29.225  1.00  0.00     0.059 A 
ATOM     93  C   UNL A   1      49.619  26.812  31.542  1.00  0.00     0.059 A 
ATOM     94  F   UNL A   1      47.395  26.880  32.283  1.00  0.00    -0.206 F 
ATOM     95  C   UNL A   1      50.541  26.965  30.507  1.00  0.00     0.060 A 
BRANCH  95  96
ATOM     96  S   UNL A   1      52.304  26.733  30.822  1.00  0.00     0.124 S 
ATOM     97  O   UNL A   1      52.567  27.778  31.806  1.00  0.00    -0.237 OA
ATOM     98  O   UNL A   1      52.356  25.364  31.323  1.00  0.00    -0.237 OA
ATOM     99  O   UNL A   1      52.912  26.937  29.510  1.00  0.00    -0.744 OA
ENDBRANCH  95  96
ENDBRANCH  63  88
ENDBRANCH  37  38
ENDBRANCH  29  32
ENDBRANCH  27  28
ENDBRANCH   1  27
TORSDOF 17
ENDMDL
MODEL 3
REMARK VINA RESULT:     -11.4      5.096     10.678
REMARK SMILES O=C(NCCCCNC(=O)c1ccc(-c2c3nc(c(-c4c(F)cc(S(=O)(=O)[O-])cc4F)c4ccc([nH]4)c(-c4c(F)cc(S(=O)(=O)[O-])cc4F)c4nc(c(-c5c(F)cc(S(=O)(=O)[O-])cc5F)c5ccc2[nH]5)C=C4)C=C3)cc1)C1=Cc2cc(OC(F)(F)F)ccc2O[C@@H]1C(F)(F)F
REMARK SMILES IDX 6 1 5 2 4 3 3 4 1 5 2 6 77 8 78 9 91 10 79 11 90 12 80 13
REMARK SMILES IDX 89 14 81 15 88 16 87 17 92 18 93 19 94 20 95 21 82 22 83 23
REMARK SMILES IDX 84 24 85 25 86 26 7 27 8 28 9 29 10 31 11 32 12 33 76 34
REMARK SMILES IDX 13 35 75 36 14 37 15 38 16 39 69 40 17 41 74 42 68 43 70 44
REMARK SMILES IDX 18 45 73 46 67 47 66 48 19 50 53 51 32 52 52 53 33 54 36 55
REMARK SMILES IDX 51 56 71 57 34 58 35 59 50 61 72 62 37 63 20 64 21 65 30 66
REMARK SMILES IDX 22 67 23 68 29 69 31 70 24 71 25 72 26 73 27 74 28 75 54 76
REMARK SMILES IDX 55 77 64 78 56 79 57 80 63 81 65 82 58 83 59 84 60 85 61 86
REMARK SMILES IDX 62 87 38 88 39 89 48 90 40 91 41 92 47 93 49 94 42 95 43 96
REMARK SMILES IDX 44 97 45 98 46 99
REMARK H PARENT 3 7 8 30 70 49 36 60
REMARK Flexibility Score: inf
ROOT
ATOM      1  C   UNL A   1      37.508  23.684  25.037  1.00  0.00     0.023 C 
ENDROOT
BRANCH   1   2
ATOM      2  C   UNL A   1      37.113  22.262  24.623  1.00  0.00     0.023 C 
BRANCH   2   3
ATOM      3  C   UNL A   1      35.597  22.044  24.585  1.00  0.00     0.116 C 
BRANCH   3   4
ATOM      4  N   UNL A   1      34.933  22.735  23.474  1.00  0.00    -0.352 N 
ATOM      5  O   UNL A   1      33.897  24.484  22.451  1.00  0.00    -0.270 OA
ATOM      6  C   UNL A   1      34.181  23.885  23.480  1.00  0.00     0.251 C 
ATOM      7  H   UNL A   1      35.045  22.312  22.593  1.00  0.00     0.163 HD
BRANCH   6   8
ATOM      8  C   UNL A   1      33.743  24.378  24.795  1.00  0.00     0.067 C 
ATOM      9  C   UNL A   1      34.399  25.450  25.254  1.00  0.00     0.025 C 
ATOM     10  C   UNL A   1      32.407  23.933  25.303  1.00  0.00     0.314 C 
ATOM     11  C   UNL A   1      33.532  26.462  25.852  1.00  0.00     0.021 A 
ATOM     12  O   UNL A   1      31.542  25.047  25.645  1.00  0.00    -0.475 OA
ATOM     13  C   UNL A   1      34.048  27.753  25.999  1.00  0.00     0.058 A 
ATOM     14  C   UNL A   1      32.144  26.256  25.888  1.00  0.00     0.128 A 
ATOM     15  C   UNL A   1      33.182  28.843  26.041  1.00  0.00     0.130 A 
ATOM     16  C   UNL A   1      31.283  27.346  26.004  1.00  0.00     0.051 A 
ATOM     17  C   UNL A   1      31.800  28.642  26.052  1.00  0.00     0.050 A 
BRANCH  10  18
ATOM     18  C   UNL A   1      32.541  22.970  26.493  1.00  0.00     0.429 C 
ATOM     19  F   UNL A   1      32.436  21.679  26.088  1.00  0.00    -0.167 F 
ATOM     20  F   UNL A   1      33.740  23.083  27.110  1.00  0.00    -0.167 F 
ATOM     21  F   UNL A   1      31.585  23.171  27.432  1.00  0.00    -0.167 F 
ENDBRANCH  10  18
BRANCH  15  22
ATOM     22  O   UNL A   1      33.773  30.076  26.048  1.00  0.00    -0.406 OA
BRANCH  22  23
ATOM     23  C   UNL A   1      34.028  30.581  27.357  1.00  0.00     0.573 C 
ATOM     24  F   UNL A   1      32.875  30.930  27.969  1.00  0.00    -0.132 F 
ATOM     25  F   UNL A   1      34.691  29.668  28.091  1.00  0.00    -0.132 F 
ATOM     26  F   UNL A   1      34.801  31.684  27.243  1.00  0.00    -0.132 F 
ENDBRANCH  22  23
ENDBRANCH  15  22
ENDBRANCH   6   8
ENDBRANCH   3   4
ENDBRANCH   2   3
ENDBRANCH   1   2
BRANCH   1  27
ATOM     27  C   UNL A   1      38.326  23.805  26.321  1.00  0.00     0.116 C 
BRANCH  27  28
ATOM     28  N   UNL A   1      39.757  23.608  26.137  1.00  0.00    -0.352 N 
ATOM     29  C   UNL A   1      40.792  24.378  26.623  1.00  0.00     0.251 C 
ATOM     30  H   UNL A   1      40.018  22.827  25.598  1.00  0.00     0.163 HD
ATOM     31  O   UNL A   1      41.961  24.106  26.364  1.00  0.00    -0.269 OA
BRANCH  29  32
ATOM     32  C   UNL A   1      40.461  25.582  27.415  1.00  0.00     0.039 A 
ATOM     33  C   UNL A   1      39.524  25.475  28.446  1.00  0.00     0.014 A 
ATOM     34  C   UNL A   1      41.189  26.759  27.233  1.00  0.00     0.014 A 
ATOM     35  C   UNL A   1      39.394  26.516  29.370  1.00  0.00     0.010 A 
ATOM     36  C   UNL A   1      41.108  27.762  28.195  1.00  0.00     0.010 A 
ATOM     37  C   UNL A   1      40.231  27.640  29.287  1.00  0.00    -0.014 A 
BRANCH  37  38
ATOM     38  C   UNL A   1      40.243  28.697  30.335  1.00  0.00     0.031 A 
ATOM     39  C   UNL A   1      41.146  28.539  31.529  1.00  0.00     0.074 A 
ATOM     40  C   UNL A   1      39.357  29.714  30.283  1.00  0.00     0.049 A 
ATOM     41  N   UNL A   1      41.157  29.211  32.651  1.00  0.00    -0.248 NA
ATOM     42  C   UNL A   1      42.138  27.454  31.468  1.00  0.00     0.031 C 
ATOM     43  C   UNL A   1      38.391  29.950  29.206  1.00  0.00     0.029 A 
ATOM     44  N   UNL A   1      39.103  30.727  31.176  1.00  0.00    -0.354 N 
ATOM     45  C   UNL A   1      42.115  28.596  33.448  1.00  0.00     0.074 A 
ATOM     46  C   UNL A   1      42.648  27.484  32.691  1.00  0.00     0.031 C 
ATOM     47  C   UNL A   1      37.656  31.035  29.500  1.00  0.00     0.029 A 
ATOM     48  C   UNL A   1      38.062  31.550  30.803  1.00  0.00     0.049 A 
ATOM     49  H   UNL A   1      39.616  30.853  32.007  1.00  0.00     0.167 HD
ATOM     50  C   UNL A   1      42.520  28.936  34.693  1.00  0.00     0.037 A 
ATOM     51  C   UNL A   1      37.489  32.585  31.448  1.00  0.00     0.037 A 
ATOM     52  C   UNL A   1      42.044  30.091  35.406  1.00  0.00     0.049 A 
ATOM     53  C   UNL A   1      38.006  32.981  32.807  1.00  0.00     0.074 A 
ATOM     54  C   UNL A   1      42.467  30.578  36.630  1.00  0.00     0.029 A 
ATOM     55  N   UNL A   1      41.052  30.947  34.954  1.00  0.00    -0.354 N 
ATOM     56  N   UNL A   1      38.955  32.423  33.520  1.00  0.00    -0.248 NA
ATOM     57  C   UNL A   1      37.377  34.143  33.451  1.00  0.00     0.031 C 
ATOM     58  C   UNL A   1      41.713  31.717  36.931  1.00  0.00     0.029 A 
ATOM     59  C   UNL A   1      40.845  31.956  35.877  1.00  0.00     0.049 A 
ATOM     60  H   UNL A   1      40.568  30.851  34.102  1.00  0.00     0.167 HD
ATOM     61  C   UNL A   1      39.061  33.188  34.675  1.00  0.00     0.074 A 
ATOM     62  C   UNL A   1      38.082  34.249  34.569  1.00  0.00     0.031 C 
ATOM     63  C   UNL A   1      39.894  33.027  35.732  1.00  0.00     0.037 A 
BRANCH  50  64
ATOM     64  C   UNL A   1      43.542  28.066  35.367  1.00  0.00     0.058 A 
ATOM     65  C   UNL A   1      43.169  26.975  36.165  1.00  0.00     0.135 A 
ATOM     66  C   UNL A   1      44.912  28.287  35.153  1.00  0.00     0.135 A 
ATOM     67  F   UNL A   1      41.872  26.732  36.416  1.00  0.00    -0.206 F 
ATOM     68  C   UNL A   1      44.119  26.137  36.738  1.00  0.00     0.059 A 
ATOM     69  C   UNL A   1      45.880  27.447  35.696  1.00  0.00     0.059 A 
ATOM     70  F   UNL A   1      45.321  29.320  34.401  1.00  0.00    -0.206 F 
ATOM     71  C   UNL A   1      45.473  26.378  36.494  1.00  0.00     0.060 A 
BRANCH  71  72
ATOM     72  S   UNL A   1      46.693  25.257  37.210  1.00  0.00     0.124 S 
ATOM     73  O   UNL A   1      45.852  24.133  37.613  1.00  0.00    -0.237 OA
ATOM     74  O   UNL A   1      47.587  25.007  36.084  1.00  0.00    -0.237 OA
ATOM     75  O   UNL A   1      47.267  26.034  38.304  1.00  0.00    -0.744 OA
ENDBRANCH  71  72
ENDBRANCH  50  64
BRANCH  51  76
ATOM     76  C   UNL A   1      36.362  33.335  30.829  1.00  0.00     0.058 A 
ATOM     77  C   UNL A   1      36.583  34.205  29.750  1.00  0.00     0.135 A 
ATOM     78  C   UNL A   1      35.053  33.230  31.323  1.00  0.00     0.135 A 
ATOM     79  F   UNL A   1      37.819  34.345  29.246  1.00  0.00    -0.206 F 
ATOM     80  C   UNL A   1      35.557  34.972  29.206  1.00  0.00     0.059 A 
ATOM     81  C   UNL A   1      34.005  33.968  30.780  1.00  0.00     0.059 A 
ATOM     82  F   UNL A   1      34.783  32.397  32.341  1.00  0.00    -0.206 F 
ATOM     83  C   UNL A   1      34.272  34.851  29.734  1.00  0.00     0.060 A 
BRANCH  83  84
ATOM     84  S   UNL A   1      32.941  35.843  29.021  1.00  0.00     0.124 S 
ATOM     85  O   UNL A   1      32.340  34.897  28.088  1.00  0.00    -0.237 OA
ATOM     86  O   UNL A   1      32.141  36.180  30.194  1.00  0.00    -0.237 OA
ATOM     87  O   UNL A   1      33.652  36.965  28.414  1.00  0.00    -0.744 OA
ENDBRANCH  83  84
ENDBRANCH  51  76
BRANCH  63  88
ATOM     88  C   UNL A   1      39.835  34.048  36.830  1.00  0.00     0.058 A 
ATOM     89  C   UNL A   1      40.429  35.311  36.693  1.00  0.00     0.135 A 
ATOM     90  C   UNL A   1      39.098  33.788  37.996  1.00  0.00     0.135 A 
ATOM     91  F   UNL A   1      41.150  35.604  35.599  1.00  0.00    -0.206 F 
ATOM     92  C   UNL A   1      40.297  36.283  37.679  1.00  0.00     0.059 A 
ATOM     93  C   UNL A   1      38.934  34.752  38.985  1.00  0.00     0.059 A 
ATOM     94  F   UNL A   1      38.504  32.596  38.167  1.00  0.00    -0.206 F 
ATOM     95  C   UNL A   1      39.542  35.996  38.819  1.00  0.00     0.060 A 
BRANCH  95  96
ATOM     96  S   UNL A   1      39.320  37.286  40.061  1.00  0.00     0.124 S 
ATOM     97  O   UNL A   1      40.698  37.700  40.304  1.00  0.00    -0.237 OA
ATOM     98  O   UNL A   1      38.482  38.255  39.362  1.00  0.00    -0.237 OA
ATOM     99  O   UNL A   1      38.670  36.586  41.165  1.00  0.00    -0.744 OA
ENDBRANCH  95  96
ENDBRANCH  63  88
ENDBRANCH  37  38
ENDBRANCH  29  32
ENDBRANCH  27  28
ENDBRANCH   1  27
TORSDOF 17
ENDMDL
