MODEL 1
REMARK VINA RESULT:     -11.6      0.000      0.000
REMARK SMILES Cc1ncn(CC[C@@H]2CCC[C@@]2([NH3+])C(=O)NCCCCNC(=O)c2ccc(-c3c4nc(c(-c5c(F)cc(S(=O)(=O)[O-])cc5F)c5ccc([nH]5)c(-c5c(F)cc(S(=O)(=O)[O-])cc5F)c5nc(c(-c6c(F)cc(S(=O)(=O)[O-])cc6F)c6ccc3[nH]6)C=C5)C=C4)cc2)c1C
REMARK SMILES IDX 18 1 17 2 16 3 14 4 15 5 12 7 8 8 9 9 10 10 11 11 7 12 6 13
REMARK SMILES IDX 5 14 1 15 2 16 3 17 90 18 4 19 91 20 13 21 19 25 20 26 21 27
REMARK SMILES IDX 22 28 23 30 24 31 25 32 89 33 26 34 88 35 27 36 28 37 29 38
REMARK SMILES IDX 82 39 30 40 87 41 81 42 83 43 31 44 86 45 80 46 79 47 32 49
REMARK SMILES IDX 66 50 45 51 65 52 46 53 49 54 64 55 84 56 47 57 48 58 63 60
REMARK SMILES IDX 85 61 50 62 33 63 34 64 43 65 35 66 36 67 42 68 44 69 37 70
REMARK SMILES IDX 38 71 39 72 40 73 41 74 67 75 68 76 77 77 69 78 70 79 76 80
REMARK SMILES IDX 78 81 71 82 72 83 73 84 74 85 75 86 51 87 52 88 61 89 53 90
REMARK SMILES IDX 54 91 60 92 62 93 55 94 56 95 57 96 58 97 59 98
REMARK H PARENT 16 6 13 22 13 23 13 24 21 29 83 48 49 59
REMARK Flexibility Score: inf
ROOT
ATOM      1  C   UNL A   1      40.042  21.400  26.366  1.00  0.00     0.023 C 
ENDROOT
BRANCH   1   2
ATOM      2  C   UNL A   1      38.528  21.471  26.137  1.00  0.00     0.116 C 
BRANCH   2   3
ATOM      3  N   UNL A   1      38.164  22.264  24.975  1.00  0.00    -0.351 N 
ATOM      4  C   UNL A   1      36.953  22.568  24.410  1.00  0.00     0.281 C 
ATOM      5  O   UNL A   1      36.975  23.230  23.370  1.00  0.00    -0.268 OA
ATOM      6  H   UNL A   1      38.934  22.658  24.505  1.00  0.00     0.163 HD
BRANCH   4   7
ATOM      7  C   UNL A   1      35.615  22.072  25.027  1.00  0.00     0.176 C 
ATOM      8  C   UNL A   1      34.337  22.534  24.261  1.00  0.00     0.062 C 
ATOM      9  C   UNL A   1      33.240  21.582  24.777  1.00  0.00     0.011 C 
ATOM     10  C   UNL A   1      33.980  20.301  25.196  1.00  0.00     0.008 C 
ATOM     11  C   UNL A   1      35.453  20.548  24.864  1.00  0.00     0.079 C 
BRANCH   8  12
ATOM     12  C   UNL A   1      33.883  24.005  24.059  1.00  0.00     0.032 C 
BRANCH  12  13
ATOM     13  C   UNL A   1      34.392  25.210  24.876  1.00  0.00     0.124 C 
BRANCH  13  14
ATOM     14  N   UNL A   1      33.390  26.225  25.121  1.00  0.00    -0.335 N 
ATOM     15  C   UNL A   1      31.617  28.174  27.546  1.00  0.00     0.069 C 
ATOM     16  C   UNL A   1      32.203  27.529  26.352  1.00  0.00     0.058 A 
ATOM     17  N   UNL A   1      32.792  28.319  25.398  1.00  0.00    -0.242 NA
ATOM     18  C   UNL A   1      32.353  26.188  26.024  1.00  0.00     0.037 A 
ATOM     19  C   UNL A   1      33.423  27.489  24.603  1.00  0.00     0.199 A 
ATOM     20  C   UNL A   1      31.757  24.937  26.556  1.00  0.00     0.066 C 
ENDBRANCH  13  14
ENDBRANCH  12  13
ENDBRANCH   8  12
BRANCH   7  21
ATOM     21  N   UNL A   1      35.537  22.375  26.458  1.00  0.00    -0.345 N 
ATOM     22  H   UNL A   1      34.605  22.724  26.682  1.00  0.00     0.345 HD
ATOM     23  H   UNL A   1      36.231  23.085  26.694  1.00  0.00     0.345 HD
ATOM     24  H   UNL A   1      35.722  21.528  26.996  1.00  0.00     0.345 HD
ENDBRANCH   7  21
ENDBRANCH   4   7
ENDBRANCH   2   3
ENDBRANCH   1   2
BRANCH   1  25
ATOM     25  C   UNL A   1      40.699  20.027  26.185  1.00  0.00     0.023 C 
BRANCH  25  26
ATOM     26  C   UNL A   1      42.034  19.870  26.895  1.00  0.00     0.116 C 
BRANCH  26  27
ATOM     27  N   UNL A   1      43.148  19.607  25.987  1.00  0.00    -0.352 N 
ATOM     28  C   UNL A   1      43.857  20.540  25.244  1.00  0.00     0.251 C 
ATOM     29  H   UNL A   1      43.425  18.666  25.892  1.00  0.00     0.163 HD
ATOM     30  O   UNL A   1      44.518  20.208  24.276  1.00  0.00    -0.269 OA
BRANCH  28  31
ATOM     31  C   UNL A   1      43.801  21.947  25.682  1.00  0.00     0.039 A 
ATOM     32  C   UNL A   1      43.011  22.895  25.027  1.00  0.00     0.014 A 
ATOM     33  C   UNL A   1      44.532  22.283  26.820  1.00  0.00     0.014 A 
ATOM     34  C   UNL A   1      42.914  24.173  25.575  1.00  0.00     0.010 A 
ATOM     35  C   UNL A   1      44.304  23.479  27.443  1.00  0.00     0.010 A 
ATOM     36  C   UNL A   1      43.555  24.452  26.793  1.00  0.00    -0.014 A 
BRANCH  36  37
ATOM     37  C   UNL A   1      43.355  25.721  27.484  1.00  0.00     0.031 A 
ATOM     38  C   UNL A   1      44.374  26.755  27.146  1.00  0.00     0.074 A 
ATOM     39  C   UNL A   1      42.217  26.010  28.153  1.00  0.00     0.049 A 
ATOM     40  N   UNL A   1      45.302  27.234  27.907  1.00  0.00    -0.248 NA
ATOM     41  C   UNL A   1      44.493  27.177  25.738  1.00  0.00     0.031 C 
ATOM     42  C   UNL A   1      40.991  25.208  28.265  1.00  0.00     0.029 A 
ATOM     43  N   UNL A   1      41.865  27.155  28.795  1.00  0.00    -0.354 N 
ATOM     44  C   UNL A   1      45.940  28.215  27.152  1.00  0.00     0.074 A 
ATOM     45  C   UNL A   1      45.568  27.969  25.784  1.00  0.00     0.031 C 
ATOM     46  C   UNL A   1      39.973  25.984  28.703  1.00  0.00     0.029 A 
ATOM     47  C   UNL A   1      40.504  27.280  29.074  1.00  0.00     0.049 A 
ATOM     48  H   UNL A   1      42.522  27.845  29.044  1.00  0.00     0.167 HD
ATOM     49  C   UNL A   1      46.491  29.312  27.745  1.00  0.00     0.037 A 
ATOM     50  C   UNL A   1      39.875  28.391  29.544  1.00  0.00     0.037 A 
ATOM     51  C   UNL A   1      46.662  29.097  29.163  1.00  0.00     0.049 A 
ATOM     52  C   UNL A   1      40.930  29.259  30.134  1.00  0.00     0.074 A 
ATOM     53  C   UNL A   1      47.316  28.148  29.927  1.00  0.00     0.029 A 
ATOM     54  N   UNL A   1      45.760  29.693  30.015  1.00  0.00    -0.354 N 
ATOM     55  N   UNL A   1      41.624  28.937  31.193  1.00  0.00    -0.248 NA
ATOM     56  C   UNL A   1      41.552  30.236  29.253  1.00  0.00     0.031 C 
ATOM     57  C   UNL A   1      46.425  27.868  31.005  1.00  0.00     0.029 A 
ATOM     58  C   UNL A   1      45.332  28.728  30.893  1.00  0.00     0.049 A 
ATOM     59  H   UNL A   1      45.476  30.636  29.998  1.00  0.00     0.167 HD
ATOM     60  C   UNL A   1      42.923  29.324  30.899  1.00  0.00     0.074 A 
ATOM     61  C   UNL A   1      42.805  30.170  29.710  1.00  0.00     0.031 C 
ATOM     62  C   UNL A   1      44.000  28.692  31.455  1.00  0.00     0.037 A 
BRANCH  49  63
ATOM     63  C   UNL A   1      46.507  30.697  27.132  1.00  0.00     0.058 A 
ATOM     64  C   UNL A   1      47.706  31.441  27.146  1.00  0.00     0.135 A 
ATOM     65  C   UNL A   1      45.349  31.429  26.784  1.00  0.00     0.135 A 
ATOM     66  F   UNL A   1      48.870  30.855  27.468  1.00  0.00    -0.206 F 
ATOM     67  C   UNL A   1      47.739  32.816  26.908  1.00  0.00     0.059 A 
ATOM     68  C   UNL A   1      45.367  32.788  26.489  1.00  0.00     0.059 A 
ATOM     69  F   UNL A   1      44.124  30.892  26.800  1.00  0.00    -0.206 F 
ATOM     70  C   UNL A   1      46.560  33.483  26.593  1.00  0.00     0.060 A 
BRANCH  70  71
ATOM     71  S   UNL A   1      46.584  35.269  26.364  1.00  0.00     0.124 S 
ATOM     72  O   UNL A   1      47.071  35.721  27.662  1.00  0.00    -0.237 OA
ATOM     73  O   UNL A   1      47.509  35.415  25.246  1.00  0.00    -0.237 OA
ATOM     74  O   UNL A   1      45.191  35.588  26.064  1.00  0.00    -0.744 OA
ENDBRANCH  70  71
ENDBRANCH  49  63
BRANCH  50  75
ATOM     75  C   UNL A   1      38.528  28.922  29.184  1.00  0.00     0.058 A 
ATOM     76  C   UNL A   1      37.564  29.184  30.177  1.00  0.00     0.135 A 
ATOM     77  C   UNL A   1      38.269  29.475  27.914  1.00  0.00     0.135 A 
ATOM     78  F   UNL A   1      37.730  28.707  31.421  1.00  0.00    -0.206 F 
ATOM     79  C   UNL A   1      36.451  30.004  29.945  1.00  0.00     0.059 A 
ATOM     80  C   UNL A   1      37.162  30.287  27.656  1.00  0.00     0.059 A 
ATOM     81  F   UNL A   1      39.140  29.322  26.908  1.00  0.00    -0.206 F 
ATOM     82  C   UNL A   1      36.273  30.575  28.686  1.00  0.00     0.060 A 
BRANCH  82  83
ATOM     83  S   UNL A   1      34.955  31.793  28.441  1.00  0.00     0.124 S 
ATOM     84  O   UNL A   1      33.940  31.008  27.747  1.00  0.00    -0.237 OA
ATOM     85  O   UNL A   1      34.631  32.178  29.811  1.00  0.00    -0.237 OA
ATOM     86  O   UNL A   1      35.593  32.835  27.640  1.00  0.00    -0.744 OA
ENDBRANCH  82  83
ENDBRANCH  50  75
BRANCH  62  87
ATOM     87  C   UNL A   1      43.766  27.742  32.606  1.00  0.00     0.058 A 
ATOM     88  C   UNL A   1      43.738  26.338  32.506  1.00  0.00     0.135 A 
ATOM     89  C   UNL A   1      43.700  28.286  33.897  1.00  0.00     0.135 A 
ATOM     90  F   UNL A   1      43.908  25.725  31.326  1.00  0.00    -0.206 F 
ATOM     91  C   UNL A   1      43.594  25.520  33.631  1.00  0.00     0.059 A 
ATOM     92  C   UNL A   1      43.591  27.490  35.034  1.00  0.00     0.059 A 
ATOM     93  F   UNL A   1      43.786  29.614  34.073  1.00  0.00    -0.206 F 
ATOM     94  C   UNL A   1      43.517  26.107  34.893  1.00  0.00     0.060 A 
BRANCH  94  95
ATOM     95  S   UNL A   1      43.362  25.056  36.354  1.00  0.00     0.124 S 
ATOM     96  O   UNL A   1      43.459  26.024  37.441  1.00  0.00    -0.237 OA
ATOM     97  O   UNL A   1      42.050  24.443  36.167  1.00  0.00    -0.237 OA
ATOM     98  O   UNL A   1      44.491  24.136  36.235  1.00  0.00    -0.744 OA
ENDBRANCH  94  95
ENDBRANCH  62  87
ENDBRANCH  36  37
ENDBRANCH  28  31
ENDBRANCH  26  27
ENDBRANCH  25  26
ENDBRANCH   1  25
TORSDOF 18
ENDMDL
MODEL 2
REMARK VINA RESULT:     -11.6      1.378      2.877
REMARK SMILES Cc1ncn(CC[C@@H]2CCC[C@@]2([NH3+])C(=O)NCCCCNC(=O)c2ccc(-c3c4nc(c(-c5c(F)cc(S(=O)(=O)[O-])cc5F)c5ccc([nH]5)c(-c5c(F)cc(S(=O)(=O)[O-])cc5F)c5nc(c(-c6c(F)cc(S(=O)(=O)[O-])cc6F)c6ccc3[nH]6)C=C5)C=C4)cc2)c1C
REMARK SMILES IDX 18 1 17 2 16 3 14 4 15 5 12 7 8 8 9 9 10 10 11 11 7 12 6 13
REMARK SMILES IDX 5 14 1 15 2 16 3 17 90 18 4 19 91 20 13 21 19 25 20 26 21 27
REMARK SMILES IDX 22 28 23 30 24 31 25 32 89 33 26 34 88 35 27 36 28 37 29 38
REMARK SMILES IDX 82 39 30 40 87 41 81 42 83 43 31 44 86 45 80 46 79 47 32 49
REMARK SMILES IDX 66 50 45 51 65 52 46 53 49 54 64 55 84 56 47 57 48 58 63 60
REMARK SMILES IDX 85 61 50 62 33 63 34 64 43 65 35 66 36 67 42 68 44 69 37 70
REMARK SMILES IDX 38 71 39 72 40 73 41 74 67 75 68 76 77 77 69 78 70 79 76 80
REMARK SMILES IDX 78 81 71 82 72 83 73 84 74 85 75 86 51 87 52 88 61 89 53 90
REMARK SMILES IDX 54 91 60 92 62 93 55 94 56 95 57 96 58 97 59 98
REMARK H PARENT 16 6 13 22 13 23 13 24 21 29 83 48 49 59
REMARK Flexibility Score: inf
ROOT
ATOM      1  C   UNL A   1      39.992  21.663  26.610  1.00  0.00     0.023 C 
ENDROOT
BRANCH   1   2
ATOM      2  C   UNL A   1      38.776  22.213  25.856  1.00  0.00     0.116 C 
BRANCH   2   3
ATOM      3  N   UNL A   1      37.763  21.204  25.594  1.00  0.00    -0.351 N 
ATOM      4  C   UNL A   1      36.482  21.288  25.114  1.00  0.00     0.281 C 
ATOM      5  O   UNL A   1      35.839  20.238  25.059  1.00  0.00    -0.268 OA
ATOM      6  H   UNL A   1      38.052  20.286  25.801  1.00  0.00     0.163 HD
BRANCH   4   7
ATOM      7  C   UNL A   1      35.854  22.646  24.693  1.00  0.00     0.176 C 
ATOM      8  C   UNL A   1      34.324  22.586  24.388  1.00  0.00     0.062 C 
ATOM      9  C   UNL A   1      33.886  24.063  24.443  1.00  0.00     0.011 C 
ATOM     10  C   UNL A   1      34.887  24.748  25.388  1.00  0.00     0.008 C 
ATOM     11  C   UNL A   1      35.823  23.639  25.871  1.00  0.00     0.079 C 
BRANCH   8  12
ATOM     12  C   UNL A   1      33.656  21.748  23.266  1.00  0.00     0.032 C 
BRANCH  12  13
ATOM     13  C   UNL A   1      32.316  20.997  23.398  1.00  0.00     0.124 C 
BRANCH  13  14
ATOM     14  N   UNL A   1      32.437  19.656  23.926  1.00  0.00    -0.335 N 
ATOM     15  C   UNL A   1      34.210  16.546  23.855  1.00  0.00     0.069 C 
ATOM     16  C   UNL A   1      33.329  17.707  24.100  1.00  0.00     0.058 A 
ATOM     17  N   UNL A   1      33.248  18.217  25.371  1.00  0.00    -0.242 NA
ATOM     18  C   UNL A   1      32.579  18.481  23.225  1.00  0.00     0.037 A 
ATOM     19  C   UNL A   1      32.609  19.355  25.248  1.00  0.00     0.199 A 
ATOM     20  C   UNL A   1      32.141  18.293  21.819  1.00  0.00     0.066 C 
ENDBRANCH  13  14
ENDBRANCH  12  13
ENDBRANCH   8  12
BRANCH   7  21
ATOM     21  N   UNL A   1      36.607  23.273  23.604  1.00  0.00    -0.345 N 
ATOM     22  H   UNL A   1      37.419  22.699  23.377  1.00  0.00     0.345 HD
ATOM     23  H   UNL A   1      36.917  24.201  23.895  1.00  0.00     0.345 HD
ATOM     24  H   UNL A   1      36.009  23.358  22.782  1.00  0.00     0.345 HD
ENDBRANCH   7  21
ENDBRANCH   4   7
ENDBRANCH   2   3
ENDBRANCH   1   2
BRANCH   1  25
ATOM     25  C   UNL A   1      40.529  20.303  26.148  1.00  0.00     0.023 C 
BRANCH  25  26
ATOM     26  C   UNL A   1      41.790  19.850  26.865  1.00  0.00     0.116 C 
BRANCH  26  27
ATOM     27  N   UNL A   1      42.897  19.550  25.959  1.00  0.00    -0.352 N 
ATOM     28  C   UNL A   1      43.639  20.459  25.219  1.00  0.00     0.251 C 
ATOM     29  H   UNL A   1      43.142  18.600  25.863  1.00  0.00     0.163 HD
ATOM     30  O   UNL A   1      44.290  20.105  24.251  1.00  0.00    -0.269 OA
BRANCH  28  31
ATOM     31  C   UNL A   1      43.630  21.867  25.658  1.00  0.00     0.039 A 
ATOM     32  C   UNL A   1      42.925  22.853  24.964  1.00  0.00     0.014 A 
ATOM     33  C   UNL A   1      44.313  22.165  26.834  1.00  0.00     0.014 A 
ATOM     34  C   UNL A   1      42.862  24.134  25.510  1.00  0.00     0.010 A 
ATOM     35  C   UNL A   1      44.112  23.370  27.449  1.00  0.00     0.010 A 
ATOM     36  C   UNL A   1      43.449  24.379  26.762  1.00  0.00    -0.014 A 
BRANCH  36  37
ATOM     37  C   UNL A   1      43.275  25.657  27.445  1.00  0.00     0.031 A 
ATOM     38  C   UNL A   1      44.309  26.671  27.093  1.00  0.00     0.074 A 
ATOM     39  C   UNL A   1      42.147  25.970  28.121  1.00  0.00     0.049 A 
ATOM     40  N   UNL A   1      45.251  27.139  27.843  1.00  0.00    -0.248 NA
ATOM     41  C   UNL A   1      44.425  27.081  25.681  1.00  0.00     0.031 C 
ATOM     42  C   UNL A   1      40.909  25.189  28.247  1.00  0.00     0.029 A 
ATOM     43  N   UNL A   1      41.819  27.125  28.757  1.00  0.00    -0.354 N 
ATOM     44  C   UNL A   1      45.899  28.104  27.077  1.00  0.00     0.074 A 
ATOM     45  C   UNL A   1      45.513  27.855  25.714  1.00  0.00     0.031 C 
ATOM     46  C   UNL A   1      39.907  25.985  28.686  1.00  0.00     0.029 A 
ATOM     47  C   UNL A   1      40.463  27.275  29.045  1.00  0.00     0.049 A 
ATOM     48  H   UNL A   1      42.490  27.806  28.996  1.00  0.00     0.167 HD
ATOM     49  C   UNL A   1      46.473  29.196  27.659  1.00  0.00     0.037 A 
ATOM     50  C   UNL A   1      39.855  28.399  29.511  1.00  0.00     0.037 A 
ATOM     51  C   UNL A   1      46.650  28.988  29.077  1.00  0.00     0.049 A 
ATOM     52  C   UNL A   1      40.930  29.253  30.088  1.00  0.00     0.074 A 
ATOM     53  C   UNL A   1      47.294  28.034  29.843  1.00  0.00     0.029 A 
ATOM     54  N   UNL A   1      45.765  29.605  29.931  1.00  0.00    -0.354 N 
ATOM     55  N   UNL A   1      41.625  28.928  31.144  1.00  0.00    -0.248 NA
ATOM     56  C   UNL A   1      41.562  30.214  29.195  1.00  0.00     0.031 C 
ATOM     57  C   UNL A   1      46.407  27.776  30.929  1.00  0.00     0.029 A 
ATOM     58  C   UNL A   1      45.328  28.653  30.819  1.00  0.00     0.049 A 
ATOM     59  H   UNL A   1      45.497  30.553  29.910  1.00  0.00     0.167 HD
ATOM     60  C   UNL A   1      42.929  29.290  30.838  1.00  0.00     0.074 A 
ATOM     61  C   UNL A   1      42.817  30.130  29.643  1.00  0.00     0.031 C 
ATOM     62  C   UNL A   1      43.999  28.644  31.391  1.00  0.00     0.037 A 
BRANCH  49  63
ATOM     63  C   UNL A   1      46.508  30.577  27.035  1.00  0.00     0.058 A 
ATOM     64  C   UNL A   1      47.728  31.284  27.000  1.00  0.00     0.135 A 
ATOM     65  C   UNL A   1      45.360  31.341  26.725  1.00  0.00     0.135 A 
ATOM     66  F   UNL A   1      48.886  30.665  27.283  1.00  0.00    -0.206 F 
ATOM     67  C   UNL A   1      47.793  32.656  26.752  1.00  0.00     0.059 A 
ATOM     68  C   UNL A   1      45.409  32.697  26.421  1.00  0.00     0.059 A 
ATOM     69  F   UNL A   1      44.122  30.842  26.790  1.00  0.00    -0.206 F 
ATOM     70  C   UNL A   1      46.624  33.356  26.475  1.00  0.00     0.060 A 
BRANCH  70  71
ATOM     71  S   UNL A   1      46.693  35.139  26.233  1.00  0.00     0.124 S 
ATOM     72  O   UNL A   1      47.507  35.237  25.028  1.00  0.00    -0.237 OA
ATOM     73  O   UNL A   1      45.281  35.475  26.082  1.00  0.00    -0.237 OA
ATOM     74  O   UNL A   1      47.319  35.621  27.461  1.00  0.00    -0.744 OA
ENDBRANCH  70  71
ENDBRANCH  49  63
BRANCH  50  75
ATOM     75  C   UNL A   1      38.515  28.951  29.157  1.00  0.00     0.058 A 
ATOM     76  C   UNL A   1      37.540  29.177  30.149  1.00  0.00     0.135 A 
ATOM     77  C   UNL A   1      38.273  29.556  27.908  1.00  0.00     0.135 A 
ATOM     78  F   UNL A   1      37.690  28.649  31.373  1.00  0.00    -0.206 F 
ATOM     79  C   UNL A   1      36.434  30.010  29.937  1.00  0.00     0.059 A 
ATOM     80  C   UNL A   1      37.173  30.383  27.670  1.00  0.00     0.059 A 
ATOM     81  F   UNL A   1      39.157  29.440  26.906  1.00  0.00    -0.206 F 
ATOM     82  C   UNL A   1      36.273  30.633  28.700  1.00  0.00     0.060 A 
BRANCH  82  83
ATOM     83  S   UNL A   1      34.963  31.865  28.489  1.00  0.00     0.124 S 
ATOM     84  O   UNL A   1      34.681  32.249  29.868  1.00  0.00    -0.237 OA
ATOM     85  O   UNL A   1      35.621  32.879  27.671  1.00  0.00    -0.237 OA
ATOM     86  O   UNL A   1      33.897  31.124  27.819  1.00  0.00    -0.744 OA
ENDBRANCH  82  83
ENDBRANCH  50  75
BRANCH  62  87
ATOM     87  C   UNL A   1      43.758  27.706  32.550  1.00  0.00     0.058 A 
ATOM     88  C   UNL A   1      43.652  26.305  32.452  1.00  0.00     0.135 A 
ATOM     89  C   UNL A   1      43.767  28.251  33.843  1.00  0.00     0.135 A 
ATOM     90  F   UNL A   1      43.747  25.687  31.267  1.00  0.00    -0.206 F 
ATOM     91  C   UNL A   1      43.506  25.495  33.582  1.00  0.00     0.059 A 
ATOM     92  C   UNL A   1      43.657  27.460  34.983  1.00  0.00     0.059 A 
ATOM     93  F   UNL A   1      43.928  29.573  34.014  1.00  0.00    -0.206 F 
ATOM     94  C   UNL A   1      43.506  26.084  34.845  1.00  0.00     0.060 A 
BRANCH  94  95
ATOM     95  S   UNL A   1      43.349  25.040  36.312  1.00  0.00     0.124 S 
ATOM     96  O   UNL A   1      41.949  25.231  36.676  1.00  0.00    -0.237 OA
ATOM     97  O   UNL A   1      43.696  23.718  35.800  1.00  0.00    -0.237 OA
ATOM     98  O   UNL A   1      44.319  25.611  37.243  1.00  0.00    -0.744 OA
ENDBRANCH  94  95
ENDBRANCH  62  87
ENDBRANCH  36  37
ENDBRANCH  28  31
ENDBRANCH  26  27
ENDBRANCH  25  26
ENDBRANCH   1  25
TORSDOF 18
ENDMDL
MODEL 3
REMARK VINA RESULT:     -11.5      2.729      9.214
REMARK SMILES Cc1ncn(CC[C@@H]2CCC[C@@]2([NH3+])C(=O)NCCCCNC(=O)c2ccc(-c3c4nc(c(-c5c(F)cc(S(=O)(=O)[O-])cc5F)c5ccc([nH]5)c(-c5c(F)cc(S(=O)(=O)[O-])cc5F)c5nc(c(-c6c(F)cc(S(=O)(=O)[O-])cc6F)c6ccc3[nH]6)C=C5)C=C4)cc2)c1C
REMARK SMILES IDX 18 1 17 2 16 3 14 4 15 5 12 7 8 8 9 9 10 10 11 11 7 12 6 13
REMARK SMILES IDX 5 14 1 15 2 16 3 17 90 18 4 19 91 20 13 21 19 25 20 26 21 27
REMARK SMILES IDX 22 28 23 30 24 31 25 32 89 33 26 34 88 35 27 36 28 37 29 38
REMARK SMILES IDX 82 39 30 40 87 41 81 42 83 43 31 44 86 45 80 46 79 47 32 49
REMARK SMILES IDX 66 50 45 51 65 52 46 53 49 54 64 55 84 56 47 57 48 58 63 60
REMARK SMILES IDX 85 61 50 62 33 63 34 64 43 65 35 66 36 67 42 68 44 69 37 70
REMARK SMILES IDX 38 71 39 72 40 73 41 74 67 75 68 76 77 77 69 78 70 79 76 80
REMARK SMILES IDX 78 81 71 82 72 83 73 84 74 85 75 86 51 87 52 88 61 89 53 90
REMARK SMILES IDX 54 91 60 92 62 93 55 94 56 95 57 96 58 97 59 98
REMARK H PARENT 16 6 13 22 13 23 13 24 21 29 83 48 49 59
REMARK Flexibility Score: inf
ROOT
ATOM      1  C   UNL A   1      34.019  27.515  26.302  1.00  0.00     0.023 C 
ENDROOT
BRANCH   1   2
ATOM      2  C   UNL A   1      33.135  26.445  25.652  1.00  0.00     0.116 C 
BRANCH   2   3
ATOM      3  N   UNL A   1      33.714  25.884  24.443  1.00  0.00    -0.351 N 
ATOM      4  C   UNL A   1      33.345  25.957  23.125  1.00  0.00     0.281 C 
ATOM      5  O   UNL A   1      34.020  25.310  22.322  1.00  0.00    -0.268 OA
ATOM      6  H   UNL A   1      34.526  25.350  24.601  1.00  0.00     0.163 HD
BRANCH   4   7
ATOM      7  C   UNL A   1      32.112  26.785  22.666  1.00  0.00     0.176 C 
ATOM      8  C   UNL A   1      30.853  26.633  23.576  1.00  0.00     0.062 C 
ATOM      9  C   UNL A   1      29.977  27.841  23.188  1.00  0.00     0.011 C 
ATOM     10  C   UNL A   1      30.961  28.909  22.683  1.00  0.00     0.008 C 
ATOM     11  C   UNL A   1      32.353  28.296  22.843  1.00  0.00     0.079 C 
BRANCH   8  12
ATOM     12  C   UNL A   1      30.074  25.316  23.833  1.00  0.00     0.032 C 
BRANCH  12  13
ATOM     13  C   UNL A   1      30.698  23.906  23.859  1.00  0.00     0.124 C 
BRANCH  13  14
ATOM     14  N   UNL A   1      30.988  23.411  25.188  1.00  0.00    -0.335 N 
ATOM     15  C   UNL A   1      33.493  22.593  27.610  1.00  0.00     0.069 C 
ATOM     16  C   UNL A   1      32.273  22.864  26.822  1.00  0.00     0.058 A 
ATOM     17  N   UNL A   1      31.337  23.727  27.331  1.00  0.00    -0.242 NA
ATOM     18  C   UNL A   1      31.901  22.449  25.550  1.00  0.00     0.037 A 
ATOM     19  C   UNL A   1      30.508  23.962  26.342  1.00  0.00     0.199 A 
ATOM     20  C   UNL A   1      32.402  21.390  24.637  1.00  0.00     0.066 C 
ENDBRANCH  13  14
ENDBRANCH  12  13
ENDBRANCH   8  12
BRANCH   7  21
ATOM     21  N   UNL A   1      31.800  26.549  21.254  1.00  0.00    -0.345 N 
ATOM     22  H   UNL A   1      32.509  26.992  20.670  1.00  0.00     0.345 HD
ATOM     23  H   UNL A   1      30.884  26.944  21.038  1.00  0.00     0.345 HD
ATOM     24  H   UNL A   1      31.787  25.545  21.072  1.00  0.00     0.345 HD
ENDBRANCH   7  21
ENDBRANCH   4   7
ENDBRANCH   2   3
ENDBRANCH   1   2
BRANCH   1  25
ATOM     25  C   UNL A   1      33.491  28.953  26.272  1.00  0.00     0.023 C 
BRANCH  25  26
ATOM     26  C   UNL A   1      33.733  29.739  27.550  1.00  0.00     0.116 C 
BRANCH  26  27
ATOM     27  N   UNL A   1      34.000  31.158  27.318  1.00  0.00    -0.352 N 
ATOM     28  C   UNL A   1      35.081  31.890  27.787  1.00  0.00     0.251 C 
ATOM     29  H   UNL A   1      33.342  31.645  26.771  1.00  0.00     0.163 HD
ATOM     30  O   UNL A   1      35.044  33.107  27.841  1.00  0.00    -0.269 OA
BRANCH  28  31
ATOM     31  C   UNL A   1      36.286  31.145  28.197  1.00  0.00     0.039 A 
ATOM     32  C   UNL A   1      36.499  29.817  27.819  1.00  0.00     0.014 A 
ATOM     33  C   UNL A   1      37.237  31.843  28.937  1.00  0.00     0.014 A 
ATOM     34  C   UNL A   1      37.717  29.222  28.140  1.00  0.00     0.010 A 
ATOM     35  C   UNL A   1      38.488  31.315  29.103  1.00  0.00     0.010 A 
ATOM     36  C   UNL A   1      38.713  29.985  28.772  1.00  0.00    -0.014 A 
BRANCH  36  37
ATOM     37  C   UNL A   1      40.055  29.455  28.986  1.00  0.00     0.031 A 
ATOM     38  C   UNL A   1      40.398  29.253  30.422  1.00  0.00     0.074 A 
ATOM     39  C   UNL A   1      40.805  28.954  27.979  1.00  0.00     0.049 A 
ATOM     40  N   UNL A   1      41.250  29.913  31.136  1.00  0.00    -0.248 NA
ATOM     41  C   UNL A   1      39.564  28.328  31.211  1.00  0.00     0.031 C 
ATOM     42  C   UNL A   1      40.440  28.773  26.568  1.00  0.00     0.029 A 
ATOM     43  N   UNL A   1      42.038  28.384  28.029  1.00  0.00    -0.354 N 
ATOM     44  C   UNL A   1      41.253  29.298  32.385  1.00  0.00     0.074 A 
ATOM     45  C   UNL A   1      40.052  28.509  32.441  1.00  0.00     0.031 C 
ATOM     46  C   UNL A   1      41.311  27.925  25.974  1.00  0.00     0.029 A 
ATOM     47  C   UNL A   1      42.391  27.646  26.899  1.00  0.00     0.049 A 
ATOM     48  H   UNL A   1      42.636  28.485  28.804  1.00  0.00     0.167 HD
ATOM     49  C   UNL A   1      42.379  29.268  33.152  1.00  0.00     0.037 A 
ATOM     50  C   UNL A   1      43.480  26.842  26.768  1.00  0.00     0.037 A 
ATOM     51  C   UNL A   1      43.339  30.245  32.693  1.00  0.00     0.049 A 
ATOM     52  C   UNL A   1      44.439  27.250  27.831  1.00  0.00     0.074 A 
ATOM     53  C   UNL A   1      43.309  31.613  32.494  1.00  0.00     0.029 A 
ATOM     54  N   UNL A   1      44.414  29.793  31.962  1.00  0.00    -0.354 N 
ATOM     55  N   UNL A   1      45.031  28.414  27.865  1.00  0.00    -0.248 NA
ATOM     56  C   UNL A   1      44.342  26.562  29.110  1.00  0.00     0.031 C 
ATOM     57  C   UNL A   1      44.009  31.820  31.269  1.00  0.00     0.029 A 
ATOM     58  C   UNL A   1      44.508  30.588  30.846  1.00  0.00     0.049 A 
ATOM     59  H   UNL A   1      45.005  29.041  32.196  1.00  0.00     0.167 HD
ATOM     60  C   UNL A   1      44.989  28.796  29.198  1.00  0.00     0.074 A 
ATOM     61  C   UNL A   1      44.602  27.586  29.926  1.00  0.00     0.031 C 
ATOM     62  C   UNL A   1      44.979  30.112  29.563  1.00  0.00     0.037 A 
BRANCH  49  63
ATOM     63  C   UNL A   1      42.772  28.111  34.049  1.00  0.00     0.058 A 
ATOM     64  C   UNL A   1      42.922  28.336  35.434  1.00  0.00     0.135 A 
ATOM     65  C   UNL A   1      43.272  26.874  33.582  1.00  0.00     0.135 A 
ATOM     66  F   UNL A   1      42.491  29.478  35.992  1.00  0.00    -0.206 F 
ATOM     67  C   UNL A   1      43.583  27.437  36.273  1.00  0.00     0.059 A 
ATOM     68  C   UNL A   1      43.884  25.940  34.411  1.00  0.00     0.059 A 
ATOM     69  F   UNL A   1      43.279  26.541  32.288  1.00  0.00    -0.206 F 
ATOM     70  C   UNL A   1      44.071  26.245  35.747  1.00  0.00     0.060 A 
BRANCH  70  71
ATOM     71  S   UNL A   1      44.994  25.120  36.807  1.00  0.00     0.124 S 
ATOM     72  O   UNL A   1      46.342  25.254  36.270  1.00  0.00    -0.237 OA
ATOM     73  O   UNL A   1      44.769  25.700  38.127  1.00  0.00    -0.237 OA
ATOM     74  O   UNL A   1      44.345  23.833  36.576  1.00  0.00    -0.744 OA
ENDBRANCH  70  71
ENDBRANCH  49  63
BRANCH  50  75
ATOM     75  C   UNL A   1      43.592  25.528  26.068  1.00  0.00     0.058 A 
ATOM     76  C   UNL A   1      44.683  25.248  25.224  1.00  0.00     0.135 A 
ATOM     77  C   UNL A   1      42.811  24.420  26.453  1.00  0.00     0.135 A 
ATOM     78  F   UNL A   1      45.490  26.240  24.814  1.00  0.00    -0.206 F 
ATOM     79  C   UNL A   1      45.023  23.943  24.844  1.00  0.00     0.059 A 
ATOM     80  C   UNL A   1      43.124  23.111  26.079  1.00  0.00     0.059 A 
ATOM     81  F   UNL A   1      41.773  24.567  27.288  1.00  0.00    -0.206 F 
ATOM     82  C   UNL A   1      44.252  22.875  25.301  1.00  0.00     0.060 A 
BRANCH  82  83
ATOM     83  S   UNL A   1      44.804  21.180  24.982  1.00  0.00     0.124 S 
ATOM     84  O   UNL A   1      43.773  20.393  25.650  1.00  0.00    -0.237 OA
ATOM     85  O   UNL A   1      44.800  21.122  23.524  1.00  0.00    -0.237 OA
ATOM     86  O   UNL A   1      46.126  21.126  25.601  1.00  0.00    -0.744 OA
ENDBRANCH  82  83
ENDBRANCH  50  75
BRANCH  62  87
ATOM     87  C   UNL A   1      45.287  31.157  28.516  1.00  0.00     0.058 A 
ATOM     88  C   UNL A   1      44.359  31.681  27.595  1.00  0.00     0.135 A 
ATOM     89  C   UNL A   1      46.558  31.749  28.540  1.00  0.00     0.135 A 
ATOM     90  F   UNL A   1      43.088  31.255  27.577  1.00  0.00    -0.206 F 
ATOM     91  C   UNL A   1      44.699  32.704  26.705  1.00  0.00     0.059 A 
ATOM     92  C   UNL A   1      46.908  32.792  27.686  1.00  0.00     0.059 A 
ATOM     93  F   UNL A   1      47.473  31.343  29.435  1.00  0.00    -0.206 F 
ATOM     94  C   UNL A   1      45.980  33.251  26.757  1.00  0.00     0.060 A 
BRANCH  94  95
ATOM     95  S   UNL A   1      46.418  34.595  25.630  1.00  0.00     0.124 S 
ATOM     96  O   UNL A   1      45.557  34.327  24.483  1.00  0.00    -0.237 OA
ATOM     97  O   UNL A   1      46.085  35.784  26.409  1.00  0.00    -0.237 OA
ATOM     98  O   UNL A   1      47.846  34.394  25.397  1.00  0.00    -0.744 OA
ENDBRANCH  94  95
ENDBRANCH  62  87
ENDBRANCH  36  37
ENDBRANCH  28  31
ENDBRANCH  26  27
ENDBRANCH  25  26
ENDBRANCH   1  25
TORSDOF 18
ENDMDL
