MODEL 1
REMARK VINA RESULT:     -11.7      0.000      0.000
REMARK SMILES O=C(NCCCCNC(=O)c1ccc2ncccc2n1)c1ccc(-c2c3nc(c(-c4c(F)cc(S(=O)(=O)[O-])cc4F)c4ccc([nH]4)c(-c4c(F)cc(S(=O)(=O)[O-])cc4F)c4nc(c(-c5c(F)cc(S(=O)(=O)[O-])cc5F)c5ccc2[nH]5)C=C4)C=C3)cc1
REMARK SMILES IDX 4 1 3 2 1 3 2 4 21 6 22 7 86 8 23 9 85 10 24 11 25 12 26 13
REMARK SMILES IDX 79 14 27 15 84 16 78 17 80 18 28 19 83 20 77 21 76 22 29 24
REMARK SMILES IDX 63 25 42 26 62 27 43 28 46 29 61 30 81 31 44 32 45 33 60 35
REMARK SMILES IDX 82 36 47 37 30 38 31 39 40 40 32 41 33 42 39 43 41 44 34 45
REMARK SMILES IDX 35 46 36 47 37 48 38 49 64 50 65 51 74 52 66 53 67 54 73 55
REMARK SMILES IDX 75 56 68 57 69 58 70 59 71 60 72 61 48 62 49 63 58 64 50 65
REMARK SMILES IDX 51 66 57 67 59 68 52 69 53 70 54 71 55 72 56 73 5 74 6 75
REMARK SMILES IDX 7 76 8 77 9 78 10 80 11 81 12 82 20 83 13 84 19 85 14 86
REMARK SMILES IDX 18 87 15 88 17 89 16 90
REMARK H PARENT 3 5 80 23 46 34 8 79
REMARK Flexibility Score: inf
ROOT
ATOM      1  C   UNL A   1      42.951  25.061  26.142  1.00  0.00     0.116 C 
ENDROOT
BRANCH   1   2
ATOM      2  N   UNL A   1      41.590  24.822  25.682  1.00  0.00    -0.352 N 
ATOM      3  O   UNL A   1      39.335  24.827  25.781  1.00  0.00    -0.269 OA
ATOM      4  C   UNL A   1      40.401  25.209  26.259  1.00  0.00     0.251 C 
ATOM      5  H   UNL A   1      41.509  24.312  24.844  1.00  0.00     0.163 HD
BRANCH   4   6
ATOM      6  C   UNL A   1      40.414  26.054  27.473  1.00  0.00     0.039 A 
ATOM      7  C   UNL A   1      39.633  25.718  28.580  1.00  0.00     0.014 A 
ATOM      8  C   UNL A   1      41.195  27.214  27.493  1.00  0.00     0.014 A 
ATOM      9  C   UNL A   1      39.503  26.619  29.630  1.00  0.00     0.010 A 
ATOM     10  C   UNL A   1      41.133  28.078  28.593  1.00  0.00     0.010 A 
ATOM     11  C   UNL A   1      40.254  27.807  29.654  1.00  0.00    -0.014 A 
BRANCH  11  12
ATOM     12  C   UNL A   1      40.124  28.712  30.826  1.00  0.00     0.031 A 
ATOM     13  C   UNL A   1      41.048  28.603  32.009  1.00  0.00     0.074 A 
ATOM     14  C   UNL A   1      39.197  29.690  30.778  1.00  0.00     0.049 A 
ATOM     15  N   UNL A   1      41.112  29.366  33.073  1.00  0.00    -0.248 NA
ATOM     16  C   UNL A   1      42.018  27.499  32.007  1.00  0.00     0.031 C 
ATOM     17  C   UNL A   1      38.228  29.876  29.695  1.00  0.00     0.029 A 
ATOM     18  N   UNL A   1      38.938  30.727  31.635  1.00  0.00    -0.354 N 
ATOM     19  C   UNL A   1      42.118  28.831  33.869  1.00  0.00     0.074 A 
ATOM     20  C   UNL A   1      42.619  27.661  33.180  1.00  0.00     0.031 C 
ATOM     21  C   UNL A   1      37.520  30.992  29.923  1.00  0.00     0.029 A 
ATOM     22  C   UNL A   1      37.950  31.572  31.190  1.00  0.00     0.049 A 
ATOM     23  H   UNL A   1      39.415  30.855  32.488  1.00  0.00     0.167 HD
ATOM     24  C   UNL A   1      42.585  29.282  35.059  1.00  0.00     0.037 A 
ATOM     25  C   UNL A   1      37.440  32.689  31.740  1.00  0.00     0.037 A 
ATOM     26  C   UNL A   1      42.090  30.456  35.735  1.00  0.00     0.049 A 
ATOM     27  C   UNL A   1      37.996  33.181  33.044  1.00  0.00     0.074 A 
ATOM     28  C   UNL A   1      42.498  30.991  36.945  1.00  0.00     0.029 A 
ATOM     29  N   UNL A   1      41.084  31.281  35.254  1.00  0.00    -0.354 N 
ATOM     30  N   UNL A   1      38.950  32.661  33.777  1.00  0.00    -0.248 NA
ATOM     31  C   UNL A   1      37.407  34.407  33.594  1.00  0.00     0.031 C 
ATOM     32  C   UNL A   1      41.723  32.127  37.207  1.00  0.00     0.029 A 
ATOM     33  C   UNL A   1      40.856  32.319  36.145  1.00  0.00     0.049 A 
ATOM     34  H   UNL A   1      40.604  31.150  34.406  1.00  0.00     0.167 HD
ATOM     35  C   UNL A   1      39.075  33.496  34.880  1.00  0.00     0.074 A 
ATOM     36  C   UNL A   1      38.122  34.572  34.699  1.00  0.00     0.031 C 
ATOM     37  C   UNL A   1      39.895  33.375  35.952  1.00  0.00     0.037 A 
BRANCH  24  38
ATOM     38  C   UNL A   1      43.692  28.503  35.716  1.00  0.00     0.058 A 
ATOM     39  C   UNL A   1      43.421  27.456  36.610  1.00  0.00     0.135 A 
ATOM     40  C   UNL A   1      45.037  28.769  35.409  1.00  0.00     0.135 A 
ATOM     41  F   UNL A   1      42.155  27.169  36.951  1.00  0.00    -0.206 F 
ATOM     42  C   UNL A   1      44.443  26.710  37.189  1.00  0.00     0.059 A 
ATOM     43  C   UNL A   1      46.074  28.023  35.960  1.00  0.00     0.059 A 
ATOM     44  F   UNL A   1      45.351  29.760  34.560  1.00  0.00    -0.206 F 
ATOM     45  C   UNL A   1      45.768  27.001  36.859  1.00  0.00     0.060 A 
BRANCH  45  46
ATOM     46  S   UNL A   1      47.085  26.018  37.607  1.00  0.00     0.124 S 
ATOM     47  O   UNL A   1      46.494  24.682  37.590  1.00  0.00    -0.237 OA
ATOM     48  O   UNL A   1      48.198  26.230  36.687  1.00  0.00    -0.237 OA
ATOM     49  O   UNL A   1      47.247  26.615  38.929  1.00  0.00    -0.744 OA
ENDBRANCH  45  46
ENDBRANCH  24  38
BRANCH  25  50
ATOM     50  C   UNL A   1      36.338  33.409  31.052  1.00  0.00     0.058 A 
ATOM     51  C   UNL A   1      35.031  33.396  31.559  1.00  0.00     0.135 A 
ATOM     52  C   UNL A   1      36.583  34.153  29.887  1.00  0.00     0.135 A 
ATOM     53  F   UNL A   1      34.750  32.698  32.670  1.00  0.00    -0.206 F 
ATOM     54  C   UNL A   1      34.001  34.085  30.929  1.00  0.00     0.059 A 
ATOM     55  C   UNL A   1      35.576  34.870  29.254  1.00  0.00     0.059 A 
ATOM     56  F   UNL A   1      37.823  34.213  29.376  1.00  0.00    -0.206 F 
ATOM     57  C   UNL A   1      34.284  34.821  29.776  1.00  0.00     0.060 A 
BRANCH  57  58
ATOM     58  S   UNL A   1      32.959  35.762  28.990  1.00  0.00     0.124 S 
ATOM     59  O   UNL A   1      33.708  36.827  28.333  1.00  0.00    -0.237 OA
ATOM     60  O   UNL A   1      32.350  34.771  28.109  1.00  0.00    -0.237 OA
ATOM     61  O   UNL A   1      32.131  36.175  30.120  1.00  0.00    -0.744 OA
ENDBRANCH  57  58
ENDBRANCH  25  50
BRANCH  37  62
ATOM     62  C   UNL A   1      39.790  34.439  37.005  1.00  0.00     0.058 A 
ATOM     63  C   UNL A   1      38.949  34.284  38.118  1.00  0.00     0.135 A 
ATOM     64  C   UNL A   1      40.539  35.622  36.906  1.00  0.00     0.135 A 
ATOM     65  F   UNL A   1      38.206  33.173  38.253  1.00  0.00    -0.206 F 
ATOM     66  C   UNL A   1      38.827  35.280  39.080  1.00  0.00     0.059 A 
ATOM     67  C   UNL A   1      40.449  36.622  37.868  1.00  0.00     0.059 A 
ATOM     68  F   UNL A   1      41.364  35.814  35.865  1.00  0.00    -0.206 F 
ATOM     69  C   UNL A   1      39.576  36.450  38.943  1.00  0.00     0.060 A 
BRANCH  69  70
ATOM     70  S   UNL A   1      39.415  37.738  40.197  1.00  0.00     0.124 S 
ATOM     71  O   UNL A   1      38.322  38.538  39.653  1.00  0.00    -0.237 OA
ATOM     72  O   UNL A   1      39.103  36.973  41.400  1.00  0.00    -0.237 OA
ATOM     73  O   UNL A   1      40.726  38.379  40.192  1.00  0.00    -0.744 OA
ENDBRANCH  69  70
ENDBRANCH  37  62
ENDBRANCH  11  12
ENDBRANCH   4   6
ENDBRANCH   1   2
BRANCH   1  74
ATOM     74  C   UNL A   1      43.504  23.941  27.014  1.00  0.00     0.023 C 
BRANCH  74  75
ATOM     75  C   UNL A   1      42.818  23.754  28.364  1.00  0.00     0.023 C 
BRANCH  75  76
ATOM     76  C   UNL A   1      42.109  22.418  28.561  1.00  0.00     0.116 C 
BRANCH  76  77
ATOM     77  N   UNL A   1      40.933  22.268  27.721  1.00  0.00    -0.351 N 
ATOM     78  C   UNL A   1      40.763  21.471  26.609  1.00  0.00     0.269 C 
ATOM     79  H   UNL A   1      40.152  22.810  27.979  1.00  0.00     0.163 HD
ATOM     80  O   UNL A   1      39.703  21.490  25.989  1.00  0.00    -0.268 OA
BRANCH  78  81
ATOM     81  C   UNL A   1      41.869  20.577  26.183  1.00  0.00     0.129 A 
ATOM     82  C   UNL A   1      41.766  19.208  26.385  1.00  0.00     0.036 A 
ATOM     83  N   UNL A   1      42.962  21.181  25.661  1.00  0.00    -0.241 NA
ATOM     84  C   UNL A   1      42.875  18.424  26.079  1.00  0.00     0.033 A 
ATOM     85  C   UNL A   1      44.006  20.393  25.353  1.00  0.00     0.090 A 
ATOM     86  C   UNL A   1      44.029  18.994  25.563  1.00  0.00     0.089 A 
ATOM     87  C   UNL A   1      45.149  20.957  24.810  1.00  0.00     0.032 A 
ATOM     88  N   UNL A   1      45.095  18.216  25.294  1.00  0.00    -0.255 NA
ATOM     89  C   UNL A   1      46.261  20.173  24.517  1.00  0.00     0.022 A 
ATOM     90  C   UNL A   1      46.189  18.820  24.784  1.00  0.00     0.112 A 
ENDBRANCH  78  81
ENDBRANCH  76  77
ENDBRANCH  75  76
ENDBRANCH  74  75
ENDBRANCH   1  74
TORSDOF 14
ENDMDL
MODEL 2
REMARK VINA RESULT:     -11.7      5.215     12.499
REMARK SMILES O=C(NCCCCNC(=O)c1ccc2ncccc2n1)c1ccc(-c2c3nc(c(-c4c(F)cc(S(=O)(=O)[O-])cc4F)c4ccc([nH]4)c(-c4c(F)cc(S(=O)(=O)[O-])cc4F)c4nc(c(-c5c(F)cc(S(=O)(=O)[O-])cc5F)c5ccc2[nH]5)C=C4)C=C3)cc1
REMARK SMILES IDX 4 1 3 2 1 3 2 4 21 6 22 7 86 8 23 9 85 10 24 11 25 12 26 13
REMARK SMILES IDX 79 14 27 15 84 16 78 17 80 18 28 19 83 20 77 21 76 22 29 24
REMARK SMILES IDX 63 25 42 26 62 27 43 28 46 29 61 30 81 31 44 32 45 33 60 35
REMARK SMILES IDX 82 36 47 37 30 38 31 39 40 40 32 41 33 42 39 43 41 44 34 45
REMARK SMILES IDX 35 46 36 47 37 48 38 49 64 50 65 51 74 52 66 53 67 54 73 55
REMARK SMILES IDX 75 56 68 57 69 58 70 59 71 60 72 61 48 62 49 63 58 64 50 65
REMARK SMILES IDX 51 66 57 67 59 68 52 69 53 70 54 71 55 72 56 73 5 74 6 75
REMARK SMILES IDX 7 76 8 77 9 78 10 80 11 81 12 82 20 83 13 84 19 85 14 86
REMARK SMILES IDX 18 87 15 88 17 89 16 90
REMARK H PARENT 3 5 80 23 46 34 8 79
REMARK Flexibility Score: inf
ROOT
ATOM      1  C   UNL A   1      34.682  32.465  28.655  1.00  0.00     0.116 C 
ENDROOT
BRANCH   1   2
ATOM      2  N   UNL A   1      34.077  31.216  28.217  1.00  0.00    -0.352 N 
ATOM      3  O   UNL A   1      34.020  29.065  27.536  1.00  0.00    -0.269 OA
ATOM      4  C   UNL A   1      34.674  29.992  28.008  1.00  0.00     0.251 C 
ATOM      5  H   UNL A   1      33.108  31.250  28.048  1.00  0.00     0.163 HD
BRANCH   4   6
ATOM      6  C   UNL A   1      36.109  29.811  28.318  1.00  0.00     0.039 A 
ATOM      7  C   UNL A   1      37.083  30.082  27.357  1.00  0.00     0.014 A 
ATOM      8  C   UNL A   1      36.482  29.336  29.579  1.00  0.00     0.014 A 
ATOM      9  C   UNL A   1      38.404  29.722  27.595  1.00  0.00     0.010 A 
ATOM     10  C   UNL A   1      37.828  29.059  29.850  1.00  0.00     0.010 A 
ATOM     11  C   UNL A   1      38.795  29.211  28.844  1.00  0.00    -0.014 A 
BRANCH  11  12
ATOM     12  C   UNL A   1      40.230  28.894  29.070  1.00  0.00     0.031 A 
ATOM     13  C   UNL A   1      40.811  27.562  28.677  1.00  0.00     0.074 A 
ATOM     14  C   UNL A   1      41.026  29.858  29.573  1.00  0.00     0.049 A 
ATOM     15  N   UNL A   1      42.057  27.161  28.737  1.00  0.00    -0.248 NA
ATOM     16  C   UNL A   1      39.881  26.548  28.156  1.00  0.00     0.031 C 
ATOM     17  C   UNL A   1      40.570  31.178  30.017  1.00  0.00     0.029 A 
ATOM     18  N   UNL A   1      42.382  29.895  29.767  1.00  0.00    -0.354 N 
ATOM     19  C   UNL A   1      42.061  25.849  28.274  1.00  0.00     0.074 A 
ATOM     20  C   UNL A   1      40.688  25.511  27.962  1.00  0.00     0.031 C 
ATOM     21  C   UNL A   1      41.631  31.914  30.375  1.00  0.00     0.029 A 
ATOM     22  C   UNL A   1      42.836  31.105  30.235  1.00  0.00     0.049 A 
ATOM     23  H   UNL A   1      42.974  29.128  29.588  1.00  0.00     0.167 HD
ATOM     24  C   UNL A   1      43.114  25.011  28.115  1.00  0.00     0.037 A 
ATOM     25  C   UNL A   1      44.083  31.520  30.525  1.00  0.00     0.037 A 
ATOM     26  C   UNL A   1      44.481  25.358  28.415  1.00  0.00     0.049 A 
ATOM     27  C   UNL A   1      45.232  30.580  30.312  1.00  0.00     0.074 A 
ATOM     28  C   UNL A   1      45.617  24.576  28.290  1.00  0.00     0.029 A 
ATOM     29  N   UNL A   1      44.899  26.592  28.893  1.00  0.00    -0.354 N 
ATOM     30  N   UNL A   1      45.213  29.346  29.869  1.00  0.00    -0.248 NA
ATOM     31  C   UNL A   1      46.571  31.087  30.637  1.00  0.00     0.031 C 
ATOM     32  C   UNL A   1      46.719  25.329  28.713  1.00  0.00     0.029 A 
ATOM     33  C   UNL A   1      46.275  26.591  29.070  1.00  0.00     0.049 A 
ATOM     34  H   UNL A   1      44.307  27.355  29.078  1.00  0.00     0.167 HD
ATOM     35  C   UNL A   1      46.537  28.926  29.866  1.00  0.00     0.074 A 
ATOM     36  C   UNL A   1      47.333  30.049  30.319  1.00  0.00     0.031 C 
ATOM     37  C   UNL A   1      47.047  27.716  29.532  1.00  0.00     0.037 A 
BRANCH  24  38
ATOM     38  C   UNL A   1      42.835  23.629  27.592  1.00  0.00     0.058 A 
ATOM     39  C   UNL A   1      42.882  23.342  26.219  1.00  0.00     0.135 A 
ATOM     40  C   UNL A   1      42.571  22.568  28.473  1.00  0.00     0.135 A 
ATOM     41  F   UNL A   1      43.116  24.321  25.331  1.00  0.00    -0.206 F 
ATOM     42  C   UNL A   1      42.662  22.056  25.735  1.00  0.00     0.059 A 
ATOM     43  C   UNL A   1      42.367  21.269  28.014  1.00  0.00     0.059 A 
ATOM     44  F   UNL A   1      42.514  22.787  29.796  1.00  0.00    -0.206 F 
ATOM     45  C   UNL A   1      42.403  21.025  26.641  1.00  0.00     0.060 A 
BRANCH  45  46
ATOM     46  S   UNL A   1      42.131  19.358  26.002  1.00  0.00     0.124 S 
ATOM     47  O   UNL A   1      40.688  19.363  25.783  1.00  0.00    -0.237 OA
ATOM     48  O   UNL A   1      42.955  19.344  24.797  1.00  0.00    -0.237 OA
ATOM     49  O   UNL A   1      42.598  18.498  27.085  1.00  0.00    -0.744 OA
ENDBRANCH  45  46
ENDBRANCH  24  38
BRANCH  25  50
ATOM     50  C   UNL A   1      44.296  32.892  31.051  1.00  0.00     0.058 A 
ATOM     51  C   UNL A   1      44.450  33.986  30.188  1.00  0.00     0.135 A 
ATOM     52  C   UNL A   1      44.315  33.137  32.433  1.00  0.00     0.135 A 
ATOM     53  F   UNL A   1      44.440  33.800  28.860  1.00  0.00    -0.206 F 
ATOM     54  C   UNL A   1      44.629  35.276  30.677  1.00  0.00     0.059 A 
ATOM     55  C   UNL A   1      44.467  34.419  32.944  1.00  0.00     0.059 A 
ATOM     56  F   UNL A   1      44.149  32.124  33.298  1.00  0.00    -0.206 F 
ATOM     57  C   UNL A   1      44.635  35.483  32.057  1.00  0.00     0.060 A 
BRANCH  57  58
ATOM     58  S   UNL A   1      44.810  37.164  32.691  1.00  0.00     0.124 S 
ATOM     59  O   UNL A   1      46.191  37.158  33.156  1.00  0.00    -0.237 OA
ATOM     60  O   UNL A   1      44.536  37.974  31.509  1.00  0.00    -0.237 OA
ATOM     61  O   UNL A   1      43.790  37.232  33.735  1.00  0.00    -0.744 OA
ENDBRANCH  57  58
ENDBRANCH  25  50
BRANCH  37  62
ATOM     62  C   UNL A   1      48.535  27.556  29.646  1.00  0.00     0.058 A 
ATOM     63  C   UNL A   1      49.127  27.059  30.817  1.00  0.00     0.135 A 
ATOM     64  C   UNL A   1      49.376  27.896  28.575  1.00  0.00     0.135 A 
ATOM     65  F   UNL A   1      48.365  26.727  31.871  1.00  0.00    -0.206 F 
ATOM     66  C   UNL A   1      50.507  26.936  30.936  1.00  0.00     0.059 A 
ATOM     67  C   UNL A   1      50.757  27.761  28.665  1.00  0.00     0.059 A 
ATOM     68  F   UNL A   1      48.857  28.367  27.431  1.00  0.00    -0.206 F 
ATOM     69  C   UNL A   1      51.315  27.297  29.856  1.00  0.00     0.060 A 
BRANCH  69  70
ATOM     70  S   UNL A   1      53.106  27.134  30.017  1.00  0.00     0.124 S 
ATOM     71  O   UNL A   1      53.430  26.323  28.849  1.00  0.00    -0.237 OA
ATOM     72  O   UNL A   1      53.556  28.522  29.970  1.00  0.00    -0.237 OA
ATOM     73  O   UNL A   1      53.269  26.473  31.308  1.00  0.00    -0.744 OA
ENDBRANCH  69  70
ENDBRANCH  37  62
ENDBRANCH  11  12
ENDBRANCH   4   6
ENDBRANCH   1   2
BRANCH   1  74
ATOM     74  C   UNL A   1      34.199  33.680  27.872  1.00  0.00     0.023 C 
BRANCH  74  75
ATOM     75  C   UNL A   1      33.081  34.487  28.526  1.00  0.00     0.023 C 
BRANCH  75  76
ATOM     76  C   UNL A   1      33.533  35.695  29.340  1.00  0.00     0.116 C 
BRANCH  76  77
ATOM     77  N   UNL A   1      32.531  36.148  30.290  1.00  0.00    -0.351 N 
ATOM     78  C   UNL A   1      32.481  35.950  31.653  1.00  0.00     0.269 C 
ATOM     79  H   UNL A   1      31.786  36.667  29.908  1.00  0.00     0.163 HD
ATOM     80  O   UNL A   1      31.536  36.378  32.308  1.00  0.00    -0.268 OA
BRANCH  78  81
ATOM     81  C   UNL A   1      33.596  35.229  32.320  1.00  0.00     0.129 A 
ATOM     82  C   UNL A   1      34.378  35.887  33.258  1.00  0.00     0.036 A 
ATOM     83  N   UNL A   1      33.814  33.956  31.916  1.00  0.00    -0.241 NA
ATOM     84  C   UNL A   1      35.482  35.209  33.768  1.00  0.00     0.033 A 
ATOM     85  C   UNL A   1      34.873  33.321  32.446  1.00  0.00     0.090 A 
ATOM     86  C   UNL A   1      35.766  33.911  33.371  1.00  0.00     0.089 A 
ATOM     87  C   UNL A   1      35.141  32.015  32.073  1.00  0.00     0.032 A 
ATOM     88  N   UNL A   1      36.852  33.284  33.865  1.00  0.00    -0.255 NA
ATOM     89  C   UNL A   1      36.252  31.342  32.574  1.00  0.00     0.022 A 
ATOM     90  C   UNL A   1      37.076  32.019  33.454  1.00  0.00     0.112 A 
ENDBRANCH  78  81
ENDBRANCH  76  77
ENDBRANCH  75  76
ENDBRANCH  74  75
ENDBRANCH   1  74
TORSDOF 14
ENDMDL
MODEL 3
REMARK VINA RESULT:     -11.5      1.072      1.807
REMARK SMILES O=C(NCCCCNC(=O)c1ccc2ncccc2n1)c1ccc(-c2c3nc(c(-c4c(F)cc(S(=O)(=O)[O-])cc4F)c4ccc([nH]4)c(-c4c(F)cc(S(=O)(=O)[O-])cc4F)c4nc(c(-c5c(F)cc(S(=O)(=O)[O-])cc5F)c5ccc2[nH]5)C=C4)C=C3)cc1
REMARK SMILES IDX 4 1 3 2 1 3 2 4 21 6 22 7 86 8 23 9 85 10 24 11 25 12 26 13
REMARK SMILES IDX 79 14 27 15 84 16 78 17 80 18 28 19 83 20 77 21 76 22 29 24
REMARK SMILES IDX 63 25 42 26 62 27 43 28 46 29 61 30 81 31 44 32 45 33 60 35
REMARK SMILES IDX 82 36 47 37 30 38 31 39 40 40 32 41 33 42 39 43 41 44 34 45
REMARK SMILES IDX 35 46 36 47 37 48 38 49 64 50 65 51 74 52 66 53 67 54 73 55
REMARK SMILES IDX 75 56 68 57 69 58 70 59 71 60 72 61 48 62 49 63 58 64 50 65
REMARK SMILES IDX 51 66 57 67 59 68 52 69 53 70 54 71 55 72 56 73 5 74 6 75
REMARK SMILES IDX 7 76 8 77 9 78 10 80 11 81 12 82 20 83 13 84 19 85 14 86
REMARK SMILES IDX 18 87 15 88 17 89 16 90
REMARK H PARENT 3 5 80 23 46 34 8 79
REMARK Flexibility Score: inf
ROOT
ATOM      1  C   UNL A   1      40.217  23.262  27.207  1.00  0.00     0.116 C 
ENDROOT
BRANCH   1   2
ATOM      2  N   UNL A   1      40.756  24.072  26.124  1.00  0.00    -0.352 N 
ATOM      3  O   UNL A   1      41.443  25.953  25.082  1.00  0.00    -0.269 OA
ATOM      4  C   UNL A   1      41.094  25.407  26.127  1.00  0.00     0.251 C 
ATOM      5  H   UNL A   1      40.900  23.600  25.272  1.00  0.00     0.163 HD
BRANCH   4   6
ATOM      6  C   UNL A   1      41.001  26.186  27.381  1.00  0.00     0.039 A 
ATOM      7  C   UNL A   1      39.902  26.039  28.228  1.00  0.00     0.014 A 
ATOM      8  C   UNL A   1      42.013  27.098  27.698  1.00  0.00     0.014 A 
ATOM      9  C   UNL A   1      39.733  26.915  29.294  1.00  0.00     0.010 A 
ATOM     10  C   UNL A   1      41.885  27.918  28.825  1.00  0.00     0.010 A 
ATOM     11  C   UNL A   1      40.723  27.861  29.610  1.00  0.00    -0.014 A 
BRANCH  11  12
ATOM     12  C   UNL A   1      40.522  28.737  30.794  1.00  0.00     0.031 A 
ATOM     13  C   UNL A   1      41.417  28.644  32.001  1.00  0.00     0.074 A 
ATOM     14  C   UNL A   1      39.558  29.677  30.738  1.00  0.00     0.049 A 
ATOM     15  N   UNL A   1      41.420  29.388  33.080  1.00  0.00    -0.248 NA
ATOM     16  C   UNL A   1      42.432  27.580  32.007  1.00  0.00     0.031 C 
ATOM     17  C   UNL A   1      38.611  29.844  29.631  1.00  0.00     0.029 A 
ATOM     18  N   UNL A   1      39.232  30.686  31.606  1.00  0.00    -0.354 N 
ATOM     19  C   UNL A   1      42.425  28.879  33.895  1.00  0.00     0.074 A 
ATOM     20  C   UNL A   1      42.994  27.744  33.199  1.00  0.00     0.031 C 
ATOM     21  C   UNL A   1      37.852  30.925  29.860  1.00  0.00     0.029 A 
ATOM     22  C   UNL A   1      38.222  31.498  31.149  1.00  0.00     0.049 A 
ATOM     23  H   UNL A   1      39.679  30.816  32.474  1.00  0.00     0.167 HD
ATOM     24  C   UNL A   1      42.840  29.326  35.106  1.00  0.00     0.037 A 
ATOM     25  C   UNL A   1      37.650  32.582  31.704  1.00  0.00     0.037 A 
ATOM     26  C   UNL A   1      42.278  30.465  35.788  1.00  0.00     0.049 A 
ATOM     27  C   UNL A   1      38.150  33.071  33.031  1.00  0.00     0.074 A 
ATOM     28  C   UNL A   1      42.629  30.993  37.019  1.00  0.00     0.029 A 
ATOM     29  N   UNL A   1      41.252  31.258  35.294  1.00  0.00    -0.354 N 
ATOM     30  N   UNL A   1      39.104  32.577  33.782  1.00  0.00    -0.248 NA
ATOM     31  C   UNL A   1      37.495  34.261  33.587  1.00  0.00     0.031 C 
ATOM     32  C   UNL A   1      41.801  32.091  37.280  1.00  0.00     0.029 A 
ATOM     33  C   UNL A   1      40.956  32.268  36.197  1.00  0.00     0.049 A 
ATOM     34  H   UNL A   1      40.801  31.123  34.430  1.00  0.00     0.167 HD
ATOM     35  C   UNL A   1      39.163  33.395  34.903  1.00  0.00     0.074 A 
ATOM     36  C   UNL A   1      38.171  34.434  34.715  1.00  0.00     0.031 C 
ATOM     37  C   UNL A   1      39.958  33.287  35.995  1.00  0.00     0.037 A 
BRANCH  24  38
ATOM     38  C   UNL A   1      43.960  28.581  35.779  1.00  0.00     0.058 A 
ATOM     39  C   UNL A   1      43.710  27.481  36.614  1.00  0.00     0.135 A 
ATOM     40  C   UNL A   1      45.299  28.935  35.547  1.00  0.00     0.135 A 
ATOM     41  F   UNL A   1      42.449  27.108  36.883  1.00  0.00    -0.206 F 
ATOM     42  C   UNL A   1      44.747  26.767  37.207  1.00  0.00     0.059 A 
ATOM     43  C   UNL A   1      46.353  28.223  36.113  1.00  0.00     0.059 A 
ATOM     44  F   UNL A   1      45.593  29.980  34.757  1.00  0.00    -0.206 F 
ATOM     45  C   UNL A   1      46.066  27.147  36.953  1.00  0.00     0.060 A 
BRANCH  45  46
ATOM     46  S   UNL A   1      47.403  26.205  37.719  1.00  0.00     0.124 S 
ATOM     47  O   UNL A   1      47.065  26.321  39.135  1.00  0.00    -0.237 OA
ATOM     48  O   UNL A   1      47.229  24.879  37.134  1.00  0.00    -0.237 OA
ATOM     49  O   UNL A   1      48.605  26.917  37.300  1.00  0.00    -0.744 OA
ENDBRANCH  45  46
ENDBRANCH  24  38
BRANCH  25  50
ATOM     50  C   UNL A   1      36.539  33.269  30.997  1.00  0.00     0.058 A 
ATOM     51  C   UNL A   1      35.204  33.069  31.374  1.00  0.00     0.135 A 
ATOM     52  C   UNL A   1      36.800  34.167  29.951  1.00  0.00     0.135 A 
ATOM     53  F   UNL A   1      34.907  32.219  32.368  1.00  0.00    -0.206 F 
ATOM     54  C   UNL A   1      34.162  33.725  30.728  1.00  0.00     0.059 A 
ATOM     55  C   UNL A   1      35.777  34.854  29.308  1.00  0.00     0.059 A 
ATOM     56  F   UNL A   1      38.064  34.408  29.570  1.00  0.00    -0.206 F 
ATOM     57  C   UNL A   1      34.459  34.618  29.696  1.00  0.00     0.060 A 
BRANCH  57  58
ATOM     58  S   UNL A   1      33.111  35.514  28.897  1.00  0.00     0.124 S 
ATOM     59  O   UNL A   1      33.843  36.415  28.015  1.00  0.00    -0.237 OA
ATOM     60  O   UNL A   1      32.367  34.442  28.242  1.00  0.00    -0.237 OA
ATOM     61  O   UNL A   1      32.422  36.146  30.019  1.00  0.00    -0.744 OA
ENDBRANCH  57  58
ENDBRANCH  25  50
BRANCH  37  62
ATOM     62  C   UNL A   1      39.779  34.325  37.065  1.00  0.00     0.058 A 
ATOM     63  C   UNL A   1      40.479  35.541  37.026  1.00  0.00     0.135 A 
ATOM     64  C   UNL A   1      38.897  34.107  38.135  1.00  0.00     0.135 A 
ATOM     65  F   UNL A   1      41.339  35.793  36.026  1.00  0.00    -0.206 F 
ATOM     66  C   UNL A   1      40.336  36.493  38.029  1.00  0.00     0.059 A 
ATOM     67  C   UNL A   1      38.723  35.054  39.138  1.00  0.00     0.059 A 
ATOM     68  F   UNL A   1      38.199  32.963  38.212  1.00  0.00    -0.206 F 
ATOM     69  C   UNL A   1      39.461  36.236  39.087  1.00  0.00     0.060 A 
BRANCH  69  70
ATOM     70  S   UNL A   1      39.281  37.476  40.386  1.00  0.00     0.124 S 
ATOM     71  O   UNL A   1      38.321  38.394  39.781  1.00  0.00    -0.237 OA
ATOM     72  O   UNL A   1      38.782  36.689  41.509  1.00  0.00    -0.237 OA
ATOM     73  O   UNL A   1      40.635  37.996  40.546  1.00  0.00    -0.744 OA
ENDBRANCH  69  70
ENDBRANCH  37  62
ENDBRANCH  11  12
ENDBRANCH   4   6
ENDBRANCH   1   2
BRANCH   1  74
ATOM     74  C   UNL A   1      41.283  22.506  27.989  1.00  0.00     0.023 C 
BRANCH  74  75
ATOM     75  C   UNL A   1      41.197  20.984  27.923  1.00  0.00     0.023 C 
BRANCH  75  76
ATOM     76  C   UNL A   1      40.885  20.403  26.547  1.00  0.00     0.116 C 
BRANCH  76  77
ATOM     77  N   UNL A   1      41.254  19.004  26.422  1.00  0.00    -0.351 N 
ATOM     78  C   UNL A   1      42.420  18.460  25.928  1.00  0.00     0.269 C 
ATOM     79  H   UNL A   1      40.581  18.356  26.732  1.00  0.00     0.163 HD
ATOM     80  O   UNL A   1      42.558  17.241  25.863  1.00  0.00    -0.268 OA
BRANCH  78  81
ATOM     81  C   UNL A   1      43.515  19.365  25.494  1.00  0.00     0.129 A 
ATOM     82  C   UNL A   1      44.797  18.864  25.322  1.00  0.00     0.036 A 
ATOM     83  N   UNL A   1      43.189  20.671  25.345  1.00  0.00    -0.241 NA
ATOM     84  C   UNL A   1      45.812  19.771  25.031  1.00  0.00     0.033 A 
ATOM     85  C   UNL A   1      44.188  21.516  25.039  1.00  0.00     0.090 A 
ATOM     86  C   UNL A   1      45.539  21.123  24.890  1.00  0.00     0.089 A 
ATOM     87  C   UNL A   1      43.912  22.863  24.868  1.00  0.00     0.032 A 
ATOM     88  N   UNL A   1      46.542  21.983  24.627  1.00  0.00    -0.255 NA
ATOM     89  C   UNL A   1      44.930  23.771  24.589  1.00  0.00     0.022 A 
ATOM     90  C   UNL A   1      46.220  23.286  24.489  1.00  0.00     0.112 A 
ENDBRANCH  78  81
ENDBRANCH  76  77
ENDBRANCH  75  76
ENDBRANCH  74  75
ENDBRANCH   1  74
TORSDOF 14
ENDMDL
