MODEL 1
REMARK VINA RESULT:     -11.8      0.000      0.000
REMARK SMILES CC(C)Cc1cc2c(cc1Cl)C=C(C(=O)NCCCCNC(=O)c1ccc(-c3c4nc(c(-c5c(F)cc(S(=O)(=O)[O-])cc5F)c5ccc([nH]5)c(-c5c(F)cc(S(=O)(=O)[O-])cc5F)c5nc(c(-c6c(F)cc(S(=O)(=O)[O-])cc6F)c6ccc3[nH]6)C=C5)C=C4)cc1)[C@@H](C(F)(F)F)O2
REMARK SMILES IDX 19 1 18 2 17 3 16 4 14 5 15 6 13 8 5 9 6 10 10 11 7 12 9 13
REMARK SMILES IDX 11 14 8 15 95 16 12 17 90 18 4 19 2 20 1 21 3 22 91 23 92 24
REMARK SMILES IDX 93 25 94 26 20 27 21 28 22 29 23 31 24 32 25 33 89 34 26 35
REMARK SMILES IDX 88 36 27 37 28 38 29 39 82 40 30 41 87 42 81 43 83 44 31 45
REMARK SMILES IDX 86 46 80 47 79 48 32 50 66 51 45 52 65 53 46 54 49 55 64 56
REMARK SMILES IDX 84 57 47 58 48 59 63 61 85 62 50 63 33 64 34 65 43 66 35 67
REMARK SMILES IDX 36 68 42 69 44 70 37 71 38 72 39 73 40 74 41 75 67 76 68 77
REMARK SMILES IDX 77 78 69 79 70 80 76 81 78 82 71 83 72 84 73 85 74 86 75 87
REMARK SMILES IDX 51 88 52 89 61 90 53 91 54 92 60 93 62 94 55 95 56 96 57 97
REMARK SMILES IDX 58 98 59 99
REMARK H PARENT 16 7 21 30 83 49 49 60
REMARK Flexibility Score: inf
ROOT
ATOM      1  C   UNL A   1      32.585  28.053  26.732  1.00  0.00     0.023 C 
ENDROOT
BRANCH   1   2
ATOM      2  C   UNL A   1      31.711  29.014  25.923  1.00  0.00     0.023 C 
BRANCH   2   3
ATOM      3  C   UNL A   1      31.440  28.564  24.489  1.00  0.00     0.116 C 
BRANCH   3   4
ATOM      4  N   UNL A   1      30.190  27.834  24.367  1.00  0.00    -0.352 N 
ATOM      5  C   UNL A   1      29.810  26.545  24.196  1.00  0.00     0.251 C 
ATOM      6  O   UNL A   1      28.591  26.354  24.148  1.00  0.00    -0.270 OA
ATOM      7  H   UNL A   1      29.412  28.435  24.421  1.00  0.00     0.163 HD
BRANCH   5   8
ATOM      8  C   UNL A   1      30.738  25.383  24.061  1.00  0.00     0.067 C 
ATOM      9  C   UNL A   1      33.803  21.483  25.059  1.00  0.00    -0.025 A 
ATOM     10  C   UNL A   1      33.149  21.964  23.915  1.00  0.00     0.052 A 
ATOM     11  C   UNL A   1      33.651  22.194  26.259  1.00  0.00     0.045 A 
ATOM     12  C   UNL A   1      32.338  23.094  23.977  1.00  0.00     0.128 A 
ATOM     13  C   UNL A   1      32.851  23.344  26.312  1.00  0.00     0.032 A 
ATOM     14  Cl  UNL A   1      34.411  21.680  27.724  1.00  0.00    -0.084 Cl
ATOM     15  C   UNL A   1      32.179  23.789  25.171  1.00  0.00     0.019 A 
ATOM     16  O   UNL A   1      31.672  23.415  22.832  1.00  0.00    -0.475 OA
ATOM     17  C   UNL A   1      31.265  24.923  25.213  1.00  0.00     0.025 C 
ATOM     18  C   UNL A   1      31.121  24.756  22.749  1.00  0.00     0.314 C 
BRANCH   9  19
ATOM     19  C   UNL A   1      34.578  20.189  24.940  1.00  0.00     0.040 C 
BRANCH  19  20
ATOM     20  C   UNL A   1      33.712  18.991  24.494  1.00  0.00    -0.013 C 
ATOM     21  C   UNL A   1      34.542  17.749  24.149  1.00  0.00     0.008 C 
ATOM     22  C   UNL A   1      32.716  18.637  25.601  1.00  0.00     0.008 C 
ENDBRANCH  19  20
ENDBRANCH   9  19
BRANCH  18  23
ATOM     23  C   UNL A   1      32.090  25.630  21.932  1.00  0.00     0.429 C 
ATOM     24  F   UNL A   1      32.804  24.862  21.071  1.00  0.00    -0.167 F 
ATOM     25  F   UNL A   1      31.454  26.559  21.184  1.00  0.00    -0.167 F 
ATOM     26  F   UNL A   1      32.976  26.288  22.713  1.00  0.00    -0.167 F 
ENDBRANCH  18  23
ENDBRANCH   5   8
ENDBRANCH   3   4
ENDBRANCH   2   3
ENDBRANCH   1   2
BRANCH   1  27
ATOM     27  C   UNL A   1      33.953  28.595  27.147  1.00  0.00     0.116 C 
BRANCH  27  28
ATOM     28  N   UNL A   1      33.919  29.924  27.743  1.00  0.00    -0.352 N 
ATOM     29  C   UNL A   1      34.951  30.586  28.372  1.00  0.00     0.251 C 
ATOM     30  H   UNL A   1      33.060  30.403  27.690  1.00  0.00     0.163 HD
ATOM     31  O   UNL A   1      34.769  31.683  28.891  1.00  0.00    -0.269 OA
BRANCH  29  32
ATOM     32  C   UNL A   1      36.262  29.915  28.460  1.00  0.00     0.039 A 
ATOM     33  C   UNL A   1      36.671  29.340  29.666  1.00  0.00     0.014 A 
ATOM     34  C   UNL A   1      37.130  29.976  27.368  1.00  0.00     0.014 A 
ATOM     35  C   UNL A   1      38.004  28.985  29.831  1.00  0.00     0.010 A 
ATOM     36  C   UNL A   1      38.451  29.551  27.516  1.00  0.00     0.010 A 
ATOM     37  C   UNL A   1      38.914  29.112  28.767  1.00  0.00    -0.014 A 
BRANCH  37  38
ATOM     38  C   UNL A   1      40.351  28.826  29.004  1.00  0.00     0.031 A 
ATOM     39  C   UNL A   1      40.942  27.499  28.607  1.00  0.00     0.074 A 
ATOM     40  C   UNL A   1      41.141  29.797  29.501  1.00  0.00     0.049 A 
ATOM     41  N   UNL A   1      42.179  27.083  28.714  1.00  0.00    -0.248 NA
ATOM     42  C   UNL A   1      40.029  26.508  28.013  1.00  0.00     0.031 C 
ATOM     43  C   UNL A   1      40.686  31.131  29.897  1.00  0.00     0.029 A 
ATOM     44  N   UNL A   1      42.493  29.826  29.723  1.00  0.00    -0.354 N 
ATOM     45  C   UNL A   1      42.190  25.783  28.224  1.00  0.00     0.074 A 
ATOM     46  C   UNL A   1      40.832  25.467  27.836  1.00  0.00     0.031 C 
ATOM     47  C   UNL A   1      41.749  31.867  30.257  1.00  0.00     0.029 A 
ATOM     48  C   UNL A   1      42.949  31.042  30.169  1.00  0.00     0.049 A 
ATOM     49  H   UNL A   1      43.081  29.049  29.578  1.00  0.00     0.167 HD
ATOM     50  C   UNL A   1      43.237  24.932  28.100  1.00  0.00     0.037 A 
ATOM     51  C   UNL A   1      44.195  31.449  30.479  1.00  0.00     0.037 A 
ATOM     52  C   UNL A   1      44.592  25.260  28.459  1.00  0.00     0.049 A 
ATOM     53  C   UNL A   1      45.335  30.481  30.356  1.00  0.00     0.074 A 
ATOM     54  C   UNL A   1      45.724  24.467  28.366  1.00  0.00     0.029 A 
ATOM     55  N   UNL A   1      45.003  26.482  28.968  1.00  0.00    -0.354 N 
ATOM     56  N   UNL A   1      45.318  29.244  29.922  1.00  0.00    -0.248 NA
ATOM     57  C   UNL A   1      46.658  30.956  30.780  1.00  0.00     0.031 C 
ATOM     58  C   UNL A   1      46.815  25.203  28.842  1.00  0.00     0.029 A 
ATOM     59  C   UNL A   1      46.367  26.463  29.204  1.00  0.00     0.049 A 
ATOM     60  H   UNL A   1      44.412  27.252  29.136  1.00  0.00     0.167 HD
ATOM     61  C   UNL A   1      46.627  28.790  30.027  1.00  0.00     0.074 A 
ATOM     62  C   UNL A   1      47.413  29.893  30.542  1.00  0.00     0.031 C 
ATOM     63  C   UNL A   1      47.130  27.567  29.729  1.00  0.00     0.037 A 
BRANCH  50  64
ATOM     64  C   UNL A   1      42.961  23.557  27.562  1.00  0.00     0.058 A 
ATOM     65  C   UNL A   1      43.179  23.239  26.213  1.00  0.00     0.135 A 
ATOM     66  C   UNL A   1      42.517  22.533  28.414  1.00  0.00     0.135 A 
ATOM     67  F   UNL A   1      43.585  24.186  25.352  1.00  0.00    -0.206 F 
ATOM     68  C   UNL A   1      42.952  21.957  25.724  1.00  0.00     0.059 A 
ATOM     69  C   UNL A   1      42.300  21.239  27.951  1.00  0.00     0.059 A 
ATOM     70  F   UNL A   1      42.291  22.787  29.713  1.00  0.00    -0.206 F 
ATOM     71  C   UNL A   1      42.511  20.963  26.600  1.00  0.00     0.060 A 
BRANCH  71  72
ATOM     72  S   UNL A   1      42.225  19.302  25.951  1.00  0.00     0.124 S 
ATOM     73  O   UNL A   1      42.737  18.474  27.038  1.00  0.00    -0.237 OA
ATOM     74  O   UNL A   1      40.777  19.282  25.769  1.00  0.00    -0.237 OA
ATOM     75  O   UNL A   1      43.009  19.279  24.720  1.00  0.00    -0.744 OA
ENDBRANCH  71  72
ENDBRANCH  50  64
BRANCH  51  76
ATOM     76  C   UNL A   1      44.415  32.844  30.933  1.00  0.00     0.058 A 
ATOM     77  C   UNL A   1      44.628  33.875  30.007  1.00  0.00     0.135 A 
ATOM     78  C   UNL A   1      44.360  33.182  32.293  1.00  0.00     0.135 A 
ATOM     79  F   UNL A   1      44.693  33.597  28.696  1.00  0.00    -0.206 F 
ATOM     80  C   UNL A   1      44.771  35.197  30.413  1.00  0.00     0.059 A 
ATOM     81  C   UNL A   1      44.481  34.498  32.723  1.00  0.00     0.059 A 
ATOM     82  F   UNL A   1      44.144  32.229  33.213  1.00  0.00    -0.206 F 
ATOM     83  C   UNL A   1      44.690  35.499  31.775  1.00  0.00     0.060 A 
BRANCH  83  84
ATOM     84  S   UNL A   1      44.791  37.228  32.289  1.00  0.00     0.124 S 
ATOM     85  O   UNL A   1      44.098  37.899  31.196  1.00  0.00    -0.237 OA
ATOM     86  O   UNL A   1      44.095  37.210  33.572  1.00  0.00    -0.237 OA
ATOM     87  O   UNL A   1      46.229  37.467  32.370  1.00  0.00    -0.744 OA
ENDBRANCH  83  84
ENDBRANCH  51  76
BRANCH  63  88
ATOM     88  C   UNL A   1      48.595  27.353  29.964  1.00  0.00     0.058 A 
ATOM     89  C   UNL A   1      49.541  27.667  28.975  1.00  0.00     0.135 A 
ATOM     90  C   UNL A   1      49.063  26.885  31.201  1.00  0.00     0.135 A 
ATOM     91  F   UNL A   1      49.140  28.111  27.773  1.00  0.00    -0.206 F 
ATOM     92  C   UNL A   1      50.904  27.512  29.202  1.00  0.00     0.059 A 
ATOM     93  C   UNL A   1      50.423  26.739  31.456  1.00  0.00     0.059 A 
ATOM     94  F   UNL A   1      48.196  26.579  32.178  1.00  0.00    -0.206 F 
ATOM     95  C   UNL A   1      51.335  27.049  30.446  1.00  0.00     0.060 A 
BRANCH  95  96
ATOM     96  S   UNL A   1      53.108  26.889  30.744  1.00  0.00     0.124 S 
ATOM     97  O   UNL A   1      53.425  28.186  31.335  1.00  0.00    -0.237 OA
ATOM     98  O   UNL A   1      53.173  25.746  31.651  1.00  0.00    -0.237 OA
ATOM     99  O   UNL A   1      53.656  26.655  29.411  1.00  0.00    -0.744 OA
ENDBRANCH  95  96
ENDBRANCH  63  88
ENDBRANCH  37  38
ENDBRANCH  29  32
ENDBRANCH  27  28
ENDBRANCH   1  27
TORSDOF 17
ENDMDL
MODEL 2
REMARK VINA RESULT:     -11.8      2.074      8.442
REMARK SMILES CC(C)Cc1cc2c(cc1Cl)C=C(C(=O)NCCCCNC(=O)c1ccc(-c3c4nc(c(-c5c(F)cc(S(=O)(=O)[O-])cc5F)c5ccc([nH]5)c(-c5c(F)cc(S(=O)(=O)[O-])cc5F)c5nc(c(-c6c(F)cc(S(=O)(=O)[O-])cc6F)c6ccc3[nH]6)C=C5)C=C4)cc1)[C@@H](C(F)(F)F)O2
REMARK SMILES IDX 19 1 18 2 17 3 16 4 14 5 15 6 13 8 5 9 6 10 10 11 7 12 9 13
REMARK SMILES IDX 11 14 8 15 95 16 12 17 90 18 4 19 2 20 1 21 3 22 91 23 92 24
REMARK SMILES IDX 93 25 94 26 20 27 21 28 22 29 23 31 24 32 25 33 89 34 26 35
REMARK SMILES IDX 88 36 27 37 28 38 29 39 82 40 30 41 87 42 81 43 83 44 31 45
REMARK SMILES IDX 86 46 80 47 79 48 32 50 66 51 45 52 65 53 46 54 49 55 64 56
REMARK SMILES IDX 84 57 47 58 48 59 63 61 85 62 50 63 33 64 34 65 43 66 35 67
REMARK SMILES IDX 36 68 42 69 44 70 37 71 38 72 39 73 40 74 41 75 67 76 68 77
REMARK SMILES IDX 77 78 69 79 70 80 76 81 78 82 71 83 72 84 73 85 74 86 75 87
REMARK SMILES IDX 51 88 52 89 61 90 53 91 54 92 60 93 62 94 55 95 56 96 57 97
REMARK SMILES IDX 58 98 59 99
REMARK H PARENT 16 7 21 30 83 49 49 60
REMARK Flexibility Score: inf
ROOT
ATOM      1  C   UNL A   1      33.318  28.492  27.256  1.00  0.00     0.023 C 
ENDROOT
BRANCH   1   2
ATOM      2  C   UNL A   1      32.135  29.438  27.037  1.00  0.00     0.023 C 
BRANCH   2   3
ATOM      3  C   UNL A   1      32.328  30.436  25.899  1.00  0.00     0.116 C 
BRANCH   3   4
ATOM      4  N   UNL A   1      31.199  30.456  24.984  1.00  0.00    -0.352 N 
ATOM      5  C   UNL A   1      30.634  29.608  24.092  1.00  0.00     0.251 C 
ATOM      6  O   UNL A   1      29.638  30.043  23.505  1.00  0.00    -0.270 OA
ATOM      7  H   UNL A   1      30.718  31.314  25.022  1.00  0.00     0.163 HD
BRANCH   5   8
ATOM      8  C   UNL A   1      31.124  28.233  23.779  1.00  0.00     0.067 C 
ATOM      9  C   UNL A   1      31.819  23.221  23.757  1.00  0.00    -0.025 A 
ATOM     10  C   UNL A   1      32.170  24.276  22.901  1.00  0.00     0.052 A 
ATOM     11  C   UNL A   1      31.125  23.526  24.938  1.00  0.00     0.045 A 
ATOM     12  C   UNL A   1      31.805  25.586  23.195  1.00  0.00     0.128 A 
ATOM     13  C   UNL A   1      30.779  24.851  25.241  1.00  0.00     0.032 A 
ATOM     14  Cl  UNL A   1      30.644  22.298  26.054  1.00  0.00    -0.084 Cl
ATOM     15  C   UNL A   1      31.106  25.885  24.360  1.00  0.00     0.019 A 
ATOM     16  O   UNL A   1      32.109  26.518  22.248  1.00  0.00    -0.475 OA
ATOM     17  C   UNL A   1      30.679  27.257  24.597  1.00  0.00     0.025 C 
ATOM     18  C   UNL A   1      32.079  27.909  22.664  1.00  0.00     0.314 C 
BRANCH   9  19
ATOM     19  C   UNL A   1      32.153  21.812  23.319  1.00  0.00     0.040 C 
BRANCH  19  20
ATOM     20  C   UNL A   1      33.463  21.270  23.932  1.00  0.00    -0.013 C 
ATOM     21  C   UNL A   1      34.209  22.316  24.768  1.00  0.00     0.008 C 
ATOM     22  C   UNL A   1      33.154  20.054  24.809  1.00  0.00     0.008 C 
ENDBRANCH  19  20
ENDBRANCH   9  19
BRANCH  18  23
ATOM     23  C   UNL A   1      33.519  28.358  22.965  1.00  0.00     0.429 C 
ATOM     24  F   UNL A   1      34.358  27.938  21.985  1.00  0.00    -0.167 F 
ATOM     25  F   UNL A   1      33.647  29.702  23.031  1.00  0.00    -0.167 F 
ATOM     26  F   UNL A   1      33.983  27.857  24.133  1.00  0.00    -0.167 F 
ENDBRANCH  18  23
ENDBRANCH   5   8
ENDBRANCH   3   4
ENDBRANCH   2   3
ENDBRANCH   1   2
BRANCH   1  27
ATOM     27  C   UNL A   1      34.688  29.162  27.365  1.00  0.00     0.116 C 
BRANCH  27  28
ATOM     28  N   UNL A   1      34.820  30.080  28.488  1.00  0.00    -0.352 N 
ATOM     29  C   UNL A   1      35.955  30.345  29.224  1.00  0.00     0.251 C 
ATOM     30  H   UNL A   1      34.006  30.566  28.752  1.00  0.00     0.163 HD
ATOM     31  O   UNL A   1      35.914  31.097  30.193  1.00  0.00    -0.269 OA
BRANCH  29  32
ATOM     32  C   UNL A   1      37.206  29.653  28.856  1.00  0.00     0.039 A 
ATOM     33  C   UNL A   1      37.948  28.987  29.834  1.00  0.00     0.014 A 
ATOM     34  C   UNL A   1      37.692  29.780  27.553  1.00  0.00     0.014 A 
ATOM     35  C   UNL A   1      39.254  28.604  29.551  1.00  0.00     0.010 A 
ATOM     36  C   UNL A   1      38.980  29.329  27.254  1.00  0.00     0.010 A 
ATOM     37  C   UNL A   1      39.792  28.795  28.267  1.00  0.00    -0.014 A 
BRANCH  37  38
ATOM     38  C   UNL A   1      41.221  28.475  28.025  1.00  0.00     0.031 A 
ATOM     39  C   UNL A   1      42.285  29.519  28.241  1.00  0.00     0.074 A 
ATOM     40  C   UNL A   1      41.566  27.218  27.690  1.00  0.00     0.049 A 
ATOM     41  N   UNL A   1      43.582  29.413  28.105  1.00  0.00    -0.248 NA
ATOM     42  C   UNL A   1      41.838  30.856  28.666  1.00  0.00     0.031 C 
ATOM     43  C   UNL A   1      40.625  26.115  27.479  1.00  0.00     0.029 A 
ATOM     44  N   UNL A   1      42.797  26.645  27.505  1.00  0.00    -0.354 N 
ATOM     45  C   UNL A   1      44.104  30.666  28.404  1.00  0.00     0.074 A 
ATOM     46  C   UNL A   1      42.982  31.527  28.711  1.00  0.00     0.031 C 
ATOM     47  C   UNL A   1      41.315  24.987  27.252  1.00  0.00     0.029 A 
ATOM     48  C   UNL A   1      42.742  25.297  27.248  1.00  0.00     0.049 A 
ATOM     49  H   UNL A   1      43.640  27.152  27.552  1.00  0.00     0.167 HD
ATOM     50  C   UNL A   1      45.398  31.062  28.428  1.00  0.00     0.037 A 
ATOM     51  C   UNL A   1      43.728  24.407  27.029  1.00  0.00     0.037 A 
ATOM     52  C   UNL A   1      46.515  30.196  28.152  1.00  0.00     0.049 A 
ATOM     53  C   UNL A   1      45.154  24.875  27.038  1.00  0.00     0.074 A 
ATOM     54  C   UNL A   1      47.865  30.503  28.156  1.00  0.00     0.029 A 
ATOM     55  N   UNL A   1      46.413  28.851  27.832  1.00  0.00    -0.354 N 
ATOM     56  N   UNL A   1      45.623  26.073  27.290  1.00  0.00    -0.248 NA
ATOM     57  C   UNL A   1      46.182  23.876  26.717  1.00  0.00     0.031 C 
ATOM     58  C   UNL A   1      48.578  29.348  27.815  1.00  0.00     0.029 A 
ATOM     59  C   UNL A   1      47.673  28.315  27.627  1.00  0.00     0.049 A 
ATOM     60  H   UNL A   1      45.568  28.349  27.763  1.00  0.00     0.167 HD
ATOM     61  C   UNL A   1      47.002  25.975  27.152  1.00  0.00     0.074 A 
ATOM     62  C   UNL A   1      47.292  24.595  26.818  1.00  0.00     0.031 C 
ATOM     63  C   UNL A   1      47.942  26.943  27.283  1.00  0.00     0.037 A 
BRANCH  50  64
ATOM     64  C   UNL A   1      45.684  32.500  28.758  1.00  0.00     0.058 A 
ATOM     65  C   UNL A   1      45.932  32.916  30.075  1.00  0.00     0.135 A 
ATOM     66  C   UNL A   1      45.755  33.465  27.740  1.00  0.00     0.135 A 
ATOM     67  F   UNL A   1      45.858  32.037  31.087  1.00  0.00    -0.206 F 
ATOM     68  C   UNL A   1      46.228  34.242  30.373  1.00  0.00     0.059 A 
ATOM     69  C   UNL A   1      46.066  34.793  28.013  1.00  0.00     0.059 A 
ATOM     70  F   UNL A   1      45.523  33.118  26.464  1.00  0.00    -0.206 F 
ATOM     71  C   UNL A   1      46.290  35.175  29.336  1.00  0.00     0.060 A 
BRANCH  71  72
ATOM     72  S   UNL A   1      46.678  36.892  29.738  1.00  0.00     0.124 S 
ATOM     73  O   UNL A   1      47.768  36.727  30.694  1.00  0.00    -0.237 OA
ATOM     74  O   UNL A   1      47.052  37.442  28.439  1.00  0.00    -0.237 OA
ATOM     75  O   UNL A   1      45.427  37.401  30.294  1.00  0.00    -0.744 OA
ENDBRANCH  71  72
ENDBRANCH  50  64
BRANCH  51  76
ATOM     76  C   UNL A   1      43.386  22.984  26.784  1.00  0.00     0.058 A 
ATOM     77  C   UNL A   1      43.538  22.419  25.511  1.00  0.00     0.135 A 
ATOM     78  C   UNL A   1      42.955  22.151  27.827  1.00  0.00     0.135 A 
ATOM     79  F   UNL A   1      43.943  23.180  24.482  1.00  0.00    -0.206 F 
ATOM     80  C   UNL A   1      43.283  21.072  25.280  1.00  0.00     0.059 A 
ATOM     81  C   UNL A   1      42.712  20.798  27.626  1.00  0.00     0.059 A 
ATOM     82  F   UNL A   1      42.809  22.647  29.066  1.00  0.00    -0.206 F 
ATOM     83  C   UNL A   1      42.876  20.268  26.347  1.00  0.00     0.060 A 
BRANCH  83  84
ATOM     84  S   UNL A   1      42.629  18.501  26.059  1.00  0.00     0.124 S 
ATOM     85  O   UNL A   1      41.205  18.452  25.751  1.00  0.00    -0.237 OA
ATOM     86  O   UNL A   1      43.534  18.240  24.945  1.00  0.00    -0.237 OA
ATOM     87  O   UNL A   1      43.022  17.899  27.330  1.00  0.00    -0.744 OA
ENDBRANCH  83  84
ENDBRANCH  51  76
BRANCH  63  88
ATOM     88  C   UNL A   1      49.369  26.547  27.054  1.00  0.00     0.058 A 
ATOM     89  C   UNL A   1      49.910  26.499  25.760  1.00  0.00     0.135 A 
ATOM     90  C   UNL A   1      50.218  26.267  28.136  1.00  0.00     0.135 A 
ATOM     91  F   UNL A   1      49.134  26.752  24.694  1.00  0.00    -0.206 F 
ATOM     92  C   UNL A   1      51.245  26.175  25.545  1.00  0.00     0.059 A 
ATOM     93  C   UNL A   1      51.561  25.958  27.945  1.00  0.00     0.059 A 
ATOM     94  F   UNL A   1      49.747  26.307  29.392  1.00  0.00    -0.206 F 
ATOM     95  C   UNL A   1      52.063  25.907  26.644  1.00  0.00     0.060 A 
BRANCH  95  96
ATOM     96  S   UNL A   1      53.803  25.526  26.355  1.00  0.00     0.124 S 
ATOM     97  O   UNL A   1      53.716  24.215  25.720  1.00  0.00    -0.237 OA
ATOM     98  O   UNL A   1      54.225  26.623  25.489  1.00  0.00    -0.237 OA
ATOM     99  O   UNL A   1      54.380  25.538  27.696  1.00  0.00    -0.744 OA
ENDBRANCH  95  96
ENDBRANCH  63  88
ENDBRANCH  37  38
ENDBRANCH  29  32
ENDBRANCH  27  28
ENDBRANCH   1  27
TORSDOF 17
ENDMDL
MODEL 3
REMARK VINA RESULT:     -11.7      1.608      2.459
REMARK SMILES CC(C)Cc1cc2c(cc1Cl)C=C(C(=O)NCCCCNC(=O)c1ccc(-c3c4nc(c(-c5c(F)cc(S(=O)(=O)[O-])cc5F)c5ccc([nH]5)c(-c5c(F)cc(S(=O)(=O)[O-])cc5F)c5nc(c(-c6c(F)cc(S(=O)(=O)[O-])cc6F)c6ccc3[nH]6)C=C5)C=C4)cc1)[C@@H](C(F)(F)F)O2
REMARK SMILES IDX 19 1 18 2 17 3 16 4 14 5 15 6 13 8 5 9 6 10 10 11 7 12 9 13
REMARK SMILES IDX 11 14 8 15 95 16 12 17 90 18 4 19 2 20 1 21 3 22 91 23 92 24
REMARK SMILES IDX 93 25 94 26 20 27 21 28 22 29 23 31 24 32 25 33 89 34 26 35
REMARK SMILES IDX 88 36 27 37 28 38 29 39 82 40 30 41 87 42 81 43 83 44 31 45
REMARK SMILES IDX 86 46 80 47 79 48 32 50 66 51 45 52 65 53 46 54 49 55 64 56
REMARK SMILES IDX 84 57 47 58 48 59 63 61 85 62 50 63 33 64 34 65 43 66 35 67
REMARK SMILES IDX 36 68 42 69 44 70 37 71 38 72 39 73 40 74 41 75 67 76 68 77
REMARK SMILES IDX 77 78 69 79 70 80 76 81 78 82 71 83 72 84 73 85 74 86 75 87
REMARK SMILES IDX 51 88 52 89 61 90 53 91 54 92 60 93 62 94 55 95 56 96 57 97
REMARK SMILES IDX 58 98 59 99
REMARK H PARENT 16 7 21 30 83 49 49 60
REMARK Flexibility Score: inf
ROOT
ATOM      1  C   UNL A   1      33.160  28.453  27.257  1.00  0.00     0.023 C 
ENDROOT
BRANCH   1   2
ATOM      2  C   UNL A   1      31.978  29.403  27.047  1.00  0.00     0.023 C 
BRANCH   2   3
ATOM      3  C   UNL A   1      32.187  30.435  25.941  1.00  0.00     0.116 C 
BRANCH   3   4
ATOM      4  N   UNL A   1      31.101  30.440  24.977  1.00  0.00    -0.352 N 
ATOM      5  C   UNL A   1      30.582  29.581  24.067  1.00  0.00     0.251 C 
ATOM      6  O   UNL A   1      29.610  30.004  23.433  1.00  0.00    -0.270 OA
ATOM      7  H   UNL A   1      30.612  31.294  24.987  1.00  0.00     0.163 HD
BRANCH   5   8
ATOM      8  C   UNL A   1      31.096  28.207  23.786  1.00  0.00     0.067 C 
ATOM      9  C   UNL A   1      31.858  23.205  23.862  1.00  0.00    -0.025 A 
ATOM     10  C   UNL A   1      32.211  24.251  22.995  1.00  0.00     0.052 A 
ATOM     11  C   UNL A   1      31.139  23.521  25.025  1.00  0.00     0.045 A 
ATOM     12  C   UNL A   1      31.823  25.561  23.260  1.00  0.00     0.128 A 
ATOM     13  C   UNL A   1      30.769  24.847  25.299  1.00  0.00     0.032 A 
ATOM     14  Cl  UNL A   1      30.653  22.306  26.153  1.00  0.00    -0.084 Cl
ATOM     15  C   UNL A   1      31.099  25.870  24.407  1.00  0.00     0.019 A 
ATOM     16  O   UNL A   1      32.132  26.480  22.303  1.00  0.00    -0.475 OA
ATOM     17  C   UNL A   1      30.649  27.240  24.612  1.00  0.00     0.025 C 
ATOM     18  C   UNL A   1      32.076  27.878  22.694  1.00  0.00     0.314 C 
BRANCH   9  19
ATOM     19  C   UNL A   1      32.219  21.794  23.454  1.00  0.00     0.040 C 
BRANCH  19  20
ATOM     20  C   UNL A   1      33.114  21.066  24.480  1.00  0.00    -0.013 C 
ATOM     21  C   UNL A   1      33.193  19.554  24.236  1.00  0.00     0.008 C 
ATOM     22  C   UNL A   1      34.526  21.655  24.439  1.00  0.00     0.008 C 
ENDBRANCH  19  20
ENDBRANCH   9  19
BRANCH  18  23
ATOM     23  C   UNL A   1      33.504  28.351  23.014  1.00  0.00     0.429 C 
ATOM     24  F   UNL A   1      34.354  27.987  22.021  1.00  0.00    -0.167 F 
ATOM     25  F   UNL A   1      33.599  29.695  23.127  1.00  0.00    -0.167 F 
ATOM     26  F   UNL A   1      33.979  27.822  24.164  1.00  0.00    -0.167 F 
ENDBRANCH  18  23
ENDBRANCH   5   8
ENDBRANCH   3   4
ENDBRANCH   2   3
ENDBRANCH   1   2
BRANCH   1  27
ATOM     27  C   UNL A   1      34.523  29.123  27.431  1.00  0.00     0.116 C 
BRANCH  27  28
ATOM     28  N   UNL A   1      34.534  30.225  28.385  1.00  0.00    -0.352 N 
ATOM     29  C   UNL A   1      35.600  30.671  29.136  1.00  0.00     0.251 C 
ATOM     30  H   UNL A   1      33.683  30.704  28.507  1.00  0.00     0.163 HD
ATOM     31  O   UNL A   1      35.456  31.573  29.955  1.00  0.00    -0.269 OA
BRANCH  29  32
ATOM     32  C   UNL A   1      36.902  29.995  28.975  1.00  0.00     0.039 A 
ATOM     33  C   UNL A   1      37.521  29.404  30.078  1.00  0.00     0.014 A 
ATOM     34  C   UNL A   1      37.554  30.066  27.743  1.00  0.00     0.014 A 
ATOM     35  C   UNL A   1      38.860  29.042  29.992  1.00  0.00     0.010 A 
ATOM     36  C   UNL A   1      38.879  29.635  27.642  1.00  0.00     0.010 A 
ATOM     37  C   UNL A   1      39.560  29.179  28.781  1.00  0.00    -0.014 A 
BRANCH  37  38
ATOM     38  C   UNL A   1      41.015  28.886  28.747  1.00  0.00     0.031 A 
ATOM     39  C   UNL A   1      41.511  27.527  28.326  1.00  0.00     0.074 A 
ATOM     40  C   UNL A   1      41.890  29.872  29.016  1.00  0.00     0.049 A 
ATOM     41  N   UNL A   1      42.743  27.099  28.213  1.00  0.00    -0.248 NA
ATOM     42  C   UNL A   1      40.496  26.516  27.989  1.00  0.00     0.031 C 
ATOM     43  C   UNL A   1      41.528  31.235  29.409  1.00  0.00     0.029 A 
ATOM     44  N   UNL A   1      43.260  29.893  28.965  1.00  0.00    -0.354 N 
ATOM     45  C   UNL A   1      42.653  25.771  27.814  1.00  0.00     0.074 A 
ATOM     46  C   UNL A   1      41.244  25.454  27.722  1.00  0.00     0.031 C 
ATOM     47  C   UNL A   1      42.643  31.975  29.505  1.00  0.00     0.029 A 
ATOM     48  C   UNL A   1      43.800  31.127  29.235  1.00  0.00     0.049 A 
ATOM     49  H   UNL A   1      43.805  29.100  28.756  1.00  0.00     0.167 HD
ATOM     50  C   UNL A   1      43.651  24.898  27.541  1.00  0.00     0.037 A 
ATOM     51  C   UNL A   1      45.083  31.533  29.266  1.00  0.00     0.037 A 
ATOM     52  C   UNL A   1      45.052  25.226  27.603  1.00  0.00     0.049 A 
ATOM     53  C   UNL A   1      46.173  30.541  28.982  1.00  0.00     0.074 A 
ATOM     54  C   UNL A   1      46.140  24.410  27.339  1.00  0.00     0.029 A 
ATOM     55  N   UNL A   1      45.559  26.471  27.942  1.00  0.00    -0.354 N 
ATOM     56  N   UNL A   1      46.067  29.280  28.639  1.00  0.00    -0.248 NA
ATOM     57  C   UNL A   1      47.556  31.021  29.106  1.00  0.00     0.031 C 
ATOM     58  C   UNL A   1      47.306  25.157  27.543  1.00  0.00     0.029 A 
ATOM     59  C   UNL A   1      46.943  26.445  27.906  1.00  0.00     0.049 A 
ATOM     60  H   UNL A   1      45.016  27.258  28.175  1.00  0.00     0.167 HD
ATOM     61  C   UNL A   1      47.368  28.812  28.512  1.00  0.00     0.074 A 
ATOM     62  C   UNL A   1      48.245  29.933  28.791  1.00  0.00     0.031 C 
ATOM     63  C   UNL A   1      47.799  27.566  28.199  1.00  0.00     0.037 A 
BRANCH  50  64
ATOM     64  C   UNL A   1      43.269  23.497  27.155  1.00  0.00     0.058 A 
ATOM     65  C   UNL A   1      43.329  23.060  25.823  1.00  0.00     0.135 A 
ATOM     66  C   UNL A   1      42.884  22.568  28.135  1.00  0.00     0.135 A 
ATOM     67  F   UNL A   1      43.674  23.914  24.846  1.00  0.00    -0.206 F 
ATOM     68  C   UNL A   1      43.005  21.753  25.474  1.00  0.00     0.059 A 
ATOM     69  C   UNL A   1      42.572  21.251  27.811  1.00  0.00     0.059 A 
ATOM     70  F   UNL A   1      42.808  22.938  29.423  1.00  0.00    -0.206 F 
ATOM     71  C   UNL A   1      42.626  20.856  26.474  1.00  0.00     0.060 A 
BRANCH  71  72
ATOM     72  S   UNL A   1      42.211  19.162  26.005  1.00  0.00     0.124 S 
ATOM     73  O   UNL A   1      43.046  18.976  24.823  1.00  0.00    -0.237 OA
ATOM     74  O   UNL A   1      42.608  18.403  27.187  1.00  0.00    -0.237 OA
ATOM     75  O   UNL A   1      40.774  19.220  25.756  1.00  0.00    -0.744 OA
ENDBRANCH  71  72
ENDBRANCH  50  64
BRANCH  51  76
ATOM     76  C   UNL A   1      45.393  32.949  29.579  1.00  0.00     0.058 A 
ATOM     77  C   UNL A   1      45.667  33.351  30.893  1.00  0.00     0.135 A 
ATOM     78  C   UNL A   1      45.477  33.915  28.565  1.00  0.00     0.135 A 
ATOM     79  F   UNL A   1      45.593  32.461  31.896  1.00  0.00    -0.206 F 
ATOM     80  C   UNL A   1      46.021  34.661  31.193  1.00  0.00     0.059 A 
ATOM     81  C   UNL A   1      45.848  35.227  28.836  1.00  0.00     0.059 A 
ATOM     82  F   UNL A   1      45.237  33.572  27.290  1.00  0.00    -0.206 F 
ATOM     83  C   UNL A   1      46.116  35.591  30.155  1.00  0.00     0.060 A 
BRANCH  83  84
ATOM     84  S   UNL A   1      46.660  37.270  30.539  1.00  0.00     0.124 S 
ATOM     85  O   UNL A   1      46.348  37.361  31.961  1.00  0.00    -0.237 OA
ATOM     86  O   UNL A   1      48.079  37.221  30.198  1.00  0.00    -0.237 OA
ATOM     87  O   UNL A   1      45.841  38.096  29.657  1.00  0.00    -0.744 OA
ENDBRANCH  83  84
ENDBRANCH  51  76
BRANCH  63  88
ATOM     88  C   UNL A   1      49.281  27.344  28.153  1.00  0.00     0.058 A 
ATOM     89  C   UNL A   1      49.953  26.715  29.212  1.00  0.00     0.135 A 
ATOM     90  C   UNL A   1      50.026  27.711  27.022  1.00  0.00     0.135 A 
ATOM     91  F   UNL A   1      49.282  26.352  30.317  1.00  0.00    -0.206 F 
ATOM     92  C   UNL A   1      51.320  26.467  29.156  1.00  0.00     0.059 A 
ATOM     93  C   UNL A   1      51.391  27.457  26.938  1.00  0.00     0.059 A 
ATOM     94  F   UNL A   1      49.425  28.310  25.982  1.00  0.00    -0.206 F 
ATOM     95  C   UNL A   1      52.030  26.841  28.014  1.00  0.00     0.060 A 
BRANCH  95  96
ATOM     96  S   UNL A   1      53.797  26.479  27.936  1.00  0.00     0.124 S 
ATOM     97  O   UNL A   1      54.147  26.415  29.352  1.00  0.00    -0.237 OA
ATOM     98  O   UNL A   1      53.825  25.208  27.218  1.00  0.00    -0.237 OA
ATOM     99  O   UNL A   1      54.344  27.617  27.204  1.00  0.00    -0.744 OA
ENDBRANCH  95  96
ENDBRANCH  63  88
ENDBRANCH  37  38
ENDBRANCH  29  32
ENDBRANCH  27  28
ENDBRANCH   1  27
TORSDOF 17
ENDMDL
