MODEL 1
REMARK VINA RESULT:     -13.6      0.000      0.000
REMARK SMILES Cc1cc(NC(=O)N2CCO[C@@H](CC(=O)NCCCCNC(=O)c3ccc(-c4c5nc(c(-c6c(F)cc(S(=O)(=O)[O-])cc6F)c6ccc([nH]6)c(-c6c(F)cc(S(=O)(=O)[O-])cc6F)c6nc(c(-c7c(F)cc(S(=O)(=O)[O-])cc7F)c7ccc4[nH]7)C=C6)C=C5)cc3)C2)ccc1F
REMARK SMILES IDX 18 1 17 2 16 3 14 4 15 5 13 7 12 8 8 9 9 10 90 11 10 12
REMARK SMILES IDX 11 13 6 14 5 15 7 17 4 18 1 19 2 20 3 21 93 22 92 23 94 24
REMARK SMILES IDX 91 25 19 26 20 27 21 28 22 29 23 31 24 32 25 33 89 34 26 35
REMARK SMILES IDX 88 36 27 37 28 38 29 39 82 40 30 41 87 42 81 43 83 44 31 45
REMARK SMILES IDX 86 46 80 47 79 48 32 50 66 51 45 52 65 53 46 54 49 55 64 56
REMARK SMILES IDX 84 57 47 58 48 59 63 61 85 62 50 63 33 64 34 65 43 66 35 67
REMARK SMILES IDX 36 68 42 69 44 70 37 71 38 72 39 73 40 74 41 75 67 76 68 77
REMARK SMILES IDX 77 78 69 79 70 80 76 81 78 82 71 83 72 84 73 85 74 86 75 87
REMARK SMILES IDX 51 88 52 89 61 90 53 91 54 92 60 93 62 94 55 95 56 96 57 97
REMARK SMILES IDX 58 98 59 99
REMARK H PARENT 16 6 5 16 21 30 83 49 49 60
REMARK Flexibility Score: inf
ROOT
ATOM      1  C   UNL A   1      32.955  29.351  25.652  1.00  0.00     0.023 C 
ENDROOT
BRANCH   1   2
ATOM      2  C   UNL A   1      31.533  29.769  25.245  1.00  0.00     0.116 C 
BRANCH   2   3
ATOM      3  N   UNL A   1      31.212  29.583  23.824  1.00  0.00    -0.356 N 
ATOM      4  C   UNL A   1      30.428  28.686  23.162  1.00  0.00     0.222 C 
ATOM      5  O   UNL A   1      30.314  28.801  21.939  1.00  0.00    -0.275 OA
ATOM      6  H   UNL A   1      31.651  30.236  23.232  1.00  0.00     0.163 HD
BRANCH   4   7
ATOM      7  C   UNL A   1      29.763  27.530  23.879  1.00  0.00     0.133 C 
BRANCH   7   8
ATOM      8  C   UNL A   1      30.750  26.373  24.093  1.00  0.00     0.147 C 
ATOM      9  N   UNL A   1      30.889  24.219  25.370  1.00  0.00    -0.320 N 
ATOM     10  C   UNL A   1      31.056  23.506  24.109  1.00  0.00     0.150 C 
ATOM     11  C   UNL A   1      30.215  25.483  25.211  1.00  0.00     0.154 C 
ATOM     12  C   UNL A   1      31.657  24.432  23.046  1.00  0.00     0.182 C 
ATOM     13  O   UNL A   1      30.865  25.621  22.863  1.00  0.00    -0.374 OA
BRANCH   9  14
ATOM     14  C   UNL A   1      30.641  23.533  26.537  1.00  0.00     0.322 C 
ATOM     15  N   UNL A   1      31.476  22.538  26.915  1.00  0.00    -0.308 N 
ATOM     16  H   UNL A   1      31.079  21.893  27.544  1.00  0.00     0.171 HD
ATOM     17  O   UNL A   1      29.696  23.774  27.283  1.00  0.00    -0.248 OA
BRANCH  15  18
ATOM     18  C   UNL A   1      32.799  22.267  26.569  1.00  0.00     0.043 A 
ATOM     19  C   UNL A   1      34.563  19.465  24.718  1.00  0.00     0.047 C 
ATOM     20  C   UNL A   1      34.322  20.732  25.473  1.00  0.00    -0.013 A 
ATOM     21  C   UNL A   1      33.038  21.053  25.922  1.00  0.00     0.032 A 
ATOM     22  C   UNL A   1      35.356  21.647  25.685  1.00  0.00     0.126 A 
ATOM     23  C   UNL A   1      35.144  22.824  26.390  1.00  0.00     0.041 A 
ATOM     24  F   UNL A   1      36.581  21.392  25.207  1.00  0.00    -0.207 F 
ATOM     25  C   UNL A   1      33.867  23.121  26.855  1.00  0.00     0.029 A 
ENDBRANCH  15  18
ENDBRANCH   9  14
ENDBRANCH   7   8
ENDBRANCH   4   7
ENDBRANCH   2   3
ENDBRANCH   1   2
BRANCH   1  26
ATOM     26  C   UNL A   1      33.245  29.256  27.148  1.00  0.00     0.023 C 
BRANCH  26  27
ATOM     27  C   UNL A   1      34.733  29.346  27.392  1.00  0.00     0.116 C 
BRANCH  27  28
ATOM     28  N   UNL A   1      35.210  30.454  28.213  1.00  0.00    -0.352 N 
ATOM     29  C   UNL A   1      36.361  30.520  28.991  1.00  0.00     0.251 C 
ATOM     30  H   UNL A   1      34.644  31.259  28.217  1.00  0.00     0.163 HD
ATOM     31  O   UNL A   1      36.557  31.473  29.742  1.00  0.00    -0.269 OA
BRANCH  29  32
ATOM     32  C   UNL A   1      37.404  29.464  28.851  1.00  0.00     0.039 A 
ATOM     33  C   UNL A   1      37.708  28.618  29.924  1.00  0.00     0.014 A 
ATOM     34  C   UNL A   1      38.230  29.458  27.740  1.00  0.00     0.014 A 
ATOM     35  C   UNL A   1      38.946  27.965  29.953  1.00  0.00     0.010 A 
ATOM     36  C   UNL A   1      39.532  29.063  27.892  1.00  0.00     0.010 A 
ATOM     37  C   UNL A   1      39.895  28.284  28.981  1.00  0.00    -0.014 A 
BRANCH  37  38
ATOM     38  C   UNL A   1      41.266  27.803  28.918  1.00  0.00     0.031 A 
ATOM     39  C   UNL A   1      41.501  26.429  28.417  1.00  0.00     0.074 A 
ATOM     40  C   UNL A   1      42.314  28.589  29.234  1.00  0.00     0.049 A 
ATOM     41  N   UNL A   1      42.406  25.637  28.879  1.00  0.00    -0.248 NA
ATOM     42  C   UNL A   1      40.701  25.826  27.351  1.00  0.00     0.031 C 
ATOM     43  C   UNL A   1      43.731  28.281  29.065  1.00  0.00     0.029 A 
ATOM     44  N   UNL A   1      42.315  29.784  29.931  1.00  0.00    -0.354 N 
ATOM     45  C   UNL A   1      42.478  24.555  28.031  1.00  0.00     0.074 A 
ATOM     46  C   UNL A   1      41.365  24.691  27.126  1.00  0.00     0.031 C 
ATOM     47  C   UNL A   1      44.447  29.101  29.852  1.00  0.00     0.029 A 
ATOM     48  C   UNL A   1      43.518  29.900  30.638  1.00  0.00     0.049 A 
ATOM     49  H   UNL A   1      41.587  30.446  29.931  1.00  0.00     0.167 HD
ATOM     50  C   UNL A   1      43.551  23.716  28.078  1.00  0.00     0.037 A 
ATOM     51  C   UNL A   1      43.504  29.932  32.008  1.00  0.00     0.037 A 
ATOM     52  C   UNL A   1      44.535  24.197  29.042  1.00  0.00     0.049 A 
ATOM     53  C   UNL A   1      44.020  28.670  32.660  1.00  0.00     0.074 A 
ATOM     54  C   UNL A   1      45.655  24.998  28.883  1.00  0.00     0.029 A 
ATOM     55  N   UNL A   1      44.235  24.209  30.401  1.00  0.00    -0.354 N 
ATOM     56  N   UNL A   1      44.302  27.572  32.013  1.00  0.00    -0.248 NA
ATOM     57  C   UNL A   1      44.247  28.536  34.097  1.00  0.00     0.031 C 
ATOM     58  C   UNL A   1      45.968  25.570  30.141  1.00  0.00     0.029 A 
ATOM     59  C   UNL A   1      45.064  25.091  31.073  1.00  0.00     0.049 A 
ATOM     60  H   UNL A   1      43.532  23.665  30.824  1.00  0.00     0.167 HD
ATOM     61  C   UNL A   1      44.666  26.591  32.898  1.00  0.00     0.074 A 
ATOM     62  C   UNL A   1      44.659  27.258  34.187  1.00  0.00     0.031 C 
ATOM     63  C   UNL A   1      44.923  25.307  32.507  1.00  0.00     0.037 A 
BRANCH  50  64
ATOM     64  C   UNL A   1      43.808  22.680  27.009  1.00  0.00     0.058 A 
ATOM     65  C   UNL A   1      42.991  21.540  26.887  1.00  0.00     0.135 A 
ATOM     66  C   UNL A   1      44.881  22.743  26.094  1.00  0.00     0.135 A 
ATOM     67  F   UNL A   1      41.888  21.387  27.633  1.00  0.00    -0.206 F 
ATOM     68  C   UNL A   1      43.275  20.496  26.006  1.00  0.00     0.059 A 
ATOM     69  C   UNL A   1      45.221  21.687  25.244  1.00  0.00     0.059 A 
ATOM     70  F   UNL A   1      45.630  23.853  25.981  1.00  0.00    -0.206 F 
ATOM     71  C   UNL A   1      44.411  20.560  25.210  1.00  0.00     0.060 A 
BRANCH  71  72
ATOM     72  S   UNL A   1      44.803  19.162  24.141  1.00  0.00     0.124 S 
ATOM     73  O   UNL A   1      43.978  18.098  24.707  1.00  0.00    -0.237 OA
ATOM     74  O   UNL A   1      44.390  19.658  22.834  1.00  0.00    -0.237 OA
ATOM     75  O   UNL A   1      46.241  18.988  24.322  1.00  0.00    -0.744 OA
ENDBRANCH  71  72
ENDBRANCH  50  64
BRANCH  51  76
ATOM     76  C   UNL A   1      42.478  30.876  32.566  1.00  0.00     0.058 A 
ATOM     77  C   UNL A   1      41.411  30.234  33.222  1.00  0.00     0.135 A 
ATOM     78  C   UNL A   1      42.907  32.106  33.086  1.00  0.00     0.135 A 
ATOM     79  F   UNL A   1      40.881  29.119  32.697  1.00  0.00    -0.206 F 
ATOM     80  C   UNL A   1      41.061  30.576  34.523  1.00  0.00     0.059 A 
ATOM     81  C   UNL A   1      42.583  32.461  34.396  1.00  0.00     0.059 A 
ATOM     82  F   UNL A   1      43.835  32.822  32.435  1.00  0.00    -0.206 F 
ATOM     83  C   UNL A   1      41.766  31.604  35.139  1.00  0.00     0.060 A 
BRANCH  83  84
ATOM     84  S   UNL A   1      41.977  31.574  36.940  1.00  0.00     0.124 S 
ATOM     85  O   UNL A   1      43.029  32.539  37.159  1.00  0.00    -0.237 OA
ATOM     86  O   UNL A   1      40.652  31.952  37.443  1.00  0.00    -0.237 OA
ATOM     87  O   UNL A   1      42.319  30.163  37.148  1.00  0.00    -0.744 OA
ENDBRANCH  83  84
ENDBRANCH  51  76
BRANCH  63  88
ATOM     88  C   UNL A   1      45.156  24.143  33.438  1.00  0.00     0.058 A 
ATOM     89  C   UNL A   1      44.217  23.128  33.676  1.00  0.00     0.135 A 
ATOM     90  C   UNL A   1      46.429  23.954  34.030  1.00  0.00     0.135 A 
ATOM     91  F   UNL A   1      43.014  23.137  33.082  1.00  0.00    -0.206 F 
ATOM     92  C   UNL A   1      44.492  22.036  34.501  1.00  0.00     0.059 A 
ATOM     93  C   UNL A   1      46.743  22.843  34.807  1.00  0.00     0.059 A 
ATOM     94  F   UNL A   1      47.417  24.846  33.861  1.00  0.00    -0.206 F 
ATOM     95  C   UNL A   1      45.758  21.903  35.063  1.00  0.00     0.060 A 
BRANCH  95  96
ATOM     96  S   UNL A   1      46.142  20.471  36.088  1.00  0.00     0.124 S 
ATOM     97  O   UNL A   1      47.581  20.345  35.881  1.00  0.00    -0.237 OA
ATOM     98  O   UNL A   1      45.733  20.904  37.421  1.00  0.00    -0.237 OA
ATOM     99  O   UNL A   1      45.322  19.415  35.502  1.00  0.00    -0.744 OA
ENDBRANCH  95  96
ENDBRANCH  63  88
ENDBRANCH  37  38
ENDBRANCH  29  32
ENDBRANCH  27  28
ENDBRANCH  26  27
ENDBRANCH   1  26
TORSDOF 17
ENDMDL
MODEL 2
REMARK VINA RESULT:     -13.6      1.645      2.164
REMARK SMILES Cc1cc(NC(=O)N2CCO[C@@H](CC(=O)NCCCCNC(=O)c3ccc(-c4c5nc(c(-c6c(F)cc(S(=O)(=O)[O-])cc6F)c6ccc([nH]6)c(-c6c(F)cc(S(=O)(=O)[O-])cc6F)c6nc(c(-c7c(F)cc(S(=O)(=O)[O-])cc7F)c7ccc4[nH]7)C=C6)C=C5)cc3)C2)ccc1F
REMARK SMILES IDX 18 1 17 2 16 3 14 4 15 5 13 7 12 8 8 9 9 10 90 11 10 12
REMARK SMILES IDX 11 13 6 14 5 15 7 17 4 18 1 19 2 20 3 21 93 22 92 23 94 24
REMARK SMILES IDX 91 25 19 26 20 27 21 28 22 29 23 31 24 32 25 33 89 34 26 35
REMARK SMILES IDX 88 36 27 37 28 38 29 39 82 40 30 41 87 42 81 43 83 44 31 45
REMARK SMILES IDX 86 46 80 47 79 48 32 50 66 51 45 52 65 53 46 54 49 55 64 56
REMARK SMILES IDX 84 57 47 58 48 59 63 61 85 62 50 63 33 64 34 65 43 66 35 67
REMARK SMILES IDX 36 68 42 69 44 70 37 71 38 72 39 73 40 74 41 75 67 76 68 77
REMARK SMILES IDX 77 78 69 79 70 80 76 81 78 82 71 83 72 84 73 85 74 86 75 87
REMARK SMILES IDX 51 88 52 89 61 90 53 91 54 92 60 93 62 94 55 95 56 96 57 97
REMARK SMILES IDX 58 98 59 99
REMARK H PARENT 16 6 5 16 21 30 83 49 49 60
REMARK Flexibility Score: inf
ROOT
ATOM      1  C   UNL A   1      33.073  29.087  25.740  1.00  0.00     0.023 C 
ENDROOT
BRANCH   1   2
ATOM      2  C   UNL A   1      31.592  29.271  25.370  1.00  0.00     0.116 C 
BRANCH   2   3
ATOM      3  N   UNL A   1      31.275  29.077  23.950  1.00  0.00    -0.356 N 
ATOM      4  C   UNL A   1      30.583  28.113  23.280  1.00  0.00     0.222 C 
ATOM      5  O   UNL A   1      30.442  28.237  22.059  1.00  0.00    -0.275 OA
ATOM      6  H   UNL A   1      31.636  29.783  23.365  1.00  0.00     0.163 HD
BRANCH   4   7
ATOM      7  C   UNL A   1      30.053  26.880  23.981  1.00  0.00     0.133 C 
BRANCH   7   8
ATOM      8  C   UNL A   1      31.117  25.775  24.032  1.00  0.00     0.147 C 
ATOM      9  N   UNL A   1      31.651  23.725  25.375  1.00  0.00    -0.320 N 
ATOM     10  C   UNL A   1      31.557  22.928  24.157  1.00  0.00     0.150 C 
ATOM     11  C   UNL A   1      30.898  24.952  25.298  1.00  0.00     0.154 C 
ATOM     12  C   UNL A   1      31.852  23.793  22.927  1.00  0.00     0.182 C 
ATOM     13  O   UNL A   1      30.983  24.940  22.860  1.00  0.00    -0.374 OA
BRANCH   9  14
ATOM     14  C   UNL A   1      31.711  23.118  26.608  1.00  0.00     0.322 C 
ATOM     15  N   UNL A   1      32.669  22.194  26.850  1.00  0.00    -0.308 N 
ATOM     16  H   UNL A   1      32.463  21.580  27.592  1.00  0.00     0.171 HD
ATOM     17  O   UNL A   1      30.942  23.370  27.532  1.00  0.00    -0.248 OA
BRANCH  15  18
ATOM     18  C   UNL A   1      33.896  21.959  26.232  1.00  0.00     0.043 A 
ATOM     19  C   UNL A   1      37.190  23.830  26.019  1.00  0.00     0.047 C 
ATOM     20  C   UNL A   1      36.140  22.783  25.828  1.00  0.00    -0.013 A 
ATOM     21  C   UNL A   1      34.858  22.964  26.352  1.00  0.00     0.032 A 
ATOM     22  C   UNL A   1      36.439  21.581  25.184  1.00  0.00     0.126 A 
ATOM     23  C   UNL A   1      35.470  20.604  24.996  1.00  0.00     0.041 A 
ATOM     24  F   UNL A   1      37.680  21.356  24.730  1.00  0.00    -0.207 F 
ATOM     25  C   UNL A   1      34.189  20.806  25.499  1.00  0.00     0.029 A 
ENDBRANCH  15  18
ENDBRANCH   9  14
ENDBRANCH   7   8
ENDBRANCH   4   7
ENDBRANCH   2   3
ENDBRANCH   1   2
BRANCH   1  26
ATOM     26  C   UNL A   1      33.409  29.012  27.227  1.00  0.00     0.023 C 
BRANCH  26  27
ATOM     27  C   UNL A   1      34.881  29.276  27.436  1.00  0.00     0.116 C 
BRANCH  27  28
ATOM     28  N   UNL A   1      35.243  30.315  28.395  1.00  0.00    -0.352 N 
ATOM     29  C   UNL A   1      36.297  30.324  29.303  1.00  0.00     0.251 C 
ATOM     30  H   UNL A   1      34.667  31.114  28.400  1.00  0.00     0.163 HD
ATOM     31  O   UNL A   1      36.391  31.213  30.147  1.00  0.00    -0.269 OA
BRANCH  29  32
ATOM     32  C   UNL A   1      37.367  29.291  29.198  1.00  0.00     0.039 A 
ATOM     33  C   UNL A   1      37.714  28.513  30.308  1.00  0.00     0.014 A 
ATOM     34  C   UNL A   1      38.171  29.247  28.073  1.00  0.00     0.014 A 
ATOM     35  C   UNL A   1      38.971  27.895  30.346  1.00  0.00     0.010 A 
ATOM     36  C   UNL A   1      39.486  28.897  28.219  1.00  0.00     0.010 A 
ATOM     37  C   UNL A   1      39.892  28.188  29.339  1.00  0.00    -0.014 A 
BRANCH  37  38
ATOM     38  C   UNL A   1      41.274  27.741  29.275  1.00  0.00     0.031 A 
ATOM     39  C   UNL A   1      41.548  26.401  28.706  1.00  0.00     0.074 A 
ATOM     40  C   UNL A   1      42.299  28.533  29.648  1.00  0.00     0.049 A 
ATOM     41  N   UNL A   1      42.465  25.606  29.141  1.00  0.00    -0.248 NA
ATOM     42  C   UNL A   1      40.779  25.837  27.597  1.00  0.00     0.031 C 
ATOM     43  C   UNL A   1      43.724  28.266  29.487  1.00  0.00     0.029 A 
ATOM     44  N   UNL A   1      42.262  29.689  30.407  1.00  0.00    -0.354 N 
ATOM     45  C   UNL A   1      42.574  24.572  28.239  1.00  0.00     0.074 A 
ATOM     46  C   UNL A   1      41.473  24.731  27.324  1.00  0.00     0.031 C 
ATOM     47  C   UNL A   1      44.409  29.058  30.328  1.00  0.00     0.029 A 
ATOM     48  C   UNL A   1      43.450  29.794  31.139  1.00  0.00     0.049 A 
ATOM     49  H   UNL A   1      41.518  30.334  30.430  1.00  0.00     0.167 HD
ATOM     50  C   UNL A   1      43.665  23.756  28.259  1.00  0.00     0.037 A 
ATOM     51  C   UNL A   1      43.414  29.753  32.508  1.00  0.00     0.037 A 
ATOM     52  C   UNL A   1      44.624  24.207  29.264  1.00  0.00     0.049 A 
ATOM     53  C   UNL A   1      43.949  28.471  33.102  1.00  0.00     0.074 A 
ATOM     54  C   UNL A   1      45.726  25.040  29.166  1.00  0.00     0.029 A 
ATOM     55  N   UNL A   1      44.302  24.141  30.616  1.00  0.00    -0.354 N 
ATOM     56  N   UNL A   1      44.267  27.415  32.403  1.00  0.00    -0.248 NA
ATOM     57  C   UNL A   1      44.157  28.266  34.533  1.00  0.00     0.031 C 
ATOM     58  C   UNL A   1      46.007  25.553  30.456  1.00  0.00     0.029 A 
ATOM     59  C   UNL A   1      45.100  25.004  31.347  1.00  0.00     0.049 A 
ATOM     60  H   UNL A   1      43.605  23.560  30.999  1.00  0.00     0.167 HD
ATOM     61  C   UNL A   1      44.639  26.397  33.241  1.00  0.00     0.074 A 
ATOM     62  C   UNL A   1      44.597  26.995  34.563  1.00  0.00     0.031 C 
ATOM     63  C   UNL A   1      44.932  25.141  32.788  1.00  0.00     0.037 A 
BRANCH  50  64
ATOM     64  C   UNL A   1      43.963  22.784  27.142  1.00  0.00     0.058 A 
ATOM     65  C   UNL A   1      43.103  21.703  26.869  1.00  0.00     0.135 A 
ATOM     66  C   UNL A   1      45.114  22.850  26.328  1.00  0.00     0.135 A 
ATOM     67  F   UNL A   1      41.932  21.562  27.505  1.00  0.00    -0.206 F 
ATOM     68  C   UNL A   1      43.410  20.708  25.939  1.00  0.00     0.059 A 
ATOM     69  C   UNL A   1      45.474  21.837  25.433  1.00  0.00     0.059 A 
ATOM     70  F   UNL A   1      45.924  23.920  26.361  1.00  0.00    -0.206 F 
ATOM     71  C   UNL A   1      44.614  20.763  25.249  1.00  0.00     0.060 A 
BRANCH  71  72
ATOM     72  S   UNL A   1      45.027  19.422  24.115  1.00  0.00     0.124 S 
ATOM     73  O   UNL A   1      46.487  19.419  24.157  1.00  0.00    -0.237 OA
ATOM     74  O   UNL A   1      44.371  18.283  24.745  1.00  0.00    -0.237 OA
ATOM     75  O   UNL A   1      44.448  19.859  22.848  1.00  0.00    -0.744 OA
ENDBRANCH  71  72
ENDBRANCH  50  64
BRANCH  51  76
ATOM     76  C   UNL A   1      42.358  30.644  33.098  1.00  0.00     0.058 A 
ATOM     77  C   UNL A   1      42.648  32.017  32.994  1.00  0.00     0.135 A 
ATOM     78  C   UNL A   1      41.013  30.260  32.983  1.00  0.00     0.135 A 
ATOM     79  F   UNL A   1      43.899  32.451  33.217  1.00  0.00    -0.206 F 
ATOM     80  C   UNL A   1      41.741  32.900  32.421  1.00  0.00     0.059 A 
ATOM     81  C   UNL A   1      40.089  31.123  32.393  1.00  0.00     0.059 A 
ATOM     82  F   UNL A   1      40.660  28.984  33.194  1.00  0.00    -0.206 F 
ATOM     83  C   UNL A   1      40.518  32.393  31.996  1.00  0.00     0.060 A 
BRANCH  83  84
ATOM     84  S   UNL A   1      39.677  33.175  30.593  1.00  0.00     0.124 S 
ATOM     85  O   UNL A   1      38.468  33.695  31.188  1.00  0.00    -0.237 OA
ATOM     86  O   UNL A   1      40.644  34.180  30.136  1.00  0.00    -0.237 OA
ATOM     87  O   UNL A   1      39.531  32.027  29.692  1.00  0.00    -0.744 OA
ENDBRANCH  83  84
ENDBRANCH  51  76
BRANCH  63  88
ATOM     88  C   UNL A   1      45.178  23.936  33.661  1.00  0.00     0.058 A 
ATOM     89  C   UNL A   1      44.234  22.920  33.880  1.00  0.00     0.135 A 
ATOM     90  C   UNL A   1      46.464  23.708  34.208  1.00  0.00     0.135 A 
ATOM     91  F   UNL A   1      43.016  22.967  33.321  1.00  0.00    -0.206 F 
ATOM     92  C   UNL A   1      44.519  21.790  34.649  1.00  0.00     0.059 A 
ATOM     93  C   UNL A   1      46.787  22.561  34.927  1.00  0.00     0.059 A 
ATOM     94  F   UNL A   1      47.457  24.597  34.051  1.00  0.00    -0.206 F 
ATOM     95  C   UNL A   1      45.798  21.620  35.169  1.00  0.00     0.060 A 
BRANCH  95  96
ATOM     96  S   UNL A   1      46.194  20.142  36.120  1.00  0.00     0.124 S 
ATOM     97  O   UNL A   1      45.761  20.533  37.457  1.00  0.00    -0.237 OA
ATOM     98  O   UNL A   1      45.388  19.111  35.473  1.00  0.00    -0.237 OA
ATOM     99  O   UNL A   1      47.636  20.005  35.934  1.00  0.00    -0.744 OA
ENDBRANCH  95  96
ENDBRANCH  63  88
ENDBRANCH  37  38
ENDBRANCH  29  32
ENDBRANCH  27  28
ENDBRANCH  26  27
ENDBRANCH   1  26
TORSDOF 17
ENDMDL
MODEL 3
REMARK VINA RESULT:     -13.0      2.206      2.879
REMARK SMILES Cc1cc(NC(=O)N2CCO[C@@H](CC(=O)NCCCCNC(=O)c3ccc(-c4c5nc(c(-c6c(F)cc(S(=O)(=O)[O-])cc6F)c6ccc([nH]6)c(-c6c(F)cc(S(=O)(=O)[O-])cc6F)c6nc(c(-c7c(F)cc(S(=O)(=O)[O-])cc7F)c7ccc4[nH]7)C=C6)C=C5)cc3)C2)ccc1F
REMARK SMILES IDX 18 1 17 2 16 3 14 4 15 5 13 7 12 8 8 9 9 10 90 11 10 12
REMARK SMILES IDX 11 13 6 14 5 15 7 17 4 18 1 19 2 20 3 21 93 22 92 23 94 24
REMARK SMILES IDX 91 25 19 26 20 27 21 28 22 29 23 31 24 32 25 33 89 34 26 35
REMARK SMILES IDX 88 36 27 37 28 38 29 39 82 40 30 41 87 42 81 43 83 44 31 45
REMARK SMILES IDX 86 46 80 47 79 48 32 50 66 51 45 52 65 53 46 54 49 55 64 56
REMARK SMILES IDX 84 57 47 58 48 59 63 61 85 62 50 63 33 64 34 65 43 66 35 67
REMARK SMILES IDX 36 68 42 69 44 70 37 71 38 72 39 73 40 74 41 75 67 76 68 77
REMARK SMILES IDX 77 78 69 79 70 80 76 81 78 82 71 83 72 84 73 85 74 86 75 87
REMARK SMILES IDX 51 88 52 89 61 90 53 91 54 92 60 93 62 94 55 95 56 96 57 97
REMARK SMILES IDX 58 98 59 99
REMARK H PARENT 16 6 5 16 21 30 83 49 49 60
REMARK Flexibility Score: inf
ROOT
ATOM      1  C   UNL A   1      33.196  28.735  25.611  1.00  0.00     0.023 C 
ENDROOT
BRANCH   1   2
ATOM      2  C   UNL A   1      33.651  27.354  25.109  1.00  0.00     0.116 C 
BRANCH   2   3
ATOM      3  N   UNL A   1      33.810  27.241  23.654  1.00  0.00    -0.356 N 
ATOM      4  C   UNL A   1      33.582  26.226  22.774  1.00  0.00     0.222 C 
ATOM      5  O   UNL A   1      33.774  26.439  21.574  1.00  0.00    -0.275 OA
ATOM      6  H   UNL A   1      34.150  28.062  23.230  1.00  0.00     0.163 HD
BRANCH   4   7
ATOM      7  C   UNL A   1      33.173  24.845  23.241  1.00  0.00     0.133 C 
BRANCH   7   8
ATOM      8  C   UNL A   1      34.305  24.171  24.030  1.00  0.00     0.147 C 
ATOM      9  N   UNL A   1      34.637  22.214  25.563  1.00  0.00    -0.320 N 
ATOM     10  C   UNL A   1      35.603  21.664  24.618  1.00  0.00     0.150 C 
ATOM     11  C   UNL A   1      33.695  23.109  24.940  1.00  0.00     0.154 C 
ATOM     12  C   UNL A   1      36.229  22.784  23.780  1.00  0.00     0.182 C 
ATOM     13  O   UNL A   1      35.229  23.564  23.098  1.00  0.00    -0.374 OA
BRANCH   9  14
ATOM     14  C   UNL A   1      34.163  21.452  26.605  1.00  0.00     0.322 C 
ATOM     15  N   UNL A   1      33.263  20.472  26.358  1.00  0.00    -0.308 N 
ATOM     16  H   UNL A   1      32.732  20.202  27.142  1.00  0.00     0.171 HD
ATOM     17  O   UNL A   1      34.515  21.596  27.773  1.00  0.00    -0.248 OA
BRANCH  15  18
ATOM     18  C   UNL A   1      32.957  19.779  25.188  1.00  0.00     0.043 A 
ATOM     19  C   UNL A   1      31.729  20.761  21.736  1.00  0.00     0.047 C 
ATOM     20  C   UNL A   1      32.195  19.937  22.892  1.00  0.00    -0.013 A 
ATOM     21  C   UNL A   1      32.459  20.536  24.126  1.00  0.00     0.032 A 
ATOM     22  C   UNL A   1      32.440  18.570  22.743  1.00  0.00     0.126 A 
ATOM     23  C   UNL A   1      32.868  17.793  23.812  1.00  0.00     0.041 A 
ATOM     24  F   UNL A   1      32.257  17.984  21.552  1.00  0.00    -0.207 F 
ATOM     25  C   UNL A   1      33.102  18.396  25.044  1.00  0.00     0.029 A 
ENDBRANCH  15  18
ENDBRANCH   9  14
ENDBRANCH   7   8
ENDBRANCH   4   7
ENDBRANCH   2   3
ENDBRANCH   1   2
BRANCH   1  26
ATOM     26  C   UNL A   1      33.407  29.034  27.092  1.00  0.00     0.023 C 
BRANCH  26  27
ATOM     27  C   UNL A   1      34.868  29.305  27.361  1.00  0.00     0.116 C 
BRANCH  27  28
ATOM     28  N   UNL A   1      35.187  30.314  28.366  1.00  0.00    -0.352 N 
ATOM     29  C   UNL A   1      36.200  30.294  29.319  1.00  0.00     0.251 C 
ATOM     30  H   UNL A   1      34.611  31.112  28.370  1.00  0.00     0.163 HD
ATOM     31  O   UNL A   1      36.256  31.158  30.193  1.00  0.00    -0.269 OA
BRANCH  29  32
ATOM     32  C   UNL A   1      37.274  29.265  29.229  1.00  0.00     0.039 A 
ATOM     33  C   UNL A   1      37.647  28.526  30.358  1.00  0.00     0.014 A 
ATOM     34  C   UNL A   1      38.059  29.188  28.092  1.00  0.00     0.014 A 
ATOM     35  C   UNL A   1      38.907  27.918  30.394  1.00  0.00     0.010 A 
ATOM     36  C   UNL A   1      39.379  28.851  28.226  1.00  0.00     0.010 A 
ATOM     37  C   UNL A   1      39.808  28.181  29.362  1.00  0.00    -0.014 A 
BRANCH  37  38
ATOM     38  C   UNL A   1      41.192  27.741  29.288  1.00  0.00     0.031 A 
ATOM     39  C   UNL A   1      41.468  26.400  28.722  1.00  0.00     0.074 A 
ATOM     40  C   UNL A   1      42.216  28.539  29.650  1.00  0.00     0.049 A 
ATOM     41  N   UNL A   1      42.392  25.611  29.153  1.00  0.00    -0.248 NA
ATOM     42  C   UNL A   1      40.693  25.828  27.622  1.00  0.00     0.031 C 
ATOM     43  C   UNL A   1      43.642  28.278  29.478  1.00  0.00     0.029 A 
ATOM     44  N   UNL A   1      42.180  29.698  30.404  1.00  0.00    -0.354 N 
ATOM     45  C   UNL A   1      42.498  24.574  28.254  1.00  0.00     0.074 A 
ATOM     46  C   UNL A   1      41.389  24.724  27.348  1.00  0.00     0.031 C 
ATOM     47  C   UNL A   1      44.330  29.077  30.310  1.00  0.00     0.029 A 
ATOM     48  C   UNL A   1      43.374  29.812  31.126  1.00  0.00     0.049 A 
ATOM     49  H   UNL A   1      41.434  30.339  30.430  1.00  0.00     0.167 HD
ATOM     50  C   UNL A   1      43.593  23.763  28.268  1.00  0.00     0.037 A 
ATOM     51  C   UNL A   1      43.350  29.776  32.496  1.00  0.00     0.037 A 
ATOM     52  C   UNL A   1      44.558  24.222  29.263  1.00  0.00     0.049 A 
ATOM     53  C   UNL A   1      43.896  28.498  33.090  1.00  0.00     0.074 A 
ATOM     54  C   UNL A   1      45.656  25.060  29.152  1.00  0.00     0.029 A 
ATOM     55  N   UNL A   1      44.248  24.160  30.618  1.00  0.00    -0.354 N 
ATOM     56  N   UNL A   1      44.213  27.441  32.392  1.00  0.00    -0.248 NA
ATOM     57  C   UNL A   1      44.116  28.300  34.520  1.00  0.00     0.031 C 
ATOM     58  C   UNL A   1      45.945  25.579  30.439  1.00  0.00     0.029 A 
ATOM     59  C   UNL A   1      45.048  25.030  31.339  1.00  0.00     0.049 A 
ATOM     60  H   UNL A   1      43.557  23.578  31.009  1.00  0.00     0.167 HD
ATOM     61  C   UNL A   1      44.596  26.428  33.232  1.00  0.00     0.074 A 
ATOM     62  C   UNL A   1      44.563  27.032  34.551  1.00  0.00     0.031 C 
ATOM     63  C   UNL A   1      44.891  25.172  32.780  1.00  0.00     0.037 A 
BRANCH  50  64
ATOM     64  C   UNL A   1      43.887  22.788  27.153  1.00  0.00     0.058 A 
ATOM     65  C   UNL A   1      43.091  21.642  26.959  1.00  0.00     0.135 A 
ATOM     66  C   UNL A   1      44.974  22.915  26.261  1.00  0.00     0.135 A 
ATOM     67  F   UNL A   1      41.978  21.433  27.675  1.00  0.00    -0.206 F 
ATOM     68  C   UNL A   1      43.407  20.649  26.030  1.00  0.00     0.059 A 
ATOM     69  C   UNL A   1      45.346  21.910  25.364  1.00  0.00     0.059 A 
ATOM     70  F   UNL A   1      45.705  24.041  26.219  1.00  0.00    -0.206 F 
ATOM     71  C   UNL A   1      44.556  20.773  25.259  1.00  0.00     0.060 A 
BRANCH  71  72
ATOM     72  S   UNL A   1      44.989  19.438  24.126  1.00  0.00     0.124 S 
ATOM     73  O   UNL A   1      44.249  18.308  24.681  1.00  0.00    -0.237 OA
ATOM     74  O   UNL A   1      44.501  19.954  22.853  1.00  0.00    -0.237 OA
ATOM     75  O   UNL A   1      46.441  19.345  24.251  1.00  0.00    -0.744 OA
ENDBRANCH  71  72
ENDBRANCH  50  64
BRANCH  51  76
ATOM     76  C   UNL A   1      42.294  30.664  33.090  1.00  0.00     0.058 A 
ATOM     77  C   UNL A   1      42.584  32.038  32.990  1.00  0.00     0.135 A 
ATOM     78  C   UNL A   1      40.950  30.280  32.977  1.00  0.00     0.135 A 
ATOM     79  F   UNL A   1      43.835  32.472  33.213  1.00  0.00    -0.206 F 
ATOM     80  C   UNL A   1      41.675  32.922  32.422  1.00  0.00     0.059 A 
ATOM     81  C   UNL A   1      40.023  31.144  32.392  1.00  0.00     0.059 A 
ATOM     82  F   UNL A   1      40.598  29.003  33.184  1.00  0.00    -0.206 F 
ATOM     83  C   UNL A   1      40.451  32.416  31.999  1.00  0.00     0.060 A 
BRANCH  83  84
ATOM     84  S   UNL A   1      39.607  33.203  30.600  1.00  0.00     0.124 S 
ATOM     85  O   UNL A   1      40.592  34.138  30.110  1.00  0.00    -0.237 OA
ATOM     86  O   UNL A   1      39.302  32.076  29.711  1.00  0.00    -0.237 OA
ATOM     87  O   UNL A   1      38.435  33.769  31.277  1.00  0.00    -0.744 OA
ENDBRANCH  83  84
ENDBRANCH  51  76
BRANCH  63  88
ATOM     88  C   UNL A   1      45.150  23.971  33.656  1.00  0.00     0.058 A 
ATOM     89  C   UNL A   1      44.205  22.963  33.904  1.00  0.00     0.135 A 
ATOM     90  C   UNL A   1      46.447  23.740  34.176  1.00  0.00     0.135 A 
ATOM     91  F   UNL A   1      42.975  23.014  33.373  1.00  0.00    -0.206 F 
ATOM     92  C   UNL A   1      44.502  21.837  34.674  1.00  0.00     0.059 A 
ATOM     93  C   UNL A   1      46.780  22.596  34.895  1.00  0.00     0.059 A 
ATOM     94  F   UNL A   1      47.442  24.621  33.989  1.00  0.00    -0.206 F 
ATOM     95  C   UNL A   1      45.791  21.663  35.166  1.00  0.00     0.060 A 
BRANCH  95  96
ATOM     96  S   UNL A   1      46.201  20.188  36.118  1.00  0.00     0.124 S 
ATOM     97  O   UNL A   1      45.779  20.583  37.458  1.00  0.00    -0.237 OA
ATOM     98  O   UNL A   1      45.391  19.153  35.482  1.00  0.00    -0.237 OA
ATOM     99  O   UNL A   1      47.640  20.055  35.920  1.00  0.00    -0.744 OA
ENDBRANCH  95  96
ENDBRANCH  63  88
ENDBRANCH  37  38
ENDBRANCH  29  32
ENDBRANCH  27  28
ENDBRANCH  26  27
ENDBRANCH   1  26
TORSDOF 17
ENDMDL
