MODEL 1
REMARK VINA RESULT:     -12.1      0.000      0.000
REMARK SMILES CN(C(=O)C[C@@H]1SC(=O)N(c2ccccc2)C1=O)c1ccccc1C(=O)NCCCCNC(=O)c1ccc(-c2c3nc(c(-c4c(F)cc(S(=O)(=O)[O-])cc4F)c4ccc([nH]4)c(-c4c(F)cc(S(=O)(=O)[O-])cc4F)c4nc(c(-c5c(F)cc(S(=O)(=O)[O-])cc5F)c5ccc2[nH]5)C=C4)C=C3)cc1
REMARK SMILES IDX 28 1 27 2 25 3 26 4 24 6 19 7 20 8 21 9 23 10 22 11 2 12
REMARK SMILES IDX 1 13 3 14 4 15 5 16 6 17 7 18 17 19 8 20 10 21 18 22 9 23
REMARK SMILES IDX 11 24 12 25 16 26 13 27 15 28 14 29 29 30 30 31 31 32 32 33
REMARK SMILES IDX 33 34 34 36 35 37 36 38 100 39 37 40 99 41 38 42 39 43 40 44
REMARK SMILES IDX 93 45 41 46 98 47 92 48 94 49 42 50 97 51 91 52 90 53 43 55
REMARK SMILES IDX 77 56 56 57 76 58 57 59 60 60 75 61 95 62 58 63 59 64 74 66
REMARK SMILES IDX 96 67 61 68 44 69 45 70 54 71 46 72 47 73 53 74 55 75 48 76
REMARK SMILES IDX 49 77 50 78 51 79 52 80 78 81 79 82 88 83 80 84 81 85 87 86
REMARK SMILES IDX 89 87 82 88 83 89 84 90 85 91 86 92 62 93 63 94 72 95 64 96
REMARK SMILES IDX 65 97 71 98 73 99 66 100 67 101 68 102 69 103 70 104
REMARK H PARENT 27 5 32 35 94 54 60 65
REMARK Flexibility Score: inf
ROOT
ATOM      1  C   UNL A   1      34.854  23.889  25.370  1.00  0.00     0.116 C 
ENDROOT
BRANCH   1   2
ATOM      2  N   UNL A   1      34.673  23.230  26.596  1.00  0.00    -0.352 N 
ATOM      3  C   UNL A   1      34.250  21.929  26.709  1.00  0.00     0.253 C 
ATOM      4  O   UNL A   1      34.381  21.459  27.845  1.00  0.00    -0.269 OA
ATOM      5  H   UNL A   1      34.860  23.731  27.422  1.00  0.00     0.163 HD
BRANCH   3   6
ATOM      6  C   UNL A   1      33.609  21.073  25.596  1.00  0.00     0.063 A 
ATOM      7  C   UNL A   1      32.451  21.182  24.739  1.00  0.00     0.056 A 
ATOM      8  C   UNL A   1      32.210  20.141  23.807  1.00  0.00     0.027 A 
ATOM      9  C   UNL A   1      33.020  19.009  23.708  1.00  0.00     0.002 A 
ATOM     10  C   UNL A   1      34.382  19.879  25.469  1.00  0.00     0.016 A 
ATOM     11  C   UNL A   1      34.101  18.869  24.553  1.00  0.00     0.001 A 
BRANCH   7  12
ATOM     12  N   UNL A   1      31.460  22.263  24.616  1.00  0.00    -0.315 N 
ATOM     13  C   UNL A   1      30.611  22.441  25.798  1.00  0.00     0.153 C 
BRANCH  12  14
ATOM     14  C   UNL A   1      31.526  23.127  23.487  1.00  0.00     0.228 C 
ATOM     15  O   UNL A   1      32.440  23.006  22.660  1.00  0.00    -0.274 OA
BRANCH  14  16
ATOM     16  C   UNL A   1      30.472  24.242  23.185  1.00  0.00     0.125 C 
BRANCH  16  17
ATOM     17  C   UNL A   1      31.079  25.665  22.897  1.00  0.00     0.156 C 
ATOM     18  S   UNL A   1      32.636  25.981  21.999  1.00  0.00    -0.050 SA
ATOM     19  C   UNL A   1      31.494  26.333  24.196  1.00  0.00     0.248 C 
ATOM     20  C   UNL A   1      32.888  27.540  22.898  1.00  0.00     0.293 C 
ATOM     21  N   UNL A   1      32.119  27.576  24.042  1.00  0.00    -0.240 N 
ATOM     22  O   UNL A   1      31.417  25.659  25.218  1.00  0.00    -0.273 OA
ATOM     23  O   UNL A   1      33.730  28.341  22.524  1.00  0.00    -0.261 OA
BRANCH  21  24
ATOM     24  C   UNL A   1      32.658  28.254  25.231  1.00  0.00     0.053 A 
ATOM     25  C   UNL A   1      31.709  29.711  25.588  1.00  0.00     0.027 A 
ATOM     26  C   UNL A   1      34.264  28.071  26.131  1.00  0.00     0.027 A 
ATOM     27  C   UNL A   1      32.189  30.970  26.703  1.00  0.00     0.002 A 
ATOM     28  C   UNL A   1      34.720  29.567  27.427  1.00  0.00     0.002 A 
ATOM     29  C   UNL A   1      33.631  30.947  27.618  1.00  0.00     0.000 A 
ENDBRANCH  21  24
ENDBRANCH  16  17
ENDBRANCH  14  16
ENDBRANCH  12  14
ENDBRANCH   7  12
ENDBRANCH   3   6
ENDBRANCH   1   2
BRANCH   1  30
ATOM     30  C   UNL A   1      35.948  23.466  24.453  1.00  0.00     0.023 C 
BRANCH  30  31
ATOM     31  C   UNL A   1      37.361  23.785  24.848  1.00  0.00     0.023 C 
BRANCH  31  32
ATOM     32  C   UNL A   1      38.011  22.975  25.978  1.00  0.00     0.116 C 
BRANCH  32  33
ATOM     33  N   UNL A   1      39.259  22.158  25.794  1.00  0.00    -0.352 N 
ATOM     34  C   UNL A   1      40.659  22.325  26.070  1.00  0.00     0.251 C 
ATOM     35  H   UNL A   1      39.069  21.286  25.378  1.00  0.00     0.163 HD
ATOM     36  O   UNL A   1      41.378  21.333  26.167  1.00  0.00    -0.269 OA
BRANCH  34  37
ATOM     37  C   UNL A   1      41.203  23.744  26.354  1.00  0.00     0.039 A 
ATOM     38  C   UNL A   1      41.735  25.485  25.449  1.00  0.00     0.014 A 
ATOM     39  C   UNL A   1      40.439  23.857  27.978  1.00  0.00     0.014 A 
ATOM     40  C   UNL A   1      41.324  27.028  26.333  1.00  0.00     0.010 A 
ATOM     41  C   UNL A   1      40.039  25.379  28.631  1.00  0.00     0.010 A 
ATOM     42  C   UNL A   1      40.522  26.894  27.915  1.00  0.00    -0.014 A 
BRANCH  42  43
ATOM     43  C   UNL A   1      40.753  27.907  28.998  1.00  0.00     0.031 A 
ATOM     44  C   UNL A   1      39.870  29.168  29.151  1.00  0.00     0.074 A 
ATOM     45  C   UNL A   1      41.796  27.696  29.806  1.00  0.00     0.049 A 
ATOM     46  N   UNL A   1      39.836  30.028  30.144  1.00  0.00    -0.248 NA
ATOM     47  C   UNL A   1      38.868  29.506  28.115  1.00  0.00     0.031 C 
ATOM     48  C   UNL A   1      42.719  26.566  29.704  1.00  0.00     0.029 A 
ATOM     49  N   UNL A   1      42.274  28.442  30.844  1.00  0.00    -0.354 N 
ATOM     50  C   UNL A   1      38.756  30.884  29.895  1.00  0.00     0.074 A 
ATOM     51  C   UNL A   1      38.160  30.479  28.658  1.00  0.00     0.031 C 
ATOM     52  C   UNL A   1      43.665  26.697  30.645  1.00  0.00     0.029 A 
ATOM     53  C   UNL A   1      43.432  27.939  31.376  1.00  0.00     0.049 A 
ATOM     54  H   UNL A   1      41.832  29.256  31.175  1.00  0.00     0.167 HD
ATOM     55  C   UNL A   1      38.312  31.951  30.598  1.00  0.00     0.037 A 
ATOM     56  C   UNL A   1      44.228  28.454  32.327  1.00  0.00     0.037 A 
ATOM     57  C   UNL A   1      39.041  32.495  31.705  1.00  0.00     0.049 A 
ATOM     58  C   UNL A   1      43.808  29.732  32.997  1.00  0.00     0.074 A 
ATOM     59  C   UNL A   1      38.756  33.613  32.464  1.00  0.00     0.029 A 
ATOM     60  N   UNL A   1      40.245  31.983  32.165  1.00  0.00    -0.354 N 
ATOM     61  N   UNL A   1      42.739  30.467  32.785  1.00  0.00    -0.248 NA
ATOM     62  C   UNL A   1      44.691  30.240  34.049  1.00  0.00     0.031 C 
ATOM     63  C   UNL A   1      39.828  33.820  33.335  1.00  0.00     0.029 A 
ATOM     64  C   UNL A   1      40.729  32.777  33.184  1.00  0.00     0.049 A 
ATOM     65  H   UNL A   1      40.688  31.176  31.816  1.00  0.00     0.167 HD
ATOM     66  C   UNL A   1      42.796  31.494  33.719  1.00  0.00     0.074 A 
ATOM     67  C   UNL A   1      43.999  31.277  34.496  1.00  0.00     0.031 C 
ATOM     68  C   UNL A   1      41.933  32.520  33.931  1.00  0.00     0.037 A 
BRANCH  55  69
ATOM     69  C   UNL A   1      37.031  32.631  30.164  1.00  0.00     0.058 A 
ATOM     70  C   UNL A   1      35.803  32.334  30.780  1.00  0.00     0.135 A 
ATOM     71  C   UNL A   1      37.032  33.639  29.184  1.00  0.00     0.135 A 
ATOM     72  F   UNL A   1      35.727  31.360  31.702  1.00  0.00    -0.206 F 
ATOM     73  C   UNL A   1      34.631  33.012  30.449  1.00  0.00     0.059 A 
ATOM     74  C   UNL A   1      35.877  34.349  28.855  1.00  0.00     0.059 A 
ATOM     75  F   UNL A   1      38.167  33.954  28.541  1.00  0.00    -0.206 F 
ATOM     76  C   UNL A   1      34.680  34.029  29.494  1.00  0.00     0.060 A 
BRANCH  76  77
ATOM     77  S   UNL A   1      33.161  34.934  29.120  1.00  0.00     0.124 S 
ATOM     78  O   UNL A   1      33.687  36.223  28.680  1.00  0.00    -0.237 OA
ATOM     79  O   UNL A   1      32.558  34.108  28.080  1.00  0.00    -0.237 OA
ATOM     80  O   UNL A   1      32.451  34.953  30.395  1.00  0.00    -0.744 OA
ENDBRANCH  76  77
ENDBRANCH  55  69
BRANCH  56  81
ATOM     81  C   UNL A   1      45.489  27.761  32.680  1.00  0.00     0.058 A 
ATOM     82  C   UNL A   1      45.515  26.745  33.644  1.00  0.00     0.135 A 
ATOM     83  C   UNL A   1      46.698  28.104  32.053  1.00  0.00     0.135 A 
ATOM     84  F   UNL A   1      44.383  26.373  34.260  1.00  0.00    -0.206 F 
ATOM     85  C   UNL A   1      46.703  26.128  34.013  1.00  0.00     0.059 A 
ATOM     86  C   UNL A   1      47.891  27.470  32.371  1.00  0.00     0.059 A 
ATOM     87  F   UNL A   1      46.720  29.049  31.099  1.00  0.00    -0.206 F 
ATOM     88  C   UNL A   1      47.886  26.501  33.371  1.00  0.00     0.060 A 
BRANCH  88  89
ATOM     89  S   UNL A   1      49.423  25.699  33.866  1.00  0.00     0.124 S 
ATOM     90  O   UNL A   1      50.334  26.835  33.932  1.00  0.00    -0.237 OA
ATOM     91  O   UNL A   1      49.053  25.099  35.145  1.00  0.00    -0.237 OA
ATOM     92  O   UNL A   1      49.672  24.752  32.784  1.00  0.00    -0.744 OA
ENDBRANCH  88  89
ENDBRANCH  56  81
BRANCH  68  93
ATOM     93  C   UNL A   1      42.227  33.431  35.087  1.00  0.00     0.058 A 
ATOM     94  C   UNL A   1      43.019  34.580  34.951  1.00  0.00     0.135 A 
ATOM     95  C   UNL A   1      41.672  33.155  36.348  1.00  0.00     0.135 A 
ATOM     96  F   UNL A   1      43.571  34.887  33.765  1.00  0.00    -0.206 F 
ATOM     97  C   UNL A   1      43.299  35.394  36.039  1.00  0.00     0.059 A 
ATOM     98  C   UNL A   1      41.897  33.984  37.437  1.00  0.00     0.059 A 
ATOM     99  F   UNL A   1      40.891  32.077  36.526  1.00  0.00    -0.206 F 
ATOM    100  C   UNL A   1      42.730  35.089  37.277  1.00  0.00     0.060 A 
BRANCH 100 101
ATOM    101  S   UNL A   1      43.087  36.168  38.674  1.00  0.00     0.124 S 
ATOM    102  O   UNL A   1      44.465  35.802  38.983  1.00  0.00    -0.237 OA
ATOM    103  O   UNL A   1      42.896  37.493  38.095  1.00  0.00    -0.237 OA
ATOM    104  O   UNL A   1      42.096  35.775  39.671  1.00  0.00    -0.744 OA
ENDBRANCH 100 101
ENDBRANCH  68  93
ENDBRANCH  42  43
ENDBRANCH  34  37
ENDBRANCH  32  33
ENDBRANCH  31  32
ENDBRANCH  30  31
ENDBRANCH   1  30
TORSDOF 19
ENDMDL
MODEL 2
REMARK VINA RESULT:     -12.0      5.208     10.305
REMARK SMILES CN(C(=O)C[C@@H]1SC(=O)N(c2ccccc2)C1=O)c1ccccc1C(=O)NCCCCNC(=O)c1ccc(-c2c3nc(c(-c4c(F)cc(S(=O)(=O)[O-])cc4F)c4ccc([nH]4)c(-c4c(F)cc(S(=O)(=O)[O-])cc4F)c4nc(c(-c5c(F)cc(S(=O)(=O)[O-])cc5F)c5ccc2[nH]5)C=C4)C=C3)cc1
REMARK SMILES IDX 28 1 27 2 25 3 26 4 24 6 19 7 20 8 21 9 23 10 22 11 2 12
REMARK SMILES IDX 1 13 3 14 4 15 5 16 6 17 7 18 17 19 8 20 10 21 18 22 9 23
REMARK SMILES IDX 11 24 12 25 16 26 13 27 15 28 14 29 29 30 30 31 31 32 32 33
REMARK SMILES IDX 33 34 34 36 35 37 36 38 100 39 37 40 99 41 38 42 39 43 40 44
REMARK SMILES IDX 93 45 41 46 98 47 92 48 94 49 42 50 97 51 91 52 90 53 43 55
REMARK SMILES IDX 77 56 56 57 76 58 57 59 60 60 75 61 95 62 58 63 59 64 74 66
REMARK SMILES IDX 96 67 61 68 44 69 45 70 54 71 46 72 47 73 53 74 55 75 48 76
REMARK SMILES IDX 49 77 50 78 51 79 52 80 78 81 79 82 88 83 80 84 81 85 87 86
REMARK SMILES IDX 89 87 82 88 83 89 84 90 85 91 86 92 62 93 63 94 72 95 64 96
REMARK SMILES IDX 65 97 71 98 73 99 66 100 67 101 68 102 69 103 70 104
REMARK H PARENT 27 5 32 35 94 54 60 65
REMARK Flexibility Score: inf
ROOT
ATOM      1  C   UNL A   1      32.898  31.515  26.888  1.00  0.00     0.116 C 
ENDROOT
BRANCH   1   2
ATOM      2  N   UNL A   1      32.246  30.367  27.363  1.00  0.00    -0.352 N 
ATOM      3  C   UNL A   1      32.137  29.198  26.650  1.00  0.00     0.253 C 
ATOM      4  O   UNL A   1      31.744  28.239  27.323  1.00  0.00    -0.269 OA
ATOM      5  H   UNL A   1      31.844  30.402  28.261  1.00  0.00     0.163 HD
BRANCH   3   6
ATOM      6  C   UNL A   1      32.404  29.018  25.140  1.00  0.00     0.063 A 
ATOM      7  C   UNL A   1      31.598  28.962  23.943  1.00  0.00     0.056 A 
ATOM      8  C   UNL A   1      32.258  28.784  22.701  1.00  0.00     0.027 A 
ATOM      9  C   UNL A   1      33.641  28.627  22.593  1.00  0.00     0.002 A 
ATOM     10  C   UNL A   1      33.807  28.821  24.970  1.00  0.00     0.016 A 
ATOM     11  C   UNL A   1      34.418  28.630  23.733  1.00  0.00     0.001 A 
BRANCH   7  12
ATOM     12  N   UNL A   1      30.145  29.124  23.769  1.00  0.00    -0.315 N 
ATOM     13  C   UNL A   1      29.674  30.507  23.883  1.00  0.00     0.153 C 
BRANCH  12  14
ATOM     14  C   UNL A   1      29.379  28.004  23.341  1.00  0.00     0.228 C 
ATOM     15  O   UNL A   1      28.142  28.067  23.308  1.00  0.00    -0.274 OA
BRANCH  14  16
ATOM     16  C   UNL A   1      30.008  26.656  22.860  1.00  0.00     0.125 C 
BRANCH  16  17
ATOM     17  C   UNL A   1      30.152  25.557  23.977  1.00  0.00     0.156 C 
ATOM     18  S   UNL A   1      30.229  25.887  25.771  1.00  0.00    -0.050 SA
ATOM     19  C   UNL A   1      31.504  24.874  23.873  1.00  0.00     0.248 C 
ATOM     20  C   UNL A   1      31.198  24.375  26.051  1.00  0.00     0.293 C 
ATOM     21  N   UNL A   1      31.763  23.930  24.874  1.00  0.00    -0.240 N 
ATOM     22  O   UNL A   1      32.298  25.332  23.057  1.00  0.00    -0.273 OA
ATOM     23  O   UNL A   1      31.365  23.947  27.182  1.00  0.00    -0.261 OA
BRANCH  21  24
ATOM     24  C   UNL A   1      33.088  23.293  24.926  1.00  0.00     0.053 A 
ATOM     25  C   UNL A   1      32.959  21.576  24.495  1.00  0.00     0.027 A 
ATOM     26  C   UNL A   1      34.690  23.841  25.672  1.00  0.00     0.027 A 
ATOM     27  C   UNL A   1      34.218  20.386  24.737  1.00  0.00     0.002 A 
ATOM     28  C   UNL A   1      36.100  22.395  25.885  1.00  0.00     0.002 A 
ATOM     29  C   UNL A   1      35.752  20.730  25.401  1.00  0.00     0.000 A 
ENDBRANCH  21  24
ENDBRANCH  16  17
ENDBRANCH  14  16
ENDBRANCH  12  14
ENDBRANCH   7  12
ENDBRANCH   3   6
ENDBRANCH   1   2
BRANCH   1  30
ATOM     30  C   UNL A   1      34.036  32.095  27.653  1.00  0.00     0.023 C 
BRANCH  30  31
ATOM     31  C   UNL A   1      34.844  31.173  28.519  1.00  0.00     0.023 C 
BRANCH  31  32
ATOM     32  C   UNL A   1      35.316  31.674  29.891  1.00  0.00     0.116 C 
BRANCH  32  33
ATOM     33  N   UNL A   1      35.635  30.757  31.038  1.00  0.00    -0.352 N 
ATOM     34  C   UNL A   1      36.666  29.808  31.353  1.00  0.00     0.251 C 
ATOM     35  H   UNL A   1      34.967  30.825  31.759  1.00  0.00     0.163 HD
ATOM     36  O   UNL A   1      36.871  29.504  32.525  1.00  0.00    -0.269 OA
BRANCH  34  37
ATOM     37  C   UNL A   1      37.570  29.280  30.215  1.00  0.00     0.039 A 
ATOM     38  C   UNL A   1      37.679  29.080  28.194  1.00  0.00     0.014 A 
ATOM     39  C   UNL A   1      39.102  29.613  31.095  1.00  0.00     0.014 A 
ATOM     40  C   UNL A   1      39.319  29.329  27.433  1.00  0.00     0.010 A 
ATOM     41  C   UNL A   1      40.539  29.911  30.230  1.00  0.00     0.010 A 
ATOM     42  C   UNL A   1      40.689  29.698  28.506  1.00  0.00    -0.014 A 
BRANCH  42  43
ATOM     43  C   UNL A   1      42.083  29.251  28.177  1.00  0.00     0.031 A 
ATOM     44  C   UNL A   1      43.250  30.251  27.995  1.00  0.00     0.074 A 
ATOM     45  C   UNL A   1      42.267  27.940  27.999  1.00  0.00     0.049 A 
ATOM     46  N   UNL A   1      44.535  29.999  27.894  1.00  0.00    -0.248 NA
ATOM     47  C   UNL A   1      42.985  31.707  27.968  1.00  0.00     0.031 C 
ATOM     48  C   UNL A   1      41.217  26.926  28.094  1.00  0.00     0.029 A 
ATOM     49  N   UNL A   1      43.393  27.244  27.665  1.00  0.00    -0.354 N 
ATOM     50  C   UNL A   1      45.189  31.237  27.923  1.00  0.00     0.074 A 
ATOM     51  C   UNL A   1      44.186  32.253  28.027  1.00  0.00     0.031 C 
ATOM     52  C   UNL A   1      41.750  25.728  27.815  1.00  0.00     0.029 A 
ATOM     53  C   UNL A   1      43.160  25.906  27.482  1.00  0.00     0.049 A 
ATOM     54  H   UNL A   1      44.279  27.660  27.566  1.00  0.00     0.167 HD
ATOM     55  C   UNL A   1      46.507  31.528  27.824  1.00  0.00     0.037 A 
ATOM     56  C   UNL A   1      43.996  24.946  27.057  1.00  0.00     0.037 A 
ATOM     57  C   UNL A   1      47.486  30.537  27.490  1.00  0.00     0.049 A 
ATOM     58  C   UNL A   1      45.430  25.310  26.793  1.00  0.00     0.074 A 
ATOM     59  C   UNL A   1      48.842  30.694  27.282  1.00  0.00     0.029 A 
ATOM     60  N   UNL A   1      47.187  29.203  27.252  1.00  0.00    -0.354 N 
ATOM     61  N   UNL A   1      46.024  26.477  26.909  1.00  0.00    -0.248 NA
ATOM     62  C   UNL A   1      46.312  24.224  26.361  1.00  0.00     0.031 C 
ATOM     63  C   UNL A   1      49.350  29.469  26.844  1.00  0.00     0.029 A 
ATOM     64  C   UNL A   1      48.330  28.530  26.876  1.00  0.00     0.049 A 
ATOM     65  H   UNL A   1      46.293  28.799  27.338  1.00  0.00     0.167 HD
ATOM     66  C   UNL A   1      47.363  26.249  26.617  1.00  0.00     0.074 A 
ATOM     67  C   UNL A   1      47.487  24.834  26.328  1.00  0.00     0.031 C 
ATOM     68  C   UNL A   1      48.405  27.118  26.599  1.00  0.00     0.037 A 
BRANCH  55  69
ATOM     69  C   UNL A   1      46.956  32.961  28.014  1.00  0.00     0.058 A 
ATOM     70  C   UNL A   1      47.442  33.414  29.252  1.00  0.00     0.135 A 
ATOM     71  C   UNL A   1      46.977  33.870  26.942  1.00  0.00     0.135 A 
ATOM     72  F   UNL A   1      47.422  32.605  30.324  1.00  0.00    -0.206 F 
ATOM     73  C   UNL A   1      47.938  34.706  29.419  1.00  0.00     0.059 A 
ATOM     74  C   UNL A   1      47.491  35.160  27.079  1.00  0.00     0.059 A 
ATOM     75  F   UNL A   1      46.504  33.508  25.740  1.00  0.00    -0.206 F 
ATOM     76  C   UNL A   1      47.971  35.569  28.322  1.00  0.00     0.060 A 
BRANCH  76  77
ATOM     77  S   UNL A   1      48.670  37.221  28.546  1.00  0.00     0.124 S 
ATOM     78  O   UNL A   1      49.357  37.425  27.274  1.00  0.00    -0.237 OA
ATOM     79  O   UNL A   1      47.477  38.033  28.759  1.00  0.00    -0.237 OA
ATOM     80  O   UNL A   1      49.540  37.070  29.708  1.00  0.00    -0.744 OA
ENDBRANCH  76  77
ENDBRANCH  55  69
BRANCH  56  81
ATOM     81  C   UNL A   1      43.486  23.569  26.853  1.00  0.00     0.058 A 
ATOM     82  C   UNL A   1      43.335  22.684  27.928  1.00  0.00     0.135 A 
ATOM     83  C   UNL A   1      43.137  23.114  25.571  1.00  0.00     0.135 A 
ATOM     84  F   UNL A   1      43.642  23.077  29.173  1.00  0.00    -0.206 F 
ATOM     85  C   UNL A   1      42.904  21.378  27.734  1.00  0.00     0.059 A 
ATOM     86  C   UNL A   1      42.661  21.828  25.357  1.00  0.00     0.059 A 
ATOM     87  F   UNL A   1      43.234  23.935  24.513  1.00  0.00    -0.206 F 
ATOM     88  C   UNL A   1      42.572  20.960  26.443  1.00  0.00     0.060 A 
BRANCH  88  89
ATOM     89  S   UNL A   1      42.025  19.260  26.203  1.00  0.00     0.124 S 
ATOM     90  O   UNL A   1      42.891  18.827  25.112  1.00  0.00    -0.237 OA
ATOM     91  O   UNL A   1      42.295  18.667  27.509  1.00  0.00    -0.237 OA
ATOM     92  O   UNL A   1      40.612  19.405  25.867  1.00  0.00    -0.744 OA
ENDBRANCH  88  89
ENDBRANCH  56  81
BRANCH  68  93
ATOM     93  C   UNL A   1      49.766  26.548  26.327  1.00  0.00     0.058 A 
ATOM     94  C   UNL A   1      50.363  26.610  25.060  1.00  0.00     0.135 A 
ATOM     95  C   UNL A   1      50.492  25.954  27.373  1.00  0.00     0.135 A 
ATOM     96  F   UNL A   1      49.709  27.168  24.028  1.00  0.00    -0.206 F 
ATOM     97  C   UNL A   1      51.612  26.052  24.825  1.00  0.00     0.059 A 
ATOM     98  C   UNL A   1      51.764  25.437  27.172  1.00  0.00     0.059 A 
ATOM     99  F   UNL A   1      49.972  25.887  28.609  1.00  0.00    -0.206 F 
ATOM    100  C   UNL A   1      52.305  25.471  25.889  1.00  0.00     0.060 A 
BRANCH 100 101
ATOM    101  S   UNL A   1      53.934  24.771  25.571  1.00  0.00     0.124 S 
ATOM    102  O   UNL A   1      54.431  25.650  24.517  1.00  0.00    -0.237 OA
ATOM    103  O   UNL A   1      54.585  24.905  26.869  1.00  0.00    -0.237 OA
ATOM    104  O   UNL A   1      53.642  23.401  25.158  1.00  0.00    -0.744 OA
ENDBRANCH 100 101
ENDBRANCH  68  93
ENDBRANCH  42  43
ENDBRANCH  34  37
ENDBRANCH  32  33
ENDBRANCH  31  32
ENDBRANCH  30  31
ENDBRANCH   1  30
TORSDOF 19
ENDMDL
MODEL 3
REMARK VINA RESULT:     -11.8      2.221      3.136
REMARK SMILES CN(C(=O)C[C@@H]1SC(=O)N(c2ccccc2)C1=O)c1ccccc1C(=O)NCCCCNC(=O)c1ccc(-c2c3nc(c(-c4c(F)cc(S(=O)(=O)[O-])cc4F)c4ccc([nH]4)c(-c4c(F)cc(S(=O)(=O)[O-])cc4F)c4nc(c(-c5c(F)cc(S(=O)(=O)[O-])cc5F)c5ccc2[nH]5)C=C4)C=C3)cc1
REMARK SMILES IDX 28 1 27 2 25 3 26 4 24 6 19 7 20 8 21 9 23 10 22 11 2 12
REMARK SMILES IDX 1 13 3 14 4 15 5 16 6 17 7 18 17 19 8 20 10 21 18 22 9 23
REMARK SMILES IDX 11 24 12 25 16 26 13 27 15 28 14 29 29 30 30 31 31 32 32 33
REMARK SMILES IDX 33 34 34 36 35 37 36 38 100 39 37 40 99 41 38 42 39 43 40 44
REMARK SMILES IDX 93 45 41 46 98 47 92 48 94 49 42 50 97 51 91 52 90 53 43 55
REMARK SMILES IDX 77 56 56 57 76 58 57 59 60 60 75 61 95 62 58 63 59 64 74 66
REMARK SMILES IDX 96 67 61 68 44 69 45 70 54 71 46 72 47 73 53 74 55 75 48 76
REMARK SMILES IDX 49 77 50 78 51 79 52 80 78 81 79 82 88 83 80 84 81 85 87 86
REMARK SMILES IDX 89 87 82 88 83 89 84 90 85 91 86 92 62 93 63 94 72 95 64 96
REMARK SMILES IDX 65 97 71 98 73 99 66 100 67 101 68 102 69 103 70 104
REMARK H PARENT 27 5 32 35 94 54 60 65
REMARK Flexibility Score: inf
ROOT
ATOM      1  C   UNL A   1      38.063  22.101  25.521  1.00  0.00     0.116 C 
ENDROOT
BRANCH   1   2
ATOM      2  N   UNL A   1      37.490  22.302  24.257  1.00  0.00    -0.352 N 
ATOM      3  C   UNL A   1      36.153  22.543  24.053  1.00  0.00     0.253 C 
ATOM      4  O   UNL A   1      35.885  22.928  22.909  1.00  0.00    -0.269 OA
ATOM      5  H   UNL A   1      38.081  22.270  23.471  1.00  0.00     0.163 HD
BRANCH   3   6
ATOM      6  C   UNL A   1      35.017  22.328  25.075  1.00  0.00     0.063 A 
ATOM      7  C   UNL A   1      33.706  21.722  25.059  1.00  0.00     0.056 A 
ATOM      8  C   UNL A   1      32.952  21.727  26.260  1.00  0.00     0.027 A 
ATOM      9  C   UNL A   1      33.408  22.318  27.439  1.00  0.00     0.002 A 
ATOM     10  C   UNL A   1      35.416  22.942  26.301  1.00  0.00     0.016 A 
ATOM     11  C   UNL A   1      34.638  22.943  27.456  1.00  0.00     0.001 A 
BRANCH   7  12
ATOM     12  N   UNL A   1      33.001  21.014  23.977  1.00  0.00    -0.315 N 
ATOM     13  C   UNL A   1      33.109  19.553  24.042  1.00  0.00     0.153 C 
BRANCH  12  14
ATOM     14  C   UNL A   1      32.161  21.760  23.105  1.00  0.00     0.228 C 
ATOM     15  O   UNL A   1      32.140  21.512  21.891  1.00  0.00    -0.274 OA
BRANCH  14  16
ATOM     16  C   UNL A   1      31.200  22.896  23.588  1.00  0.00     0.125 C 
BRANCH  16  17
ATOM     17  C   UNL A   1      31.594  24.343  23.110  1.00  0.00     0.156 C 
ATOM     18  S   UNL A   1      33.162  24.788  22.290  1.00  0.00    -0.050 SA
ATOM     19  C   UNL A   1      31.760  25.265  24.305  1.00  0.00     0.248 C 
ATOM     20  C   UNL A   1      33.065  26.486  22.929  1.00  0.00     0.293 C 
ATOM     21  N   UNL A   1      32.187  26.560  23.991  1.00  0.00    -0.240 N 
ATOM     22  O   UNL A   1      31.690  24.752  25.417  1.00  0.00    -0.273 OA
ATOM     23  O   UNL A   1      33.799  27.356  22.490  1.00  0.00    -0.261 OA
BRANCH  21  24
ATOM     24  C   UNL A   1      32.485  27.497  25.085  1.00  0.00     0.053 A 
ATOM     25  C   UNL A   1      31.405  28.903  24.998  1.00  0.00     0.027 A 
ATOM     26  C   UNL A   1      33.931  27.634  26.230  1.00  0.00     0.027 A 
ATOM     27  C   UNL A   1      31.621  30.388  25.897  1.00  0.00     0.002 A 
ATOM     28  C   UNL A   1      34.081  29.383  27.251  1.00  0.00     0.002 A 
ATOM     29  C   UNL A   1      32.894  30.669  26.999  1.00  0.00     0.000 A 
ENDBRANCH  21  24
ENDBRANCH  16  17
ENDBRANCH  14  16
ENDBRANCH  12  14
ENDBRANCH   7  12
ENDBRANCH   3   6
ENDBRANCH   1   2
BRANCH   1  30
ATOM     30  C   UNL A   1      38.723  23.233  26.228  1.00  0.00     0.023 C 
BRANCH  30  31
ATOM     31  C   UNL A   1      39.971  22.943  27.010  1.00  0.00     0.023 C 
BRANCH  31  32
ATOM     32  C   UNL A   1      41.333  23.164  26.337  1.00  0.00     0.116 C 
BRANCH  32  33
ATOM     33  N   UNL A   1      41.659  24.380  25.517  1.00  0.00    -0.352 N 
ATOM     34  C   UNL A   1      41.589  25.803  25.697  1.00  0.00     0.251 C 
ATOM     35  H   UNL A   1      42.011  24.141  24.629  1.00  0.00     0.163 HD
ATOM     36  O   UNL A   1      42.289  26.536  25.003  1.00  0.00    -0.269 OA
BRANCH  34  37
ATOM     37  C   UNL A   1      40.719  26.371  26.843  1.00  0.00     0.039 A 
ATOM     38  C   UNL A   1      39.171  25.914  28.079  1.00  0.00     0.014 A 
ATOM     39  C   UNL A   1      42.033  27.400  27.511  1.00  0.00     0.014 A 
ATOM     40  C   UNL A   1      39.282  26.529  29.794  1.00  0.00     0.010 A 
ATOM     41  C   UNL A   1      42.036  27.819  29.163  1.00  0.00     0.010 A 
ATOM     42  C   UNL A   1      40.707  27.494  30.243  1.00  0.00    -0.014 A 
BRANCH  42  43
ATOM     43  C   UNL A   1      40.621  28.582  31.273  1.00  0.00     0.031 A 
ATOM     44  C   UNL A   1      39.702  29.815  31.097  1.00  0.00     0.074 A 
ATOM     45  C   UNL A   1      41.416  28.465  32.340  1.00  0.00     0.049 A 
ATOM     46  N   UNL A   1      39.387  30.733  31.982  1.00  0.00    -0.248 NA
ATOM     47  C   UNL A   1      39.003  30.046  29.813  1.00  0.00     0.031 C 
ATOM     48  C   UNL A   1      42.358  27.368  32.566  1.00  0.00     0.029 A 
ATOM     49  N   UNL A   1      41.585  29.293  33.411  1.00  0.00    -0.354 N 
ATOM     50  C   UNL A   1      38.393  31.528  31.397  1.00  0.00     0.074 A 
ATOM     51  C   UNL A   1      38.156  31.022  30.080  1.00  0.00     0.031 C 
ATOM     52  C   UNL A   1      43.016  27.596  33.711  1.00  0.00     0.029 A 
ATOM     53  C   UNL A   1      42.571  28.872  34.264  1.00  0.00     0.049 A 
ATOM     54  H   UNL A   1      41.054  30.109  33.555  1.00  0.00     0.167 HD
ATOM     55  C   UNL A   1      37.755  32.619  31.880  1.00  0.00     0.037 A 
ATOM     56  C   UNL A   1      43.075  29.477  35.351  1.00  0.00     0.037 A 
ATOM     57  C   UNL A   1      38.152  33.261  33.098  1.00  0.00     0.049 A 
ATOM     58  C   UNL A   1      42.465  30.777  35.793  1.00  0.00     0.074 A 
ATOM     59  C   UNL A   1      37.652  34.412  33.673  1.00  0.00     0.029 A 
ATOM     60  N   UNL A   1      39.202  32.828  33.894  1.00  0.00    -0.354 N 
ATOM     61  N   UNL A   1      41.474  31.454  35.256  1.00  0.00    -0.248 NA
ATOM     62  C   UNL A   1      43.025  31.386  37.002  1.00  0.00     0.031 C 
ATOM     63  C   UNL A   1      38.450  34.716  34.779  1.00  0.00     0.029 A 
ATOM     64  C   UNL A   1      39.381  33.702  34.945  1.00  0.00     0.049 A 
ATOM     65  H   UNL A   1      39.739  32.018  33.733  1.00  0.00     0.167 HD
ATOM     66  C   UNL A   1      41.259  32.540  36.096  1.00  0.00     0.074 A 
ATOM     67  C   UNL A   1      42.218  32.420  37.176  1.00  0.00     0.031 C 
ATOM     68  C   UNL A   1      40.349  33.541  35.999  1.00  0.00     0.037 A 
BRANCH  55  69
ATOM     69  C   UNL A   1      36.621  33.219  31.077  1.00  0.00     0.058 A 
ATOM     70  C   UNL A   1      35.289  33.132  31.519  1.00  0.00     0.135 A 
ATOM     71  C   UNL A   1      36.862  33.950  29.901  1.00  0.00     0.135 A 
ATOM     72  F   UNL A   1      34.987  32.422  32.618  1.00  0.00    -0.206 F 
ATOM     73  C   UNL A   1      34.245  33.751  30.833  1.00  0.00     0.059 A 
ATOM     74  C   UNL A   1      35.837  34.599  29.212  1.00  0.00     0.059 A 
ATOM     75  F   UNL A   1      38.108  34.050  29.412  1.00  0.00    -0.206 F 
ATOM     76  C   UNL A   1      34.531  34.496  29.687  1.00  0.00     0.060 A 
BRANCH  76  77
ATOM     77  S   UNL A   1      33.171  35.338  28.845  1.00  0.00     0.124 S 
ATOM     78  O   UNL A   1      33.888  36.318  28.035  1.00  0.00    -0.237 OA
ATOM     79  O   UNL A   1      32.542  34.246  28.110  1.00  0.00    -0.237 OA
ATOM     80  O   UNL A   1      32.381  35.892  29.941  1.00  0.00    -0.744 OA
ENDBRANCH  76  77
ENDBRANCH  55  69
BRANCH  56  81
ATOM     81  C   UNL A   1      44.212  28.858  36.073  1.00  0.00     0.058 A 
ATOM     82  C   UNL A   1      44.012  27.817  36.987  1.00  0.00     0.135 A 
ATOM     83  C   UNL A   1      45.527  29.301  35.856  1.00  0.00     0.135 A 
ATOM     84  F   UNL A   1      42.775  27.351  37.217  1.00  0.00    -0.206 F 
ATOM     85  C   UNL A   1      45.069  27.268  37.701  1.00  0.00     0.059 A 
ATOM     86  C   UNL A   1      46.606  28.738  36.523  1.00  0.00     0.059 A 
ATOM     87  F   UNL A   1      45.775  30.275  34.965  1.00  0.00    -0.206 F 
ATOM     88  C   UNL A   1      46.363  27.739  37.463  1.00  0.00     0.060 A 
BRANCH  88  89
ATOM     89  S   UNL A   1      47.725  27.027  38.404  1.00  0.00     0.124 S 
ATOM     90  O   UNL A   1      48.658  28.145  38.456  1.00  0.00    -0.237 OA
ATOM     91  O   UNL A   1      47.073  26.677  39.662  1.00  0.00    -0.237 OA
ATOM     92  O   UNL A   1      48.143  25.893  37.584  1.00  0.00    -0.744 OA
ENDBRANCH  88  89
ENDBRANCH  56  81
BRANCH  68  93
ATOM     93  C   UNL A   1      40.306  34.535  37.123  1.00  0.00     0.058 A 
ATOM     94  C   UNL A   1      39.472  34.365  38.239  1.00  0.00     0.135 A 
ATOM     95  C   UNL A   1      41.143  35.662  37.088  1.00  0.00     0.135 A 
ATOM     96  F   UNL A   1      38.654  33.303  38.319  1.00  0.00    -0.206 F 
ATOM     97  C   UNL A   1      39.429  35.309  39.255  1.00  0.00     0.059 A 
ATOM     98  C   UNL A   1      41.154  36.592  38.118  1.00  0.00     0.059 A 
ATOM     99  F   UNL A   1      41.973  35.860  36.051  1.00  0.00    -0.206 F 
ATOM    100  C   UNL A   1      40.277  36.417  39.186  1.00  0.00     0.060 A 
BRANCH 100 101
ATOM    101  S   UNL A   1      40.223  37.623  40.524  1.00  0.00     0.124 S 
ATOM    102  O   UNL A   1      38.826  38.042  40.483  1.00  0.00    -0.237 OA
ATOM    103  O   UNL A   1      40.611  36.818  41.677  1.00  0.00    -0.237 OA
ATOM    104  O   UNL A   1      41.193  38.633  40.113  1.00  0.00    -0.744 OA
ENDBRANCH 100 101
ENDBRANCH  68  93
ENDBRANCH  42  43
ENDBRANCH  34  37
ENDBRANCH  32  33
ENDBRANCH  31  32
ENDBRANCH  30  31
ENDBRANCH   1  30
TORSDOF 19
ENDMDL
