MODEL 1
REMARK VINA RESULT:     -13.5      0.000      0.000
REMARK SMILES O=C(NCCCCNC(=O)c1nnn(-c2cccc(C(F)(F)F)c2)c1[C@@H]1COc2ccccc2O1)c1ccc(-c2c3nc(c(-c4c(F)cc(S(=O)(=O)[O-])cc4F)c4ccc([nH]4)c(-c4c(F)cc(S(=O)(=O)[O-])cc4F)c4nc(c(-c5c(F)cc(S(=O)(=O)[O-])cc5F)c5ccc2[nH]5)C=C4)C=C3)cc1
REMARK SMILES IDX 5 1 4 2 3 3 1 4 2 5 36 7 37 8 101 9 38 10 100 11 39 12 40 13
REMARK SMILES IDX 41 14 94 15 42 16 99 17 93 18 95 19 43 20 98 21 92 22 91 23
REMARK SMILES IDX 44 25 78 26 57 27 77 28 58 29 61 30 76 31 96 32 59 33 60 34
REMARK SMILES IDX 75 36 97 37 62 38 45 39 46 40 55 41 47 42 48 43 54 44 56 45
REMARK SMILES IDX 49 46 50 47 51 48 52 49 53 50 79 51 80 52 89 53 81 54 82 55
REMARK SMILES IDX 88 56 90 57 83 58 84 59 85 60 86 61 87 62 63 63 64 64 73 65
REMARK SMILES IDX 65 66 66 67 72 68 74 69 67 70 68 71 69 72 70 73 71 74 6 75
REMARK SMILES IDX 7 76 8 77 9 78 10 80 11 81 12 82 25 83 13 84 14 85 26 86
REMARK SMILES IDX 27 87 35 88 28 89 34 90 29 91 33 92 30 93 32 94 31 95 15 96
REMARK SMILES IDX 16 97 24 98 17 99 19 100 18 101 20 102 21 103 22 104 23 105
REMARK H PARENT 3 6 95 24 61 35 8 79
REMARK Flexibility Score: inf
ROOT
ATOM      1  C   UNL A   1      36.122  22.819  25.511  1.00  0.00     0.023 C 
ENDROOT
BRANCH   1   2
ATOM      2  C   UNL A   1      37.434  23.008  24.744  1.00  0.00     0.116 C 
BRANCH   2   3
ATOM      3  N   UNL A   1      38.556  22.217  25.214  1.00  0.00    -0.352 N 
ATOM      4  O   UNL A   1      40.164  21.364  26.465  1.00  0.00    -0.269 OA
ATOM      5  C   UNL A   1      39.479  22.360  26.219  1.00  0.00     0.251 C 
ATOM      6  H   UNL A   1      38.685  21.391  24.694  1.00  0.00     0.163 HD
BRANCH   5   7
ATOM      7  C   UNL A   1      39.742  23.619  26.970  1.00  0.00     0.039 A 
ATOM      8  C   UNL A   1      38.906  24.733  26.990  1.00  0.00     0.014 A 
ATOM      9  C   UNL A   1      40.952  23.676  27.688  1.00  0.00     0.014 A 
ATOM     10  C   UNL A   1      39.300  25.904  27.631  1.00  0.00     0.010 A 
ATOM     11  C   UNL A   1      41.342  24.836  28.351  1.00  0.00     0.010 A 
ATOM     12  C   UNL A   1      40.526  25.961  28.295  1.00  0.00    -0.014 A 
BRANCH  12  13
ATOM     13  C   UNL A   1      40.843  27.192  29.014  1.00  0.00     0.031 A 
ATOM     14  C   UNL A   1      41.955  28.006  28.437  1.00  0.00     0.074 A 
ATOM     15  C   UNL A   1      40.112  27.661  30.042  1.00  0.00     0.049 A 
ATOM     16  N   UNL A   1      43.067  28.368  28.992  1.00  0.00    -0.248 NA
ATOM     17  C   UNL A   1      41.838  28.399  27.025  1.00  0.00     0.031 C 
ATOM     18  C   UNL A   1      38.824  27.163  30.526  1.00  0.00     0.029 A 
ATOM     19  N   UNL A   1      40.323  28.774  30.801  1.00  0.00    -0.354 N 
ATOM     20  C   UNL A   1      43.711  29.190  28.066  1.00  0.00     0.074 A 
ATOM     21  C   UNL A   1      42.975  29.066  26.834  1.00  0.00     0.031 C 
ATOM     22  C   UNL A   1      38.266  28.095  31.331  1.00  0.00     0.029 A 
ATOM     23  C   UNL A   1      39.206  29.189  31.513  1.00  0.00     0.049 A 
ATOM     24  H   UNL A   1      41.188  29.241  30.841  1.00  0.00     0.167 HD
ATOM     25  C   UNL A   1      44.698  30.062  28.417  1.00  0.00     0.037 A 
ATOM     26  C   UNL A   1      39.037  30.386  32.127  1.00  0.00     0.037 A 
ATOM     27  C   UNL A   1      45.253  29.756  29.706  1.00  0.00     0.049 A 
ATOM     28  C   UNL A   1      40.381  30.981  32.344  1.00  0.00     0.074 A 
ATOM     29  C   UNL A   1      45.913  28.672  30.253  1.00  0.00     0.029 A 
ATOM     30  N   UNL A   1      44.897  30.548  30.770  1.00  0.00    -0.354 N 
ATOM     31  N   UNL A   1      41.273  30.507  33.169  1.00  0.00    -0.248 NA
ATOM     32  C   UNL A   1      40.893  31.901  31.338  1.00  0.00     0.031 C 
ATOM     33  C   UNL A   1      45.493  28.630  31.613  1.00  0.00     0.029 A 
ATOM     34  C   UNL A   1      44.628  29.706  31.817  1.00  0.00     0.049 A 
ATOM     35  H   UNL A   1      44.845  31.531  30.777  1.00  0.00     0.167 HD
ATOM     36  C   UNL A   1      42.491  30.732  32.546  1.00  0.00     0.074 A 
ATOM     37  C   UNL A   1      42.203  31.686  31.482  1.00  0.00     0.031 C 
ATOM     38  C   UNL A   1      43.566  29.921  32.775  1.00  0.00     0.037 A 
BRANCH  25  39
ATOM     39  C   UNL A   1      44.948  31.387  27.736  1.00  0.00     0.058 A 
ATOM     40  C   UNL A   1      46.155  31.598  27.035  1.00  0.00     0.135 A 
ATOM     41  C   UNL A   1      44.182  32.546  27.993  1.00  0.00     0.135 A 
ATOM     42  F   UNL A   1      46.965  30.568  26.743  1.00  0.00    -0.206 F 
ATOM     43  C   UNL A   1      46.605  32.873  26.688  1.00  0.00     0.059 A 
ATOM     44  C   UNL A   1      44.585  33.820  27.607  1.00  0.00     0.059 A 
ATOM     45  F   UNL A   1      43.059  32.508  28.721  1.00  0.00    -0.206 F 
ATOM     46  C   UNL A   1      45.820  33.980  26.999  1.00  0.00     0.060 A 
BRANCH  46  47
ATOM     47  S   UNL A   1      46.458  35.635  26.682  1.00  0.00     0.124 S 
ATOM     48  O   UNL A   1      47.256  35.870  27.881  1.00  0.00    -0.237 OA
ATOM     49  O   UNL A   1      47.204  35.444  25.444  1.00  0.00    -0.237 OA
ATOM     50  O   UNL A   1      45.247  36.442  26.560  1.00  0.00    -0.744 OA
ENDBRANCH  46  47
ENDBRANCH  25  39
BRANCH  26  51
ATOM     51  C   UNL A   1      37.785  31.182  32.231  1.00  0.00     0.058 A 
ATOM     52  C   UNL A   1      37.313  31.641  33.472  1.00  0.00     0.135 A 
ATOM     53  C   UNL A   1      37.170  31.737  31.089  1.00  0.00     0.135 A 
ATOM     54  F   UNL A   1      37.860  31.189  34.612  1.00  0.00    -0.206 F 
ATOM     55  C   UNL A   1      36.322  32.623  33.576  1.00  0.00     0.059 A 
ATOM     56  C   UNL A   1      36.170  32.703  31.167  1.00  0.00     0.059 A 
ATOM     57  F   UNL A   1      37.591  31.427  29.853  1.00  0.00    -0.206 F 
ATOM     58  C   UNL A   1      35.769  33.161  32.415  1.00  0.00     0.060 A 
BRANCH  58  59
ATOM     59  S   UNL A   1      34.617  34.549  32.535  1.00  0.00     0.124 S 
ATOM     60  O   UNL A   1      33.445  33.919  33.131  1.00  0.00    -0.237 OA
ATOM     61  O   UNL A   1      35.345  35.480  33.391  1.00  0.00    -0.237 OA
ATOM     62  O   UNL A   1      34.457  34.977  31.148  1.00  0.00    -0.744 OA
ENDBRANCH  58  59
ENDBRANCH  26  51
BRANCH  38  63
ATOM     63  C   UNL A   1      43.522  28.989  33.955  1.00  0.00     0.058 A 
ATOM     64  C   UNL A   1      43.866  29.360  35.266  1.00  0.00     0.135 A 
ATOM     65  C   UNL A   1      42.954  27.718  33.776  1.00  0.00     0.135 A 
ATOM     66  F   UNL A   1      44.310  30.596  35.540  1.00  0.00    -0.206 F 
ATOM     67  C   UNL A   1      43.692  28.491  36.344  1.00  0.00     0.059 A 
ATOM     68  C   UNL A   1      42.742  26.847  34.841  1.00  0.00     0.059 A 
ATOM     69  F   UNL A   1      42.544  27.329  32.557  1.00  0.00    -0.206 F 
ATOM     70  C   UNL A   1      43.125  27.237  36.123  1.00  0.00     0.060 A 
BRANCH  70  71
ATOM     71  S   UNL A   1      42.804  26.155  37.531  1.00  0.00     0.124 S 
ATOM     72  O   UNL A   1      43.200  24.847  37.007  1.00  0.00    -0.237 OA
ATOM     73  O   UNL A   1      43.682  26.710  38.563  1.00  0.00    -0.237 OA
ATOM     74  O   UNL A   1      41.382  26.323  37.780  1.00  0.00    -0.744 OA
ENDBRANCH  70  71
ENDBRANCH  38  63
ENDBRANCH  12  13
ENDBRANCH   5   7
ENDBRANCH   2   3
ENDBRANCH   1   2
BRANCH   1  75
ATOM     75  C   UNL A   1      35.775  21.385  25.897  1.00  0.00     0.023 C 
BRANCH  75  76
ATOM     76  C   UNL A   1      34.908  20.604  24.920  1.00  0.00     0.116 C 
BRANCH  76  77
ATOM     77  N   UNL A   1      33.515  20.477  25.255  1.00  0.00    -0.351 N 
ATOM     78  C   UNL A   1      32.382  21.231  25.026  1.00  0.00     0.273 C 
ATOM     79  H   UNL A   1      33.324  19.659  25.768  1.00  0.00     0.163 HD
ATOM     80  O   UNL A   1      31.353  20.689  25.448  1.00  0.00    -0.267 OA
BRANCH  78  81
ATOM     81  C   UNL A   1      32.281  22.561  24.373  1.00  0.00     0.178 A 
ATOM     82  N   UNL A   1      31.703  22.560  23.110  1.00  0.00    -0.124 NA
ATOM     83  C   UNL A   1      32.583  23.896  24.681  1.00  0.00     0.122 A 
ATOM     84  N   UNL A   1      31.596  23.797  22.664  1.00  0.00    -0.061 NA
ATOM     85  N   UNL A   1      32.206  24.601  23.543  1.00  0.00    -0.213 N 
BRANCH  83  86
ATOM     86  C   UNL A   1      32.972  24.569  25.962  1.00  0.00     0.262 C 
ATOM     87  C   UNL A   1      31.721  24.759  26.851  1.00  0.00     0.281 C 
ATOM     88  O   UNL A   1      33.751  25.759  25.777  1.00  0.00    -0.477 OA
ATOM     89  O   UNL A   1      30.997  25.936  26.501  1.00  0.00    -0.485 OA
ATOM     90  C   UNL A   1      33.215  26.873  26.372  1.00  0.00     0.162 A 
ATOM     91  C   UNL A   1      31.853  26.991  26.660  1.00  0.00     0.161 A 
ATOM     92  C   UNL A   1      34.066  27.943  26.623  1.00  0.00     0.050 A 
ATOM     93  C   UNL A   1      31.318  28.187  27.120  1.00  0.00     0.050 A 
ATOM     94  C   UNL A   1      33.544  29.132  27.140  1.00  0.00     0.004 A 
ATOM     95  C   UNL A   1      32.171  29.260  27.367  1.00  0.00     0.004 A 
ENDBRANCH  83  86
BRANCH  85  96
ATOM     96  C   UNL A   1      32.404  25.956  23.221  1.00  0.00     0.067 A 
ATOM     97  C   UNL A   1      33.642  26.371  22.727  1.00  0.00     0.028 A 
ATOM     98  C   UNL A   1      31.320  26.839  23.298  1.00  0.00     0.041 A 
ATOM     99  C   UNL A   1      33.763  27.660  22.208  1.00  0.00     0.003 A 
ATOM    100  C   UNL A   1      31.447  28.143  22.800  1.00  0.00     0.058 A 
ATOM    101  C   UNL A   1      32.671  28.534  22.229  1.00  0.00     0.013 A 
BRANCH 100 102
ATOM    102  C   UNL A   1      30.269  29.082  22.800  1.00  0.00     0.416 C 
ATOM    103  F   UNL A   1      29.075  28.430  22.699  1.00  0.00    -0.166 F 
ATOM    104  F   UNL A   1      30.189  29.828  23.936  1.00  0.00    -0.166 F 
ATOM    105  F   UNL A   1      30.287  29.976  21.771  1.00  0.00    -0.166 F 
ENDBRANCH 100 102
ENDBRANCH  85  96
ENDBRANCH  78  81
ENDBRANCH  76  77
ENDBRANCH  75  76
ENDBRANCH   1  75
TORSDOF 17
ENDMDL
MODEL 2
REMARK VINA RESULT:     -13.3      3.160      9.277
REMARK SMILES O=C(NCCCCNC(=O)c1nnn(-c2cccc(C(F)(F)F)c2)c1[C@@H]1COc2ccccc2O1)c1ccc(-c2c3nc(c(-c4c(F)cc(S(=O)(=O)[O-])cc4F)c4ccc([nH]4)c(-c4c(F)cc(S(=O)(=O)[O-])cc4F)c4nc(c(-c5c(F)cc(S(=O)(=O)[O-])cc5F)c5ccc2[nH]5)C=C4)C=C3)cc1
REMARK SMILES IDX 5 1 4 2 3 3 1 4 2 5 36 7 37 8 101 9 38 10 100 11 39 12 40 13
REMARK SMILES IDX 41 14 94 15 42 16 99 17 93 18 95 19 43 20 98 21 92 22 91 23
REMARK SMILES IDX 44 25 78 26 57 27 77 28 58 29 61 30 76 31 96 32 59 33 60 34
REMARK SMILES IDX 75 36 97 37 62 38 45 39 46 40 55 41 47 42 48 43 54 44 56 45
REMARK SMILES IDX 49 46 50 47 51 48 52 49 53 50 79 51 80 52 89 53 81 54 82 55
REMARK SMILES IDX 88 56 90 57 83 58 84 59 85 60 86 61 87 62 63 63 64 64 73 65
REMARK SMILES IDX 65 66 66 67 72 68 74 69 67 70 68 71 69 72 70 73 71 74 6 75
REMARK SMILES IDX 7 76 8 77 9 78 10 80 11 81 12 82 25 83 13 84 14 85 26 86
REMARK SMILES IDX 27 87 35 88 28 89 34 90 29 91 33 92 30 93 32 94 31 95 15 96
REMARK SMILES IDX 16 97 24 98 17 99 19 100 18 101 20 102 21 103 22 104 23 105
REMARK H PARENT 3 6 95 24 61 35 8 79
REMARK Flexibility Score: inf
ROOT
ATOM      1  C   UNL A   1      32.655  28.880  27.261  1.00  0.00     0.023 C 
ENDROOT
BRANCH   1   2
ATOM      2  C   UNL A   1      33.776  29.909  27.089  1.00  0.00     0.116 C 
BRANCH   2   3
ATOM      3  N   UNL A   1      33.764  31.014  28.030  1.00  0.00    -0.352 N 
ATOM      4  O   UNL A   1      34.366  32.733  29.279  1.00  0.00    -0.269 OA
ATOM      5  C   UNL A   1      34.729  31.687  28.735  1.00  0.00     0.251 C 
ATOM      6  H   UNL A   1      32.857  31.360  28.201  1.00  0.00     0.163 HD
BRANCH   5   7
ATOM      7  C   UNL A   1      36.130  31.222  28.930  1.00  0.00     0.039 A 
ATOM      8  C   UNL A   1      37.232  32.051  29.130  1.00  0.00     0.014 A 
ATOM      9  C   UNL A   1      36.339  29.830  28.876  1.00  0.00     0.014 A 
ATOM     10  C   UNL A   1      38.517  31.520  29.187  1.00  0.00     0.010 A 
ATOM     11  C   UNL A   1      37.620  29.291  28.955  1.00  0.00     0.010 A 
ATOM     12  C   UNL A   1      38.713  30.143  29.080  1.00  0.00    -0.014 A 
BRANCH  12  13
ATOM     13  C   UNL A   1      40.078  29.645  29.227  1.00  0.00     0.031 A 
ATOM     14  C   UNL A   1      40.595  29.589  30.627  1.00  0.00     0.074 A 
ATOM     15  C   UNL A   1      40.794  29.131  28.210  1.00  0.00     0.049 A 
ATOM     16  N   UNL A   1      41.633  30.176  31.132  1.00  0.00    -0.248 NA
ATOM     17  C   UNL A   1      39.799  28.837  31.608  1.00  0.00     0.031 C 
ATOM     18  C   UNL A   1      40.333  28.821  26.856  1.00  0.00     0.029 A 
ATOM     19  N   UNL A   1      42.075  28.663  28.219  1.00  0.00    -0.354 N 
ATOM     20  C   UNL A   1      41.730  29.723  32.449  1.00  0.00     0.074 A 
ATOM     21  C   UNL A   1      40.508  29.010  32.723  1.00  0.00     0.031 C 
ATOM     22  C   UNL A   1      41.238  28.017  26.256  1.00  0.00     0.029 A 
ATOM     23  C   UNL A   1      42.388  27.859  27.132  1.00  0.00     0.049 A 
ATOM     24  H   UNL A   1      42.719  28.876  28.931  1.00  0.00     0.167 HD
ATOM     25  C   UNL A   1      42.882  29.803  33.172  1.00  0.00     0.037 A 
ATOM     26  C   UNL A   1      43.469  27.051  27.008  1.00  0.00     0.037 A 
ATOM     27  C   UNL A   1      43.815  30.732  32.597  1.00  0.00     0.049 A 
ATOM     28  C   UNL A   1      44.501  27.520  27.970  1.00  0.00     0.074 A 
ATOM     29  C   UNL A   1      43.802  32.086  32.324  1.00  0.00     0.029 A 
ATOM     30  N   UNL A   1      44.895  30.227  31.916  1.00  0.00    -0.354 N 
ATOM     31  N   UNL A   1      45.139  28.653  27.873  1.00  0.00    -0.248 NA
ATOM     32  C   UNL A   1      44.549  26.892  29.281  1.00  0.00     0.031 C 
ATOM     33  C   UNL A   1      44.565  32.232  31.130  1.00  0.00     0.029 A 
ATOM     34  C   UNL A   1      45.017  30.963  30.767  1.00  0.00     0.049 A 
ATOM     35  H   UNL A   1      45.470  29.481  32.200  1.00  0.00     0.167 HD
ATOM     36  C   UNL A   1      45.312  29.080  29.180  1.00  0.00     0.074 A 
ATOM     37  C   UNL A   1      45.029  27.908  30.002  1.00  0.00     0.031 C 
ATOM     38  C   UNL A   1      45.403  30.407  29.488  1.00  0.00     0.037 A 
BRANCH  25  39
ATOM     39  C   UNL A   1      43.299  28.806  34.227  1.00  0.00     0.058 A 
ATOM     40  C   UNL A   1      43.364  27.433  33.906  1.00  0.00     0.135 A 
ATOM     41  C   UNL A   1      43.351  29.113  35.604  1.00  0.00     0.135 A 
ATOM     42  F   UNL A   1      43.317  27.026  32.628  1.00  0.00    -0.206 F 
ATOM     43  C   UNL A   1      43.397  26.437  34.884  1.00  0.00     0.059 A 
ATOM     44  C   UNL A   1      43.440  28.139  36.594  1.00  0.00     0.059 A 
ATOM     45  F   UNL A   1      43.214  30.365  36.059  1.00  0.00    -0.206 F 
ATOM     46  C   UNL A   1      43.412  26.803  36.228  1.00  0.00     0.060 A 
BRANCH  46  47
ATOM     47  S   UNL A   1      43.312  25.526  37.495  1.00  0.00     0.124 S 
ATOM     48  O   UNL A   1      43.376  26.325  38.714  1.00  0.00    -0.237 OA
ATOM     49  O   UNL A   1      42.024  24.906  37.203  1.00  0.00    -0.237 OA
ATOM     50  O   UNL A   1      44.480  24.693  37.222  1.00  0.00    -0.744 OA
ENDBRANCH  46  47
ENDBRANCH  25  39
BRANCH  26  51
ATOM     51  C   UNL A   1      43.534  25.716  26.355  1.00  0.00     0.058 A 
ATOM     52  C   UNL A   1      44.448  25.453  25.322  1.00  0.00     0.135 A 
ATOM     53  C   UNL A   1      42.886  24.595  26.914  1.00  0.00     0.135 A 
ATOM     54  F   UNL A   1      45.131  26.457  24.752  1.00  0.00    -0.206 F 
ATOM     55  C   UNL A   1      44.737  24.152  24.896  1.00  0.00     0.059 A 
ATOM     56  C   UNL A   1      43.144  23.291  26.495  1.00  0.00     0.059 A 
ATOM     57  F   UNL A   1      42.050  24.721  27.955  1.00  0.00    -0.206 F 
ATOM     58  C   UNL A   1      44.091  23.075  25.503  1.00  0.00     0.060 A 
BRANCH  58  59
ATOM     59  S   UNL A   1      44.583  21.387  25.082  1.00  0.00     0.124 S 
ATOM     60  O   UNL A   1      43.563  20.597  25.762  1.00  0.00    -0.237 OA
ATOM     61  O   UNL A   1      44.513  21.400  23.625  1.00  0.00    -0.237 OA
ATOM     62  O   UNL A   1      45.930  21.279  25.637  1.00  0.00    -0.744 OA
ENDBRANCH  58  59
ENDBRANCH  26  51
BRANCH  38  63
ATOM     63  C   UNL A   1      45.651  31.386  28.373  1.00  0.00     0.058 A 
ATOM     64  C   UNL A   1      44.649  31.884  27.523  1.00  0.00     0.135 A 
ATOM     65  C   UNL A   1      46.926  31.965  28.271  1.00  0.00     0.135 A 
ATOM     66  F   UNL A   1      43.380  31.464  27.633  1.00  0.00    -0.206 F 
ATOM     67  C   UNL A   1      44.912  32.881  26.584  1.00  0.00     0.059 A 
ATOM     68  C   UNL A   1      47.203  32.985  27.364  1.00  0.00     0.059 A 
ATOM     69  F   UNL A   1      47.910  31.579  29.100  1.00  0.00    -0.206 F 
ATOM     70  C   UNL A   1      46.192  33.430  26.514  1.00  0.00     0.060 A 
BRANCH  70  71
ATOM     71  S   UNL A   1      46.505  34.792  25.372  1.00  0.00     0.124 S 
ATOM     72  O   UNL A   1      46.231  35.960  26.209  1.00  0.00    -0.237 OA
ATOM     73  O   UNL A   1      47.911  34.589  25.016  1.00  0.00    -0.237 OA
ATOM     74  O   UNL A   1      45.560  34.562  24.293  1.00  0.00    -0.744 OA
ENDBRANCH  70  71
ENDBRANCH  38  63
ENDBRANCH  12  13
ENDBRANCH   5   7
ENDBRANCH   2   3
ENDBRANCH   1   2
BRANCH   1  75
ATOM     75  C   UNL A   1      31.584  28.871  26.174  1.00  0.00     0.023 C 
BRANCH  75  76
ATOM     76  C   UNL A   1      31.852  29.726  24.944  1.00  0.00     0.116 C 
BRANCH  76  77
ATOM     77  N   UNL A   1      31.279  29.271  23.706  1.00  0.00    -0.351 N 
ATOM     78  C   UNL A   1      30.909  28.043  23.195  1.00  0.00     0.273 C 
ATOM     79  H   UNL A   1      31.110  30.007  23.075  1.00  0.00     0.163 HD
ATOM     80  O   UNL A   1      30.376  28.130  22.081  1.00  0.00    -0.267 OA
BRANCH  78  81
ATOM     81  C   UNL A   1      31.089  26.701  23.805  1.00  0.00     0.178 A 
ATOM     82  N   UNL A   1      29.924  25.962  23.968  1.00  0.00    -0.124 NA
ATOM     83  C   UNL A   1      32.147  25.901  24.262  1.00  0.00     0.122 A 
ATOM     84  N   UNL A   1      30.215  24.767  24.445  1.00  0.00    -0.061 NA
ATOM     85  N   UNL A   1      31.525  24.745  24.721  1.00  0.00    -0.213 N 
BRANCH  83  86
ATOM     86  C   UNL A   1      33.633  26.021  24.119  1.00  0.00     0.262 C 
ATOM     87  C   UNL A   1      34.058  25.561  22.705  1.00  0.00     0.281 C 
ATOM     88  O   UNL A   1      34.370  25.407  25.186  1.00  0.00    -0.477 OA
ATOM     89  O   UNL A   1      34.208  24.145  22.632  1.00  0.00    -0.485 OA
ATOM     90  C   UNL A   1      35.281  24.471  24.767  1.00  0.00     0.162 A 
ATOM     91  C   UNL A   1      35.163  23.799  23.548  1.00  0.00     0.161 A 
ATOM     92  C   UNL A   1      36.315  24.144  25.636  1.00  0.00     0.050 A 
ATOM     93  C   UNL A   1      36.014  22.751  23.222  1.00  0.00     0.050 A 
ATOM     94  C   UNL A   1      37.210  23.128  25.289  1.00  0.00     0.004 A 
ATOM     95  C   UNL A   1      37.047  22.420  24.095  1.00  0.00     0.004 A 
ENDBRANCH  83  86
BRANCH  85  96
ATOM     96  C   UNL A   1      32.068  23.649  25.416  1.00  0.00     0.067 A 
ATOM     97  C   UNL A   1      32.241  23.731  26.799  1.00  0.00     0.028 A 
ATOM     98  C   UNL A   1      32.320  22.460  24.722  1.00  0.00     0.041 A 
ATOM     99  C   UNL A   1      32.571  22.575  27.506  1.00  0.00     0.003 A 
ATOM    100  C   UNL A   1      32.677  21.303  25.428  1.00  0.00     0.058 A 
ATOM    101  C   UNL A   1      32.772  21.368  26.829  1.00  0.00     0.013 A 
BRANCH 100 102
ATOM    102  C   UNL A   1      32.873  19.995  24.707  1.00  0.00     0.416 C 
ATOM    103  F   UNL A   1      32.295  19.981  23.473  1.00  0.00    -0.166 F 
ATOM    104  F   UNL A   1      34.187  19.696  24.505  1.00  0.00    -0.166 F 
ATOM    105  F   UNL A   1      32.349  18.925  25.371  1.00  0.00    -0.166 F 
ENDBRANCH 100 102
ENDBRANCH  85  96
ENDBRANCH  78  81
ENDBRANCH  76  77
ENDBRANCH  75  76
ENDBRANCH   1  75
TORSDOF 17
ENDMDL
MODEL 3
REMARK VINA RESULT:     -13.3      1.606      2.017
REMARK SMILES O=C(NCCCCNC(=O)c1nnn(-c2cccc(C(F)(F)F)c2)c1[C@@H]1COc2ccccc2O1)c1ccc(-c2c3nc(c(-c4c(F)cc(S(=O)(=O)[O-])cc4F)c4ccc([nH]4)c(-c4c(F)cc(S(=O)(=O)[O-])cc4F)c4nc(c(-c5c(F)cc(S(=O)(=O)[O-])cc5F)c5ccc2[nH]5)C=C4)C=C3)cc1
REMARK SMILES IDX 5 1 4 2 3 3 1 4 2 5 36 7 37 8 101 9 38 10 100 11 39 12 40 13
REMARK SMILES IDX 41 14 94 15 42 16 99 17 93 18 95 19 43 20 98 21 92 22 91 23
REMARK SMILES IDX 44 25 78 26 57 27 77 28 58 29 61 30 76 31 96 32 59 33 60 34
REMARK SMILES IDX 75 36 97 37 62 38 45 39 46 40 55 41 47 42 48 43 54 44 56 45
REMARK SMILES IDX 49 46 50 47 51 48 52 49 53 50 79 51 80 52 89 53 81 54 82 55
REMARK SMILES IDX 88 56 90 57 83 58 84 59 85 60 86 61 87 62 63 63 64 64 73 65
REMARK SMILES IDX 65 66 66 67 72 68 74 69 67 70 68 71 69 72 70 73 71 74 6 75
REMARK SMILES IDX 7 76 8 77 9 78 10 80 11 81 12 82 25 83 13 84 14 85 26 86
REMARK SMILES IDX 27 87 35 88 28 89 34 90 29 91 33 92 30 93 32 94 31 95 15 96
REMARK SMILES IDX 16 97 24 98 17 99 19 100 18 101 20 102 21 103 22 104 23 105
REMARK H PARENT 3 6 95 24 61 35 8 79
REMARK Flexibility Score: inf
ROOT
ATOM      1  C   UNL A   1      39.001  21.170  25.760  1.00  0.00     0.023 C 
ENDROOT
BRANCH   1   2
ATOM      2  C   UNL A   1      39.988  20.167  26.365  1.00  0.00     0.116 C 
BRANCH   2   3
ATOM      3  N   UNL A   1      41.307  20.139  25.758  1.00  0.00    -0.352 N 
ATOM      4  O   UNL A   1      43.456  20.449  25.359  1.00  0.00    -0.269 OA
ATOM      5  C   UNL A   1      42.435  20.910  25.876  1.00  0.00     0.251 C 
ATOM      6  H   UNL A   1      41.416  19.399  25.117  1.00  0.00     0.163 HD
BRANCH   5   7
ATOM      7  C   UNL A   1      42.494  22.253  26.514  1.00  0.00     0.039 A 
ATOM      8  C   UNL A   1      42.923  22.507  27.816  1.00  0.00     0.014 A 
ATOM      9  C   UNL A   1      42.049  23.337  25.732  1.00  0.00     0.014 A 
ATOM     10  C   UNL A   1      42.831  23.786  28.356  1.00  0.00     0.010 A 
ATOM     11  C   UNL A   1      41.975  24.624  26.259  1.00  0.00     0.010 A 
ATOM     12  C   UNL A   1      42.339  24.839  27.585  1.00  0.00    -0.014 A 
BRANCH  12  13
ATOM     13  C   UNL A   1      42.342  26.170  28.186  1.00  0.00     0.031 A 
ATOM     14  C   UNL A   1      43.486  27.049  27.797  1.00  0.00     0.074 A 
ATOM     15  C   UNL A   1      41.328  26.653  28.928  1.00  0.00     0.049 A 
ATOM     16  N   UNL A   1      44.376  27.605  28.555  1.00  0.00    -0.248 NA
ATOM     17  C   UNL A   1      43.705  27.270  26.360  1.00  0.00     0.031 C 
ATOM     18  C   UNL A   1      40.010  26.053  29.141  1.00  0.00     0.029 A 
ATOM     19  N   UNL A   1      41.229  27.858  29.556  1.00  0.00    -0.354 N 
ATOM     20  C   UNL A   1      45.160  28.397  27.714  1.00  0.00     0.074 A 
ATOM     21  C   UNL A   1      44.786  28.049  26.367  1.00  0.00     0.031 C 
ATOM     22  C   UNL A   1      39.178  26.989  29.648  1.00  0.00     0.029 A 
ATOM     23  C   UNL A   1      39.932  28.206  29.907  1.00  0.00     0.049 A 
ATOM     24  H   UNL A   1      42.006  28.431  29.745  1.00  0.00     0.167 HD
ATOM     25  C   UNL A   1      45.935  29.417  28.176  1.00  0.00     0.037 A 
ATOM     26  C   UNL A   1      39.497  29.431  30.291  1.00  0.00     0.037 A 
ATOM     27  C   UNL A   1      46.161  29.323  29.592  1.00  0.00     0.049 A 
ATOM     28  C   UNL A   1      40.678  30.209  30.750  1.00  0.00     0.074 A 
ATOM     29  C   UNL A   1      46.753  28.396  30.427  1.00  0.00     0.029 A 
ATOM     30  N   UNL A   1      45.468  30.175  30.416  1.00  0.00    -0.354 N 
ATOM     31  N   UNL A   1      41.363  29.941  31.827  1.00  0.00    -0.248 NA
ATOM     32  C   UNL A   1      41.346  31.071  29.787  1.00  0.00     0.031 C 
ATOM     33  C   UNL A   1      45.998  28.448  31.634  1.00  0.00     0.029 A 
ATOM     34  C   UNL A   1      45.014  29.424  31.469  1.00  0.00     0.049 A 
ATOM     35  H   UNL A   1      45.324  31.139  30.277  1.00  0.00     0.167 HD
ATOM     36  C   UNL A   1      42.675  30.248  31.500  1.00  0.00     0.074 A 
ATOM     37  C   UNL A   1      42.587  31.039  30.278  1.00  0.00     0.031 C 
ATOM     38  C   UNL A   1      43.724  29.607  32.096  1.00  0.00     0.037 A 
BRANCH  25  39
ATOM     39  C   UNL A   1      46.230  30.682  27.405  1.00  0.00     0.058 A 
ATOM     40  C   UNL A   1      47.565  31.112  27.248  1.00  0.00     0.135 A 
ATOM     41  C   UNL A   1      45.241  31.632  27.069  1.00  0.00     0.135 A 
ATOM     42  F   UNL A   1      48.587  30.292  27.543  1.00  0.00    -0.206 F 
ATOM     43  C   UNL A   1      47.891  32.415  26.866  1.00  0.00     0.059 A 
ATOM     44  C   UNL A   1      45.543  32.918  26.633  1.00  0.00     0.059 A 
ATOM     45  F   UNL A   1      43.936  31.393  27.249  1.00  0.00    -0.206 F 
ATOM     46  C   UNL A   1      46.869  33.317  26.581  1.00  0.00     0.060 A 
BRANCH  46  47
ATOM     47  S   UNL A   1      47.278  35.035  26.225  1.00  0.00     0.124 S 
ATOM     48  O   UNL A   1      48.072  35.390  27.396  1.00  0.00    -0.237 OA
ATOM     49  O   UNL A   1      48.008  34.922  24.968  1.00  0.00    -0.237 OA
ATOM     50  O   UNL A   1      45.970  35.676  26.129  1.00  0.00    -0.744 OA
ENDBRANCH  46  47
ENDBRANCH  25  39
BRANCH  26  51
ATOM     51  C   UNL A   1      38.193  30.071  29.973  1.00  0.00     0.058 A 
ATOM     52  C   UNL A   1      37.387  30.625  30.982  1.00  0.00     0.135 A 
ATOM     53  C   UNL A   1      37.837  30.392  28.647  1.00  0.00     0.135 A 
ATOM     54  F   UNL A   1      37.669  30.396  32.273  1.00  0.00    -0.206 F 
ATOM     55  C   UNL A   1      36.318  31.481  30.695  1.00  0.00     0.059 A 
ATOM     56  C   UNL A   1      36.766  31.227  28.336  1.00  0.00     0.059 A 
ATOM     57  F   UNL A   1      38.579  29.979  27.608  1.00  0.00    -0.206 F 
ATOM     58  C   UNL A   1      36.027  31.790  29.367  1.00  0.00     0.060 A 
BRANCH  58  59
ATOM     59  S   UNL A   1      34.762  33.027  28.995  1.00  0.00     0.124 S 
ATOM     60  O   UNL A   1      34.097  33.176  30.284  1.00  0.00    -0.237 OA
ATOM     61  O   UNL A   1      35.563  34.164  28.555  1.00  0.00    -0.237 OA
ATOM     62  O   UNL A   1      33.963  32.391  27.951  1.00  0.00    -0.744 OA
ENDBRANCH  58  59
ENDBRANCH  26  51
BRANCH  38  63
ATOM     63  C   UNL A   1      43.460  28.809  33.344  1.00  0.00     0.058 A 
ATOM     64  C   UNL A   1      43.466  29.350  34.641  1.00  0.00     0.135 A 
ATOM     65  C   UNL A   1      43.025  27.482  33.204  1.00  0.00     0.135 A 
ATOM     66  F   UNL A   1      43.761  30.642  34.849  1.00  0.00    -0.206 F 
ATOM     67  C   UNL A   1      43.097  28.593  35.753  1.00  0.00     0.059 A 
ATOM     68  C   UNL A   1      42.621  26.718  34.295  1.00  0.00     0.059 A 
ATOM     69  F   UNL A   1      42.935  26.929  31.983  1.00  0.00    -0.206 F 
ATOM     70  C   UNL A   1      42.671  27.278  35.571  1.00  0.00     0.060 A 
BRANCH  70  71
ATOM     71  S   UNL A   1      42.095  26.332  36.996  1.00  0.00     0.124 S 
ATOM     72  O   UNL A   1      42.058  24.970  36.463  1.00  0.00    -0.237 OA
ATOM     73  O   UNL A   1      43.138  26.591  37.990  1.00  0.00    -0.237 OA
ATOM     74  O   UNL A   1      40.800  26.920  37.299  1.00  0.00    -0.744 OA
ENDBRANCH  70  71
ENDBRANCH  38  63
ENDBRANCH  12  13
ENDBRANCH   5   7
ENDBRANCH   2   3
ENDBRANCH   1   2
BRANCH   1  75
ATOM     75  C   UNL A   1      37.874  20.575  24.923  1.00  0.00     0.023 C 
BRANCH  75  76
ATOM     76  C   UNL A   1      36.713  21.499  24.583  1.00  0.00     0.116 C 
BRANCH  76  77
ATOM     77  N   UNL A   1      35.391  20.956  24.739  1.00  0.00    -0.351 N 
ATOM     78  C   UNL A   1      34.115  21.391  24.441  1.00  0.00     0.273 C 
ATOM     79  H   UNL A   1      35.396  20.063  25.154  1.00  0.00     0.163 HD
ATOM     80  O   UNL A   1      33.250  20.542  24.691  1.00  0.00    -0.267 OA
BRANCH  78  81
ATOM     81  C   UNL A   1      33.697  22.707  23.896  1.00  0.00     0.178 A 
ATOM     82  N   UNL A   1      33.206  22.682  22.596  1.00  0.00    -0.124 NA
ATOM     83  C   UNL A   1      33.616  24.037  24.337  1.00  0.00     0.122 A 
ATOM     84  N   UNL A   1      32.797  23.887  22.248  1.00  0.00    -0.061 NA
ATOM     85  N   UNL A   1      33.125  24.730  23.236  1.00  0.00    -0.213 N 
BRANCH  83  86
ATOM     86  C   UNL A   1      33.745  24.655  25.695  1.00  0.00     0.262 C 
ATOM     87  C   UNL A   1      32.431  24.455  26.484  1.00  0.00     0.281 C 
ATOM     88  O   UNL A   1      34.221  26.008  25.672  1.00  0.00    -0.477 OA
ATOM     89  O   UNL A   1      31.466  25.456  26.167  1.00  0.00    -0.485 OA
ATOM     90  C   UNL A   1      33.392  26.900  26.304  1.00  0.00     0.162 A 
ATOM     91  C   UNL A   1      32.027  26.663  26.482  1.00  0.00     0.161 A 
ATOM     92  C   UNL A   1      33.939  28.112  26.711  1.00  0.00     0.050 A 
ATOM     93  C   UNL A   1      31.188  27.647  26.986  1.00  0.00     0.050 A 
ATOM     94  C   UNL A   1      33.110  29.086  27.273  1.00  0.00     0.004 A 
ATOM     95  C   UNL A   1      31.735  28.863  27.390  1.00  0.00     0.004 A 
ENDBRANCH  83  86
BRANCH  85  96
ATOM     96  C   UNL A   1      32.971  26.115  23.044  1.00  0.00     0.067 A 
ATOM     97  C   UNL A   1      34.064  26.876  22.623  1.00  0.00     0.028 A 
ATOM     98  C   UNL A   1      31.698  26.683  23.173  1.00  0.00     0.041 A 
ATOM     99  C   UNL A   1      33.852  28.196  22.228  1.00  0.00     0.003 A 
ATOM    100  C   UNL A   1      31.489  28.017  22.800  1.00  0.00     0.058 A 
ATOM    101  C   UNL A   1      32.574  28.758  22.299  1.00  0.00     0.013 A 
BRANCH 100 102
ATOM    102  C   UNL A   1      30.110  28.622  22.854  1.00  0.00     0.416 C 
ATOM    103  F   UNL A   1      29.814  29.358  21.745  1.00  0.00    -0.166 F 
ATOM    104  F   UNL A   1      29.127  27.685  22.951  1.00  0.00    -0.166 F 
ATOM    105  F   UNL A   1      29.927  29.462  23.912  1.00  0.00    -0.166 F 
ENDBRANCH 100 102
ENDBRANCH  85  96
ENDBRANCH  78  81
ENDBRANCH  76  77
ENDBRANCH  75  76
ENDBRANCH   1  75
TORSDOF 17
ENDMDL
