MODEL 1
REMARK VINA RESULT:     -10.6      0.000      0.000
REMARK SMILES CC(C)C[C@H]([NH2+]C[C@@](C)(O)C#Cc1ccccc1)C(=O)NCCCCNC(=O)c1ccc(-c2c3nc(c(-c4c(F)cc(S(=O)(=O)[O-])cc4F)c4ccc([nH]4)c(-c4c(F)cc(S(=O)(=O)[O-])cc4F)c4nc(c(-c5c(F)cc(S(=O)(=O)[O-])cc5F)c5ccc2[nH]5)C=C4)C=C3)cc1
REMARK SMILES IDX 22 1 21 2 19 3 20 4 5 6 4 7 2 8 1 9 3 10 6 11 7 14 8 15 9 16
REMARK SMILES IDX 10 17 11 19 12 20 13 21 14 22 18 23 15 24 17 25 16 26 23 27
REMARK SMILES IDX 24 28 25 29 26 30 27 31 28 33 29 34 30 35 94 36 31 37 93 38
REMARK SMILES IDX 32 39 33 40 34 41 87 42 35 43 92 44 86 45 88 46 36 47 91 48
REMARK SMILES IDX 85 49 84 50 37 52 71 53 50 54 70 55 51 56 54 57 69 58 89 59
REMARK SMILES IDX 52 60 53 61 68 63 90 64 55 65 38 66 39 67 48 68 40 69 41 70
REMARK SMILES IDX 47 71 49 72 42 73 43 74 44 75 45 76 46 77 72 78 73 79 82 80
REMARK SMILES IDX 74 81 75 82 81 83 83 84 76 85 77 86 78 87 79 88 80 89 56 90
REMARK SMILES IDX 57 91 66 92 58 93 59 94 65 95 67 96 60 97 61 98 62 99 63 100
REMARK SMILES IDX 64 101
REMARK H PARENT 21 5 6 12 6 13 10 18 26 32 88 51 54 62
REMARK Flexibility Score: inf
ROOT
ATOM      1  C   UNL A   1      34.610  23.308  26.572  1.00  0.00     0.116 C 
ENDROOT
BRANCH   1   2
ATOM      2  N   UNL A   1      33.206  23.470  26.897  1.00  0.00    -0.351 N 
ATOM      3  C   UNL A   1      32.259  24.296  26.353  1.00  0.00     0.278 C 
ATOM      4  O   UNL A   1      31.107  24.226  26.785  1.00  0.00    -0.268 OA
ATOM      5  H   UNL A   1      32.881  22.894  27.627  1.00  0.00     0.163 HD
BRANCH   3   6
ATOM      6  C   UNL A   1      32.637  25.265  25.206  1.00  0.00     0.272 C 
BRANCH   6   7
ATOM      7  C   UNL A   1      33.237  26.575  25.767  1.00  0.00     0.078 C 
BRANCH   7   8
ATOM      8  C   UNL A   1      32.266  27.779  25.759  1.00  0.00    -0.011 C 
ATOM      9  C   UNL A   1      31.562  27.944  27.105  1.00  0.00     0.007 C 
ATOM     10  C   UNL A   1      33.030  29.058  25.405  1.00  0.00     0.007 C 
ENDBRANCH   7   8
ENDBRANCH   6   7
BRANCH   6  11
ATOM     11  N   UNL A   1      31.481  25.362  24.291  1.00  0.00    -0.333 N 
ATOM     12  H   UNL A   1      31.127  26.317  24.349  1.00  0.00     0.347 HD
ATOM     13  H   UNL A   1      30.840  24.635  24.609  1.00  0.00     0.347 HD
BRANCH  11  14
ATOM     14  C   UNL A   1      31.702  25.065  22.881  1.00  0.00     0.310 C 
BRANCH  14  15
ATOM     15  C   UNL A   1      31.908  26.312  21.960  1.00  0.00     0.171 C 
ATOM     16  C   UNL A   1      33.359  26.810  21.993  1.00  0.00     0.063 C 
BRANCH  15  17
ATOM     17  O   UNL A   1      31.610  25.933  20.612  1.00  0.00    -0.372 OA
ATOM     18  H   UNL A   1      31.561  24.965  20.551  1.00  0.00     0.212 HD
ENDBRANCH  15  17
BRANCH  15  19
ATOM     19  C   UNL A   1      31.005  27.408  22.345  1.00  0.00    -0.057 C 
ATOM     20  C   UNL A   1      30.294  28.343  22.602  1.00  0.00    -0.064 C 
BRANCH  20  21
ATOM     21  C   UNL A   1      29.463  29.478  22.850  1.00  0.00     0.025 A 
ATOM     22  C   UNL A   1      28.304  29.670  22.095  1.00  0.00     0.017 A 
ATOM     23  C   UNL A   1      29.823  30.411  23.824  1.00  0.00     0.017 A 
ATOM     24  C   UNL A   1      27.508  30.795  22.312  1.00  0.00     0.001 A 
ATOM     25  C   UNL A   1      29.025  31.537  24.041  1.00  0.00     0.001 A 
ATOM     26  C   UNL A   1      27.870  31.728  23.284  1.00  0.00     0.000 A 
ENDBRANCH  20  21
ENDBRANCH  15  19
ENDBRANCH  14  15
ENDBRANCH  11  14
ENDBRANCH   6  11
ENDBRANCH   3   6
ENDBRANCH   1   2
BRANCH   1  27
ATOM     27  C   UNL A   1      34.820  22.345  25.409  1.00  0.00     0.023 C 
BRANCH  27  28
ATOM     28  C   UNL A   1      36.018  22.670  24.529  1.00  0.00     0.023 C 
BRANCH  28  29
ATOM     29  C   UNL A   1      37.127  23.437  25.230  1.00  0.00     0.116 C 
BRANCH  29  30
ATOM     30  N   UNL A   1      38.341  22.650  25.424  1.00  0.00    -0.352 N 
ATOM     31  C   UNL A   1      39.494  23.001  26.091  1.00  0.00     0.251 C 
ATOM     32  H   UNL A   1      38.334  21.750  25.027  1.00  0.00     0.163 HD
ATOM     33  O   UNL A   1      40.478  22.270  26.061  1.00  0.00    -0.269 OA
BRANCH  31  34
ATOM     34  C   UNL A   1      39.535  24.299  26.799  1.00  0.00     0.039 A 
ATOM     35  C   UNL A   1      40.300  25.344  26.280  1.00  0.00     0.014 A 
ATOM     36  C   UNL A   1      38.915  24.424  28.043  1.00  0.00     0.014 A 
ATOM     37  C   UNL A   1      40.639  26.408  27.105  1.00  0.00     0.010 A 
ATOM     38  C   UNL A   1      39.157  25.561  28.818  1.00  0.00     0.010 A 
ATOM     39  C   UNL A   1      40.077  26.530  28.385  1.00  0.00    -0.014 A 
BRANCH  39  40
ATOM     40  C   UNL A   1      40.480  27.669  29.254  1.00  0.00     0.031 A 
ATOM     41  C   UNL A   1      41.831  27.694  29.925  1.00  0.00     0.074 A 
ATOM     42  C   UNL A   1      39.642  28.715  29.391  1.00  0.00     0.049 A 
ATOM     43  N   UNL A   1      42.341  28.606  30.715  1.00  0.00    -0.248 NA
ATOM     44  C   UNL A   1      42.725  26.549  29.685  1.00  0.00     0.031 C 
ATOM     45  C   UNL A   1      38.319  28.819  28.770  1.00  0.00     0.029 A 
ATOM     46  N   UNL A   1      39.782  29.898  30.069  1.00  0.00    -0.354 N 
ATOM     47  C   UNL A   1      43.601  28.141  31.077  1.00  0.00     0.074 A 
ATOM     48  C   UNL A   1      43.762  26.844  30.456  1.00  0.00     0.031 C 
ATOM     49  C   UNL A   1      37.795  30.020  29.047  1.00  0.00     0.029 A 
ATOM     50  C   UNL A   1      38.702  30.739  29.934  1.00  0.00     0.049 A 
ATOM     51  H   UNL A   1      40.579  30.124  30.602  1.00  0.00     0.167 HD
ATOM     52  C   UNL A   1      44.542  28.747  31.841  1.00  0.00     0.037 A 
ATOM     53  C   UNL A   1      38.453  31.944  30.481  1.00  0.00     0.037 A 
ATOM     54  C   UNL A   1      44.375  30.045  32.446  1.00  0.00     0.049 A 
ATOM     55  C   UNL A   1      39.478  32.559  31.388  1.00  0.00     0.074 A 
ATOM     56  C   UNL A   1      45.274  30.749  33.229  1.00  0.00     0.029 A 
ATOM     57  N   UNL A   1      43.237  30.833  32.341  1.00  0.00    -0.354 N 
ATOM     58  N   UNL A   1      40.665  32.107  31.714  1.00  0.00    -0.248 NA
ATOM     59  C   UNL A   1      39.130  33.844  32.006  1.00  0.00     0.031 C 
ATOM     60  C   UNL A   1      44.657  31.931  33.650  1.00  0.00     0.029 A 
ATOM     61  C   UNL A   1      43.399  31.999  33.072  1.00  0.00     0.049 A 
ATOM     62  H   UNL A   1      42.434  30.598  31.824  1.00  0.00     0.167 HD
ATOM     63  C   UNL A   1      41.214  33.061  32.563  1.00  0.00     0.074 A 
ATOM     64  C   UNL A   1      40.237  34.124  32.682  1.00  0.00     0.031 C 
ATOM     65  C   UNL A   1      42.418  33.053  33.187  1.00  0.00     0.037 A 
BRANCH  52  66
ATOM     66  C   UNL A   1      45.837  28.013  32.083  1.00  0.00     0.058 A 
ATOM     67  C   UNL A   1      46.020  27.180  33.199  1.00  0.00     0.135 A 
ATOM     68  C   UNL A   1      46.894  28.105  31.161  1.00  0.00     0.135 A 
ATOM     69  F   UNL A   1      45.051  27.062  34.120  1.00  0.00    -0.206 F 
ATOM     70  C   UNL A   1      47.210  26.490  33.406  1.00  0.00     0.059 A 
ATOM     71  C   UNL A   1      48.081  27.397  31.331  1.00  0.00     0.059 A 
ATOM     72  F   UNL A   1      46.777  28.883  30.073  1.00  0.00    -0.206 F 
ATOM     73  C   UNL A   1      48.235  26.603  32.464  1.00  0.00     0.060 A 
BRANCH  73  74
ATOM     74  S   UNL A   1      49.773  25.704  32.758  1.00  0.00     0.124 S 
ATOM     75  O   UNL A   1      50.387  26.511  33.807  1.00  0.00    -0.237 OA
ATOM     76  O   UNL A   1      49.289  24.391  33.171  1.00  0.00    -0.237 OA
ATOM     77  O   UNL A   1      50.446  25.744  31.463  1.00  0.00    -0.744 OA
ENDBRANCH  73  74
ENDBRANCH  52  66
BRANCH  53  78
ATOM     78  C   UNL A   1      37.173  32.635  30.171  1.00  0.00     0.058 A 
ATOM     79  C   UNL A   1      36.041  32.448  30.976  1.00  0.00     0.135 A 
ATOM     80  C   UNL A   1      37.073  33.541  29.101  1.00  0.00     0.135 A 
ATOM     81  F   UNL A   1      36.085  31.587  32.005  1.00  0.00    -0.206 F 
ATOM     82  C   UNL A   1      34.856  33.134  30.735  1.00  0.00     0.059 A 
ATOM     83  C   UNL A   1      35.909  34.262  28.861  1.00  0.00     0.059 A 
ATOM     84  F   UNL A   1      38.133  33.768  28.310  1.00  0.00    -0.206 F 
ATOM     85  C   UNL A   1      34.804  34.050  29.682  1.00  0.00     0.060 A 
BRANCH  85  86
ATOM     86  S   UNL A   1      33.283  34.988  29.432  1.00  0.00     0.124 S 
ATOM     87  O   UNL A   1      33.798  36.257  28.931  1.00  0.00    -0.237 OA
ATOM     88  O   UNL A   1      32.573  34.159  28.464  1.00  0.00    -0.237 OA
ATOM     89  O   UNL A   1      32.691  35.031  30.766  1.00  0.00    -0.744 OA
ENDBRANCH  85  86
ENDBRANCH  53  78
BRANCH  65  90
ATOM     90  C   UNL A   1      42.765  34.237  34.050  1.00  0.00     0.058 A 
ATOM     91  C   UNL A   1      42.703  34.171  35.450  1.00  0.00     0.135 A 
ATOM     92  C   UNL A   1      43.235  35.427  33.471  1.00  0.00     0.135 A 
ATOM     93  F   UNL A   1      42.254  33.061  36.056  1.00  0.00    -0.206 F 
ATOM     94  C   UNL A   1      43.078  35.249  36.246  1.00  0.00     0.059 A 
ATOM     95  C   UNL A   1      43.648  36.506  34.248  1.00  0.00     0.059 A 
ATOM     96  F   UNL A   1      43.323  35.542  32.137  1.00  0.00    -0.206 F 
ATOM     97  C   UNL A   1      43.557  36.410  35.635  1.00  0.00     0.060 A 
BRANCH  97  98
ATOM     98  S   UNL A   1      44.078  37.782  36.686  1.00  0.00     0.124 S 
ATOM     99  O   UNL A   1      44.259  38.849  35.709  1.00  0.00    -0.237 OA
ATOM    100  O   UNL A   1      42.938  37.931  37.585  1.00  0.00    -0.237 OA
ATOM    101  O   UNL A   1      45.302  37.289  37.310  1.00  0.00    -0.744 OA
ENDBRANCH  97  98
ENDBRANCH  65  90
ENDBRANCH  39  40
ENDBRANCH  31  34
ENDBRANCH  29  30
ENDBRANCH  28  29
ENDBRANCH  27  28
ENDBRANCH   1  27
TORSDOF 22
ENDMDL
MODEL 2
REMARK VINA RESULT:     -10.3      2.975      4.276
REMARK SMILES CC(C)C[C@H]([NH2+]C[C@@](C)(O)C#Cc1ccccc1)C(=O)NCCCCNC(=O)c1ccc(-c2c3nc(c(-c4c(F)cc(S(=O)(=O)[O-])cc4F)c4ccc([nH]4)c(-c4c(F)cc(S(=O)(=O)[O-])cc4F)c4nc(c(-c5c(F)cc(S(=O)(=O)[O-])cc5F)c5ccc2[nH]5)C=C4)C=C3)cc1
REMARK SMILES IDX 22 1 21 2 19 3 20 4 5 6 4 7 2 8 1 9 3 10 6 11 7 14 8 15 9 16
REMARK SMILES IDX 10 17 11 19 12 20 13 21 14 22 18 23 15 24 17 25 16 26 23 27
REMARK SMILES IDX 24 28 25 29 26 30 27 31 28 33 29 34 30 35 94 36 31 37 93 38
REMARK SMILES IDX 32 39 33 40 34 41 87 42 35 43 92 44 86 45 88 46 36 47 91 48
REMARK SMILES IDX 85 49 84 50 37 52 71 53 50 54 70 55 51 56 54 57 69 58 89 59
REMARK SMILES IDX 52 60 53 61 68 63 90 64 55 65 38 66 39 67 48 68 40 69 41 70
REMARK SMILES IDX 47 71 49 72 42 73 43 74 44 75 45 76 46 77 72 78 73 79 82 80
REMARK SMILES IDX 74 81 75 82 81 83 83 84 76 85 77 86 78 87 79 88 80 89 56 90
REMARK SMILES IDX 57 91 66 92 58 93 59 94 65 95 67 96 60 97 61 98 62 99 63 100
REMARK SMILES IDX 64 101
REMARK H PARENT 21 5 6 12 6 13 10 18 26 32 88 51 54 62
REMARK Flexibility Score: inf
ROOT
ATOM      1  C   UNL A   1      35.632  23.832  24.705  1.00  0.00     0.116 C 
ENDROOT
BRANCH   1   2
ATOM      2  N   UNL A   1      34.647  23.488  23.696  1.00  0.00    -0.351 N 
ATOM      3  C   UNL A   1      33.380  22.988  23.829  1.00  0.00     0.278 C 
ATOM      4  O   UNL A   1      32.716  22.807  22.807  1.00  0.00    -0.268 OA
ATOM      5  H   UNL A   1      34.938  23.637  22.767  1.00  0.00     0.163 HD
BRANCH   3   6
ATOM      6  C   UNL A   1      32.802  22.694  25.234  1.00  0.00     0.272 C 
BRANCH   6   7
ATOM      7  C   UNL A   1      33.261  21.305  25.738  1.00  0.00     0.078 C 
BRANCH   7   8
ATOM      8  C   UNL A   1      33.694  20.329  24.619  1.00  0.00    -0.011 C 
ATOM      9  C   UNL A   1      35.094  19.771  24.870  1.00  0.00     0.007 C 
ATOM     10  C   UNL A   1      32.684  19.184  24.510  1.00  0.00     0.007 C 
ENDBRANCH   7   8
ENDBRANCH   6   7
BRANCH   6  11
ATOM     11  N   UNL A   1      31.353  22.980  25.201  1.00  0.00    -0.333 N 
ATOM     12  H   UNL A   1      30.867  22.116  25.440  1.00  0.00     0.347 HD
ATOM     13  H   UNL A   1      31.183  23.335  24.260  1.00  0.00     0.347 HD
BRANCH  11  14
ATOM     14  C   UNL A   1      30.845  24.023  26.085  1.00  0.00     0.310 C 
BRANCH  14  15
ATOM     15  C   UNL A   1      30.343  25.320  25.369  1.00  0.00     0.171 C 
ATOM     16  C   UNL A   1      30.296  25.146  23.846  1.00  0.00     0.063 C 
BRANCH  15  17
ATOM     17  O   UNL A   1      29.012  25.596  25.816  1.00  0.00    -0.372 OA
ATOM     18  H   UNL A   1      29.025  25.808  26.764  1.00  0.00     0.212 HD
ENDBRANCH  15  17
BRANCH  15  19
ATOM     19  C   UNL A   1      31.195  26.471  25.705  1.00  0.00    -0.057 C 
ATOM     20  C   UNL A   1      31.879  27.398  26.053  1.00  0.00    -0.064 C 
BRANCH  20  21
ATOM     21  C   UNL A   1      32.689  28.476  26.524  1.00  0.00     0.025 A 
ATOM     22  C   UNL A   1      34.046  28.266  26.777  1.00  0.00     0.017 A 
ATOM     23  C   UNL A   1      32.120  29.729  26.761  1.00  0.00     0.017 A 
ATOM     24  C   UNL A   1      34.833  29.308  27.269  1.00  0.00     0.001 A 
ATOM     25  C   UNL A   1      32.908  30.771  27.253  1.00  0.00     0.001 A 
ATOM     26  C   UNL A   1      34.263  30.559  27.508  1.00  0.00     0.000 A 
ENDBRANCH  20  21
ENDBRANCH  15  19
ENDBRANCH  14  15
ENDBRANCH  11  14
ENDBRANCH   6  11
ENDBRANCH   3   6
ENDBRANCH   1   2
BRANCH   1  27
ATOM     27  C   UNL A   1      36.945  23.085  24.500  1.00  0.00     0.023 C 
BRANCH  27  28
ATOM     28  C   UNL A   1      37.757  22.876  25.769  1.00  0.00     0.023 C 
BRANCH  28  29
ATOM     29  C   UNL A   1      38.544  24.095  26.223  1.00  0.00     0.116 C 
BRANCH  29  30
ATOM     30  N   UNL A   1      39.989  23.920  26.125  1.00  0.00    -0.352 N 
ATOM     31  C   UNL A   1      40.987  24.686  26.688  1.00  0.00     0.251 C 
ATOM     32  H   UNL A   1      40.291  23.154  25.587  1.00  0.00     0.163 HD
ATOM     33  O   UNL A   1      42.163  24.479  26.410  1.00  0.00    -0.269 OA
BRANCH  31  34
ATOM     34  C   UNL A   1      40.605  25.792  27.592  1.00  0.00     0.039 A 
ATOM     35  C   UNL A   1      41.299  27.001  27.535  1.00  0.00     0.014 A 
ATOM     36  C   UNL A   1      39.642  25.573  28.578  1.00  0.00     0.014 A 
ATOM     37  C   UNL A   1      41.204  27.886  28.599  1.00  0.00     0.010 A 
ATOM     38  C   UNL A   1      39.458  26.530  29.579  1.00  0.00     0.010 A 
ATOM     39  C   UNL A   1      40.287  27.662  29.639  1.00  0.00    -0.014 A 
BRANCH  39  40
ATOM     40  C   UNL A   1      40.227  28.617  30.778  1.00  0.00     0.031 A 
ATOM     41  C   UNL A   1      41.190  28.509  31.934  1.00  0.00     0.074 A 
ATOM     42  C   UNL A   1      39.334  29.626  30.740  1.00  0.00     0.049 A 
ATOM     43  N   UNL A   1      41.275  29.254  33.007  1.00  0.00    -0.248 NA
ATOM     44  C   UNL A   1      42.182  27.422  31.886  1.00  0.00     0.031 C 
ATOM     45  C   UNL A   1      38.367  29.852  29.662  1.00  0.00     0.029 A 
ATOM     46  N   UNL A   1      39.107  30.661  31.609  1.00  0.00    -0.354 N 
ATOM     47  C   UNL A   1      42.313  28.722  33.765  1.00  0.00     0.074 A 
ATOM     48  C   UNL A   1      42.800  27.562  33.050  1.00  0.00     0.031 C 
ATOM     49  C   UNL A   1      37.694  30.984  29.904  1.00  0.00     0.029 A 
ATOM     50  C   UNL A   1      38.116  31.520  31.193  1.00  0.00     0.049 A 
ATOM     51  H   UNL A   1      39.606  30.779  32.450  1.00  0.00     0.167 HD
ATOM     52  C   UNL A   1      42.824  29.169  34.938  1.00  0.00     0.037 A 
ATOM     53  C   UNL A   1      37.585  32.604  31.789  1.00  0.00     0.037 A 
ATOM     54  C   UNL A   1      42.338  30.334  35.637  1.00  0.00     0.049 A 
ATOM     55  C   UNL A   1      38.115  33.033  33.127  1.00  0.00     0.074 A 
ATOM     56  C   UNL A   1      42.796  30.874  36.827  1.00  0.00     0.029 A 
ATOM     57  N   UNL A   1      41.286  31.135  35.215  1.00  0.00    -0.354 N 
ATOM     58  N   UNL A   1      39.100  32.520  33.824  1.00  0.00    -0.248 NA
ATOM     59  C   UNL A   1      37.459  34.183  33.760  1.00  0.00     0.031 C 
ATOM     60  C   UNL A   1      41.981  31.961  37.156  1.00  0.00     0.029 A 
ATOM     61  C   UNL A   1      41.059  32.144  36.137  1.00  0.00     0.049 A 
ATOM     62  H   UNL A   1      40.776  31.005  34.383  1.00  0.00     0.167 HD
ATOM     63  C   UNL A   1      39.194  33.296  34.974  1.00  0.00     0.074 A 
ATOM     64  C   UNL A   1      38.180  34.325  34.865  1.00  0.00     0.031 C 
ATOM     65  C   UNL A   1      40.044  33.164  36.023  1.00  0.00     0.037 A 
BRANCH  52  66
ATOM     66  C   UNL A   1      43.960  28.395  35.556  1.00  0.00     0.058 A 
ATOM     67  C   UNL A   1      43.737  27.360  36.480  1.00  0.00     0.135 A 
ATOM     68  C   UNL A   1      45.290  28.657  35.184  1.00  0.00     0.135 A 
ATOM     69  F   UNL A   1      42.489  27.072  36.883  1.00  0.00    -0.206 F 
ATOM     70  C   UNL A   1      44.789  26.635  37.031  1.00  0.00     0.059 A 
ATOM     71  C   UNL A   1      46.356  27.922  35.698  1.00  0.00     0.059 A 
ATOM     72  F   UNL A   1      45.566  29.632  34.303  1.00  0.00    -0.206 F 
ATOM     73  C   UNL A   1      46.096  26.922  36.632  1.00  0.00     0.060 A 
BRANCH  73  74
ATOM     74  S   UNL A   1      47.445  25.974  37.366  1.00  0.00     0.124 S 
ATOM     75  O   UNL A   1      48.184  25.551  36.181  1.00  0.00    -0.237 OA
ATOM     76  O   UNL A   1      48.104  26.971  38.202  1.00  0.00    -0.237 OA
ATOM     77  O   UNL A   1      46.759  24.907  38.089  1.00  0.00    -0.744 OA
ENDBRANCH  73  74
ENDBRANCH  52  66
BRANCH  53  78
ATOM     78  C   UNL A   1      36.493  33.349  31.109  1.00  0.00     0.058 A 
ATOM     79  C   UNL A   1      36.759  34.156  29.995  1.00  0.00     0.135 A 
ATOM     80  C   UNL A   1      35.156  33.222  31.521  1.00  0.00     0.135 A 
ATOM     81  F   UNL A   1      38.021  34.315  29.567  1.00  0.00    -0.206 F 
ATOM     82  C   UNL A   1      35.740  34.810  29.311  1.00  0.00     0.059 A 
ATOM     83  C   UNL A   1      34.117  33.839  30.834  1.00  0.00     0.059 A 
ATOM     84  F   UNL A   1      34.846  32.447  32.573  1.00  0.00    -0.206 F 
ATOM     85  C   UNL A   1      34.420  34.634  29.731  1.00  0.00     0.060 A 
BRANCH  85  86
ATOM     86  S   UNL A   1      33.103  35.427  28.784  1.00  0.00     0.124 S 
ATOM     87  O   UNL A   1      32.286  36.008  29.844  1.00  0.00    -0.237 OA
ATOM     88  O   UNL A   1      33.851  36.373  27.962  1.00  0.00    -0.237 OA
ATOM     89  O   UNL A   1      32.496  34.317  28.056  1.00  0.00    -0.744 OA
ENDBRANCH  85  86
ENDBRANCH  53  78
BRANCH  65  90
ATOM     90  C   UNL A   1      39.932  34.165  37.142  1.00  0.00     0.058 A 
ATOM     91  C   UNL A   1      40.540  35.428  37.063  1.00  0.00     0.135 A 
ATOM     92  C   UNL A   1      39.148  33.885  38.273  1.00  0.00     0.135 A 
ATOM     93  F   UNL A   1      41.307  35.746  36.009  1.00  0.00    -0.206 F 
ATOM     94  C   UNL A   1      40.388  36.371  38.075  1.00  0.00     0.059 A 
ATOM     95  C   UNL A   1      38.955  34.826  39.280  1.00  0.00     0.059 A 
ATOM     96  F   UNL A   1      38.537  32.697  38.396  1.00  0.00    -0.206 F 
ATOM     97  C   UNL A   1      39.587  36.064  39.176  1.00  0.00     0.060 A 
BRANCH  97  98
ATOM     98  S   UNL A   1      39.368  37.316  40.457  1.00  0.00     0.124 S 
ATOM     99  O   UNL A   1      40.750  37.687  40.745  1.00  0.00    -0.237 OA
ATOM    100  O   UNL A   1      38.571  38.326  39.767  1.00  0.00    -0.237 OA
ATOM    101  O   UNL A   1      38.676  36.598  41.523  1.00  0.00    -0.744 OA
ENDBRANCH  97  98
ENDBRANCH  65  90
ENDBRANCH  39  40
ENDBRANCH  31  34
ENDBRANCH  29  30
ENDBRANCH  28  29
ENDBRANCH  27  28
ENDBRANCH   1  27
TORSDOF 22
ENDMDL
MODEL 3
REMARK VINA RESULT:     -10.0      3.033      9.009
REMARK SMILES CC(C)C[C@H]([NH2+]C[C@@](C)(O)C#Cc1ccccc1)C(=O)NCCCCNC(=O)c1ccc(-c2c3nc(c(-c4c(F)cc(S(=O)(=O)[O-])cc4F)c4ccc([nH]4)c(-c4c(F)cc(S(=O)(=O)[O-])cc4F)c4nc(c(-c5c(F)cc(S(=O)(=O)[O-])cc5F)c5ccc2[nH]5)C=C4)C=C3)cc1
REMARK SMILES IDX 22 1 21 2 19 3 20 4 5 6 4 7 2 8 1 9 3 10 6 11 7 14 8 15 9 16
REMARK SMILES IDX 10 17 11 19 12 20 13 21 14 22 18 23 15 24 17 25 16 26 23 27
REMARK SMILES IDX 24 28 25 29 26 30 27 31 28 33 29 34 30 35 94 36 31 37 93 38
REMARK SMILES IDX 32 39 33 40 34 41 87 42 35 43 92 44 86 45 88 46 36 47 91 48
REMARK SMILES IDX 85 49 84 50 37 52 71 53 50 54 70 55 51 56 54 57 69 58 89 59
REMARK SMILES IDX 52 60 53 61 68 63 90 64 55 65 38 66 39 67 48 68 40 69 41 70
REMARK SMILES IDX 47 71 49 72 42 73 43 74 44 75 45 76 46 77 72 78 73 79 82 80
REMARK SMILES IDX 74 81 75 82 81 83 83 84 76 85 77 86 78 87 79 88 80 89 56 90
REMARK SMILES IDX 57 91 66 92 58 93 59 94 65 95 67 96 60 97 61 98 62 99 63 100
REMARK SMILES IDX 64 101
REMARK H PARENT 21 5 6 12 6 13 10 18 26 32 88 51 54 62
REMARK Flexibility Score: inf
ROOT
ATOM      1  C   UNL A   1      36.123  22.204  25.397  1.00  0.00     0.116 C 
ENDROOT
BRANCH   1   2
ATOM      2  N   UNL A   1      35.174  22.851  24.511  1.00  0.00    -0.351 N 
ATOM      3  C   UNL A   1      33.900  22.492  24.162  1.00  0.00     0.278 C 
ATOM      4  O   UNL A   1      33.272  23.235  23.405  1.00  0.00    -0.268 OA
ATOM      5  H   UNL A   1      35.498  23.682  24.093  1.00  0.00     0.163 HD
BRANCH   3   6
ATOM      6  C   UNL A   1      33.270  21.200  24.736  1.00  0.00     0.272 C 
BRANCH   6   7
ATOM      7  C   UNL A   1      32.580  20.380  23.619  1.00  0.00     0.078 C 
BRANCH   7   8
ATOM      8  C   UNL A   1      32.607  18.850  23.838  1.00  0.00    -0.011 C 
ATOM      9  C   UNL A   1      32.512  18.090  22.516  1.00  0.00     0.007 C 
ATOM     10  C   UNL A   1      33.887  18.455  24.581  1.00  0.00     0.007 C 
ENDBRANCH   7   8
ENDBRANCH   6   7
BRANCH   6  11
ATOM     11  N   UNL A   1      32.473  21.569  25.924  1.00  0.00    -0.333 N 
ATOM     12  H   UNL A   1      32.966  22.327  26.397  1.00  0.00     0.347 HD
ATOM     13  H   UNL A   1      32.385  20.702  26.454  1.00  0.00     0.347 HD
BRANCH  11  14
ATOM     14  C   UNL A   1      31.099  22.011  25.711  1.00  0.00     0.310 C 
BRANCH  14  15
ATOM     15  C   UNL A   1      30.642  23.220  26.591  1.00  0.00     0.171 C 
ATOM     16  C   UNL A   1      29.312  22.935  27.301  1.00  0.00     0.063 C 
BRANCH  15  17
ATOM     17  O   UNL A   1      31.633  23.445  27.600  1.00  0.00    -0.372 OA
ATOM     18  H   UNL A   1      31.196  23.636  28.446  1.00  0.00     0.212 HD
ENDBRANCH  15  17
BRANCH  15  19
ATOM     19  C   UNL A   1      30.515  24.442  25.783  1.00  0.00    -0.057 C 
ATOM     20  C   UNL A   1      30.392  25.479  25.186  1.00  0.00    -0.064 C 
BRANCH  20  21
ATOM     21  C   UNL A   1      30.244  26.740  24.532  1.00  0.00     0.025 A 
ATOM     22  C   UNL A   1      31.150  27.770  24.794  1.00  0.00     0.017 A 
ATOM     23  C   UNL A   1      29.178  26.955  23.655  1.00  0.00     0.017 A 
ATOM     24  C   UNL A   1      30.989  29.014  24.183  1.00  0.00     0.001 A 
ATOM     25  C   UNL A   1      29.019  28.200  23.043  1.00  0.00     0.001 A 
ATOM     26  C   UNL A   1      29.923  29.228  23.309  1.00  0.00     0.000 A 
ENDBRANCH  20  21
ENDBRANCH  15  19
ENDBRANCH  14  15
ENDBRANCH  11  14
ENDBRANCH   6  11
ENDBRANCH   3   6
ENDBRANCH   1   2
BRANCH   1  27
ATOM     27  C   UNL A   1      37.564  22.554  25.043  1.00  0.00     0.023 C 
BRANCH  27  28
ATOM     28  C   UNL A   1      38.525  22.539  26.223  1.00  0.00     0.023 C 
BRANCH  28  29
ATOM     29  C   UNL A   1      39.168  23.881  26.531  1.00  0.00     0.116 C 
BRANCH  29  30
ATOM     30  N   UNL A   1      40.597  23.919  26.236  1.00  0.00    -0.352 N 
ATOM     31  C   UNL A   1      41.528  24.861  26.616  1.00  0.00     0.251 C 
ATOM     32  H   UNL A   1      40.941  23.172  25.696  1.00  0.00     0.163 HD
ATOM     33  O   UNL A   1      42.674  24.814  26.183  1.00  0.00    -0.269 OA
BRANCH  31  34
ATOM     34  C   UNL A   1      41.101  25.955  27.514  1.00  0.00     0.039 A 
ATOM     35  C   UNL A   1      41.794  27.166  27.505  1.00  0.00     0.014 A 
ATOM     36  C   UNL A   1      40.093  25.722  28.451  1.00  0.00     0.014 A 
ATOM     37  C   UNL A   1      41.646  28.037  28.575  1.00  0.00     0.010 A 
ATOM     38  C   UNL A   1      39.858  26.666  29.454  1.00  0.00     0.010 A 
ATOM     39  C   UNL A   1      40.681  27.799  29.566  1.00  0.00    -0.014 A 
BRANCH  39  40
ATOM     40  C   UNL A   1      40.565  28.740  30.713  1.00  0.00     0.031 A 
ATOM     41  C   UNL A   1      39.529  29.836  30.718  1.00  0.00     0.074 A 
ATOM     42  C   UNL A   1      41.362  28.565  31.786  1.00  0.00     0.049 A 
ATOM     43  N   UNL A   1      39.293  30.743  31.632  1.00  0.00    -0.248 NA
ATOM     44  C   UNL A   1      38.647  29.935  29.543  1.00  0.00     0.031 C 
ATOM     45  C   UNL A   1      42.385  27.523  31.911  1.00  0.00     0.029 A 
ATOM     46  N   UNL A   1      41.425  29.235  32.980  1.00  0.00    -0.354 N 
ATOM     47  C   UNL A   1      38.253  31.524  31.142  1.00  0.00     0.074 A 
ATOM     48  C   UNL A   1      37.930  31.014  29.827  1.00  0.00     0.031 C 
ATOM     49  C   UNL A   1      42.931  27.587  33.133  1.00  0.00     0.029 A 
ATOM     50  C   UNL A   1      42.363  28.724  33.847  1.00  0.00     0.049 A 
ATOM     51  H   UNL A   1      40.855  30.008  33.196  1.00  0.00     0.167 HD
ATOM     52  C   UNL A   1      37.613  32.560  31.739  1.00  0.00     0.037 A 
ATOM     53  C   UNL A   1      42.745  29.136  35.070  1.00  0.00     0.037 A 
ATOM     54  C   UNL A   1      37.936  33.054  33.055  1.00  0.00     0.049 A 
ATOM     55  C   UNL A   1      42.076  30.335  35.678  1.00  0.00     0.074 A 
ATOM     56  C   UNL A   1      37.339  34.091  33.752  1.00  0.00     0.029 A 
ATOM     57  N   UNL A   1      38.940  32.551  33.872  1.00  0.00    -0.354 N 
ATOM     58  N   UNL A   1      41.091  31.056  35.201  1.00  0.00    -0.248 NA
ATOM     59  C   UNL A   1      42.573  30.778  36.986  1.00  0.00     0.031 C 
ATOM     60  C   UNL A   1      38.023  34.257  34.960  1.00  0.00     0.029 A 
ATOM     61  C   UNL A   1      39.001  33.279  35.050  1.00  0.00     0.049 A 
ATOM     62  H   UNL A   1      39.522  31.791  33.646  1.00  0.00     0.167 HD
ATOM     63  C   UNL A   1      40.838  32.032  36.159  1.00  0.00     0.074 A 
ATOM     64  C   UNL A   1      41.759  31.791  37.251  1.00  0.00     0.031 C 
ATOM     65  C   UNL A   1      39.925  33.034  36.132  1.00  0.00     0.037 A 
BRANCH  52  66
ATOM     66  C   UNL A   1      36.508  33.244  30.976  1.00  0.00     0.058 A 
ATOM     67  C   UNL A   1      35.153  33.032  31.282  1.00  0.00     0.135 A 
ATOM     68  C   UNL A   1      36.807  34.165  29.956  1.00  0.00     0.135 A 
ATOM     69  F   UNL A   1      34.806  32.155  32.237  1.00  0.00    -0.206 F 
ATOM     70  C   UNL A   1      34.139  33.682  30.587  1.00  0.00     0.059 A 
ATOM     71  C   UNL A   1      35.808  34.852  29.271  1.00  0.00     0.059 A 
ATOM     72  F   UNL A   1      38.083  34.413  29.622  1.00  0.00    -0.206 F 
ATOM     73  C   UNL A   1      34.476  34.593  29.584  1.00  0.00     0.060 A 
BRANCH  73  74
ATOM     74  S   UNL A   1      33.142  35.420  28.692  1.00  0.00     0.124 S 
ATOM     75  O   UNL A   1      33.888  36.315  27.814  1.00  0.00    -0.237 OA
ATOM     76  O   UNL A   1      32.471  34.303  28.036  1.00  0.00    -0.237 OA
ATOM     77  O   UNL A   1      32.378  36.075  29.749  1.00  0.00    -0.744 OA
ENDBRANCH  73  74
ENDBRANCH  52  66
BRANCH  53  78
ATOM     78  C   UNL A   1      43.814  28.393  35.789  1.00  0.00     0.058 A 
ATOM     79  C   UNL A   1      45.165  28.719  35.604  1.00  0.00     0.135 A 
ATOM     80  C   UNL A   1      43.505  27.386  36.718  1.00  0.00     0.135 A 
ATOM     81  F   UNL A   1      45.511  29.669  34.722  1.00  0.00    -0.206 F 
ATOM     82  C   UNL A   1      46.172  28.076  36.315  1.00  0.00     0.059 A 
ATOM     83  C   UNL A   1      44.492  26.751  37.464  1.00  0.00     0.059 A 
ATOM     84  F   UNL A   1      42.226  27.047  36.945  1.00  0.00    -0.206 F 
ATOM     85  C   UNL A   1      45.824  27.101  37.253  1.00  0.00     0.060 A 
BRANCH  85  86
ATOM     86  S   UNL A   1      47.138  26.332  38.222  1.00  0.00     0.124 S 
ATOM     87  O   UNL A   1      47.611  27.456  39.023  1.00  0.00    -0.237 OA
ATOM     88  O   UNL A   1      46.411  25.293  38.945  1.00  0.00    -0.237 OA
ATOM     89  O   UNL A   1      48.067  25.847  37.206  1.00  0.00    -0.744 OA
ENDBRANCH  85  86
ENDBRANCH  53  78
BRANCH  65  90
ATOM     90  C   UNL A   1      39.857  33.949  37.326  1.00  0.00     0.058 A 
ATOM     91  C   UNL A   1      40.538  35.176  37.353  1.00  0.00     0.135 A 
ATOM     92  C   UNL A   1      39.044  33.628  38.425  1.00  0.00     0.135 A 
ATOM     93  F   UNL A   1      41.336  35.530  36.333  1.00  0.00    -0.206 F 
ATOM     94  C   UNL A   1      40.429  36.044  38.434  1.00  0.00     0.059 A 
ATOM     95  C   UNL A   1      38.893  34.497  39.502  1.00  0.00     0.059 A 
ATOM     96  F   UNL A   1      38.363  32.472  38.449  1.00  0.00    -0.206 F 
ATOM     97  C   UNL A   1      39.597  35.699  39.501  1.00  0.00     0.060 A 
BRANCH  97  98
ATOM     98  S   UNL A   1      39.436  36.858  40.876  1.00  0.00     0.124 S 
ATOM     99  O   UNL A   1      38.681  37.943  40.259  1.00  0.00    -0.237 OA
ATOM    100  O   UNL A   1      38.713  36.063  41.864  1.00  0.00    -0.237 OA
ATOM    101  O   UNL A   1      40.818  37.173  41.221  1.00  0.00    -0.744 OA
ENDBRANCH  97  98
ENDBRANCH  65  90
ENDBRANCH  39  40
ENDBRANCH  31  34
ENDBRANCH  29  30
ENDBRANCH  28  29
ENDBRANCH  27  28
ENDBRANCH   1  27
TORSDOF 22
ENDMDL
