MODEL 1
REMARK VINA RESULT:     -10.5      0.000      0.000
REMARK SMILES Cc1ccc(NC(=O)C[C@@H](C(=O)NCCCCNC(=O)c2ccc(-c3c4nc(c(-c5c(F)cc(S(=O)(=O)[O-])cc5F)c5ccc([nH]5)c(-c5c(F)cc(S(=O)(=O)[O-])cc5F)c5nc(c(-c6c(F)cc(S(=O)(=O)[O-])cc6F)c6ccc3[nH]6)C=C5)C=C4)cc2)[NH+](C)C)cc1Cl
REMARK SMILES IDX 15 1 14 2 13 3 11 4 12 5 10 7 9 8 7 9 6 10 8 12 5 13 1 14
REMARK SMILES IDX 2 15 3 16 91 17 4 18 90 19 92 20 87 21 88 22 89 23 16 25
REMARK SMILES IDX 17 26 18 27 19 28 20 30 21 31 22 32 86 33 23 34 85 35 24 36
REMARK SMILES IDX 25 37 26 38 79 39 27 40 84 41 78 42 80 43 28 44 83 45 77 46
REMARK SMILES IDX 76 47 29 49 63 50 42 51 62 52 43 53 46 54 61 55 81 56 44 57
REMARK SMILES IDX 45 58 60 60 82 61 47 62 30 63 31 64 40 65 32 66 33 67 39 68
REMARK SMILES IDX 41 69 34 70 35 71 36 72 37 73 38 74 64 75 65 76 74 77 66 78
REMARK SMILES IDX 67 79 73 80 75 81 68 82 69 83 70 84 71 85 72 86 48 87 49 88
REMARK SMILES IDX 58 89 50 90 51 91 57 92 59 93 52 94 53 95 54 96 55 97 56 98
REMARK H PARENT 13 6 6 11 87 24 18 29 80 48 46 59
REMARK Flexibility Score: inf
ROOT
ATOM      1  C   UNL A   1      32.126  28.835  24.531  1.00  0.00     0.023 C 
ENDROOT
BRANCH   1   2
ATOM      2  C   UNL A   1      31.467  28.407  23.214  1.00  0.00     0.116 C 
BRANCH   2   3
ATOM      3  N   UNL A   1      32.378  27.778  22.270  1.00  0.00    -0.351 N 
ATOM      4  C   UNL A   1      32.801  26.484  22.130  1.00  0.00     0.278 C 
ATOM      5  O   UNL A   1      33.446  26.236  21.107  1.00  0.00    -0.268 OA
ATOM      6  H   UNL A   1      32.761  28.398  21.608  1.00  0.00     0.163 HD
BRANCH   4   7
ATOM      7  C   UNL A   1      32.450  25.404  23.186  1.00  0.00     0.283 C 
BRANCH   7   8
ATOM      8  C   UNL A   1      33.509  25.157  24.282  1.00  0.00     0.175 C 
BRANCH   8   9
ATOM      9  C   UNL A   1      33.083  24.862  25.697  1.00  0.00     0.230 C 
ATOM     10  N   UNL A   1      33.504  23.779  26.413  1.00  0.00    -0.326 N 
ATOM     11  H   UNL A   1      33.092  23.713  27.304  1.00  0.00     0.169 HD
ATOM     12  O   UNL A   1      32.309  25.650  26.259  1.00  0.00    -0.274 OA
BRANCH  10  13
ATOM     13  C   UNL A   1      34.405  22.739  26.133  1.00  0.00     0.042 A 
ATOM     14  C   UNL A   1      37.442  20.095  24.578  1.00  0.00     0.046 C 
ATOM     15  C   UNL A   1      36.387  20.951  25.217  1.00  0.00    -0.032 A 
ATOM     16  C   UNL A   1      36.745  22.166  25.810  1.00  0.00     0.007 A 
ATOM     17  C   UNL A   1      35.033  20.592  25.209  1.00  0.00     0.046 A 
ATOM     18  C   UNL A   1      35.764  23.034  26.297  1.00  0.00     0.026 A 
ATOM     19  C   UNL A   1      34.049  21.481  25.663  1.00  0.00     0.047 A 
ATOM     20  Cl  UNL A   1      34.519  19.049  24.617  1.00  0.00    -0.084 Cl
ENDBRANCH  10  13
ENDBRANCH   8   9
ENDBRANCH   7   8
BRANCH   7  21
ATOM     21  N   UNL A   1      31.952  24.100  22.602  1.00  0.00    -0.329 N 
ATOM     22  C   UNL A   1      33.007  23.099  22.412  1.00  0.00     0.333 C 
ATOM     23  C   UNL A   1      30.840  23.475  23.318  1.00  0.00     0.333 C 
ATOM     24  H   UNL A   1      31.602  24.401  21.693  1.00  0.00     0.348 HD
ENDBRANCH   7  21
ENDBRANCH   4   7
ENDBRANCH   2   3
ENDBRANCH   1   2
BRANCH   1  25
ATOM     25  C   UNL A   1      33.637  28.637  24.621  1.00  0.00     0.023 C 
BRANCH  25  26
ATOM     26  C   UNL A   1      34.226  28.962  25.981  1.00  0.00     0.116 C 
BRANCH  26  27
ATOM     27  N   UNL A   1      33.868  30.305  26.417  1.00  0.00    -0.352 N 
ATOM     28  C   UNL A   1      34.353  31.050  27.461  1.00  0.00     0.251 C 
ATOM     29  H   UNL A   1      33.169  30.745  25.880  1.00  0.00     0.163 HD
ATOM     30  O   UNL A   1      33.747  32.069  27.809  1.00  0.00    -0.269 OA
BRANCH  28  31
ATOM     31  C   UNL A   1      35.581  30.640  28.172  1.00  0.00     0.039 A 
ATOM     32  C   UNL A   1      35.511  29.643  29.148  1.00  0.00     0.014 A 
ATOM     33  C   UNL A   1      36.803  31.257  27.896  1.00  0.00     0.014 A 
ATOM     34  C   UNL A   1      36.675  29.230  29.803  1.00  0.00     0.010 A 
ATOM     35  C   UNL A   1      37.973  30.768  28.463  1.00  0.00     0.010 A 
ATOM     36  C   UNL A   1      37.921  29.768  29.445  1.00  0.00    -0.014 A 
BRANCH  36  37
ATOM     37  C   UNL A   1      39.180  29.350  30.112  1.00  0.00     0.031 A 
ATOM     38  C   UNL A   1      39.632  30.066  31.359  1.00  0.00     0.074 A 
ATOM     39  C   UNL A   1      39.947  28.388  29.562  1.00  0.00     0.049 A 
ATOM     40  N   UNL A   1      40.748  29.937  32.029  1.00  0.00    -0.248 NA
ATOM     41  C   UNL A   1      38.729  31.097  31.900  1.00  0.00     0.031 C 
ATOM     42  C   UNL A   1      39.642  27.663  28.326  1.00  0.00     0.029 A 
ATOM     43  N   UNL A   1      41.149  27.862  29.964  1.00  0.00    -0.354 N 
ATOM     44  C   UNL A   1      40.691  30.885  33.045  1.00  0.00     0.074 A 
ATOM     45  C   UNL A   1      39.464  31.628  32.864  1.00  0.00     0.031 C 
ATOM     46  C   UNL A   1      40.615  26.768  28.088  1.00  0.00     0.029 A 
ATOM     47  C   UNL A   1      41.632  26.882  29.128  1.00  0.00     0.049 A 
ATOM     48  H   UNL A   1      41.621  28.158  30.775  1.00  0.00     0.167 HD
ATOM     49  C   UNL A   1      41.566  31.097  34.056  1.00  0.00     0.037 A 
ATOM     50  C   UNL A   1      42.767  26.161  29.194  1.00  0.00     0.037 A 
ATOM     51  C   UNL A   1      42.756  30.316  34.258  1.00  0.00     0.049 A 
ATOM     52  C   UNL A   1      43.709  26.391  30.346  1.00  0.00     0.074 A 
ATOM     53  C   UNL A   1      43.676  30.398  35.287  1.00  0.00     0.029 A 
ATOM     54  N   UNL A   1      43.185  29.300  33.415  1.00  0.00    -0.354 N 
ATOM     55  N   UNL A   1      43.611  27.253  31.331  1.00  0.00    -0.248 NA
ATOM     56  C   UNL A   1      44.911  25.547  30.403  1.00  0.00     0.031 C 
ATOM     57  C   UNL A   1      44.682  29.457  35.047  1.00  0.00     0.029 A 
ATOM     58  C   UNL A   1      44.363  28.755  33.895  1.00  0.00     0.049 A 
ATOM     59  H   UNL A   1      42.720  29.011  32.598  1.00  0.00     0.167 HD
ATOM     60  C   UNL A   1      44.719  27.033  32.140  1.00  0.00     0.074 A 
ATOM     61  C   UNL A   1      45.470  25.952  31.534  1.00  0.00     0.031 C 
ATOM     62  C   UNL A   1      45.084  27.667  33.282  1.00  0.00     0.037 A 
BRANCH  49  63
ATOM     63  C   UNL A   1      41.257  32.204  35.029  1.00  0.00     0.058 A 
ATOM     64  C   UNL A   1      41.777  33.499  34.864  1.00  0.00     0.135 A 
ATOM     65  C   UNL A   1      40.409  31.976  36.126  1.00  0.00     0.135 A 
ATOM     66  F   UNL A   1      42.606  33.769  33.843  1.00  0.00    -0.206 F 
ATOM     67  C   UNL A   1      41.497  34.517  35.768  1.00  0.00     0.059 A 
ATOM     68  C   UNL A   1      40.090  32.990  37.026  1.00  0.00     0.059 A 
ATOM     69  F   UNL A   1      39.885  30.758  36.334  1.00  0.00    -0.206 F 
ATOM     70  C   UNL A   1      40.653  34.253  36.848  1.00  0.00     0.060 A 
BRANCH  70  71
ATOM     71  S   UNL A   1      40.295  35.588  38.009  1.00  0.00     0.124 S 
ATOM     72  O   UNL A   1      39.162  35.036  38.745  1.00  0.00    -0.237 OA
ATOM     73  O   UNL A   1      41.544  35.695  38.756  1.00  0.00    -0.237 OA
ATOM     74  O   UNL A   1      39.988  36.721  37.141  1.00  0.00    -0.744 OA
ENDBRANCH  70  71
ENDBRANCH  49  63
BRANCH  50  75
ATOM     75  C   UNL A   1      43.057  25.131  28.160  1.00  0.00     0.058 A 
ATOM     76  C   UNL A   1      43.651  25.483  26.939  1.00  0.00     0.135 A 
ATOM     77  C   UNL A   1      42.764  23.776  28.376  1.00  0.00     0.135 A 
ATOM     78  F   UNL A   1      43.947  26.767  26.684  1.00  0.00    -0.206 F 
ATOM     79  C   UNL A   1      43.929  24.535  25.961  1.00  0.00     0.059 A 
ATOM     80  C   UNL A   1      43.057  22.803  27.423  1.00  0.00     0.059 A 
ATOM     81  F   UNL A   1      42.215  23.382  29.535  1.00  0.00    -0.206 F 
ATOM     82  C   UNL A   1      43.630  23.195  26.214  1.00  0.00     0.060 A 
BRANCH  82  83
ATOM     83  S   UNL A   1      44.037  21.963  24.956  1.00  0.00     0.124 S 
ATOM     84  O   UNL A   1      43.731  22.686  23.728  1.00  0.00    -0.237 OA
ATOM     85  O   UNL A   1      45.453  21.717  25.218  1.00  0.00    -0.237 OA
ATOM     86  O   UNL A   1      43.147  20.852  25.276  1.00  0.00    -0.744 OA
ENDBRANCH  82  83
ENDBRANCH  50  75
BRANCH  62  87
ATOM     87  C   UNL A   1      46.324  27.183  33.978  1.00  0.00     0.058 A 
ATOM     88  C   UNL A   1      47.584  27.743  33.718  1.00  0.00     0.135 A 
ATOM     89  C   UNL A   1      46.237  26.190  34.969  1.00  0.00     0.135 A 
ATOM     90  F   UNL A   1      47.721  28.691  32.777  1.00  0.00    -0.206 F 
ATOM     91  C   UNL A   1      48.719  27.322  34.402  1.00  0.00     0.059 A 
ATOM     92  C   UNL A   1      47.354  25.774  35.684  1.00  0.00     0.059 A 
ATOM     93  F   UNL A   1      45.053  25.631  35.262  1.00  0.00    -0.206 F 
ATOM     94  C   UNL A   1      48.593  26.340  35.386  1.00  0.00     0.060 A 
BRANCH  94  95
ATOM     95  S   UNL A   1      50.067  25.834  36.297  1.00  0.00     0.124 S 
ATOM     96  O   UNL A   1      49.485  25.073  37.397  1.00  0.00    -0.237 OA
ATOM     97  O   UNL A   1      50.797  25.054  35.302  1.00  0.00    -0.237 OA
ATOM     98  O   UNL A   1      50.689  27.102  36.670  1.00  0.00    -0.744 OA
ENDBRANCH  94  95
ENDBRANCH  62  87
ENDBRANCH  36  37
ENDBRANCH  28  31
ENDBRANCH  26  27
ENDBRANCH  25  26
ENDBRANCH   1  25
TORSDOF 18
ENDMDL
MODEL 2
REMARK VINA RESULT:     -10.5      5.018      6.439
REMARK SMILES Cc1ccc(NC(=O)C[C@@H](C(=O)NCCCCNC(=O)c2ccc(-c3c4nc(c(-c5c(F)cc(S(=O)(=O)[O-])cc5F)c5ccc([nH]5)c(-c5c(F)cc(S(=O)(=O)[O-])cc5F)c5nc(c(-c6c(F)cc(S(=O)(=O)[O-])cc6F)c6ccc3[nH]6)C=C5)C=C4)cc2)[NH+](C)C)cc1Cl
REMARK SMILES IDX 15 1 14 2 13 3 11 4 12 5 10 7 9 8 7 9 6 10 8 12 5 13 1 14
REMARK SMILES IDX 2 15 3 16 91 17 4 18 90 19 92 20 87 21 88 22 89 23 16 25
REMARK SMILES IDX 17 26 18 27 19 28 20 30 21 31 22 32 86 33 23 34 85 35 24 36
REMARK SMILES IDX 25 37 26 38 79 39 27 40 84 41 78 42 80 43 28 44 83 45 77 46
REMARK SMILES IDX 76 47 29 49 63 50 42 51 62 52 43 53 46 54 61 55 81 56 44 57
REMARK SMILES IDX 45 58 60 60 82 61 47 62 30 63 31 64 40 65 32 66 33 67 39 68
REMARK SMILES IDX 41 69 34 70 35 71 36 72 37 73 38 74 64 75 65 76 74 77 66 78
REMARK SMILES IDX 67 79 73 80 75 81 68 82 69 83 70 84 71 85 72 86 48 87 49 88
REMARK SMILES IDX 58 89 50 90 51 91 57 92 59 93 52 94 53 95 54 96 55 97 56 98
REMARK H PARENT 13 6 6 11 87 24 18 29 80 48 46 59
REMARK Flexibility Score: inf
ROOT
ATOM      1  C   UNL A   1      33.496  29.281  26.869  1.00  0.00     0.023 C 
ENDROOT
BRANCH   1   2
ATOM      2  C   UNL A   1      33.647  29.274  25.343  1.00  0.00     0.116 C 
BRANCH   2   3
ATOM      3  N   UNL A   1      32.448  29.678  24.626  1.00  0.00    -0.351 N 
ATOM      4  C   UNL A   1      31.393  28.962  24.129  1.00  0.00     0.278 C 
ATOM      5  O   UNL A   1      30.434  29.625  23.724  1.00  0.00    -0.268 OA
ATOM      6  H   UNL A   1      32.381  30.648  24.469  1.00  0.00     0.163 HD
BRANCH   4   7
ATOM      7  C   UNL A   1      31.408  27.411  24.119  1.00  0.00     0.283 C 
BRANCH   7   8
ATOM      8  C   UNL A   1      31.702  26.744  22.758  1.00  0.00     0.175 C 
BRANCH   8   9
ATOM      9  C   UNL A   1      33.123  26.461  22.344  1.00  0.00     0.230 C 
ATOM     10  N   UNL A   1      33.786  25.300  22.625  1.00  0.00    -0.326 N 
ATOM     11  H   UNL A   1      34.722  25.299  22.322  1.00  0.00     0.169 HD
ATOM     12  O   UNL A   1      33.736  27.323  21.700  1.00  0.00    -0.274 OA
BRANCH  10  13
ATOM     13  C   UNL A   1      33.400  24.109  23.261  1.00  0.00     0.042 A 
ATOM     14  C   UNL A   1      33.126  20.337  25.341  1.00  0.00     0.046 C 
ATOM     15  C   UNL A   1      33.107  21.663  24.638  1.00  0.00    -0.032 A 
ATOM     16  C   UNL A   1      33.543  22.810  25.311  1.00  0.00     0.007 A 
ATOM     17  C   UNL A   1      32.699  21.792  23.304  1.00  0.00     0.046 A 
ATOM     18  C   UNL A   1      33.652  24.029  24.635  1.00  0.00     0.026 A 
ATOM     19  C   UNL A   1      32.846  23.007  22.620  1.00  0.00     0.047 A 
ATOM     20  Cl  UNL A   1      32.021  20.455  22.441  1.00  0.00    -0.084 Cl
ENDBRANCH  10  13
ENDBRANCH   8   9
ENDBRANCH   7   8
BRANCH   7  21
ATOM     21  N   UNL A   1      30.213  26.772  24.795  1.00  0.00    -0.329 N 
ATOM     22  C   UNL A   1      29.166  26.345  23.860  1.00  0.00     0.333 C 
ATOM     23  C   UNL A   1      30.521  25.658  25.692  1.00  0.00     0.333 C 
ATOM     24  H   UNL A   1      29.865  27.540  25.367  1.00  0.00     0.348 HD
ENDBRANCH   7  21
ENDBRANCH   4   7
ENDBRANCH   2   3
ENDBRANCH   1   2
BRANCH   1  25
ATOM     25  C   UNL A   1      33.965  30.545  27.584  1.00  0.00     0.023 C 
BRANCH  25  26
ATOM     26  C   UNL A   1      35.389  30.473  28.103  1.00  0.00     0.116 C 
BRANCH  26  27
ATOM     27  N   UNL A   1      35.477  30.881  29.498  1.00  0.00    -0.352 N 
ATOM     28  C   UNL A   1      36.478  30.679  30.414  1.00  0.00     0.251 C 
ATOM     29  H   UNL A   1      34.698  31.380  29.836  1.00  0.00     0.163 HD
ATOM     30  O   UNL A   1      36.255  30.892  31.610  1.00  0.00    -0.269 OA
BRANCH  28  31
ATOM     31  C   UNL A   1      37.807  30.200  29.983  1.00  0.00     0.039 A 
ATOM     32  C   UNL A   1      38.108  30.140  28.619  1.00  0.00     0.014 A 
ATOM     33  C   UNL A   1      38.754  29.786  30.922  1.00  0.00     0.014 A 
ATOM     34  C   UNL A   1      39.375  29.717  28.206  1.00  0.00     0.010 A 
ATOM     35  C   UNL A   1      40.046  29.476  30.517  1.00  0.00     0.010 A 
ATOM     36  C   UNL A   1      40.365  29.409  29.154  1.00  0.00    -0.014 A 
BRANCH  36  37
ATOM     37  C   UNL A   1      41.724  28.964  28.754  1.00  0.00     0.031 A 
ATOM     38  C   UNL A   1      42.846  29.969  28.691  1.00  0.00     0.074 A 
ATOM     39  C   UNL A   1      41.932  27.686  28.380  1.00  0.00     0.049 A 
ATOM     40  N   UNL A   1      44.071  29.815  28.261  1.00  0.00    -0.248 NA
ATOM     41  C   UNL A   1      42.536  31.342  29.127  1.00  0.00     0.031 C 
ATOM     42  C   UNL A   1      40.911  26.636  28.345  1.00  0.00     0.029 A 
ATOM     43  N   UNL A   1      43.070  27.054  27.945  1.00  0.00    -0.354 N 
ATOM     44  C   UNL A   1      44.663  31.071  28.347  1.00  0.00     0.074 A 
ATOM     45  C   UNL A   1      43.645  31.989  28.806  1.00  0.00     0.031 C 
ATOM     46  C   UNL A   1      41.475  25.485  27.941  1.00  0.00     0.029 A 
ATOM     47  C   UNL A   1      42.885  25.724  27.648  1.00  0.00     0.049 A 
ATOM     48  H   UNL A   1      43.937  27.510  27.853  1.00  0.00     0.167 HD
ATOM     49  C   UNL A   1      45.947  31.422  28.098  1.00  0.00     0.037 A 
ATOM     50  C   UNL A   1      43.754  24.803  27.190  1.00  0.00     0.037 A 
ATOM     51  C   UNL A   1      46.964  30.490  27.695  1.00  0.00     0.049 A 
ATOM     52  C   UNL A   1      45.184  25.208  26.951  1.00  0.00     0.074 A 
ATOM     53  C   UNL A   1      48.311  30.724  27.483  1.00  0.00     0.029 A 
ATOM     54  N   UNL A   1      46.747  29.141  27.451  1.00  0.00    -0.354 N 
ATOM     55  N   UNL A   1      45.740  26.389  27.095  1.00  0.00    -0.248 NA
ATOM     56  C   UNL A   1      46.108  24.160  26.499  1.00  0.00     0.031 C 
ATOM     57  C   UNL A   1      48.901  29.523  27.075  1.00  0.00     0.029 A 
ATOM     58  C   UNL A   1      47.932  28.532  27.079  1.00  0.00     0.049 A 
ATOM     59  H   UNL A   1      45.878  28.686  27.531  1.00  0.00     0.167 HD
ATOM     60  C   UNL A   1      47.084  26.217  26.781  1.00  0.00     0.074 A 
ATOM     61  C   UNL A   1      47.257  24.817  26.448  1.00  0.00     0.031 C 
ATOM     62  C   UNL A   1      48.084  27.132  26.769  1.00  0.00     0.037 A 
BRANCH  49  63
ATOM     63  C   UNL A   1      46.323  32.869  28.274  1.00  0.00     0.058 A 
ATOM     64  C   UNL A   1      46.824  33.361  29.491  1.00  0.00     0.135 A 
ATOM     65  C   UNL A   1      46.206  33.773  27.204  1.00  0.00     0.135 A 
ATOM     66  F   UNL A   1      46.940  32.546  30.552  1.00  0.00    -0.206 F 
ATOM     67  C   UNL A   1      47.161  34.700  29.653  1.00  0.00     0.059 A 
ATOM     68  C   UNL A   1      46.568  35.111  27.334  1.00  0.00     0.059 A 
ATOM     69  F   UNL A   1      45.732  33.360  26.018  1.00  0.00    -0.206 F 
ATOM     70  C   UNL A   1      47.030  35.569  28.569  1.00  0.00     0.060 A 
BRANCH  70  71
ATOM     71  S   UNL A   1      47.479  37.302  28.794  1.00  0.00     0.124 S 
ATOM     72  O   UNL A   1      47.423  37.797  27.421  1.00  0.00    -0.237 OA
ATOM     73  O   UNL A   1      46.426  37.784  29.683  1.00  0.00    -0.237 OA
ATOM     74  O   UNL A   1      48.812  37.235  29.384  1.00  0.00    -0.744 OA
ENDBRANCH  70  71
ENDBRANCH  49  63
BRANCH  50  75
ATOM     75  C   UNL A   1      43.306  23.403  26.961  1.00  0.00     0.058 A 
ATOM     76  C   UNL A   1      43.131  22.904  25.662  1.00  0.00     0.135 A 
ATOM     77  C   UNL A   1      43.060  22.530  28.033  1.00  0.00     0.135 A 
ATOM     78  F   UNL A   1      43.351  23.700  24.604  1.00  0.00    -0.206 F 
ATOM     79  C   UNL A   1      42.713  21.599  25.430  1.00  0.00     0.059 A 
ATOM     80  C   UNL A   1      42.665  21.211  27.827  1.00  0.00     0.059 A 
ATOM     81  F   UNL A   1      43.231  22.950  29.296  1.00  0.00    -0.206 F 
ATOM     82  C   UNL A   1      42.484  20.758  26.521  1.00  0.00     0.060 A 
BRANCH  82  83
ATOM     83  S   UNL A   1      41.985  19.049  26.209  1.00  0.00     0.124 S 
ATOM     84  O   UNL A   1      42.901  18.667  25.141  1.00  0.00    -0.237 OA
ATOM     85  O   UNL A   1      42.217  18.422  27.507  1.00  0.00    -0.237 OA
ATOM     86  O   UNL A   1      40.582  19.176  25.825  1.00  0.00    -0.744 OA
ENDBRANCH  82  83
ENDBRANCH  50  75
BRANCH  62  87
ATOM     87  C   UNL A   1      49.464  26.647  26.429  1.00  0.00     0.058 A 
ATOM     88  C   UNL A   1      49.987  26.756  25.131  1.00  0.00     0.135 A 
ATOM     89  C   UNL A   1      50.299  26.127  27.432  1.00  0.00     0.135 A 
ATOM     90  F   UNL A   1      49.228  27.241  24.135  1.00  0.00    -0.206 F 
ATOM     91  C   UNL A   1      51.283  26.349  24.836  1.00  0.00     0.059 A 
ATOM     92  C   UNL A   1      51.606  25.740  27.165  1.00  0.00     0.059 A 
ATOM     93  F   UNL A   1      49.849  26.013  28.692  1.00  0.00    -0.206 F 
ATOM     94  C   UNL A   1      52.086  25.846  25.861  1.00  0.00     0.060 A 
BRANCH  94  95
ATOM     95  S   UNL A   1      53.782  25.362  25.472  1.00  0.00     0.124 S 
ATOM     96  O   UNL A   1      54.531  26.060  26.511  1.00  0.00    -0.237 OA
ATOM     97  O   UNL A   1      53.727  23.908  25.597  1.00  0.00    -0.237 OA
ATOM     98  O   UNL A   1      53.976  25.861  24.114  1.00  0.00    -0.744 OA
ENDBRANCH  94  95
ENDBRANCH  62  87
ENDBRANCH  36  37
ENDBRANCH  28  31
ENDBRANCH  26  27
ENDBRANCH  25  26
ENDBRANCH   1  25
TORSDOF 18
ENDMDL
MODEL 3
REMARK VINA RESULT:     -10.4      5.346     10.604
REMARK SMILES Cc1ccc(NC(=O)C[C@@H](C(=O)NCCCCNC(=O)c2ccc(-c3c4nc(c(-c5c(F)cc(S(=O)(=O)[O-])cc5F)c5ccc([nH]5)c(-c5c(F)cc(S(=O)(=O)[O-])cc5F)c5nc(c(-c6c(F)cc(S(=O)(=O)[O-])cc6F)c6ccc3[nH]6)C=C5)C=C4)cc2)[NH+](C)C)cc1Cl
REMARK SMILES IDX 15 1 14 2 13 3 11 4 12 5 10 7 9 8 7 9 6 10 8 12 5 13 1 14
REMARK SMILES IDX 2 15 3 16 91 17 4 18 90 19 92 20 87 21 88 22 89 23 16 25
REMARK SMILES IDX 17 26 18 27 19 28 20 30 21 31 22 32 86 33 23 34 85 35 24 36
REMARK SMILES IDX 25 37 26 38 79 39 27 40 84 41 78 42 80 43 28 44 83 45 77 46
REMARK SMILES IDX 76 47 29 49 63 50 42 51 62 52 43 53 46 54 61 55 81 56 44 57
REMARK SMILES IDX 45 58 60 60 82 61 47 62 30 63 31 64 40 65 32 66 33 67 39 68
REMARK SMILES IDX 41 69 34 70 35 71 36 72 37 73 38 74 64 75 65 76 74 77 66 78
REMARK SMILES IDX 67 79 73 80 75 81 68 82 69 83 70 84 71 85 72 86 48 87 49 88
REMARK SMILES IDX 58 89 50 90 51 91 57 92 59 93 52 94 53 95 54 96 55 97 56 98
REMARK H PARENT 13 6 6 11 87 24 18 29 80 48 46 59
REMARK Flexibility Score: inf
ROOT
ATOM      1  C   UNL A   1      37.168  19.952  25.048  1.00  0.00     0.023 C 
ENDROOT
BRANCH   1   2
ATOM      2  C   UNL A   1      36.396  21.251  25.313  1.00  0.00     0.116 C 
BRANCH   2   3
ATOM      3  N   UNL A   1      35.542  21.204  26.489  1.00  0.00    -0.351 N 
ATOM      4  C   UNL A   1      34.309  21.738  26.748  1.00  0.00     0.278 C 
ATOM      5  O   UNL A   1      33.767  21.364  27.792  1.00  0.00    -0.268 OA
ATOM      6  H   UNL A   1      35.920  20.690  27.240  1.00  0.00     0.163 HD
BRANCH   4   7
ATOM      7  C   UNL A   1      33.637  22.725  25.758  1.00  0.00     0.283 C 
BRANCH   7   8
ATOM      8  C   UNL A   1      33.065  24.019  26.374  1.00  0.00     0.175 C 
BRANCH   8   9
ATOM      9  C   UNL A   1      31.633  24.068  26.843  1.00  0.00     0.230 C 
ATOM     10  N   UNL A   1      30.735  25.024  26.464  1.00  0.00    -0.326 N 
ATOM     11  H   UNL A   1      29.858  24.935  26.900  1.00  0.00     0.169 HD
ATOM     12  O   UNL A   1      31.232  23.185  27.613  1.00  0.00    -0.274 OA
BRANCH  10  13
ATOM     13  C   UNL A   1      30.813  26.111  25.578  1.00  0.00     0.042 A 
ATOM     14  C   UNL A   1      31.786  28.997  22.519  1.00  0.00     0.046 C 
ATOM     15  C   UNL A   1      31.342  28.045  23.591  1.00  0.00    -0.032 A 
ATOM     16  C   UNL A   1      30.876  26.774  23.240  1.00  0.00     0.007 A 
ATOM     17  C   UNL A   1      31.414  28.371  24.952  1.00  0.00     0.046 A 
ATOM     18  C   UNL A   1      30.580  25.829  24.227  1.00  0.00     0.026 A 
ATOM     19  C   UNL A   1      31.152  27.410  25.939  1.00  0.00     0.047 A 
ATOM     20  Cl  UNL A   1      31.851  29.963  25.470  1.00  0.00    -0.084 Cl
ENDBRANCH  10  13
ENDBRANCH   8   9
ENDBRANCH   7   8
BRANCH   7  21
ATOM     21  N   UNL A   1      32.644  22.081  24.814  1.00  0.00    -0.329 N 
ATOM     22  C   UNL A   1      32.687  22.625  23.453  1.00  0.00     0.333 C 
ATOM     23  C   UNL A   1      32.708  20.621  24.735  1.00  0.00     0.333 C 
ATOM     24  H   UNL A   1      31.756  22.326  25.251  1.00  0.00     0.348 HD
ENDBRANCH   7  21
ENDBRANCH   4   7
ENDBRANCH   2   3
ENDBRANCH   1   2
BRANCH   1  25
ATOM     25  C   UNL A   1      38.676  20.093  24.861  1.00  0.00     0.023 C 
BRANCH  25  26
ATOM     26  C   UNL A   1      39.445  20.294  26.154  1.00  0.00     0.116 C 
BRANCH  26  27
ATOM     27  N   UNL A   1      40.571  19.377  26.261  1.00  0.00    -0.352 N 
ATOM     28  C   UNL A   1      41.918  19.636  26.285  1.00  0.00     0.251 C 
ATOM     29  H   UNL A   1      40.328  18.425  26.325  1.00  0.00     0.163 HD
ATOM     30  O   UNL A   1      42.715  18.704  26.135  1.00  0.00    -0.269 OA
BRANCH  28  31
ATOM     31  C   UNL A   1      42.417  21.013  26.478  1.00  0.00     0.039 A 
ATOM     32  C   UNL A   1      42.629  21.830  25.364  1.00  0.00     0.014 A 
ATOM     33  C   UNL A   1      42.702  21.494  27.757  1.00  0.00     0.014 A 
ATOM     34  C   UNL A   1      43.073  23.144  25.542  1.00  0.00     0.010 A 
ATOM     35  C   UNL A   1      43.032  22.831  27.939  1.00  0.00     0.010 A 
ATOM     36  C   UNL A   1      43.249  23.665  26.833  1.00  0.00    -0.014 A 
BRANCH  36  37
ATOM     37  C   UNL A   1      43.712  25.057  27.063  1.00  0.00     0.031 A 
ATOM     38  C   UNL A   1      45.159  25.407  26.823  1.00  0.00     0.074 A 
ATOM     39  C   UNL A   1      42.860  25.979  27.553  1.00  0.00     0.049 A 
ATOM     40  N   UNL A   1      45.791  26.525  27.069  1.00  0.00    -0.248 NA
ATOM     41  C   UNL A   1      46.020  24.344  26.277  1.00  0.00     0.031 C 
ATOM     42  C   UNL A   1      41.451  25.743  27.879  1.00  0.00     0.029 A 
ATOM     43  N   UNL A   1      43.056  27.298  27.876  1.00  0.00    -0.354 N 
ATOM     44  C   UNL A   1      47.121  26.289  26.736  1.00  0.00     0.074 A 
ATOM     45  C   UNL A   1      47.218  24.903  26.336  1.00  0.00     0.031 C 
ATOM     46  C   UNL A   1      40.905  26.886  28.326  1.00  0.00     0.029 A 
ATOM     47  C   UNL A   1      41.930  27.923  28.359  1.00  0.00     0.049 A 
ATOM     48  H   UNL A   1      43.922  27.754  27.772  1.00  0.00     0.167 HD
ATOM     49  C   UNL A   1      48.161  27.156  26.732  1.00  0.00     0.037 A 
ATOM     50  C   UNL A   1      41.749  29.189  28.783  1.00  0.00     0.037 A 
ATOM     51  C   UNL A   1      48.041  28.546  27.080  1.00  0.00     0.049 A 
ATOM     52  C   UNL A   1      42.912  30.144  28.739  1.00  0.00     0.074 A 
ATOM     53  C   UNL A   1      49.013  29.529  27.045  1.00  0.00     0.029 A 
ATOM     54  N   UNL A   1      46.872  29.151  27.519  1.00  0.00    -0.354 N 
ATOM     55  N   UNL A   1      44.150  29.918  28.366  1.00  0.00    -0.248 NA
ATOM     56  C   UNL A   1      42.655  31.526  29.164  1.00  0.00     0.031 C 
ATOM     57  C   UNL A   1      48.441  30.722  27.498  1.00  0.00     0.029 A 
ATOM     58  C   UNL A   1      47.101  30.493  27.769  1.00  0.00     0.049 A 
ATOM     59  H   UNL A   1      46.009  28.694  27.635  1.00  0.00     0.167 HD
ATOM     60  C   UNL A   1      44.809  31.136  28.480  1.00  0.00     0.074 A 
ATOM     61  C   UNL A   1      43.832  32.096  28.951  1.00  0.00     0.031 C 
ATOM     62  C   UNL A   1      46.107  31.434  28.221  1.00  0.00     0.037 A 
BRANCH  49  63
ATOM     63  C   UNL A   1      49.510  26.628  26.324  1.00  0.00     0.058 A 
ATOM     64  C   UNL A   1      50.322  25.906  27.214  1.00  0.00     0.135 A 
ATOM     65  C   UNL A   1      49.989  26.824  25.017  1.00  0.00     0.135 A 
ATOM     66  F   UNL A   1      49.923  25.704  28.480  1.00  0.00    -0.206 F 
ATOM     67  C   UNL A   1      51.572  25.428  26.837  1.00  0.00     0.059 A 
ATOM     68  C   UNL A   1      51.224  26.327  24.608  1.00  0.00     0.059 A 
ATOM     69  F   UNL A   1      49.257  27.509  24.124  1.00  0.00    -0.206 F 
ATOM     70  C   UNL A   1      52.015  25.643  25.531  1.00  0.00     0.060 A 
BRANCH  70  71
ATOM     71  S   UNL A   1      53.638  25.011  25.056  1.00  0.00     0.124 S 
ATOM     72  O   UNL A   1      54.516  25.776  25.936  1.00  0.00    -0.237 OA
ATOM     73  O   UNL A   1      53.519  23.588  25.361  1.00  0.00    -0.237 OA
ATOM     74  O   UNL A   1      53.729  25.340  23.637  1.00  0.00    -0.744 OA
ENDBRANCH  70  71
ENDBRANCH  49  63
BRANCH  50  75
ATOM     75  C   UNL A   1      40.408  29.633  29.249  1.00  0.00     0.058 A 
ATOM     76  C   UNL A   1      40.155  29.854  30.611  1.00  0.00     0.135 A 
ATOM     77  C   UNL A   1      39.359  29.863  28.345  1.00  0.00     0.135 A 
ATOM     78  F   UNL A   1      41.125  29.645  31.515  1.00  0.00    -0.206 F 
ATOM     79  C   UNL A   1      38.908  30.270  31.065  1.00  0.00     0.059 A 
ATOM     80  C   UNL A   1      38.109  30.305  28.772  1.00  0.00     0.059 A 
ATOM     81  F   UNL A   1      39.553  29.687  27.029  1.00  0.00    -0.206 F 
ATOM     82  C   UNL A   1      37.891  30.495  30.136  1.00  0.00     0.060 A 
BRANCH  82  83
ATOM     83  S   UNL A   1      36.288  31.079  30.730  1.00  0.00     0.124 S 
ATOM     84  O   UNL A   1      35.898  30.001  31.631  1.00  0.00    -0.237 OA
ATOM     85  O   UNL A   1      36.641  32.347  31.364  1.00  0.00    -0.237 OA
ATOM     86  O   UNL A   1      35.501  31.198  29.506  1.00  0.00    -0.744 OA
ENDBRANCH  82  83
ENDBRANCH  50  75
BRANCH  62  87
ATOM     87  C   UNL A   1      46.538  32.863  28.394  1.00  0.00     0.058 A 
ATOM     88  C   UNL A   1      46.421  33.800  27.356  1.00  0.00     0.135 A 
ATOM     89  C   UNL A   1      47.011  33.314  29.637  1.00  0.00     0.135 A 
ATOM     90  F   UNL A   1      45.979  33.419  26.147  1.00  0.00    -0.206 F 
ATOM     91  C   UNL A   1      46.777  35.132  27.540  1.00  0.00     0.059 A 
ATOM     92  C   UNL A   1      47.347  34.645  29.851  1.00  0.00     0.059 A 
ATOM     93  F   UNL A   1      47.131  32.458  30.664  1.00  0.00    -0.206 F 
ATOM     94  C   UNL A   1      47.235  35.545  28.792  1.00  0.00     0.060 A 
BRANCH  94  95
ATOM     95  S   UNL A   1      47.652  37.286  29.029  1.00  0.00     0.124 S 
ATOM     96  O   UNL A   1      49.105  37.259  28.900  1.00  0.00    -0.237 OA
ATOM     97  O   UNL A   1      46.930  37.931  27.937  1.00  0.00    -0.237 OA
ATOM     98  O   UNL A   1      47.146  37.578  30.367  1.00  0.00    -0.744 OA
ENDBRANCH  94  95
ENDBRANCH  62  87
ENDBRANCH  36  37
ENDBRANCH  28  31
ENDBRANCH  26  27
ENDBRANCH  25  26
ENDBRANCH   1  25
TORSDOF 18
ENDMDL
