MODEL 1
REMARK VINA RESULT:     -12.8      0.000      0.000
REMARK SMILES CC(C)[C@H](NC(=O)[C@H]1CC(=O)N(c2ccc(F)cc2)C1)C(=O)N1CCC[C@@H]1C(=O)NCCCCNC(=O)c1ccc(-c2c3nc(c(-c4c(F)cc(S(=O)(=O)[O-])cc4F)c4ccc([nH]4)c(-c4c(F)cc(S(=O)(=O)[O-])cc4F)c4nc(c(-c5c(F)cc(S(=O)(=O)[O-])cc5F)c5ccc2[nH]5)C=C4)C=C3)cc1
REMARK SMILES IDX 31 1 30 2 28 3 29 4 27 6 23 7 24 8 25 9 26 10 21 11 22 12
REMARK SMILES IDX 4 13 2 14 1 15 3 16 5 17 6 18 7 20 8 21 9 22 20 23 10 24
REMARK SMILES IDX 12 25 11 26 13 27 14 28 19 29 15 30 18 31 16 32 17 33 32 34
REMARK SMILES IDX 33 35 34 36 35 37 36 38 37 40 38 41 39 42 103 43 40 44
REMARK SMILES IDX 102 45 41 46 42 47 43 48 96 49 44 50 101 51 95 52 97 53
REMARK SMILES IDX 45 54 100 55 94 56 93 57 46 59 80 60 59 61 79 62 60 63 63 64
REMARK SMILES IDX 78 65 98 66 61 67 62 68 77 70 99 71 64 72 47 73 48 74 57 75
REMARK SMILES IDX 49 76 50 77 56 78 58 79 51 80 52 81 53 82 54 83 55 84 81 85
REMARK SMILES IDX 82 86 91 87 83 88 84 89 90 90 92 91 85 92 86 93 87 94 88 95
REMARK SMILES IDX 89 96 65 97 66 98 75 99 67 100 68 101 74 102 76 103 69 104
REMARK SMILES IDX 70 105 71 106 72 107 73 108
REMARK H PARENT 30 5 5 19 35 39 97 58 63 69
REMARK Flexibility Score: inf
ROOT
ATOM      1  C   UNL A   1      31.656  26.142  26.030  1.00  0.00     0.116 C 
ENDROOT
BRANCH   1   2
ATOM      2  N   UNL A   1      30.874  25.071  26.593  1.00  0.00    -0.354 N 
ATOM      3  C   UNL A   1      31.239  23.788  26.881  1.00  0.00     0.242 C 
ATOM      4  O   UNL A   1      30.334  22.995  27.159  1.00  0.00    -0.273 OA
ATOM      5  H   UNL A   1      29.938  25.298  26.800  1.00  0.00     0.163 HD
BRANCH   3   6
ATOM      6  C   UNL A   1      32.686  23.283  26.677  1.00  0.00     0.174 C 
ATOM      7  N   UNL A   1      32.903  22.283  25.620  1.00  0.00    -0.329 N 
ATOM      8  C   UNL A   1      33.952  21.379  26.049  1.00  0.00     0.120 C 
ATOM      9  C   UNL A   1      33.737  21.254  27.544  1.00  0.00     0.024 C 
ATOM     10  C   UNL A   1      33.232  22.634  27.961  1.00  0.00     0.037 C 
BRANCH   7  11
ATOM     11  C   UNL A   1      32.707  22.655  24.304  1.00  0.00     0.246 C 
ATOM     12  O   UNL A   1      31.560  22.721  23.848  1.00  0.00    -0.272 OA
BRANCH  11  13
ATOM     13  C   UNL A   1      33.915  22.698  23.312  1.00  0.00     0.174 C 
BRANCH  13  14
ATOM     14  C   UNL A   1      35.246  23.047  24.023  1.00  0.00     0.015 C 
ATOM     15  C   UNL A   1      36.546  22.928  23.218  1.00  0.00     0.010 C 
ATOM     16  C   UNL A   1      35.198  24.472  24.600  1.00  0.00     0.010 C 
ENDBRANCH  13  14
BRANCH  13  17
ATOM     17  N   UNL A   1      33.721  23.415  22.019  1.00  0.00    -0.344 N 
ATOM     18  C   UNL A   1      33.243  24.616  21.583  1.00  0.00     0.226 C 
ATOM     19  H   UNL A   1      34.025  22.862  21.263  1.00  0.00     0.164 HD
ATOM     20  O   UNL A   1      33.182  24.754  20.357  1.00  0.00    -0.275 OA
BRANCH  18  21
ATOM     21  C   UNL A   1      32.775  25.724  22.512  1.00  0.00     0.107 C 
ATOM     22  C   UNL A   1      33.673  26.948  22.445  1.00  0.00     0.116 C 
ATOM     23  C   UNL A   1      31.398  26.299  22.138  1.00  0.00     0.139 C 
ATOM     24  C   UNL A   1      32.784  28.126  22.640  1.00  0.00     0.227 C 
ATOM     25  N   UNL A   1      31.469  27.701  22.483  1.00  0.00    -0.312 N 
ATOM     26  O   UNL A   1      33.226  29.221  22.933  1.00  0.00    -0.274 OA
BRANCH  25  27
ATOM     27  C   UNL A   1      30.365  28.581  22.557  1.00  0.00     0.044 A 
ATOM     28  C   UNL A   1      29.166  28.145  23.151  1.00  0.00     0.029 A 
ATOM     29  C   UNL A   1      30.397  29.853  21.971  1.00  0.00     0.029 A 
ATOM     30  C   UNL A   1      28.009  28.923  23.112  1.00  0.00     0.041 A 
ATOM     31  C   UNL A   1      29.227  30.624  21.908  1.00  0.00     0.041 A 
ATOM     32  C   UNL A   1      28.045  30.147  22.469  1.00  0.00     0.123 A 
ATOM     33  F   UNL A   1      26.927  30.880  22.380  1.00  0.00    -0.207 F 
ENDBRANCH  25  27
ENDBRANCH  18  21
ENDBRANCH  13  17
ENDBRANCH  11  13
ENDBRANCH   7  11
ENDBRANCH   3   6
ENDBRANCH   1   2
BRANCH   1  34
ATOM     34  C   UNL A   1      31.356  27.489  26.673  1.00  0.00     0.023 C 
BRANCH  34  35
ATOM     35  C   UNL A   1      32.348  28.585  26.295  1.00  0.00     0.023 C 
BRANCH  35  36
ATOM     36  C   UNL A   1      33.483  28.786  27.295  1.00  0.00     0.116 C 
BRANCH  36  37
ATOM     37  N   UNL A   1      33.641  30.174  27.692  1.00  0.00    -0.352 N 
ATOM     38  C   UNL A   1      34.707  30.762  28.330  1.00  0.00     0.251 C 
ATOM     39  H   UNL A   1      32.889  30.771  27.476  1.00  0.00     0.163 HD
ATOM     40  O   UNL A   1      34.554  31.847  28.880  1.00  0.00    -0.269 OA
BRANCH  38  41
ATOM     41  C   UNL A   1      35.994  30.051  28.459  1.00  0.00     0.039 A 
ATOM     42  C   UNL A   1      36.848  30.066  27.353  1.00  0.00     0.014 A 
ATOM     43  C   UNL A   1      36.396  29.445  29.652  1.00  0.00     0.014 A 
ATOM     44  C   UNL A   1      38.148  29.591  27.484  1.00  0.00     0.010 A 
ATOM     45  C   UNL A   1      37.721  29.057  29.810  1.00  0.00     0.010 A 
ATOM     46  C   UNL A   1      38.614  29.158  28.735  1.00  0.00    -0.014 A 
BRANCH  46  47
ATOM     47  C   UNL A   1      40.055  28.881  28.929  1.00  0.00     0.031 A 
ATOM     48  C   UNL A   1      40.951  29.923  29.524  1.00  0.00     0.074 A 
ATOM     49  C   UNL A   1      40.538  27.681  28.546  1.00  0.00     0.049 A 
ATOM     50  N   UNL A   1      42.232  29.856  29.771  1.00  0.00    -0.248 NA
ATOM     51  C   UNL A   1      40.336  31.215  29.874  1.00  0.00     0.031 C 
ATOM     52  C   UNL A   1      39.748  26.613  27.925  1.00  0.00     0.029 A 
ATOM     53  N   UNL A   1      41.798  27.147  28.636  1.00  0.00    -0.354 N 
ATOM     54  C   UNL A   1      42.575  31.087  30.315  1.00  0.00     0.074 A 
ATOM     55  C   UNL A   1      41.384  31.906  30.301  1.00  0.00     0.031 C 
ATOM     56  C   UNL A   1      40.526  25.536  27.743  1.00  0.00     0.029 A 
ATOM     57  C   UNL A   1      41.880  25.849  28.184  1.00  0.00     0.049 A 
ATOM     58  H   UNL A   1      42.570  27.644  28.989  1.00  0.00     0.167 HD
ATOM     59  C   UNL A   1      43.770  31.479  30.811  1.00  0.00     0.037 A 
ATOM     60  C   UNL A   1      42.930  25.007  28.137  1.00  0.00     0.037 A 
ATOM     61  C   UNL A   1      44.942  30.642  30.825  1.00  0.00     0.049 A 
ATOM     62  C   UNL A   1      44.257  25.488  28.654  1.00  0.00     0.074 A 
ATOM     63  C   UNL A   1      46.202  30.937  31.315  1.00  0.00     0.029 A 
ATOM     64  N   UNL A   1      44.998  29.346  30.330  1.00  0.00    -0.354 N 
ATOM     65  N   UNL A   1      44.557  26.645  29.195  1.00  0.00    -0.248 NA
ATOM     66  C   UNL A   1      45.388  24.558  28.554  1.00  0.00     0.031 C 
ATOM     67  C   UNL A   1      47.030  29.838  31.073  1.00  0.00     0.029 A 
ATOM     68  C   UNL A   1      46.275  28.835  30.486  1.00  0.00     0.049 A 
ATOM     69  H   UNL A   1      44.241  28.863  29.927  1.00  0.00     0.167 HD
ATOM     70  C   UNL A   1      45.906  26.572  29.526  1.00  0.00     0.074 A 
ATOM     71  C   UNL A   1      46.358  25.251  29.137  1.00  0.00     0.031 C 
ATOM     72  C   UNL A   1      46.697  27.511  30.100  1.00  0.00     0.037 A 
BRANCH  59  73
ATOM     73  C   UNL A   1      43.871  32.860  31.397  1.00  0.00     0.058 A 
ATOM     74  C   UNL A   1      43.553  33.094  32.743  1.00  0.00     0.135 A 
ATOM     75  C   UNL A   1      44.217  33.967  30.603  1.00  0.00     0.135 A 
ATOM     76  F   UNL A   1      43.227  32.073  33.549  1.00  0.00    -0.206 F 
ATOM     77  C   UNL A   1      43.550  34.379  33.277  1.00  0.00     0.059 A 
ATOM     78  C   UNL A   1      44.248  35.257  31.123  1.00  0.00     0.059 A 
ATOM     79  F   UNL A   1      44.555  33.796  29.315  1.00  0.00    -0.206 F 
ATOM     80  C   UNL A   1      43.896  35.455  32.457  1.00  0.00     0.060 A 
BRANCH  80  81
ATOM     81  S   UNL A   1      43.892  37.115  33.168  1.00  0.00     0.124 S 
ATOM     82  O   UNL A   1      45.151  37.129  33.905  1.00  0.00    -0.237 OA
ATOM     83  O   UNL A   1      43.843  37.955  31.976  1.00  0.00    -0.237 OA
ATOM     84  O   UNL A   1      42.684  37.131  33.986  1.00  0.00    -0.744 OA
ENDBRANCH  80  81
ENDBRANCH  59  73
BRANCH  60  85
ATOM     85  C   UNL A   1      42.758  23.623  27.614  1.00  0.00     0.058 A 
ATOM     86  C   UNL A   1      42.837  23.343  26.241  1.00  0.00     0.135 A 
ATOM     87  C   UNL A   1      42.490  22.552  28.481  1.00  0.00     0.135 A 
ATOM     88  F   UNL A   1      43.079  24.330  25.364  1.00  0.00    -0.206 F 
ATOM     89  C   UNL A   1      42.641  22.059  25.744  1.00  0.00     0.059 A 
ATOM     90  C   UNL A   1      42.318  21.252  28.012  1.00  0.00     0.059 A 
ATOM     91  F   UNL A   1      42.411  22.765  29.803  1.00  0.00    -0.206 F 
ATOM     92  C   UNL A   1      42.384  21.019  26.639  1.00  0.00     0.060 A 
BRANCH  92  93
ATOM     93  S   UNL A   1      42.147  19.357  25.972  1.00  0.00     0.124 S 
ATOM     94  O   UNL A   1      42.623  18.528  27.075  1.00  0.00    -0.237 OA
ATOM     95  O   UNL A   1      40.709  19.328  25.731  1.00  0.00    -0.237 OA
ATOM     96  O   UNL A   1      42.983  19.350  24.776  1.00  0.00    -0.744 OA
ENDBRANCH  92  93
ENDBRANCH  60  85
BRANCH  72  97
ATOM     97  C   UNL A   1      48.129  27.143  30.369  1.00  0.00     0.058 A 
ATOM     98  C   UNL A   1      48.497  26.580  31.602  1.00  0.00     0.135 A 
ATOM     99  C   UNL A   1      49.148  27.426  29.446  1.00  0.00     0.135 A 
ATOM    100  F   UNL A   1      47.562  26.296  32.522  1.00  0.00    -0.206 F 
ATOM    101  C   UNL A   1      49.826  26.334  31.921  1.00  0.00     0.059 A 
ATOM    102  C   UNL A   1      50.483  27.158  29.731  1.00  0.00     0.059 A 
ATOM    103  F   UNL A   1      48.847  27.953  28.249  1.00  0.00    -0.206 F 
ATOM    104  C   UNL A   1      50.813  26.629  30.980  1.00  0.00     0.060 A 
BRANCH 104 105
ATOM    105  S   UNL A   1      52.534  26.300  31.411  1.00  0.00     0.124 S 
ATOM    106  O   UNL A   1      52.805  27.350  32.385  1.00  0.00    -0.237 OA
ATOM    107  O   UNL A   1      52.463  24.942  31.941  1.00  0.00    -0.237 OA
ATOM    108  O   UNL A   1      53.234  26.431  30.135  1.00  0.00    -0.744 OA
ENDBRANCH 104 105
ENDBRANCH  72  97
ENDBRANCH  46  47
ENDBRANCH  38  41
ENDBRANCH  36  37
ENDBRANCH  35  36
ENDBRANCH  34  35
ENDBRANCH   1  34
TORSDOF 20
ENDMDL
MODEL 2
REMARK VINA RESULT:     -12.8      0.536      7.756
REMARK SMILES CC(C)[C@H](NC(=O)[C@H]1CC(=O)N(c2ccc(F)cc2)C1)C(=O)N1CCC[C@@H]1C(=O)NCCCCNC(=O)c1ccc(-c2c3nc(c(-c4c(F)cc(S(=O)(=O)[O-])cc4F)c4ccc([nH]4)c(-c4c(F)cc(S(=O)(=O)[O-])cc4F)c4nc(c(-c5c(F)cc(S(=O)(=O)[O-])cc5F)c5ccc2[nH]5)C=C4)C=C3)cc1
REMARK SMILES IDX 31 1 30 2 28 3 29 4 27 6 23 7 24 8 25 9 26 10 21 11 22 12
REMARK SMILES IDX 4 13 2 14 1 15 3 16 5 17 6 18 7 20 8 21 9 22 20 23 10 24
REMARK SMILES IDX 12 25 11 26 13 27 14 28 19 29 15 30 18 31 16 32 17 33 32 34
REMARK SMILES IDX 33 35 34 36 35 37 36 38 37 40 38 41 39 42 103 43 40 44
REMARK SMILES IDX 102 45 41 46 42 47 43 48 96 49 44 50 101 51 95 52 97 53
REMARK SMILES IDX 45 54 100 55 94 56 93 57 46 59 80 60 59 61 79 62 60 63 63 64
REMARK SMILES IDX 78 65 98 66 61 67 62 68 77 70 99 71 64 72 47 73 48 74 57 75
REMARK SMILES IDX 49 76 50 77 56 78 58 79 51 80 52 81 53 82 54 83 55 84 81 85
REMARK SMILES IDX 82 86 91 87 83 88 84 89 90 90 92 91 85 92 86 93 87 94 88 95
REMARK SMILES IDX 89 96 65 97 66 98 75 99 67 100 68 101 74 102 76 103 69 104
REMARK SMILES IDX 70 105 71 106 72 107 73 108
REMARK H PARENT 30 5 5 19 35 39 97 58 63 69
REMARK Flexibility Score: inf
ROOT
ATOM      1  C   UNL A   1      31.992  26.154  25.988  1.00  0.00     0.116 C 
ENDROOT
BRANCH   1   2
ATOM      2  N   UNL A   1      31.143  25.187  26.635  1.00  0.00    -0.354 N 
ATOM      3  C   UNL A   1      31.404  23.890  26.969  1.00  0.00     0.242 C 
ATOM      4  O   UNL A   1      30.444  23.197  27.323  1.00  0.00    -0.273 OA
ATOM      5  H   UNL A   1      30.242  25.508  26.870  1.00  0.00     0.163 HD
BRANCH   3   6
ATOM      6  C   UNL A   1      32.788  23.244  26.729  1.00  0.00     0.174 C 
ATOM      7  N   UNL A   1      32.882  22.239  25.659  1.00  0.00    -0.329 N 
ATOM      8  C   UNL A   1      33.843  21.230  26.057  1.00  0.00     0.120 C 
ATOM      9  C   UNL A   1      33.648  21.111  27.555  1.00  0.00     0.024 C 
ATOM     10  C   UNL A   1      33.293  22.530  27.995  1.00  0.00     0.037 C 
BRANCH   7  11
ATOM     11  C   UNL A   1      32.696  22.643  24.350  1.00  0.00     0.246 C 
ATOM     12  O   UNL A   1      31.552  22.765  23.901  1.00  0.00    -0.272 OA
BRANCH  11  13
ATOM     13  C   UNL A   1      33.902  22.655  23.355  1.00  0.00     0.174 C 
BRANCH  13  14
ATOM     14  C   UNL A   1      35.239  23.001  24.055  1.00  0.00     0.015 C 
ATOM     15  C   UNL A   1      36.532  22.886  23.239  1.00  0.00     0.010 C 
ATOM     16  C   UNL A   1      35.196  24.424  24.638  1.00  0.00     0.010 C 
ENDBRANCH  13  14
BRANCH  13  17
ATOM     17  N   UNL A   1      33.712  23.351  22.050  1.00  0.00    -0.344 N 
ATOM     18  C   UNL A   1      33.251  24.551  21.594  1.00  0.00     0.226 C 
ATOM     19  H   UNL A   1      34.003  22.779  21.302  1.00  0.00     0.164 HD
ATOM     20  O   UNL A   1      33.185  24.668  20.366  1.00  0.00    -0.275 OA
BRANCH  18  21
ATOM     21  C   UNL A   1      32.807  25.683  22.505  1.00  0.00     0.107 C 
ATOM     22  C   UNL A   1      33.699  26.907  22.379  1.00  0.00     0.116 C 
ATOM     23  C   UNL A   1      31.418  26.245  22.154  1.00  0.00     0.139 C 
ATOM     24  C   UNL A   1      32.812  28.088  22.566  1.00  0.00     0.227 C 
ATOM     25  N   UNL A   1      31.495  27.657  22.458  1.00  0.00    -0.312 N 
ATOM     26  O   UNL A   1      33.260  29.192  22.816  1.00  0.00    -0.274 OA
BRANCH  25  27
ATOM     27  C   UNL A   1      30.390  28.537  22.539  1.00  0.00     0.044 A 
ATOM     28  C   UNL A   1      29.204  28.109  23.163  1.00  0.00     0.029 A 
ATOM     29  C   UNL A   1      30.409  29.799  21.933  1.00  0.00     0.029 A 
ATOM     30  C   UNL A   1      28.046  28.885  23.133  1.00  0.00     0.041 A 
ATOM     31  C   UNL A   1      29.238  30.568  21.880  1.00  0.00     0.041 A 
ATOM     32  C   UNL A   1      28.067  30.099  22.470  1.00  0.00     0.123 A 
ATOM     33  F   UNL A   1      26.946  30.828  22.391  1.00  0.00    -0.207 F 
ENDBRANCH  25  27
ENDBRANCH  18  21
ENDBRANCH  13  17
ENDBRANCH  11  13
ENDBRANCH   7  11
ENDBRANCH   3   6
ENDBRANCH   1   2
BRANCH   1  34
ATOM     34  C   UNL A   1      31.534  27.588  26.223  1.00  0.00     0.023 C 
BRANCH  34  35
ATOM     35  C   UNL A   1      32.664  28.611  26.160  1.00  0.00     0.023 C 
BRANCH  35  36
ATOM     36  C   UNL A   1      33.415  28.811  27.474  1.00  0.00     0.116 C 
BRANCH  36  37
ATOM     37  N   UNL A   1      33.571  30.211  27.824  1.00  0.00    -0.352 N 
ATOM     38  C   UNL A   1      34.639  30.823  28.436  1.00  0.00     0.251 C 
ATOM     39  H   UNL A   1      32.815  30.798  27.594  1.00  0.00     0.163 HD
ATOM     40  O   UNL A   1      34.485  31.925  28.951  1.00  0.00    -0.269 OA
BRANCH  38  41
ATOM     41  C   UNL A   1      35.929  30.121  28.580  1.00  0.00     0.039 A 
ATOM     42  C   UNL A   1      36.764  30.078  27.461  1.00  0.00     0.014 A 
ATOM     43  C   UNL A   1      36.351  29.577  29.796  1.00  0.00     0.014 A 
ATOM     44  C   UNL A   1      38.067  29.611  27.594  1.00  0.00     0.010 A 
ATOM     45  C   UNL A   1      37.679  29.198  29.952  1.00  0.00     0.010 A 
ATOM     46  C   UNL A   1      38.554  29.244  28.858  1.00  0.00    -0.014 A 
BRANCH  46  47
ATOM     47  C   UNL A   1      39.998  28.979  29.042  1.00  0.00     0.031 A 
ATOM     48  C   UNL A   1      40.570  27.637  28.700  1.00  0.00     0.074 A 
ATOM     49  C   UNL A   1      40.777  29.963  29.537  1.00  0.00     0.049 A 
ATOM     50  N   UNL A   1      41.807  27.227  28.793  1.00  0.00    -0.248 NA
ATOM     51  C   UNL A   1      39.632  26.616  28.204  1.00  0.00     0.031 C 
ATOM     52  C   UNL A   1      40.303  31.294  29.932  1.00  0.00     0.029 A 
ATOM     53  N   UNL A   1      42.126  30.011  29.775  1.00  0.00    -0.354 N 
ATOM     54  C   UNL A   1      41.799  25.909  28.357  1.00  0.00     0.074 A 
ATOM     55  C   UNL A   1      40.427  25.564  28.063  1.00  0.00     0.031 C 
ATOM     56  C   UNL A   1      41.351  32.042  30.309  1.00  0.00     0.029 A 
ATOM     57  C   UNL A   1      42.562  31.235  30.232  1.00  0.00     0.049 A 
ATOM     58  H   UNL A   1      42.726  29.244  29.634  1.00  0.00     0.167 HD
ATOM     59  C   UNL A   1      42.853  25.078  28.187  1.00  0.00     0.037 A 
ATOM     60  C   UNL A   1      43.802  31.656  30.549  1.00  0.00     0.037 A 
ATOM     61  C   UNL A   1      44.215  25.446  28.476  1.00  0.00     0.049 A 
ATOM     62  C   UNL A   1      44.947  30.693  30.393  1.00  0.00     0.074 A 
ATOM     63  C   UNL A   1      45.360  24.683  28.328  1.00  0.00     0.029 A 
ATOM     64  N   UNL A   1      44.616  26.681  28.967  1.00  0.00    -0.354 N 
ATOM     65  N   UNL A   1      44.927  29.459  29.948  1.00  0.00    -0.248 NA
ATOM     66  C   UNL A   1      46.278  31.173  30.781  1.00  0.00     0.031 C 
ATOM     67  C   UNL A   1      46.446  25.439  28.775  1.00  0.00     0.029 A 
ATOM     68  C   UNL A   1      45.989  26.694  29.146  1.00  0.00     0.049 A 
ATOM     69  H   UNL A   1      44.013  27.434  29.160  1.00  0.00     0.167 HD
ATOM     70  C   UNL A   1      46.247  29.023  29.977  1.00  0.00     0.074 A 
ATOM     71  C   UNL A   1      47.040  30.132  30.469  1.00  0.00     0.031 C 
ATOM     72  C   UNL A   1      46.757  27.816  29.628  1.00  0.00     0.037 A 
BRANCH  59  73
ATOM     73  C   UNL A   1      42.583  23.700  27.648  1.00  0.00     0.058 A 
ATOM     74  C   UNL A   1      42.483  22.598  28.510  1.00  0.00     0.135 A 
ATOM     75  C   UNL A   1      42.495  23.461  26.266  1.00  0.00     0.135 A 
ATOM     76  F   UNL A   1      42.549  22.770  29.839  1.00  0.00    -0.206 F 
ATOM     77  C   UNL A   1      42.328  21.304  28.022  1.00  0.00     0.059 A 
ATOM     78  C   UNL A   1      42.312  22.179  25.756  1.00  0.00     0.059 A 
ATOM     79  F   UNL A   1      42.559  24.484  25.398  1.00  0.00    -0.206 F 
ATOM     80  C   UNL A   1      42.248  21.105  26.643  1.00  0.00     0.060 A 
BRANCH  80  81
ATOM     81  S   UNL A   1      42.041  19.420  26.027  1.00  0.00     0.124 S 
ATOM     82  O   UNL A   1      40.605  19.364  25.780  1.00  0.00    -0.237 OA
ATOM     83  O   UNL A   1      42.891  19.424  24.841  1.00  0.00    -0.237 OA
ATOM     84  O   UNL A   1      42.522  18.595  27.130  1.00  0.00    -0.744 OA
ENDBRANCH  80  81
ENDBRANCH  59  73
BRANCH  60  85
ATOM     85  C   UNL A   1      44.023  33.055  31.009  1.00  0.00     0.058 A 
ATOM     86  C   UNL A   1      44.402  34.069  30.117  1.00  0.00     0.135 A 
ATOM     87  C   UNL A   1      43.877  33.400  32.362  1.00  0.00     0.135 A 
ATOM     88  F   UNL A   1      44.569  33.793  28.814  1.00  0.00    -0.206 F 
ATOM     89  C   UNL A   1      44.645  35.369  30.548  1.00  0.00     0.059 A 
ATOM     90  C   UNL A   1      44.086  34.701  32.815  1.00  0.00     0.059 A 
ATOM     91  F   UNL A   1      43.509  32.469  33.255  1.00  0.00    -0.206 F 
ATOM     92  C   UNL A   1      44.482  35.675  31.900  1.00  0.00     0.060 A 
BRANCH  92  93
ATOM     93  S   UNL A   1      44.789  37.373  32.434  1.00  0.00     0.124 S 
ATOM     94  O   UNL A   1      45.928  37.197  33.329  1.00  0.00    -0.237 OA
ATOM     95  O   UNL A   1      45.073  38.043  31.169  1.00  0.00    -0.237 OA
ATOM     96  O   UNL A   1      43.537  37.757  33.078  1.00  0.00    -0.744 OA
ENDBRANCH  92  93
ENDBRANCH  60  85
BRANCH  72  97
ATOM     97  C   UNL A   1      48.244  27.632  29.738  1.00  0.00     0.058 A 
ATOM     98  C   UNL A   1      48.818  27.211  30.949  1.00  0.00     0.135 A 
ATOM     99  C   UNL A   1      49.107  27.954  28.679  1.00  0.00     0.135 A 
ATOM    100  F   UNL A   1      48.038  26.898  31.996  1.00  0.00    -0.206 F 
ATOM    101  C   UNL A   1      50.196  27.141  31.114  1.00  0.00     0.059 A 
ATOM    102  C   UNL A   1      50.488  27.859  28.811  1.00  0.00     0.059 A 
ATOM    103  F   UNL A   1      48.607  28.349  27.497  1.00  0.00    -0.206 F 
ATOM    104  C   UNL A   1      51.023  27.470  30.040  1.00  0.00     0.060 A 
BRANCH 104 105
ATOM    105  S   UNL A   1      52.810  27.368  30.272  1.00  0.00     0.124 S 
ATOM    106  O   UNL A   1      53.225  28.741  30.003  1.00  0.00    -0.237 OA
ATOM    107  O   UNL A   1      52.915  26.933  31.661  1.00  0.00    -0.237 OA
ATOM    108  O   UNL A   1      53.225  26.381  29.280  1.00  0.00    -0.744 OA
ENDBRANCH 104 105
ENDBRANCH  72  97
ENDBRANCH  46  47
ENDBRANCH  38  41
ENDBRANCH  36  37
ENDBRANCH  35  36
ENDBRANCH  34  35
ENDBRANCH   1  34
TORSDOF 20
ENDMDL
MODEL 3
REMARK VINA RESULT:     -12.1      0.998      1.999
REMARK SMILES CC(C)[C@H](NC(=O)[C@H]1CC(=O)N(c2ccc(F)cc2)C1)C(=O)N1CCC[C@@H]1C(=O)NCCCCNC(=O)c1ccc(-c2c3nc(c(-c4c(F)cc(S(=O)(=O)[O-])cc4F)c4ccc([nH]4)c(-c4c(F)cc(S(=O)(=O)[O-])cc4F)c4nc(c(-c5c(F)cc(S(=O)(=O)[O-])cc5F)c5ccc2[nH]5)C=C4)C=C3)cc1
REMARK SMILES IDX 31 1 30 2 28 3 29 4 27 6 23 7 24 8 25 9 26 10 21 11 22 12
REMARK SMILES IDX 4 13 2 14 1 15 3 16 5 17 6 18 7 20 8 21 9 22 20 23 10 24
REMARK SMILES IDX 12 25 11 26 13 27 14 28 19 29 15 30 18 31 16 32 17 33 32 34
REMARK SMILES IDX 33 35 34 36 35 37 36 38 37 40 38 41 39 42 103 43 40 44
REMARK SMILES IDX 102 45 41 46 42 47 43 48 96 49 44 50 101 51 95 52 97 53
REMARK SMILES IDX 45 54 100 55 94 56 93 57 46 59 80 60 59 61 79 62 60 63 63 64
REMARK SMILES IDX 78 65 98 66 61 67 62 68 77 70 99 71 64 72 47 73 48 74 57 75
REMARK SMILES IDX 49 76 50 77 56 78 58 79 51 80 52 81 53 82 54 83 55 84 81 85
REMARK SMILES IDX 82 86 91 87 83 88 84 89 90 90 92 91 85 92 86 93 87 94 88 95
REMARK SMILES IDX 89 96 65 97 66 98 75 99 67 100 68 101 74 102 76 103 69 104
REMARK SMILES IDX 70 105 71 106 72 107 73 108
REMARK H PARENT 30 5 5 19 35 39 97 58 63 69
REMARK Flexibility Score: inf
ROOT
ATOM      1  C   UNL A   1      32.805  25.476  26.112  1.00  0.00     0.116 C 
ENDROOT
BRANCH   1   2
ATOM      2  N   UNL A   1      33.273  24.420  26.972  1.00  0.00    -0.354 N 
ATOM      3  C   UNL A   1      34.264  23.505  26.763  1.00  0.00     0.242 C 
ATOM      4  O   UNL A   1      34.336  22.563  27.558  1.00  0.00    -0.273 OA
ATOM      5  H   UNL A   1      32.810  24.346  27.838  1.00  0.00     0.163 HD
BRANCH   3   6
ATOM      6  C   UNL A   1      35.134  23.518  25.485  1.00  0.00     0.174 C 
ATOM      7  N   UNL A   1      35.135  22.297  24.663  1.00  0.00    -0.329 N 
ATOM      8  C   UNL A   1      36.453  22.133  24.082  1.00  0.00     0.120 C 
ATOM      9  C   UNL A   1      37.391  22.640  25.158  1.00  0.00     0.024 C 
ATOM     10  C   UNL A   1      36.613  23.773  25.823  1.00  0.00     0.037 C 
BRANCH   7  11
ATOM     11  C   UNL A   1      33.967  21.926  24.024  1.00  0.00     0.246 C 
ATOM     12  O   UNL A   1      33.863  20.793  23.544  1.00  0.00    -0.272 OA
BRANCH  11  13
ATOM     13  C   UNL A   1      32.906  23.009  23.640  1.00  0.00     0.174 C 
BRANCH  13  14
ATOM     14  C   UNL A   1      31.457  22.531  23.905  1.00  0.00     0.015 C 
ATOM     15  C   UNL A   1      31.101  22.058  25.319  1.00  0.00     0.010 C 
ATOM     16  C   UNL A   1      30.445  23.626  23.524  1.00  0.00     0.010 C 
ENDBRANCH  13  14
BRANCH  13  17
ATOM     17  N   UNL A   1      33.076  23.708  22.334  1.00  0.00    -0.344 N 
ATOM     18  C   UNL A   1      32.995  24.977  21.840  1.00  0.00     0.226 C 
ATOM     19  H   UNL A   1      33.318  23.070  21.623  1.00  0.00     0.164 HD
ATOM     20  O   UNL A   1      33.131  25.086  20.618  1.00  0.00    -0.275 OA
BRANCH  18  21
ATOM     21  C   UNL A   1      32.723  26.199  22.701  1.00  0.00     0.107 C 
ATOM     22  C   UNL A   1      33.743  27.303  22.472  1.00  0.00     0.116 C 
ATOM     23  C   UNL A   1      31.393  26.900  22.372  1.00  0.00     0.139 C 
ATOM     24  C   UNL A   1      33.006  28.587  22.625  1.00  0.00     0.227 C 
ATOM     25  N   UNL A   1      31.644  28.307  22.592  1.00  0.00    -0.312 N 
ATOM     26  O   UNL A   1      33.587  29.643  22.795  1.00  0.00    -0.274 OA
BRANCH  25  27
ATOM     27  C   UNL A   1      30.652  29.312  22.664  1.00  0.00     0.044 A 
ATOM     28  C   UNL A   1      30.403  29.957  23.890  1.00  0.00     0.029 A 
ATOM     29  C   UNL A   1      29.840  29.625  21.567  1.00  0.00     0.029 A 
ATOM     30  C   UNL A   1      29.337  30.843  24.042  1.00  0.00     0.041 A 
ATOM     31  C   UNL A   1      28.752  30.495  21.727  1.00  0.00     0.041 A 
ATOM     32  C   UNL A   1      28.505  31.085  22.964  1.00  0.00     0.123 A 
ATOM     33  F   UNL A   1      27.448  31.894  23.113  1.00  0.00    -0.207 F 
ENDBRANCH  25  27
ENDBRANCH  18  21
ENDBRANCH  13  17
ENDBRANCH  11  13
ENDBRANCH   7  11
ENDBRANCH   3   6
ENDBRANCH   1   2
BRANCH   1  34
ATOM     34  C   UNL A   1      33.740  26.678  26.097  1.00  0.00     0.023 C 
BRANCH  34  35
ATOM     35  C   UNL A   1      33.022  28.017  26.246  1.00  0.00     0.023 C 
BRANCH  35  36
ATOM     36  C   UNL A   1      33.021  28.583  27.663  1.00  0.00     0.116 C 
BRANCH  36  37
ATOM     37  N   UNL A   1      33.207  30.023  27.692  1.00  0.00    -0.352 N 
ATOM     38  C   UNL A   1      34.314  30.731  28.097  1.00  0.00     0.251 C 
ATOM     39  H   UNL A   1      32.444  30.561  27.383  1.00  0.00     0.163 HD
ATOM     40  O   UNL A   1      34.198  31.920  28.369  1.00  0.00    -0.269 OA
BRANCH  38  41
ATOM     41  C   UNL A   1      35.605  30.050  28.319  1.00  0.00     0.039 A 
ATOM     42  C   UNL A   1      36.458  29.921  27.220  1.00  0.00     0.014 A 
ATOM     43  C   UNL A   1      36.010  29.611  29.581  1.00  0.00     0.014 A 
ATOM     44  C   UNL A   1      37.761  29.475  27.411  1.00  0.00     0.010 A 
ATOM     45  C   UNL A   1      37.337  29.254  29.789  1.00  0.00     0.010 A 
ATOM     46  C   UNL A   1      38.229  29.216  28.708  1.00  0.00    -0.014 A 
BRANCH  46  47
ATOM     47  C   UNL A   1      39.672  28.975  28.936  1.00  0.00     0.031 A 
ATOM     48  C   UNL A   1      40.527  30.039  29.553  1.00  0.00     0.074 A 
ATOM     49  C   UNL A   1      40.194  27.789  28.563  1.00  0.00     0.049 A 
ATOM     50  N   UNL A   1      41.803  30.004  29.830  1.00  0.00    -0.248 NA
ATOM     51  C   UNL A   1      39.872  31.314  29.890  1.00  0.00     0.031 C 
ATOM     52  C   UNL A   1      39.446  26.702  27.922  1.00  0.00     0.029 A 
ATOM     53  N   UNL A   1      41.464  27.286  28.682  1.00  0.00    -0.354 N 
ATOM     54  C   UNL A   1      42.102  31.242  30.384  1.00  0.00     0.074 A 
ATOM     55  C   UNL A   1      40.891  32.030  30.343  1.00  0.00     0.031 C 
ATOM     56  C   UNL A   1      40.255  25.646  27.757  1.00  0.00     0.029 A 
ATOM     57  C   UNL A   1      41.590  25.992  28.231  1.00  0.00     0.049 A 
ATOM     58  H   UNL A   1      42.216  27.802  29.054  1.00  0.00     0.167 HD
ATOM     59  C   UNL A   1      43.275  31.663  30.908  1.00  0.00     0.037 A 
ATOM     60  C   UNL A   1      42.662  25.176  28.207  1.00  0.00     0.037 A 
ATOM     61  C   UNL A   1      44.467  30.856  30.949  1.00  0.00     0.049 A 
ATOM     62  C   UNL A   1      43.964  25.690  28.756  1.00  0.00     0.074 A 
ATOM     63  C   UNL A   1      45.707  31.182  31.469  1.00  0.00     0.029 A 
ATOM     64  N   UNL A   1      44.567  29.563  30.454  1.00  0.00    -0.354 N 
ATOM     65  N   UNL A   1      44.222  26.854  29.306  1.00  0.00    -0.248 NA
ATOM     66  C   UNL A   1      45.121  24.789  28.682  1.00  0.00     0.031 C 
ATOM     67  C   UNL A   1      46.568  30.105  31.246  1.00  0.00     0.029 A 
ATOM     68  C   UNL A   1      45.852  29.084  30.639  1.00  0.00     0.049 A 
ATOM     69  H   UNL A   1      43.832  29.061  30.033  1.00  0.00     0.167 HD
ATOM     70  C   UNL A   1      45.564  26.814  29.668  1.00  0.00     0.074 A 
ATOM     71  C   UNL A   1      46.058  25.506  29.288  1.00  0.00     0.031 C 
ATOM     72  C   UNL A   1      46.317  27.772  30.262  1.00  0.00     0.037 A 
BRANCH  59  73
ATOM     73  C   UNL A   1      43.327  33.045  31.498  1.00  0.00     0.058 A 
ATOM     74  C   UNL A   1      43.713  34.146  30.718  1.00  0.00     0.135 A 
ATOM     75  C   UNL A   1      43.061  33.269  32.860  1.00  0.00     0.135 A 
ATOM     76  F   UNL A   1      43.967  33.992  29.410  1.00  0.00    -0.206 F 
ATOM     77  C   UNL A   1      43.857  35.414  31.271  1.00  0.00     0.059 A 
ATOM     78  C   UNL A   1      43.172  34.534  33.428  1.00  0.00     0.059 A 
ATOM     79  F   UNL A   1      42.664  32.255  33.646  1.00  0.00    -0.206 F 
ATOM     80  C   UNL A   1      43.588  35.598  32.627  1.00  0.00     0.060 A 
BRANCH  80  81
ATOM     81  S   UNL A   1      43.775  37.252  33.327  1.00  0.00     0.124 S 
ATOM     82  O   UNL A   1      43.748  38.088  32.132  1.00  0.00    -0.237 OA
ATOM     83  O   UNL A   1      42.606  37.347  34.197  1.00  0.00    -0.237 OA
ATOM     84  O   UNL A   1      45.058  37.184  34.019  1.00  0.00    -0.744 OA
ENDBRANCH  80  81
ENDBRANCH  59  73
BRANCH  60  85
ATOM     85  C   UNL A   1      42.538  23.790  27.678  1.00  0.00     0.058 A 
ATOM     86  C   UNL A   1      42.502  23.531  26.300  1.00  0.00     0.135 A 
ATOM     87  C   UNL A   1      42.433  22.693  28.548  1.00  0.00     0.135 A 
ATOM     88  F   UNL A   1      42.585  24.543  25.421  1.00  0.00    -0.206 F 
ATOM     89  C   UNL A   1      42.349  22.242  25.801  1.00  0.00     0.059 A 
ATOM     90  C   UNL A   1      42.308  21.389  28.074  1.00  0.00     0.059 A 
ATOM     91  F   UNL A   1      42.469  22.885  29.875  1.00  0.00    -0.206 F 
ATOM     92  C   UNL A   1      42.255  21.176  26.698  1.00  0.00     0.060 A 
BRANCH  92  93
ATOM     93  S   UNL A   1      42.072  19.509  26.028  1.00  0.00     0.124 S 
ATOM     94  O   UNL A   1      40.634  19.443  25.794  1.00  0.00    -0.237 OA
ATOM     95  O   UNL A   1      42.907  19.569  24.832  1.00  0.00    -0.237 OA
ATOM     96  O   UNL A   1      42.575  18.656  27.100  1.00  0.00    -0.744 OA
ENDBRANCH  92  93
ENDBRANCH  60  85
BRANCH  72  97
ATOM     97  C   UNL A   1      47.752  27.440  30.564  1.00  0.00     0.058 A 
ATOM     98  C   UNL A   1      48.769  27.816  29.671  1.00  0.00     0.135 A 
ATOM     99  C   UNL A   1      48.110  26.678  31.686  1.00  0.00     0.135 A 
ATOM    100  F   UNL A   1      48.478  28.539  28.578  1.00  0.00    -0.206 F 
ATOM    101  C   UNL A   1      50.088  27.425  29.867  1.00  0.00     0.059 A 
ATOM    102  C   UNL A   1      49.430  26.304  31.920  1.00  0.00     0.059 A 
ATOM    103  F   UNL A   1      47.177  26.305  32.576  1.00  0.00    -0.206 F 
ATOM    104  C   UNL A   1      50.408  26.666  30.993  1.00  0.00     0.060 A 
BRANCH 104 105
ATOM    105  S   UNL A   1      52.127  26.171  31.233  1.00  0.00     0.124 S 
ATOM    106  O   UNL A   1      51.979  24.922  31.971  1.00  0.00    -0.237 OA
ATOM    107  O   UNL A   1      52.605  26.046  29.859  1.00  0.00    -0.237 OA
ATOM    108  O   UNL A   1      52.697  27.283  31.988  1.00  0.00    -0.744 OA
ENDBRANCH 104 105
ENDBRANCH  72  97
ENDBRANCH  46  47
ENDBRANCH  38  41
ENDBRANCH  36  37
ENDBRANCH  35  36
ENDBRANCH  34  35
ENDBRANCH   1  34
TORSDOF 20
ENDMDL
