MODEL 1
REMARK VINA RESULT:     -12.3      0.000      0.000
REMARK SMILES COC(=O)c1c(NC(=O)[C@@H]2C[C@@H]2C(=O)NCCCCNC(=O)c2ccc(-c3c4nc(c(-c5c(F)cc(S(=O)(=O)[O-])cc5F)c5ccc([nH]5)c(-c5c(F)cc(S(=O)(=O)[O-])cc5F)c5nc(c(-c6c(F)cc(S(=O)(=O)[O-])cc6F)c6ccc3[nH]6)C=C5)C=C4)cc2)sc2c1CC[N@@H+](Cc1ccccc1)C2
REMARK SMILES IDX 17 1 16 2 15 3 13 4 14 5 12 7 10 8 11 9 8 10 7 11 9 13 6 14
REMARK SMILES IDX 5 15 91 16 89 17 90 18 92 19 102 20 93 21 94 22 3 24 4 25
REMARK SMILES IDX 2 26 1 27 95 28 96 29 97 30 101 31 98 32 100 33 99 34 18 35
REMARK SMILES IDX 19 36 20 37 21 38 22 40 23 41 24 42 88 43 25 44 87 45 26 46
REMARK SMILES IDX 27 47 28 48 81 49 29 50 86 51 80 52 82 53 30 54 85 55 79 56
REMARK SMILES IDX 78 57 31 59 65 60 44 61 64 62 45 63 48 64 63 65 83 66 46 67
REMARK SMILES IDX 47 68 62 70 84 71 49 72 32 73 33 74 42 75 34 76 35 77 41 78
REMARK SMILES IDX 43 79 36 80 37 81 38 82 39 83 40 84 66 85 67 86 76 87 68 88
REMARK SMILES IDX 69 89 75 90 77 91 70 92 71 93 72 94 73 95 74 96 50 97 51 98
REMARK SMILES IDX 60 99 52 100 53 101 59 102 61 103 54 104 55 105 56 106
REMARK SMILES IDX 57 107 58 108
REMARK H PARENT 15 6 7 12 94 23 20 39 82 58 48 69
REMARK Flexibility Score: inf
ROOT
ATOM      1  C   UNL A   1      35.232  32.319  27.992  1.00  0.00     0.023 C 
ENDROOT
BRANCH   1   2
ATOM      2  C   UNL A   1      34.449  31.014  27.881  1.00  0.00     0.116 C 
BRANCH   2   3
ATOM      3  N   UNL A   1      33.506  30.956  26.801  1.00  0.00    -0.356 N 
ATOM      4  C   UNL A   1      33.212  29.946  25.928  1.00  0.00     0.223 C 
ATOM      5  O   UNL A   1      32.178  30.068  25.271  1.00  0.00    -0.275 OA
ATOM      6  H   UNL A   1      32.984  31.781  26.665  1.00  0.00     0.163 HD
BRANCH   4   7
ATOM      7  C   UNL A   1      34.038  28.739  25.650  1.00  0.00     0.091 C 
ATOM      8  C   UNL A   1      34.014  27.438  24.888  1.00  0.00     0.092 C 
ATOM      9  C   UNL A   1      33.384  27.488  26.236  1.00  0.00     0.028 C 
BRANCH   8  10
ATOM     10  C   UNL A   1      33.261  27.090  23.673  1.00  0.00     0.228 C 
ATOM     11  N   UNL A   1      32.789  25.816  23.476  1.00  0.00    -0.317 N 
ATOM     12  H   UNL A   1      32.191  25.693  22.703  1.00  0.00     0.170 HD
ATOM     13  O   UNL A   1      33.056  27.953  22.823  1.00  0.00    -0.274 OA
BRANCH  11  14
ATOM     14  C   UNL A   1      33.048  24.690  24.222  1.00  0.00     0.110 A 
ATOM     15  C   UNL A   1      32.537  24.073  25.350  1.00  0.00     0.098 A 
ATOM     16  C   UNL A   1      33.393  22.975  25.749  1.00  0.00    -0.006 A 
ATOM     17  S   UNL A   1      34.364  23.850  23.549  1.00  0.00    -0.116 S 
ATOM     18  C   UNL A   1      34.388  22.746  24.823  1.00  0.00     0.065 A 
ATOM     19  C   UNL A   1      33.169  21.988  26.868  1.00  0.00     0.099 C 
ATOM     20  C   UNL A   1      35.269  21.542  24.827  1.00  0.00     0.310 C 
ATOM     21  C   UNL A   1      34.024  20.697  26.726  1.00  0.00     0.267 C 
ATOM     22  N   UNL A   1      34.574  20.387  25.397  1.00  0.00    -0.326 N 
ATOM     23  H   UNL A   1      35.279  19.671  25.571  1.00  0.00     0.348 HD
BRANCH  15  24
ATOM     24  C   UNL A   1      31.263  24.374  25.982  1.00  0.00     0.341 C 
ATOM     25  O   UNL A   1      31.068  24.297  27.192  1.00  0.00    -0.246 OA
BRANCH  24  26
ATOM     26  O   UNL A   1      30.302  24.725  25.077  1.00  0.00    -0.465 OA
ATOM     27  C   UNL A   1      29.739  26.016  25.293  1.00  0.00     0.282 C 
ENDBRANCH  24  26
ENDBRANCH  15  24
BRANCH  22  28
ATOM     28  C   UNL A   1      33.721  19.637  24.467  1.00  0.00     0.299 C 
BRANCH  28  29
ATOM     29  C   UNL A   1      33.613  18.141  24.674  1.00  0.00     0.006 A 
ATOM     30  C   UNL A   1      34.679  17.298  24.337  1.00  0.00     0.009 A 
ATOM     31  C   UNL A   1      32.479  17.578  25.279  1.00  0.00     0.009 A 
ATOM     32  C   UNL A   1      34.658  15.949  24.694  1.00  0.00     0.001 A 
ATOM     33  C   UNL A   1      32.461  16.230  25.645  1.00  0.00     0.001 A 
ATOM     34  C   UNL A   1      33.560  15.422  25.369  1.00  0.00     0.000 A 
ENDBRANCH  28  29
ENDBRANCH  22  28
ENDBRANCH  11  14
ENDBRANCH   8  10
ENDBRANCH   4   7
ENDBRANCH   2   3
ENDBRANCH   1   2
BRANCH   1  35
ATOM     35  C   UNL A   1      34.371  33.585  28.089  1.00  0.00     0.023 C 
BRANCH  35  36
ATOM     36  C   UNL A   1      35.019  34.763  28.822  1.00  0.00     0.116 C 
BRANCH  36  37
ATOM     37  N   UNL A   1      34.379  35.108  30.088  1.00  0.00    -0.352 N 
ATOM     38  C   UNL A   1      34.502  34.426  31.289  1.00  0.00     0.251 C 
ATOM     39  H   UNL A   1      33.800  35.905  30.089  1.00  0.00     0.163 HD
ATOM     40  O   UNL A   1      33.674  34.568  32.181  1.00  0.00    -0.269 OA
BRANCH  38  41
ATOM     41  C   UNL A   1      35.663  33.531  31.481  1.00  0.00     0.039 A 
ATOM     42  C   UNL A   1      35.528  32.143  31.532  1.00  0.00     0.014 A 
ATOM     43  C   UNL A   1      36.922  34.114  31.566  1.00  0.00     0.014 A 
ATOM     44  C   UNL A   1      36.680  31.348  31.576  1.00  0.00     0.010 A 
ATOM     45  C   UNL A   1      38.057  33.331  31.529  1.00  0.00     0.010 A 
ATOM     46  C   UNL A   1      37.950  31.944  31.553  1.00  0.00    -0.014 A 
BRANCH  46  47
ATOM     47  C   UNL A   1      39.162  31.138  31.366  1.00  0.00     0.031 A 
ATOM     48  C   UNL A   1      39.910  30.801  32.610  1.00  0.00     0.074 A 
ATOM     49  C   UNL A   1      39.481  30.481  30.228  1.00  0.00     0.049 A 
ATOM     50  N   UNL A   1      41.126  31.115  32.909  1.00  0.00    -0.248 NA
ATOM     51  C   UNL A   1      39.199  30.088  33.683  1.00  0.00     0.031 C 
ATOM     52  C   UNL A   1      38.713  30.410  28.986  1.00  0.00     0.029 A 
ATOM     53  N   UNL A   1      40.512  29.618  29.992  1.00  0.00    -0.354 N 
ATOM     54  C   UNL A   1      41.410  30.480  34.115  1.00  0.00     0.074 A 
ATOM     55  C   UNL A   1      40.150  29.987  34.614  1.00  0.00     0.031 C 
ATOM     56  C   UNL A   1      39.156  29.373  28.239  1.00  0.00     0.029 A 
ATOM     57  C   UNL A   1      40.348  28.828  28.860  1.00  0.00     0.049 A 
ATOM     58  H   UNL A   1      41.304  29.561  30.573  1.00  0.00     0.167 HD
ATOM     59  C   UNL A   1      42.689  30.239  34.518  1.00  0.00     0.037 A 
ATOM     60  C   UNL A   1      41.118  27.784  28.462  1.00  0.00     0.037 A 
ATOM     61  C   UNL A   1      43.641  30.991  33.740  1.00  0.00     0.049 A 
ATOM     62  C   UNL A   1      42.441  27.943  29.108  1.00  0.00     0.074 A 
ATOM     63  C   UNL A   1      43.838  32.334  33.475  1.00  0.00     0.029 A 
ATOM     64  N   UNL A   1      44.374  30.320  32.791  1.00  0.00    -0.354 N 
ATOM     65  N   UNL A   1      43.274  28.908  28.832  1.00  0.00    -0.248 NA
ATOM     66  C   UNL A   1      42.679  27.254  30.365  1.00  0.00     0.031 C 
ATOM     67  C   UNL A   1      44.249  32.385  32.111  1.00  0.00     0.029 A 
ATOM     68  C   UNL A   1      44.331  31.073  31.645  1.00  0.00     0.049 A 
ATOM     69  H   UNL A   1      44.841  29.462  32.912  1.00  0.00     0.167 HD
ATOM     70  C   UNL A   1      43.841  29.239  30.052  1.00  0.00     0.074 A 
ATOM     71  C   UNL A   1      43.533  28.112  30.928  1.00  0.00     0.031 C 
ATOM     72  C   UNL A   1      44.258  30.512  30.314  1.00  0.00     0.037 A 
BRANCH  59  73
ATOM     73  C   UNL A   1      43.115  29.088  35.399  1.00  0.00     0.058 A 
ATOM     74  C   UNL A   1      43.908  29.339  36.538  1.00  0.00     0.135 A 
ATOM     75  C   UNL A   1      43.006  27.733  35.019  1.00  0.00     0.135 A 
ATOM     76  F   UNL A   1      44.093  30.593  36.981  1.00  0.00    -0.206 F 
ATOM     77  C   UNL A   1      44.595  28.326  37.209  1.00  0.00     0.059 A 
ATOM     78  C   UNL A   1      43.637  26.701  35.707  1.00  0.00     0.059 A 
ATOM     79  F   UNL A   1      42.364  27.358  33.904  1.00  0.00    -0.206 F 
ATOM     80  C   UNL A   1      44.465  27.011  36.773  1.00  0.00     0.060 A 
BRANCH  80  81
ATOM     81  S   UNL A   1      45.438  25.717  37.565  1.00  0.00     0.124 S 
ATOM     82  O   UNL A   1      46.403  26.506  38.322  1.00  0.00    -0.237 OA
ATOM     83  O   UNL A   1      44.430  25.014  38.352  1.00  0.00    -0.237 OA
ATOM     84  O   UNL A   1      45.978  24.967  36.436  1.00  0.00    -0.744 OA
ENDBRANCH  80  81
ENDBRANCH  59  73
BRANCH  60  85
ATOM     85  C   UNL A   1      40.703  26.525  27.796  1.00  0.00     0.058 A 
ATOM     86  C   UNL A   1      41.420  26.001  26.706  1.00  0.00     0.135 A 
ATOM     87  C   UNL A   1      39.778  25.655  28.407  1.00  0.00     0.135 A 
ATOM     88  F   UNL A   1      42.342  26.750  26.082  1.00  0.00    -0.206 F 
ATOM     89  C   UNL A   1      41.269  24.677  26.281  1.00  0.00     0.059 A 
ATOM     90  C   UNL A   1      39.593  24.338  27.988  1.00  0.00     0.059 A 
ATOM     91  F   UNL A   1      39.110  26.030  29.507  1.00  0.00    -0.206 F 
ATOM     92  C   UNL A   1      40.367  23.845  26.945  1.00  0.00     0.060 A 
BRANCH  92  93
ATOM     93  S   UNL A   1      40.321  22.083  26.539  1.00  0.00     0.124 S 
ATOM     94  O   UNL A   1      39.011  21.951  25.912  1.00  0.00    -0.237 OA
ATOM     95  O   UNL A   1      41.472  21.941  25.653  1.00  0.00    -0.237 OA
ATOM     96  O   UNL A   1      40.456  21.434  27.841  1.00  0.00    -0.744 OA
ENDBRANCH  92  93
ENDBRANCH  60  85
BRANCH  72  97
ATOM     97  C   UNL A   1      44.416  31.466  29.157  1.00  0.00     0.058 A 
ATOM     98  C   UNL A   1      45.545  31.533  28.320  1.00  0.00     0.135 A 
ATOM     99  C   UNL A   1      43.318  32.268  28.807  1.00  0.00     0.135 A 
ATOM    100  F   UNL A   1      46.596  30.724  28.508  1.00  0.00    -0.206 F 
ATOM    101  C   UNL A   1      45.602  32.398  27.225  1.00  0.00     0.059 A 
ATOM    102  C   UNL A   1      43.338  33.112  27.700  1.00  0.00     0.059 A 
ATOM    103  F   UNL A   1      42.185  32.206  29.526  1.00  0.00    -0.206 F 
ATOM    104  C   UNL A   1      44.492  33.188  26.924  1.00  0.00     0.060 A 
BRANCH 104 105
ATOM    105  S   UNL A   1      44.546  34.265  25.475  1.00  0.00     0.124 S 
ATOM    106  O   UNL A   1      43.525  35.256  25.793  1.00  0.00    -0.237 OA
ATOM    107  O   UNL A   1      45.924  34.748  25.488  1.00  0.00    -0.237 OA
ATOM    108  O   UNL A   1      44.221  33.366  24.371  1.00  0.00    -0.744 OA
ENDBRANCH 104 105
ENDBRANCH  72  97
ENDBRANCH  46  47
ENDBRANCH  38  41
ENDBRANCH  36  37
ENDBRANCH  35  36
ENDBRANCH   1  35
TORSDOF 20
ENDMDL
MODEL 2
REMARK VINA RESULT:     -12.1      1.619      2.392
REMARK SMILES COC(=O)c1c(NC(=O)[C@@H]2C[C@@H]2C(=O)NCCCCNC(=O)c2ccc(-c3c4nc(c(-c5c(F)cc(S(=O)(=O)[O-])cc5F)c5ccc([nH]5)c(-c5c(F)cc(S(=O)(=O)[O-])cc5F)c5nc(c(-c6c(F)cc(S(=O)(=O)[O-])cc6F)c6ccc3[nH]6)C=C5)C=C4)cc2)sc2c1CC[N@@H+](Cc1ccccc1)C2
REMARK SMILES IDX 17 1 16 2 15 3 13 4 14 5 12 7 10 8 11 9 8 10 7 11 9 13 6 14
REMARK SMILES IDX 5 15 91 16 89 17 90 18 92 19 102 20 93 21 94 22 3 24 4 25
REMARK SMILES IDX 2 26 1 27 95 28 96 29 97 30 101 31 98 32 100 33 99 34 18 35
REMARK SMILES IDX 19 36 20 37 21 38 22 40 23 41 24 42 88 43 25 44 87 45 26 46
REMARK SMILES IDX 27 47 28 48 81 49 29 50 86 51 80 52 82 53 30 54 85 55 79 56
REMARK SMILES IDX 78 57 31 59 65 60 44 61 64 62 45 63 48 64 63 65 83 66 46 67
REMARK SMILES IDX 47 68 62 70 84 71 49 72 32 73 33 74 42 75 34 76 35 77 41 78
REMARK SMILES IDX 43 79 36 80 37 81 38 82 39 83 40 84 66 85 67 86 76 87 68 88
REMARK SMILES IDX 69 89 75 90 77 91 70 92 71 93 72 94 73 95 74 96 50 97 51 98
REMARK SMILES IDX 60 99 52 100 53 101 59 102 61 103 54 104 55 105 56 106
REMARK SMILES IDX 57 107 58 108
REMARK H PARENT 15 6 7 12 94 23 20 39 82 58 48 69
REMARK Flexibility Score: inf
ROOT
ATOM      1  C   UNL A   1      36.090  31.732  28.006  1.00  0.00     0.023 C 
ENDROOT
BRANCH   1   2
ATOM      2  C   UNL A   1      35.333  30.510  27.496  1.00  0.00     0.116 C 
BRANCH   2   3
ATOM      3  N   UNL A   1      34.065  30.787  26.882  1.00  0.00    -0.356 N 
ATOM      4  C   UNL A   1      33.258  29.998  26.112  1.00  0.00     0.223 C 
ATOM      5  O   UNL A   1      32.105  30.394  25.936  1.00  0.00    -0.275 OA
ATOM      6  H   UNL A   1      33.721  31.696  27.041  1.00  0.00     0.163 HD
BRANCH   4   7
ATOM      7  C   UNL A   1      33.641  28.736  25.418  1.00  0.00     0.091 C 
ATOM      8  C   UNL A   1      33.093  27.685  24.486  1.00  0.00     0.092 C 
ATOM      9  C   UNL A   1      32.821  27.559  25.946  1.00  0.00     0.028 C 
BRANCH   8  10
ATOM     10  C   UNL A   1      32.020  27.801  23.487  1.00  0.00     0.228 C 
ATOM     11  N   UNL A   1      31.276  26.707  23.119  1.00  0.00    -0.317 N 
ATOM     12  H   UNL A   1      30.500  26.888  22.542  1.00  0.00     0.170 HD
ATOM     13  O   UNL A   1      31.790  28.893  22.973  1.00  0.00    -0.274 OA
BRANCH  11  14
ATOM     14  C   UNL A   1      31.481  25.389  23.457  1.00  0.00     0.110 A 
ATOM     15  C   UNL A   1      32.153  24.295  22.941  1.00  0.00     0.098 A 
ATOM     16  C   UNL A   1      31.819  23.104  23.693  1.00  0.00    -0.006 A 
ATOM     17  S   UNL A   1      30.669  25.040  24.909  1.00  0.00    -0.116 S 
ATOM     18  C   UNL A   1      31.053  23.403  24.801  1.00  0.00     0.065 A 
ATOM     19  C   UNL A   1      32.387  21.716  23.527  1.00  0.00     0.099 C 
ATOM     20  C   UNL A   1      30.760  22.433  25.896  1.00  0.00     0.310 C 
ATOM     21  C   UNL A   1      32.159  20.808  24.768  1.00  0.00     0.267 C 
ATOM     22  N   UNL A   1      31.848  21.468  26.046  1.00  0.00    -0.326 N 
ATOM     23  H   UNL A   1      31.501  20.718  26.644  1.00  0.00     0.348 HD
BRANCH  15  24
ATOM     24  C   UNL A   1      33.154  24.331  21.888  1.00  0.00     0.341 C 
ATOM     25  O   UNL A   1      33.904  23.393  21.629  1.00  0.00    -0.246 OA
BRANCH  24  26
ATOM     26  O   UNL A   1      33.186  25.531  21.238  1.00  0.00    -0.465 OA
ATOM     27  C   UNL A   1      32.627  25.502  19.927  1.00  0.00     0.282 C 
ENDBRANCH  24  26
ENDBRANCH  15  24
BRANCH  22  28
ATOM     28  C   UNL A   1      32.977  21.908  26.875  1.00  0.00     0.299 C 
BRANCH  28  29
ATOM     29  C   UNL A   1      34.155  22.544  26.166  1.00  0.00     0.006 A 
ATOM     30  C   UNL A   1      35.131  21.747  25.555  1.00  0.00     0.009 A 
ATOM     31  C   UNL A   1      34.250  23.938  26.039  1.00  0.00     0.009 A 
ATOM     32  C   UNL A   1      36.113  22.323  24.747  1.00  0.00     0.001 A 
ATOM     33  C   UNL A   1      35.227  24.514  25.223  1.00  0.00     0.001 A 
ATOM     34  C   UNL A   1      36.146  23.703  24.562  1.00  0.00     0.000 A 
ENDBRANCH  28  29
ENDBRANCH  22  28
ENDBRANCH  11  14
ENDBRANCH   8  10
ENDBRANCH   4   7
ENDBRANCH   2   3
ENDBRANCH   1   2
BRANCH   1  35
ATOM     35  C   UNL A   1      35.243  33.002  28.160  1.00  0.00     0.023 C 
BRANCH  35  36
ATOM     36  C   UNL A   1      34.083  32.898  29.152  1.00  0.00     0.116 C 
BRANCH  36  37
ATOM     37  N   UNL A   1      34.021  33.989  30.120  1.00  0.00    -0.352 N 
ATOM     38  C   UNL A   1      34.708  34.068  31.323  1.00  0.00     0.251 C 
ATOM     39  H   UNL A   1      33.432  34.747  29.897  1.00  0.00     0.163 HD
ATOM     40  O   UNL A   1      34.335  34.823  32.212  1.00  0.00    -0.269 OA
BRANCH  38  41
ATOM     41  C   UNL A   1      35.913  33.230  31.507  1.00  0.00     0.039 A 
ATOM     42  C   UNL A   1      35.830  31.863  31.779  1.00  0.00     0.014 A 
ATOM     43  C   UNL A   1      37.153  33.838  31.357  1.00  0.00     0.014 A 
ATOM     44  C   UNL A   1      37.005  31.103  31.804  1.00  0.00     0.010 A 
ATOM     45  C   UNL A   1      38.302  33.076  31.303  1.00  0.00     0.010 A 
ATOM     46  C   UNL A   1      38.244  31.708  31.545  1.00  0.00    -0.014 A 
BRANCH  46  47
ATOM     47  C   UNL A   1      39.453  30.902  31.338  1.00  0.00     0.031 A 
ATOM     48  C   UNL A   1      40.212  30.551  32.571  1.00  0.00     0.074 A 
ATOM     49  C   UNL A   1      39.759  30.255  30.191  1.00  0.00     0.049 A 
ATOM     50  N   UNL A   1      41.432  30.860  32.862  1.00  0.00    -0.248 NA
ATOM     51  C   UNL A   1      39.510  29.829  33.644  1.00  0.00     0.031 C 
ATOM     52  C   UNL A   1      38.979  30.197  28.955  1.00  0.00     0.029 A 
ATOM     53  N   UNL A   1      40.787  29.393  29.936  1.00  0.00    -0.354 N 
ATOM     54  C   UNL A   1      41.725  30.213  34.059  1.00  0.00     0.074 A 
ATOM     55  C   UNL A   1      40.469  29.718  34.565  1.00  0.00     0.031 C 
ATOM     56  C   UNL A   1      39.414  29.167  28.195  1.00  0.00     0.029 A 
ATOM     57  C   UNL A   1      40.611  28.614  28.799  1.00  0.00     0.049 A 
ATOM     58  H   UNL A   1      41.585  29.329  30.510  1.00  0.00     0.167 HD
ATOM     59  C   UNL A   1      43.009  29.966  34.447  1.00  0.00     0.037 A 
ATOM     60  C   UNL A   1      41.375  27.572  28.384  1.00  0.00     0.037 A 
ATOM     61  C   UNL A   1      43.955  30.724  33.667  1.00  0.00     0.049 A 
ATOM     62  C   UNL A   1      42.704  27.723  29.018  1.00  0.00     0.074 A 
ATOM     63  C   UNL A   1      44.151  32.069  33.414  1.00  0.00     0.029 A 
ATOM     64  N   UNL A   1      44.677  30.061  32.705  1.00  0.00    -0.354 N 
ATOM     65  N   UNL A   1      43.537  28.690  28.744  1.00  0.00    -0.248 NA
ATOM     66  C   UNL A   1      42.953  27.021  30.266  1.00  0.00     0.031 C 
ATOM     67  C   UNL A   1      44.549  32.133  32.046  1.00  0.00     0.029 A 
ATOM     68  C   UNL A   1      44.624  30.825  31.567  1.00  0.00     0.049 A 
ATOM     69  H   UNL A   1      45.143  29.201  32.813  1.00  0.00     0.167 HD
ATOM     70  C   UNL A   1      44.116  29.007  29.961  1.00  0.00     0.074 A 
ATOM     71  C   UNL A   1      43.814  27.872  30.829  1.00  0.00     0.031 C 
ATOM     72  C   UNL A   1      44.537  30.277  30.232  1.00  0.00     0.037 A 
BRANCH  59  73
ATOM     73  C   UNL A   1      43.441  28.806  35.313  1.00  0.00     0.058 A 
ATOM     74  C   UNL A   1      44.240  29.045  36.450  1.00  0.00     0.135 A 
ATOM     75  C   UNL A   1      43.331  27.455  34.918  1.00  0.00     0.135 A 
ATOM     76  F   UNL A   1      44.426  30.295  36.905  1.00  0.00    -0.206 F 
ATOM     77  C   UNL A   1      44.932  28.026  37.106  1.00  0.00     0.059 A 
ATOM     78  C   UNL A   1      43.967  26.416  35.591  1.00  0.00     0.059 A 
ATOM     79  F   UNL A   1      42.683  27.092  33.804  1.00  0.00    -0.206 F 
ATOM     80  C   UNL A   1      44.801  26.716  36.656  1.00  0.00     0.060 A 
BRANCH  80  81
ATOM     81  S   UNL A   1      45.780  25.414  37.428  1.00  0.00     0.124 S 
ATOM     82  O   UNL A   1      47.026  25.507  36.676  1.00  0.00    -0.237 OA
ATOM     83  O   UNL A   1      45.837  25.856  38.818  1.00  0.00    -0.237 OA
ATOM     84  O   UNL A   1      44.985  24.213  37.192  1.00  0.00    -0.744 OA
ENDBRANCH  80  81
ENDBRANCH  59  73
BRANCH  60  85
ATOM     85  C   UNL A   1      40.951  26.320  27.709  1.00  0.00     0.058 A 
ATOM     86  C   UNL A   1      41.704  25.760  26.662  1.00  0.00     0.135 A 
ATOM     87  C   UNL A   1      39.967  25.489  28.281  1.00  0.00     0.135 A 
ATOM     88  F   UNL A   1      42.682  26.471  26.079  1.00  0.00    -0.206 F 
ATOM     89  C   UNL A   1      41.529  24.437  26.243  1.00  0.00     0.059 A 
ATOM     90  C   UNL A   1      39.759  24.175  27.866  1.00  0.00     0.059 A 
ATOM     91  F   UNL A   1      39.258  25.898  29.342  1.00  0.00    -0.206 F 
ATOM     92  C   UNL A   1      40.567  23.644  26.868  1.00  0.00     0.060 A 
BRANCH  92  93
ATOM     93  S   UNL A   1      40.482  21.880  26.477  1.00  0.00     0.124 S 
ATOM     94  O   UNL A   1      40.569  21.272  27.800  1.00  0.00    -0.237 OA
ATOM     95  O   UNL A   1      39.188  21.775  25.810  1.00  0.00    -0.237 OA
ATOM     96  O   UNL A   1      41.643  21.669  25.617  1.00  0.00    -0.744 OA
ENDBRANCH  92  93
ENDBRANCH  60  85
BRANCH  72  97
ATOM     97  C   UNL A   1      44.686  31.242  29.082  1.00  0.00     0.058 A 
ATOM     98  C   UNL A   1      45.787  31.285  28.207  1.00  0.00     0.135 A 
ATOM     99  C   UNL A   1      43.603  32.083  28.781  1.00  0.00     0.135 A 
ATOM    100  F   UNL A   1      46.817  30.441  28.348  1.00  0.00    -0.206 F 
ATOM    101  C   UNL A   1      45.834  32.164  27.122  1.00  0.00     0.059 A 
ATOM    102  C   UNL A   1      43.612  32.942  27.685  1.00  0.00     0.059 A 
ATOM    103  F   UNL A   1      42.493  32.046  29.538  1.00  0.00    -0.206 F 
ATOM    104  C   UNL A   1      44.740  32.992  26.871  1.00  0.00     0.060 A 
BRANCH 104 105
ATOM    105  S   UNL A   1      44.779  34.087  25.435  1.00  0.00     0.124 S 
ATOM    106  O   UNL A   1      46.081  34.730  25.575  1.00  0.00    -0.237 OA
ATOM    107  O   UNL A   1      44.649  33.155  24.319  1.00  0.00    -0.237 OA
ATOM    108  O   UNL A   1      43.627  34.961  25.642  1.00  0.00    -0.744 OA
ENDBRANCH 104 105
ENDBRANCH  72  97
ENDBRANCH  46  47
ENDBRANCH  38  41
ENDBRANCH  36  37
ENDBRANCH  35  36
ENDBRANCH   1  35
TORSDOF 20
ENDMDL
MODEL 3
REMARK VINA RESULT:     -10.4      2.353      6.952
REMARK SMILES COC(=O)c1c(NC(=O)[C@@H]2C[C@@H]2C(=O)NCCCCNC(=O)c2ccc(-c3c4nc(c(-c5c(F)cc(S(=O)(=O)[O-])cc5F)c5ccc([nH]5)c(-c5c(F)cc(S(=O)(=O)[O-])cc5F)c5nc(c(-c6c(F)cc(S(=O)(=O)[O-])cc6F)c6ccc3[nH]6)C=C5)C=C4)cc2)sc2c1CC[N@@H+](Cc1ccccc1)C2
REMARK SMILES IDX 17 1 16 2 15 3 13 4 14 5 12 7 10 8 11 9 8 10 7 11 9 13 6 14
REMARK SMILES IDX 5 15 91 16 89 17 90 18 92 19 102 20 93 21 94 22 3 24 4 25
REMARK SMILES IDX 2 26 1 27 95 28 96 29 97 30 101 31 98 32 100 33 99 34 18 35
REMARK SMILES IDX 19 36 20 37 21 38 22 40 23 41 24 42 88 43 25 44 87 45 26 46
REMARK SMILES IDX 27 47 28 48 81 49 29 50 86 51 80 52 82 53 30 54 85 55 79 56
REMARK SMILES IDX 78 57 31 59 65 60 44 61 64 62 45 63 48 64 63 65 83 66 46 67
REMARK SMILES IDX 47 68 62 70 84 71 49 72 32 73 33 74 42 75 34 76 35 77 41 78
REMARK SMILES IDX 43 79 36 80 37 81 38 82 39 83 40 84 66 85 67 86 76 87 68 88
REMARK SMILES IDX 69 89 75 90 77 91 70 92 71 93 72 94 73 95 74 96 50 97 51 98
REMARK SMILES IDX 60 99 52 100 53 101 59 102 61 103 54 104 55 105 56 106
REMARK SMILES IDX 57 107 58 108
REMARK H PARENT 15 6 7 12 94 23 20 39 82 58 48 69
REMARK Flexibility Score: inf
ROOT
ATOM      1  C   UNL A   1      35.598  31.420  29.565  1.00  0.00     0.023 C 
ENDROOT
BRANCH   1   2
ATOM      2  C   UNL A   1      35.606  31.675  28.061  1.00  0.00     0.116 C 
BRANCH   2   3
ATOM      3  N   UNL A   1      34.313  31.716  27.439  1.00  0.00    -0.356 N 
ATOM      4  C   UNL A   1      33.403  30.722  27.212  1.00  0.00     0.223 C 
ATOM      5  O   UNL A   1      32.265  31.076  26.901  1.00  0.00    -0.275 OA
ATOM      6  H   UNL A   1      34.036  32.607  27.124  1.00  0.00     0.163 HD
BRANCH   4   7
ATOM      7  C   UNL A   1      33.656  29.255  27.247  1.00  0.00     0.091 C 
ATOM      8  C   UNL A   1      33.407  27.991  26.463  1.00  0.00     0.092 C 
ATOM      9  C   UNL A   1      32.344  28.483  27.384  1.00  0.00     0.028 C 
BRANCH   8  10
ATOM     10  C   UNL A   1      33.189  27.827  25.017  1.00  0.00     0.228 C 
ATOM     11  N   UNL A   1      33.060  26.577  24.461  1.00  0.00    -0.317 N 
ATOM     12  H   UNL A   1      32.793  26.554  23.514  1.00  0.00     0.170 HD
ATOM     13  O   UNL A   1      33.125  28.821  24.300  1.00  0.00    -0.274 OA
BRANCH  11  14
ATOM     14  C   UNL A   1      33.257  25.356  25.062  1.00  0.00     0.110 A 
ATOM     15  C   UNL A   1      32.574  24.523  25.930  1.00  0.00     0.098 A 
ATOM     16  C   UNL A   1      33.424  23.425  26.341  1.00  0.00    -0.006 A 
ATOM     17  S   UNL A   1      34.764  24.726  24.590  1.00  0.00    -0.116 S 
ATOM     18  C   UNL A   1      34.616  23.421  25.647  1.00  0.00     0.065 A 
ATOM     19  C   UNL A   1      33.057  22.247  27.209  1.00  0.00     0.099 C 
ATOM     20  C   UNL A   1      35.587  22.288  25.667  1.00  0.00     0.310 C 
ATOM     21  C   UNL A   1      34.045  21.053  27.069  1.00  0.00     0.267 C 
ATOM     22  N   UNL A   1      34.900  21.013  25.873  1.00  0.00    -0.326 N 
ATOM     23  H   UNL A   1      35.616  20.320  26.092  1.00  0.00     0.348 HD
BRANCH  15  24
ATOM     24  C   UNL A   1      31.169  24.633  26.288  1.00  0.00     0.341 C 
ATOM     25  O   UNL A   1      30.679  25.624  26.823  1.00  0.00    -0.246 OA
BRANCH  24  26
ATOM     26  O   UNL A   1      30.464  23.503  25.987  1.00  0.00    -0.465 OA
ATOM     27  C   UNL A   1      29.707  22.979  27.075  1.00  0.00     0.282 C 
ENDBRANCH  24  26
ENDBRANCH  15  24
BRANCH  22  28
ATOM     28  C   UNL A   1      34.348  20.387  24.665  1.00  0.00     0.299 C 
BRANCH  28  29
ATOM     29  C   UNL A   1      34.004  18.914  24.739  1.00  0.00     0.006 A 
ATOM     30  C   UNL A   1      32.680  18.503  24.933  1.00  0.00     0.009 A 
ATOM     31  C   UNL A   1      34.988  17.934  24.536  1.00  0.00     0.009 A 
ATOM     32  C   UNL A   1      32.331  17.156  24.819  1.00  0.00     0.001 A 
ATOM     33  C   UNL A   1      34.638  16.588  24.412  1.00  0.00     0.001 A 
ATOM     34  C   UNL A   1      33.306  16.203  24.534  1.00  0.00     0.000 A 
ENDBRANCH  28  29
ENDBRANCH  22  28
ENDBRANCH  11  14
ENDBRANCH   8  10
ENDBRANCH   4   7
ENDBRANCH   2   3
ENDBRANCH   1   2
BRANCH   1  35
ATOM     35  C   UNL A   1      34.756  32.405  30.386  1.00  0.00     0.023 C 
BRANCH  35  36
ATOM     36  C   UNL A   1      35.081  32.456  31.881  1.00  0.00     0.116 C 
BRANCH  36  37
ATOM     37  N   UNL A   1      35.693  33.707  32.319  1.00  0.00    -0.352 N 
ATOM     38  C   UNL A   1      37.011  33.890  32.711  1.00  0.00     0.251 C 
ATOM     39  H   UNL A   1      35.112  34.502  32.339  1.00  0.00     0.163 HD
ATOM     40  O   UNL A   1      37.338  34.859  33.386  1.00  0.00    -0.269 OA
BRANCH  38  41
ATOM     41  C   UNL A   1      38.021  32.897  32.287  1.00  0.00     0.039 A 
ATOM     42  C   UNL A   1      38.454  32.800  30.963  1.00  0.00     0.014 A 
ATOM     43  C   UNL A   1      38.570  32.075  33.264  1.00  0.00     0.014 A 
ATOM     44  C   UNL A   1      39.510  31.934  30.655  1.00  0.00     0.010 A 
ATOM     45  C   UNL A   1      39.662  31.283  32.975  1.00  0.00     0.010 A 
ATOM     46  C   UNL A   1      40.131  31.188  31.670  1.00  0.00    -0.014 A 
BRANCH  46  47
ATOM     47  C   UNL A   1      41.377  30.455  31.417  1.00  0.00     0.031 A 
ATOM     48  C   UNL A   1      42.426  31.207  30.673  1.00  0.00     0.074 A 
ATOM     49  C   UNL A   1      41.726  29.299  32.024  1.00  0.00     0.049 A 
ATOM     50  N   UNL A   1      42.954  30.906  29.533  1.00  0.00    -0.248 NA
ATOM     51  C   UNL A   1      42.899  32.486  31.227  1.00  0.00     0.031 C 
ATOM     52  C   UNL A   1      40.982  28.557  33.041  1.00  0.00     0.029 A 
ATOM     53  N   UNL A   1      42.901  28.607  31.949  1.00  0.00    -0.354 N 
ATOM     54  C   UNL A   1      43.962  31.840  29.309  1.00  0.00     0.074 A 
ATOM     55  C   UNL A   1      43.785  32.867  30.305  1.00  0.00     0.031 C 
ATOM     56  C   UNL A   1      41.811  27.687  33.662  1.00  0.00     0.029 A 
ATOM     57  C   UNL A   1      43.084  27.680  32.968  1.00  0.00     0.049 A 
ATOM     58  H   UNL A   1      43.561  28.753  31.234  1.00  0.00     0.167 HD
ATOM     59  C   UNL A   1      44.985  31.600  28.440  1.00  0.00     0.037 A 
ATOM     60  C   UNL A   1      44.204  26.967  33.246  1.00  0.00     0.037 A 
ATOM     61  C   UNL A   1      44.705  30.470  27.590  1.00  0.00     0.049 A 
ATOM     62  C   UNL A   1      45.014  26.923  32.007  1.00  0.00     0.074 A 
ATOM     63  C   UNL A   1      43.698  30.147  26.699  1.00  0.00     0.029 A 
ATOM     64  N   UNL A   1      45.352  29.287  27.854  1.00  0.00    -0.354 N 
ATOM     65  N   UNL A   1      44.653  26.293  30.922  1.00  0.00    -0.248 NA
ATOM     66  C   UNL A   1      46.054  27.922  31.829  1.00  0.00     0.031 C 
ATOM     67  C   UNL A   1      43.483  28.749  26.874  1.00  0.00     0.029 A 
ATOM     68  C   UNL A   1      44.406  28.295  27.818  1.00  0.00     0.049 A 
ATOM     69  H   UNL A   1      46.313  29.174  28.035  1.00  0.00     0.167 HD
ATOM     70  C   UNL A   1      45.076  27.109  29.887  1.00  0.00     0.074 A 
ATOM     71  C   UNL A   1      46.036  28.025  30.498  1.00  0.00     0.031 C 
ATOM     72  C   UNL A   1      44.403  27.150  28.700  1.00  0.00     0.037 A 
BRANCH  59  73
ATOM     73  C   UNL A   1      46.375  32.178  28.561  1.00  0.00     0.058 A 
ATOM     74  C   UNL A   1      46.963  32.817  27.450  1.00  0.00     0.135 A 
ATOM     75  C   UNL A   1      47.248  31.890  29.633  1.00  0.00     0.135 A 
ATOM     76  F   UNL A   1      46.228  33.125  26.370  1.00  0.00    -0.206 F 
ATOM     77  C   UNL A   1      48.331  33.088  27.381  1.00  0.00     0.059 A 
ATOM     78  C   UNL A   1      48.604  32.202  29.607  1.00  0.00     0.059 A 
ATOM     79  F   UNL A   1      46.847  31.202  30.710  1.00  0.00    -0.206 F 
ATOM     80  C   UNL A   1      49.145  32.760  28.460  1.00  0.00     0.060 A 
BRANCH  80  81
ATOM     81  S   UNL A   1      50.926  33.004  28.330  1.00  0.00     0.124 S 
ATOM     82  O   UNL A   1      51.277  32.024  27.310  1.00  0.00    -0.237 OA
ATOM     83  O   UNL A   1      51.015  34.405  27.929  1.00  0.00    -0.237 OA
ATOM     84  O   UNL A   1      51.402  32.714  29.679  1.00  0.00    -0.744 OA
ENDBRANCH  80  81
ENDBRANCH  59  73
BRANCH  60  85
ATOM     85  C   UNL A   1      44.748  26.567  34.567  1.00  0.00     0.058 A 
ATOM     86  C   UNL A   1      45.261  27.519  35.467  1.00  0.00     0.135 A 
ATOM     87  C   UNL A   1      44.496  25.285  35.094  1.00  0.00     0.135 A 
ATOM     88  F   UNL A   1      45.503  28.773  35.058  1.00  0.00    -0.206 F 
ATOM     89  C   UNL A   1      45.461  27.231  36.822  1.00  0.00     0.059 A 
ATOM     90  C   UNL A   1      44.708  24.969  36.435  1.00  0.00     0.059 A 
ATOM     91  F   UNL A   1      43.926  24.335  34.341  1.00  0.00    -0.206 F 
ATOM     92  C   UNL A   1      45.159  25.957  37.302  1.00  0.00     0.060 A 
BRANCH  92  93
ATOM     93  S   UNL A   1      45.214  25.643  39.082  1.00  0.00     0.124 S 
ATOM     94  O   UNL A   1      46.562  26.081  39.425  1.00  0.00    -0.237 OA
ATOM     95  O   UNL A   1      44.125  26.480  39.575  1.00  0.00    -0.237 OA
ATOM     96  O   UNL A   1      44.983  24.204  39.178  1.00  0.00    -0.744 OA
ENDBRANCH  92  93
ENDBRANCH  60  85
BRANCH  72  97
ATOM     97  C   UNL A   1      43.411  26.054  28.402  1.00  0.00     0.058 A 
ATOM     98  C   UNL A   1      42.047  26.089  28.747  1.00  0.00     0.135 A 
ATOM     99  C   UNL A   1      43.841  24.968  27.624  1.00  0.00     0.135 A 
ATOM    100  F   UNL A   1      41.523  27.139  29.392  1.00  0.00    -0.206 F 
ATOM    101  C   UNL A   1      41.169  25.066  28.386  1.00  0.00     0.059 A 
ATOM    102  C   UNL A   1      42.976  23.954  27.222  1.00  0.00     0.059 A 
ATOM    103  F   UNL A   1      45.117  24.905  27.205  1.00  0.00    -0.206 F 
ATOM    104  C   UNL A   1      41.643  23.999  27.624  1.00  0.00     0.060 A 
BRANCH 104 105
ATOM    105  S   UNL A   1      40.493  22.704  27.110  1.00  0.00     0.124 S 
ATOM    106  O   UNL A   1      39.233  23.433  27.021  1.00  0.00    -0.237 OA
ATOM    107  O   UNL A   1      41.060  22.260  25.840  1.00  0.00    -0.237 OA
ATOM    108  O   UNL A   1      40.574  21.728  28.193  1.00  0.00    -0.744 OA
ENDBRANCH 104 105
ENDBRANCH  72  97
ENDBRANCH  46  47
ENDBRANCH  38  41
ENDBRANCH  36  37
ENDBRANCH  35  36
ENDBRANCH   1  35
TORSDOF 20
ENDMDL
