MODEL 1
REMARK VINA RESULT:     -10.7      0.000      0.000
REMARK SMILES CC(C)C[C@@H](C(=O)NCCCCNC(=O)c1ccc(-c2c3nc(c(-c4c(F)cc(S(=O)(=O)[O-])cc4F)c4ccc([nH]4)c(-c4c(F)cc(S(=O)(=O)[O-])cc4F)c4nc(c(-c5c(F)cc(S(=O)(=O)[O-])cc5F)c5ccc2[nH]5)C=C4)C=C3)cc1)[C@@H]1CCC[C@@H](C)C1
REMARK SMILES IDX 11 1 10 2 9 3 8 4 6 5 7 6 5 8 4 9 2 10 1 11 3 12 82 13 83 14
REMARK SMILES IDX 88 15 84 16 86 17 85 18 87 19 12 20 13 21 14 22 15 24 16 25
REMARK SMILES IDX 17 26 81 27 18 28 80 29 19 30 20 31 21 32 74 33 22 34 79 35
REMARK SMILES IDX 73 36 75 37 23 38 78 39 72 40 71 41 24 43 58 44 37 45 57 46
REMARK SMILES IDX 38 47 41 48 56 49 76 50 39 51 40 52 55 54 77 55 42 56 25 57
REMARK SMILES IDX 26 58 35 59 27 60 28 61 34 62 36 63 29 64 30 65 31 66 32 67
REMARK SMILES IDX 33 68 59 69 60 70 69 71 61 72 62 73 68 74 70 75 63 76 64 77
REMARK SMILES IDX 65 78 66 79 67 80 43 81 44 82 53 83 45 84 46 85 52 86 54 87
REMARK SMILES IDX 47 88 48 89 49 90 50 91 51 92
REMARK H PARENT 8 7 13 23 75 42 41 53
REMARK Flexibility Score: inf
ROOT
ATOM      1  C   UNL A   1      32.151  27.887  26.832  1.00  0.00     0.023 C 
ENDROOT
BRANCH   1   2
ATOM      2  C   UNL A   1      32.186  27.113  25.521  1.00  0.00     0.023 C 
BRANCH   2   3
ATOM      3  C   UNL A   1      33.576  26.912  24.940  1.00  0.00     0.116 C 
BRANCH   3   4
ATOM      4  N   UNL A   1      33.591  26.388  23.591  1.00  0.00    -0.356 N 
ATOM      5  C   UNL A   1      33.864  25.103  23.199  1.00  0.00     0.223 C 
ATOM      6  O   UNL A   1      33.725  24.802  22.013  1.00  0.00    -0.275 OA
ATOM      7  H   UNL A   1      33.382  27.029  22.873  1.00  0.00     0.163 HD
BRANCH   5   8
ATOM      8  C   UNL A   1      34.358  24.065  24.237  1.00  0.00     0.082 C 
BRANCH   8   9
ATOM      9  C   UNL A   1      35.633  23.375  23.631  1.00  0.00     0.016 C 
BRANCH   9  10
ATOM     10  C   UNL A   1      36.978  23.198  24.367  1.00  0.00    -0.017 C 
ATOM     11  C   UNL A   1      37.037  23.821  25.768  1.00  0.00     0.007 C 
ATOM     12  C   UNL A   1      37.275  21.699  24.542  1.00  0.00     0.007 C 
ENDBRANCH   9  10
ENDBRANCH   8   9
BRANCH   8  13
ATOM     13  C   UNL A   1      33.087  23.368  24.838  1.00  0.00     0.002 C 
ATOM     14  C   UNL A   1      33.013  23.578  26.383  1.00  0.00     0.004 C 
ATOM     15  C   UNL A   1      32.878  21.881  24.575  1.00  0.00     0.007 C 
ATOM     16  C   UNL A   1      33.912  22.633  27.193  1.00  0.00     0.001 C 
ATOM     17  C   UNL A   1      33.921  21.011  25.276  1.00  0.00    -0.014 C 
ATOM     18  C   UNL A   1      33.759  21.166  26.787  1.00  0.00     0.003 C 
ATOM     19  C   UNL A   1      33.786  19.563  24.817  1.00  0.00     0.007 C 
ENDBRANCH   8  13
ENDBRANCH   5   8
ENDBRANCH   3   4
ENDBRANCH   2   3
ENDBRANCH   1   2
BRANCH   1  20
ATOM     20  C   UNL A   1      33.492  28.448  27.293  1.00  0.00     0.116 C 
BRANCH  20  21
ATOM     21  N   UNL A   1      33.444  29.861  27.647  1.00  0.00    -0.352 N 
ATOM     22  C   UNL A   1      34.436  30.648  28.187  1.00  0.00     0.251 C 
ATOM     23  H   UNL A   1      32.587  30.314  27.479  1.00  0.00     0.163 HD
ATOM     24  O   UNL A   1      34.192  31.801  28.529  1.00  0.00    -0.269 OA
BRANCH  22  25
ATOM     25  C   UNL A   1      35.785  30.078  28.385  1.00  0.00     0.039 A 
ATOM     26  C   UNL A   1      36.702  30.122  27.334  1.00  0.00     0.014 A 
ATOM     27  C   UNL A   1      36.158  29.558  29.628  1.00  0.00     0.014 A 
ATOM     28  C   UNL A   1      38.022  29.721  27.555  1.00  0.00     0.010 A 
ATOM     29  C   UNL A   1      37.491  29.243  29.869  1.00  0.00     0.010 A 
ATOM     30  C   UNL A   1      38.438  29.324  28.837  1.00  0.00    -0.014 A 
BRANCH  30  31
ATOM     31  C   UNL A   1      39.859  28.997  29.121  1.00  0.00     0.031 A 
ATOM     32  C   UNL A   1      40.772  30.043  29.704  1.00  0.00     0.074 A 
ATOM     33  C   UNL A   1      40.347  27.787  28.783  1.00  0.00     0.049 A 
ATOM     34  N   UNL A   1      42.054  29.974  29.953  1.00  0.00    -0.248 NA
ATOM     35  C   UNL A   1      40.169  31.348  30.019  1.00  0.00     0.031 C 
ATOM     36  C   UNL A   1      39.581  26.711  28.152  1.00  0.00     0.029 A 
ATOM     37  N   UNL A   1      41.610  27.262  28.908  1.00  0.00    -0.354 N 
ATOM     38  C   UNL A   1      42.412  31.225  30.440  1.00  0.00     0.074 A 
ATOM     39  C   UNL A   1      41.227  32.051  30.393  1.00  0.00     0.031 C 
ATOM     40  C   UNL A   1      40.382  25.651  27.961  1.00  0.00     0.029 A 
ATOM     41  C   UNL A   1      41.728  25.982  28.421  1.00  0.00     0.049 A 
ATOM     42  H   UNL A   1      42.361  27.756  29.309  1.00  0.00     0.167 HD
ATOM     43  C   UNL A   1      43.613  31.640  30.911  1.00  0.00     0.037 A 
ATOM     44  C   UNL A   1      42.800  25.168  28.343  1.00  0.00     0.037 A 
ATOM     45  C   UNL A   1      44.784  30.806  30.973  1.00  0.00     0.049 A 
ATOM     46  C   UNL A   1      44.122  25.645  28.879  1.00  0.00     0.074 A 
ATOM     47  C   UNL A   1      46.033  31.113  31.486  1.00  0.00     0.029 A 
ATOM     48  N   UNL A   1      44.855  29.502  30.503  1.00  0.00    -0.354 N 
ATOM     49  N   UNL A   1      44.425  26.808  29.407  1.00  0.00    -0.248 NA
ATOM     50  C   UNL A   1      45.244  24.699  28.822  1.00  0.00     0.031 C 
ATOM     51  C   UNL A   1      46.871  30.010  31.286  1.00  0.00     0.029 A 
ATOM     52  C   UNL A   1      46.131  28.997  30.696  1.00  0.00     0.049 A 
ATOM     53  H   UNL A   1      44.108  29.008  30.094  1.00  0.00     0.167 HD
ATOM     54  C   UNL A   1      45.767  26.726  29.763  1.00  0.00     0.074 A 
ATOM     55  C   UNL A   1      46.211  25.394  29.406  1.00  0.00     0.031 C 
ATOM     56  C   UNL A   1      46.558  27.667  30.336  1.00  0.00     0.037 A 
BRANCH  43  57
ATOM     57  C   UNL A   1      43.711  33.061  31.400  1.00  0.00     0.058 A 
ATOM     58  C   UNL A   1      44.204  34.089  30.580  1.00  0.00     0.135 A 
ATOM     59  C   UNL A   1      43.299  33.401  32.698  1.00  0.00     0.135 A 
ATOM     60  F   UNL A   1      44.626  33.819  29.335  1.00  0.00    -0.206 F 
ATOM     61  C   UNL A   1      44.323  35.395  31.042  1.00  0.00     0.059 A 
ATOM     62  C   UNL A   1      43.380  34.708  33.171  1.00  0.00     0.059 A 
ATOM     63  F   UNL A   1      42.819  32.459  33.525  1.00  0.00    -0.206 F 
ATOM     64  C   UNL A   1      43.913  35.695  32.342  1.00  0.00     0.060 A 
BRANCH  64  65
ATOM     65  S   UNL A   1      44.089  37.391  32.932  1.00  0.00     0.124 S 
ATOM     66  O   UNL A   1      45.483  37.405  33.364  1.00  0.00    -0.237 OA
ATOM     67  O   UNL A   1      43.790  38.171  31.735  1.00  0.00    -0.237 OA
ATOM     68  O   UNL A   1      43.100  37.484  34.001  1.00  0.00    -0.744 OA
ENDBRANCH  64  65
ENDBRANCH  43  57
BRANCH  44  69
ATOM     69  C   UNL A   1      42.656  23.812  27.750  1.00  0.00     0.058 A 
ATOM     70  C   UNL A   1      42.741  23.615  26.363  1.00  0.00     0.135 A 
ATOM     71  C   UNL A   1      42.455  22.682  28.558  1.00  0.00     0.135 A 
ATOM     72  F   UNL A   1      42.925  24.664  25.547  1.00  0.00    -0.206 F 
ATOM     73  C   UNL A   1      42.624  22.349  25.798  1.00  0.00     0.059 A 
ATOM     74  C   UNL A   1      42.360  21.403  28.018  1.00  0.00     0.059 A 
ATOM     75  F   UNL A   1      42.383  22.814  29.892  1.00  0.00    -0.206 F 
ATOM     76  C   UNL A   1      42.438  21.248  26.635  1.00  0.00     0.060 A 
BRANCH  76  77
ATOM     77  S   UNL A   1      42.349  19.602  25.896  1.00  0.00     0.124 S 
ATOM     78  O   UNL A   1      43.321  19.713  24.814  1.00  0.00    -0.237 OA
ATOM     79  O   UNL A   1      42.731  18.744  27.013  1.00  0.00    -0.237 OA
ATOM     80  O   UNL A   1      40.953  19.495  25.483  1.00  0.00    -0.744 OA
ENDBRANCH  76  77
ENDBRANCH  44  69
BRANCH  56  81
ATOM     81  C   UNL A   1      47.981  27.284  30.640  1.00  0.00     0.058 A 
ATOM     82  C   UNL A   1      48.329  26.612  31.821  1.00  0.00     0.135 A 
ATOM     83  C   UNL A   1      49.000  27.548  29.710  1.00  0.00     0.135 A 
ATOM     84  F   UNL A   1      47.394  26.341  32.746  1.00  0.00    -0.206 F 
ATOM     85  C   UNL A   1      49.643  26.234  32.082  1.00  0.00     0.059 A 
ATOM     86  C   UNL A   1      50.316  27.155  29.937  1.00  0.00     0.059 A 
ATOM     87  F   UNL A   1      48.720  28.180  28.559  1.00  0.00    -0.206 F 
ATOM     88  C   UNL A   1      50.629  26.508  31.132  1.00  0.00     0.060 A 
BRANCH  88  89
ATOM     89  S   UNL A   1      52.324  25.984  31.467  1.00  0.00     0.124 S 
ATOM     90  O   UNL A   1      52.117  24.632  31.977  1.00  0.00    -0.237 OA
ATOM     91  O   UNL A   1      52.945  26.076  30.149  1.00  0.00    -0.237 OA
ATOM     92  O   UNL A   1      52.795  26.959  32.444  1.00  0.00    -0.744 OA
ENDBRANCH  88  89
ENDBRANCH  56  81
ENDBRANCH  30  31
ENDBRANCH  22  25
ENDBRANCH  20  21
ENDBRANCH   1  20
TORSDOF 17
ENDMDL
MODEL 2
REMARK VINA RESULT:     -10.7      1.026      2.205
REMARK SMILES CC(C)C[C@@H](C(=O)NCCCCNC(=O)c1ccc(-c2c3nc(c(-c4c(F)cc(S(=O)(=O)[O-])cc4F)c4ccc([nH]4)c(-c4c(F)cc(S(=O)(=O)[O-])cc4F)c4nc(c(-c5c(F)cc(S(=O)(=O)[O-])cc5F)c5ccc2[nH]5)C=C4)C=C3)cc1)[C@@H]1CCC[C@@H](C)C1
REMARK SMILES IDX 11 1 10 2 9 3 8 4 6 5 7 6 5 8 4 9 2 10 1 11 3 12 82 13 83 14
REMARK SMILES IDX 88 15 84 16 86 17 85 18 87 19 12 20 13 21 14 22 15 24 16 25
REMARK SMILES IDX 17 26 81 27 18 28 80 29 19 30 20 31 21 32 74 33 22 34 79 35
REMARK SMILES IDX 73 36 75 37 23 38 78 39 72 40 71 41 24 43 58 44 37 45 57 46
REMARK SMILES IDX 38 47 41 48 56 49 76 50 39 51 40 52 55 54 77 55 42 56 25 57
REMARK SMILES IDX 26 58 35 59 27 60 28 61 34 62 36 63 29 64 30 65 31 66 32 67
REMARK SMILES IDX 33 68 59 69 60 70 69 71 61 72 62 73 68 74 70 75 63 76 64 77
REMARK SMILES IDX 65 78 66 79 67 80 43 81 44 82 53 83 45 84 46 85 52 86 54 87
REMARK SMILES IDX 47 88 48 89 49 90 50 91 51 92
REMARK H PARENT 8 7 13 23 75 42 41 53
REMARK Flexibility Score: inf
ROOT
ATOM      1  C   UNL A   1      32.383  27.724  27.280  1.00  0.00     0.023 C 
ENDROOT
BRANCH   1   2
ATOM      2  C   UNL A   1      31.520  27.522  26.042  1.00  0.00     0.023 C 
BRANCH   2   3
ATOM      3  C   UNL A   1      31.486  26.096  25.518  1.00  0.00     0.116 C 
BRANCH   3   4
ATOM      4  N   UNL A   1      31.291  25.088  26.538  1.00  0.00    -0.356 N 
ATOM      5  C   UNL A   1      31.955  23.895  26.670  1.00  0.00     0.223 C 
ATOM      6  O   UNL A   1      31.738  23.202  27.664  1.00  0.00    -0.275 OA
ATOM      7  H   UNL A   1      30.600  25.279  27.213  1.00  0.00     0.163 HD
BRANCH   5   8
ATOM      8  C   UNL A   1      32.943  23.434  25.570  1.00  0.00     0.082 C 
BRANCH   8   9
ATOM      9  C   UNL A   1      32.185  22.385  24.679  1.00  0.00     0.016 C 
BRANCH   9  10
ATOM     10  C   UNL A   1      32.009  22.487  23.149  1.00  0.00    -0.017 C 
ATOM     11  C   UNL A   1      33.092  23.295  22.424  1.00  0.00     0.007 C 
ATOM     12  C   UNL A   1      32.029  21.076  22.534  1.00  0.00     0.007 C 
ENDBRANCH   9  10
ENDBRANCH   8   9
BRANCH   8  13
ATOM     13  C   UNL A   1      34.350  23.277  26.245  1.00  0.00     0.002 C 
ATOM     14  C   UNL A   1      35.391  24.244  25.599  1.00  0.00     0.004 C 
ATOM     15  C   UNL A   1      34.989  21.892  26.287  1.00  0.00     0.007 C 
ATOM     16  C   UNL A   1      35.976  23.748  24.269  1.00  0.00     0.001 C 
ATOM     17  C   UNL A   1      35.386  21.390  24.900  1.00  0.00    -0.014 C 
ATOM     18  C   UNL A   1      36.473  22.303  24.337  1.00  0.00     0.003 C 
ATOM     19  C   UNL A   1      35.828  19.932  24.980  1.00  0.00     0.007 C 
ENDBRANCH   8  13
ENDBRANCH   5   8
ENDBRANCH   3   4
ENDBRANCH   2   3
ENDBRANCH   1   2
BRANCH   1  20
ATOM     20  C   UNL A   1      33.647  28.551  27.065  1.00  0.00     0.116 C 
BRANCH  20  21
ATOM     21  N   UNL A   1      33.560  29.902  27.605  1.00  0.00    -0.352 N 
ATOM     22  C   UNL A   1      34.519  30.623  28.280  1.00  0.00     0.251 C 
ATOM     23  H   UNL A   1      32.700  30.360  27.470  1.00  0.00     0.163 HD
ATOM     24  O   UNL A   1      34.242  31.716  28.766  1.00  0.00    -0.269 OA
BRANCH  22  25
ATOM     25  C   UNL A   1      35.871  30.051  28.446  1.00  0.00     0.039 A 
ATOM     26  C   UNL A   1      36.772  30.119  27.383  1.00  0.00     0.014 A 
ATOM     27  C   UNL A   1      36.264  29.505  29.672  1.00  0.00     0.014 A 
ATOM     28  C   UNL A   1      38.096  29.716  27.575  1.00  0.00     0.010 A 
ATOM     29  C   UNL A   1      37.601  29.188  29.886  1.00  0.00     0.010 A 
ATOM     30  C   UNL A   1      38.532  29.292  28.842  1.00  0.00    -0.014 A 
BRANCH  30  31
ATOM     31  C   UNL A   1      39.958  28.962  29.098  1.00  0.00     0.031 A 
ATOM     32  C   UNL A   1      40.890  30.011  29.640  1.00  0.00     0.074 A 
ATOM     33  C   UNL A   1      40.431  27.743  28.770  1.00  0.00     0.049 A 
ATOM     34  N   UNL A   1      42.178  29.939  29.860  1.00  0.00    -0.248 NA
ATOM     35  C   UNL A   1      40.302  31.325  29.946  1.00  0.00     0.031 C 
ATOM     36  C   UNL A   1      39.643  26.661  28.175  1.00  0.00     0.029 A 
ATOM     37  N   UNL A   1      41.693  27.213  28.874  1.00  0.00    -0.354 N 
ATOM     38  C   UNL A   1      42.554  31.196  30.317  1.00  0.00     0.074 A 
ATOM     39  C   UNL A   1      41.373  32.029  30.283  1.00  0.00     0.031 C 
ATOM     40  C   UNL A   1      40.434  25.592  27.984  1.00  0.00     0.029 A 
ATOM     41  C   UNL A   1      41.792  25.923  28.407  1.00  0.00     0.049 A 
ATOM     42  H   UNL A   1      42.456  27.709  29.248  1.00  0.00     0.167 HD
ATOM     43  C   UNL A   1      43.768  31.612  30.752  1.00  0.00     0.037 A 
ATOM     44  C   UNL A   1      42.857  25.102  28.317  1.00  0.00     0.037 A 
ATOM     45  C   UNL A   1      44.936  30.772  30.800  1.00  0.00     0.049 A 
ATOM     46  C   UNL A   1      44.195  25.580  28.813  1.00  0.00     0.074 A 
ATOM     47  C   UNL A   1      46.198  31.080  31.277  1.00  0.00     0.029 A 
ATOM     48  N   UNL A   1      44.988  29.460  30.352  1.00  0.00    -0.354 N 
ATOM     49  N   UNL A   1      44.517  26.750  29.313  1.00  0.00    -0.248 NA
ATOM     50  C   UNL A   1      45.310  24.626  28.745  1.00  0.00     0.031 C 
ATOM     51  C   UNL A   1      47.024  29.969  31.077  1.00  0.00     0.029 A 
ATOM     52  C   UNL A   1      46.265  28.950  30.523  1.00  0.00     0.049 A 
ATOM     53  H   UNL A   1      44.229  28.964  29.969  1.00  0.00     0.167 HD
ATOM     54  C   UNL A   1      45.866  26.666  29.638  1.00  0.00     0.074 A 
ATOM     55  C   UNL A   1      46.294  25.325  29.294  1.00  0.00     0.031 C 
ATOM     56  C   UNL A   1      46.676  27.612  30.176  1.00  0.00     0.037 A 
BRANCH  43  57
ATOM     57  C   UNL A   1      43.886  33.040  31.213  1.00  0.00     0.058 A 
ATOM     58  C   UNL A   1      44.129  34.088  30.310  1.00  0.00     0.135 A 
ATOM     59  C   UNL A   1      43.745  33.368  32.571  1.00  0.00     0.135 A 
ATOM     60  F   UNL A   1      44.286  33.832  29.002  1.00  0.00    -0.206 F 
ATOM     61  C   UNL A   1      44.267  35.403  30.740  1.00  0.00     0.059 A 
ATOM     62  C   UNL A   1      43.849  34.682  33.020  1.00  0.00     0.059 A 
ATOM     63  F   UNL A   1      43.511  32.407  33.478  1.00  0.00    -0.206 F 
ATOM     64  C   UNL A   1      44.131  35.690  32.099  1.00  0.00     0.060 A 
BRANCH  64  65
ATOM     65  S   UNL A   1      44.331  37.399  32.644  1.00  0.00     0.124 S 
ATOM     66  O   UNL A   1      44.362  38.108  31.368  1.00  0.00    -0.237 OA
ATOM     67  O   UNL A   1      43.136  37.609  33.456  1.00  0.00    -0.237 OA
ATOM     68  O   UNL A   1      45.590  37.376  33.381  1.00  0.00    -0.744 OA
ENDBRANCH  64  65
ENDBRANCH  43  57
BRANCH  44  69
ATOM     69  C   UNL A   1      42.691  23.736  27.751  1.00  0.00     0.058 A 
ATOM     70  C   UNL A   1      42.521  22.622  28.586  1.00  0.00     0.135 A 
ATOM     71  C   UNL A   1      42.672  23.522  26.364  1.00  0.00     0.135 A 
ATOM     72  F   UNL A   1      42.538  22.774  29.919  1.00  0.00    -0.206 F 
ATOM     73  C   UNL A   1      42.349  21.342  28.068  1.00  0.00     0.059 A 
ATOM     74  C   UNL A   1      42.477  22.255  25.822  1.00  0.00     0.059 A 
ATOM     75  F   UNL A   1      42.814  24.557  25.521  1.00  0.00    -0.206 F 
ATOM     76  C   UNL A   1      42.323  21.169  26.683  1.00  0.00     0.060 A 
BRANCH  76  77
ATOM     77  S   UNL A   1      42.036  19.514  26.020  1.00  0.00     0.124 S 
ATOM     78  O   UNL A   1      42.527  18.674  27.107  1.00  0.00    -0.237 OA
ATOM     79  O   UNL A   1      40.591  19.513  25.814  1.00  0.00    -0.237 OA
ATOM     80  O   UNL A   1      42.836  19.499  24.799  1.00  0.00    -0.744 OA
ENDBRANCH  76  77
ENDBRANCH  44  69
BRANCH  56  81
ATOM     81  C   UNL A   1      48.104  27.226  30.452  1.00  0.00     0.058 A 
ATOM     82  C   UNL A   1      49.140  27.538  29.558  1.00  0.00     0.135 A 
ATOM     83  C   UNL A   1      48.444  26.582  31.653  1.00  0.00     0.135 A 
ATOM     84  F   UNL A   1      48.868  28.148  28.394  1.00  0.00    -0.206 F 
ATOM     85  C   UNL A   1      50.462  27.204  29.835  1.00  0.00     0.059 A 
ATOM     86  C   UNL A   1      49.763  26.263  31.962  1.00  0.00     0.059 A 
ATOM     87  F   UNL A   1      47.493  26.269  32.547  1.00  0.00    -0.206 F 
ATOM     88  C   UNL A   1      50.764  26.568  31.041  1.00  0.00     0.060 A 
BRANCH  88  89
ATOM     89  S   UNL A   1      52.487  26.170  31.403  1.00  0.00     0.124 S 
ATOM     90  O   UNL A   1      52.867  27.277  32.275  1.00  0.00    -0.237 OA
ATOM     91  O   UNL A   1      52.377  24.865  32.047  1.00  0.00    -0.237 OA
ATOM     92  O   UNL A   1      53.118  26.161  30.087  1.00  0.00    -0.744 OA
ENDBRANCH  88  89
ENDBRANCH  56  81
ENDBRANCH  30  31
ENDBRANCH  22  25
ENDBRANCH  20  21
ENDBRANCH   1  20
TORSDOF 17
ENDMDL
MODEL 3
REMARK VINA RESULT:     -10.5      2.841      9.410
REMARK SMILES CC(C)C[C@@H](C(=O)NCCCCNC(=O)c1ccc(-c2c3nc(c(-c4c(F)cc(S(=O)(=O)[O-])cc4F)c4ccc([nH]4)c(-c4c(F)cc(S(=O)(=O)[O-])cc4F)c4nc(c(-c5c(F)cc(S(=O)(=O)[O-])cc5F)c5ccc2[nH]5)C=C4)C=C3)cc1)[C@@H]1CCC[C@@H](C)C1
REMARK SMILES IDX 11 1 10 2 9 3 8 4 6 5 7 6 5 8 4 9 2 10 1 11 3 12 82 13 83 14
REMARK SMILES IDX 88 15 84 16 86 17 85 18 87 19 12 20 13 21 14 22 15 24 16 25
REMARK SMILES IDX 17 26 81 27 18 28 80 29 19 30 20 31 21 32 74 33 22 34 79 35
REMARK SMILES IDX 73 36 75 37 23 38 78 39 72 40 71 41 24 43 58 44 37 45 57 46
REMARK SMILES IDX 38 47 41 48 56 49 76 50 39 51 40 52 55 54 77 55 42 56 25 57
REMARK SMILES IDX 26 58 35 59 27 60 28 61 34 62 36 63 29 64 30 65 31 66 32 67
REMARK SMILES IDX 33 68 59 69 60 70 69 71 61 72 62 73 68 74 70 75 63 76 64 77
REMARK SMILES IDX 65 78 66 79 67 80 43 81 44 82 53 83 45 84 46 85 52 86 54 87
REMARK SMILES IDX 47 88 48 89 49 90 50 91 51 92
REMARK H PARENT 8 7 13 23 75 42 41 53
REMARK Flexibility Score: inf
ROOT
ATOM      1  C   UNL A   1      35.877  23.705  25.867  1.00  0.00     0.023 C 
ENDROOT
BRANCH   1   2
ATOM      2  C   UNL A   1      34.751  24.646  25.462  1.00  0.00     0.023 C 
BRANCH   2   3
ATOM      3  C   UNL A   1      33.763  24.062  24.466  1.00  0.00     0.116 C 
BRANCH   3   4
ATOM      4  N   UNL A   1      33.931  24.534  23.109  1.00  0.00    -0.356 N 
ATOM      5  C   UNL A   1      33.404  25.670  22.550  1.00  0.00     0.223 C 
ATOM      6  O   UNL A   1      33.738  25.980  21.406  1.00  0.00    -0.275 OA
ATOM      7  H   UNL A   1      34.487  23.976  22.518  1.00  0.00     0.163 HD
BRANCH   5   8
ATOM      8  C   UNL A   1      32.390  26.526  23.348  1.00  0.00     0.082 C 
BRANCH   8   9
ATOM      9  C   UNL A   1      30.963  25.930  23.073  1.00  0.00     0.016 C 
BRANCH   9  10
ATOM     10  C   UNL A   1      29.903  25.634  24.155  1.00  0.00    -0.017 C 
ATOM     11  C   UNL A   1      30.332  25.965  25.590  1.00  0.00     0.007 C 
ATOM     12  C   UNL A   1      28.636  26.460  23.874  1.00  0.00     0.007 C 
ENDBRANCH   9  10
ENDBRANCH   8   9
BRANCH   8  13
ATOM     13  C   UNL A   1      32.843  28.023  23.220  1.00  0.00     0.002 C 
ATOM     14  C   UNL A   1      33.600  28.490  24.502  1.00  0.00     0.004 C 
ATOM     15  C   UNL A   1      31.788  29.080  22.911  1.00  0.00     0.007 C 
ATOM     16  C   UNL A   1      32.685  28.869  25.675  1.00  0.00     0.001 C 
ATOM     17  C   UNL A   1      30.804  29.278  24.063  1.00  0.00    -0.014 C 
ATOM     18  C   UNL A   1      31.561  29.825  25.271  1.00  0.00     0.003 C 
ATOM     19  C   UNL A   1      29.662  30.190  23.623  1.00  0.00     0.007 C 
ENDBRANCH   8  13
ENDBRANCH   5   8
ENDBRANCH   3   4
ENDBRANCH   2   3
ENDBRANCH   1   2
BRANCH   1  20
ATOM     20  C   UNL A   1      37.119  23.757  24.982  1.00  0.00     0.116 C 
BRANCH  20  21
ATOM     21  N   UNL A   1      38.138  22.781  25.345  1.00  0.00    -0.352 N 
ATOM     22  C   UNL A   1      39.259  22.955  26.125  1.00  0.00     0.251 C 
ATOM     23  H   UNL A   1      38.007  21.875  24.985  1.00  0.00     0.163 HD
ATOM     24  O   UNL A   1      40.077  22.047  26.242  1.00  0.00    -0.269 OA
BRANCH  22  25
ATOM     25  C   UNL A   1      39.486  24.257  26.786  1.00  0.00     0.039 A 
ATOM     26  C   UNL A   1      38.986  24.461  28.073  1.00  0.00     0.014 A 
ATOM     27  C   UNL A   1      40.244  25.248  26.156  1.00  0.00     0.014 A 
ATOM     28  C   UNL A   1      39.319  25.629  28.763  1.00  0.00     0.010 A 
ATOM     29  C   UNL A   1      40.646  26.368  26.876  1.00  0.00     0.010 A 
ATOM     30  C   UNL A   1      40.191  26.570  28.188  1.00  0.00    -0.014 A 
BRANCH  30  31
ATOM     31  C   UNL A   1      40.645  27.766  28.944  1.00  0.00     0.031 A 
ATOM     32  C   UNL A   1      41.987  27.763  29.625  1.00  0.00     0.074 A 
ATOM     33  C   UNL A   1      39.819  28.822  29.083  1.00  0.00     0.049 A 
ATOM     34  N   UNL A   1      42.527  28.677  30.389  1.00  0.00    -0.248 NA
ATOM     35  C   UNL A   1      42.817  26.560  29.449  1.00  0.00     0.031 C 
ATOM     36  C   UNL A   1      38.468  28.919  28.526  1.00  0.00     0.029 A 
ATOM     37  N   UNL A   1      39.987  30.011  29.749  1.00  0.00    -0.354 N 
ATOM     38  C   UNL A   1      43.751  28.157  30.793  1.00  0.00     0.074 A 
ATOM     39  C   UNL A   1      43.845  26.823  30.241  1.00  0.00     0.031 C 
ATOM     40  C   UNL A   1      37.938  30.108  28.858  1.00  0.00     0.029 A 
ATOM     41  C   UNL A   1      38.894  30.843  29.681  1.00  0.00     0.049 A 
ATOM     42  H   UNL A   1      40.814  30.246  30.229  1.00  0.00     0.167 HD
ATOM     43  C   UNL A   1      44.721  28.746  31.533  1.00  0.00     0.037 A 
ATOM     44  C   UNL A   1      38.680  32.056  30.229  1.00  0.00     0.037 A 
ATOM     45  C   UNL A   1      44.628  30.081  32.063  1.00  0.00     0.049 A 
ATOM     46  C   UNL A   1      39.773  32.697  31.040  1.00  0.00     0.074 A 
ATOM     47  C   UNL A   1      45.578  30.791  32.776  1.00  0.00     0.029 A 
ATOM     48  N   UNL A   1      43.519  30.907  31.943  1.00  0.00    -0.354 N 
ATOM     49  N   UNL A   1      40.956  32.219  31.350  1.00  0.00    -0.248 NA
ATOM     50  C   UNL A   1      39.510  34.042  31.567  1.00  0.00     0.031 C 
ATOM     51  C   UNL A   1      45.027  32.030  33.125  1.00  0.00     0.029 A 
ATOM     52  C   UNL A   1      43.753  32.112  32.586  1.00  0.00     0.049 A 
ATOM     53  H   UNL A   1      42.688  30.671  31.471  1.00  0.00     0.167 HD
ATOM     54  C   UNL A   1      41.585  33.214  32.090  1.00  0.00     0.074 A 
ATOM     55  C   UNL A   1      40.658  34.326  32.166  1.00  0.00     0.031 C 
ATOM     56  C   UNL A   1      42.820  33.209  32.652  1.00  0.00     0.037 A 
BRANCH  43  57
ATOM     57  C   UNL A   1      45.967  27.946  31.805  1.00  0.00     0.058 A 
ATOM     58  C   UNL A   1      47.125  28.100  31.025  1.00  0.00     0.135 A 
ATOM     59  C   UNL A   1      46.008  27.023  32.862  1.00  0.00     0.135 A 
ATOM     60  F   UNL A   1      47.138  28.957  29.993  1.00  0.00    -0.206 F 
ATOM     61  C   UNL A   1      48.266  27.339  31.258  1.00  0.00     0.059 A 
ATOM     62  C   UNL A   1      47.150  26.273  33.133  1.00  0.00     0.059 A 
ATOM     63  F   UNL A   1      44.931  26.836  33.641  1.00  0.00    -0.206 F 
ATOM     64  C   UNL A   1      48.267  26.424  32.312  1.00  0.00     0.060 A 
BRANCH  64  65
ATOM     65  S   UNL A   1      49.749  25.432  32.590  1.00  0.00     0.124 S 
ATOM     66  O   UNL A   1      49.298  24.524  33.639  1.00  0.00    -0.237 OA
ATOM     67  O   UNL A   1      49.971  24.828  31.281  1.00  0.00    -0.237 OA
ATOM     68  O   UNL A   1      50.746  26.417  32.999  1.00  0.00    -0.744 OA
ENDBRANCH  64  65
ENDBRANCH  43  57
BRANCH  44  69
ATOM     69  C   UNL A   1      37.382  32.747  30.007  1.00  0.00     0.058 A 
ATOM     70  C   UNL A   1      37.258  33.768  29.054  1.00  0.00     0.135 A 
ATOM     71  C   UNL A   1      36.233  32.382  30.725  1.00  0.00     0.135 A 
ATOM     72  F   UNL A   1      38.330  34.158  28.346  1.00  0.00    -0.206 F 
ATOM     73  C   UNL A   1      36.046  34.411  28.826  1.00  0.00     0.059 A 
ATOM     74  C   UNL A   1      35.003  32.993  30.498  1.00  0.00     0.059 A 
ATOM     75  F   UNL A   1      36.293  31.399  31.637  1.00  0.00    -0.206 F 
ATOM     76  C   UNL A   1      34.921  34.012  29.550  1.00  0.00     0.060 A 
BRANCH  76  77
ATOM     77  S   UNL A   1      33.338  34.810  29.204  1.00  0.00     0.124 S 
ATOM     78  O   UNL A   1      32.726  33.860  28.281  1.00  0.00    -0.237 OA
ATOM     79  O   UNL A   1      32.738  34.889  30.532  1.00  0.00    -0.237 OA
ATOM     80  O   UNL A   1      33.729  36.092  28.624  1.00  0.00    -0.744 OA
ENDBRANCH  76  77
ENDBRANCH  44  69
BRANCH  56  81
ATOM     81  C   UNL A   1      43.255  34.453  33.378  1.00  0.00     0.058 A 
ATOM     82  C   UNL A   1      43.810  35.549  32.699  1.00  0.00     0.135 A 
ATOM     83  C   UNL A   1      43.065  34.568  34.765  1.00  0.00     0.135 A 
ATOM     84  F   UNL A   1      44.019  35.489  31.375  1.00  0.00    -0.206 F 
ATOM     85  C   UNL A   1      44.182  36.708  33.374  1.00  0.00     0.059 A 
ATOM     86  C   UNL A   1      43.404  35.728  35.455  1.00  0.00     0.059 A 
ATOM     87  F   UNL A   1      42.529  33.553  35.462  1.00  0.00    -0.206 F 
ATOM     88  C   UNL A   1      43.974  36.789  34.752  1.00  0.00     0.060 A 
BRANCH  88  89
ATOM     89  S   UNL A   1      44.430  38.310  35.610  1.00  0.00     0.124 S 
ATOM     90  O   UNL A   1      43.811  38.107  36.916  1.00  0.00    -0.237 OA
ATOM     91  O   UNL A   1      45.889  38.257  35.584  1.00  0.00    -0.237 OA
ATOM     92  O   UNL A   1      43.833  39.357  34.788  1.00  0.00    -0.744 OA
ENDBRANCH  88  89
ENDBRANCH  56  81
ENDBRANCH  30  31
ENDBRANCH  22  25
ENDBRANCH  20  21
ENDBRANCH   1  20
TORSDOF 17
ENDMDL
