MODEL 1
REMARK VINA RESULT:     -12.2      0.000      0.000
REMARK SMILES O=C(Cc1c[nH]c(=O)n(Cc2ccccc2)c1=O)NCCCCNC(=O)c1ccc(-c2c3nc(c(-c4c(F)cc(S(=O)(=O)[O-])cc4F)c4ccc([nH]4)c(-c4c(F)cc(S(=O)(=O)[O-])cc4F)c4nc(c(-c5c(F)cc(S(=O)(=O)[O-])cc5F)c5ccc2[nH]5)C=C4)C=C3)cc1
REMARK SMILES IDX 21 1 20 2 19 3 1 4 2 5 3 7 4 8 5 9 17 10 6 11 9 12 18 13
REMARK SMILES IDX 7 14 8 16 10 17 11 18 12 19 16 20 13 21 15 22 14 23 22 24
REMARK SMILES IDX 23 25 24 26 25 27 26 29 27 30 28 31 92 32 29 33 91 34 30 35
REMARK SMILES IDX 31 36 32 37 85 38 33 39 90 40 84 41 86 42 34 43 89 44 83 45
REMARK SMILES IDX 82 46 35 48 69 49 48 50 68 51 49 52 52 53 67 54 87 55 50 56
REMARK SMILES IDX 51 57 66 59 88 60 53 61 36 62 37 63 46 64 38 65 39 66 45 67
REMARK SMILES IDX 47 68 40 69 41 70 42 71 43 72 44 73 70 74 71 75 80 76 72 77
REMARK SMILES IDX 73 78 79 79 81 80 74 81 75 82 76 83 77 84 78 85 54 86 55 87
REMARK SMILES IDX 64 88 56 89 57 90 63 91 65 92 58 93 59 94 60 95 61 96 62 97
REMARK H PARENT 19 6 6 15 24 28 86 47 52 58
REMARK Flexibility Score: inf
ROOT
ATOM      1  C   UNL A   1      39.845  21.837  26.400  1.00  0.00     0.023 C 
ENDROOT
BRANCH   1   2
ATOM      2  C   UNL A   1      38.681  22.782  26.112  1.00  0.00     0.116 C 
BRANCH   2   3
ATOM      3  N   UNL A   1      37.405  22.097  26.104  1.00  0.00    -0.356 N 
ATOM      4  O   UNL A   1      37.125  22.159  23.821  1.00  0.00    -0.275 OA
ATOM      5  C   UNL A   1      36.757  21.779  24.930  1.00  0.00     0.224 C 
ATOM      6  H   UNL A   1      36.988  21.853  26.962  1.00  0.00     0.163 HD
BRANCH   5   7
ATOM      7  C   UNL A   1      35.462  20.996  25.113  1.00  0.00     0.142 C 
BRANCH   7   8
ATOM      8  C   UNL A   1      34.252  21.688  25.678  1.00  0.00     0.043 A 
ATOM      9  C   UNL A   1      33.660  21.192  26.772  1.00  0.00     0.097 A 
ATOM     10  C   UNL A   1      33.675  22.940  25.097  1.00  0.00     0.260 A 
ATOM     11  N   UNL A   1      32.616  21.822  27.371  1.00  0.00    -0.314 N 
ATOM     12  N   UNL A   1      32.537  23.446  25.708  1.00  0.00    -0.256 N 
ATOM     13  O   UNL A   1      34.205  23.477  24.129  1.00  0.00    -0.269 OA
ATOM     14  C   UNL A   1      32.051  22.979  26.915  1.00  0.00     0.328 A 
ATOM     15  H   UNL A   1      32.243  21.419  28.188  1.00  0.00     0.171 HD
ATOM     16  O   UNL A   1      31.188  23.530  27.594  1.00  0.00    -0.248 OA
BRANCH  12  17
ATOM     17  C   UNL A   1      31.859  24.585  25.099  1.00  0.00     0.166 C 
BRANCH  17  18
ATOM     18  C   UNL A   1      32.267  25.899  25.740  1.00  0.00    -0.028 A 
ATOM     19  C   UNL A   1      31.329  26.661  26.456  1.00  0.00     0.005 A 
ATOM     20  C   UNL A   1      33.576  26.388  25.618  1.00  0.00     0.005 A 
ATOM     21  C   UNL A   1      31.685  27.882  27.029  1.00  0.00     0.000 A 
ATOM     22  C   UNL A   1      33.935  27.605  26.206  1.00  0.00     0.000 A 
ATOM     23  C   UNL A   1      32.988  28.353  26.907  1.00  0.00     0.000 A 
ENDBRANCH  17  18
ENDBRANCH  12  17
ENDBRANCH   7   8
ENDBRANCH   5   7
ENDBRANCH   2   3
ENDBRANCH   1   2
BRANCH   1  24
ATOM     24  C   UNL A   1      40.784  22.290  27.520  1.00  0.00     0.023 C 
BRANCH  24  25
ATOM     25  C   UNL A   1      42.049  23.012  27.068  1.00  0.00     0.116 C 
BRANCH  25  26
ATOM     26  N   UNL A   1      41.826  23.943  25.973  1.00  0.00    -0.352 N 
ATOM     27  C   UNL A   1      41.483  25.276  26.026  1.00  0.00     0.251 C 
ATOM     28  H   UNL A   1      41.933  23.569  25.069  1.00  0.00     0.163 HD
ATOM     29  O   UNL A   1      41.229  25.890  24.992  1.00  0.00    -0.269 OA
BRANCH  27  30
ATOM     30  C   UNL A   1      41.379  25.956  27.337  1.00  0.00     0.039 A 
ATOM     31  C   UNL A   1      40.239  25.809  28.131  1.00  0.00     0.014 A 
ATOM     32  C   UNL A   1      42.420  26.791  27.753  1.00  0.00     0.014 A 
ATOM     33  C   UNL A   1      40.062  26.633  29.238  1.00  0.00     0.010 A 
ATOM     34  C   UNL A   1      42.273  27.559  28.913  1.00  0.00     0.010 A 
ATOM     35  C   UNL A   1      41.068  27.531  29.632  1.00  0.00    -0.014 A 
BRANCH  35  36
ATOM     36  C   UNL A   1      40.823  28.448  30.777  1.00  0.00     0.031 A 
ATOM     37  C   UNL A   1      41.712  28.419  31.994  1.00  0.00     0.074 A 
ATOM     38  C   UNL A   1      39.831  29.357  30.696  1.00  0.00     0.049 A 
ATOM     39  N   UNL A   1      41.671  29.171  33.064  1.00  0.00    -0.248 NA
ATOM     40  C   UNL A   1      42.786  27.412  32.015  1.00  0.00     0.031 C 
ATOM     41  C   UNL A   1      38.902  29.488  29.573  1.00  0.00     0.029 A 
ATOM     42  N   UNL A   1      39.454  30.354  31.559  1.00  0.00    -0.354 N 
ATOM     43  C   UNL A   1      42.693  28.720  33.892  1.00  0.00     0.074 A 
ATOM     44  C   UNL A   1      43.322  27.608  33.212  1.00  0.00     0.031 C 
ATOM     45  C   UNL A   1      38.096  30.539  29.791  1.00  0.00     0.029 A 
ATOM     46  C   UNL A   1      38.415  31.121  31.091  1.00  0.00     0.049 A 
ATOM     47  H   UNL A   1      39.887  30.506  32.431  1.00  0.00     0.167 HD
ATOM     48  C   UNL A   1      43.079  29.194  35.101  1.00  0.00     0.037 A 
ATOM     49  C   UNL A   1      37.781  32.173  31.646  1.00  0.00     0.037 A 
ATOM     50  C   UNL A   1      42.471  30.318  35.764  1.00  0.00     0.049 A 
ATOM     51  C   UNL A   1      38.214  32.669  32.993  1.00  0.00     0.074 A 
ATOM     52  C   UNL A   1      42.821  30.897  36.972  1.00  0.00     0.029 A 
ATOM     53  N   UNL A   1      41.388  31.036  35.278  1.00  0.00    -0.354 N 
ATOM     54  N   UNL A   1      39.192  32.238  33.753  1.00  0.00    -0.248 NA
ATOM     55  C   UNL A   1      37.454  33.789  33.565  1.00  0.00     0.031 C 
ATOM     56  C   UNL A   1      41.927  31.940  37.235  1.00  0.00     0.029 A 
ATOM     57  C   UNL A   1      41.043  32.037  36.173  1.00  0.00     0.049 A 
ATOM     58  H   UNL A   1      40.931  30.859  34.425  1.00  0.00     0.167 HD
ATOM     59  C   UNL A   1      39.165  33.030  34.893  1.00  0.00     0.074 A 
ATOM     60  C   UNL A   1      38.088  33.984  34.714  1.00  0.00     0.031 C 
ATOM     61  C   UNL A   1      39.959  32.970  35.990  1.00  0.00     0.037 A 
BRANCH  48  62
ATOM     62  C   UNL A   1      44.213  28.492  35.796  1.00  0.00     0.058 A 
ATOM     63  C   UNL A   1      45.550  28.868  35.588  1.00  0.00     0.135 A 
ATOM     64  C   UNL A   1      43.957  27.460  36.712  1.00  0.00     0.135 A 
ATOM     65  F   UNL A   1      45.850  29.839  34.712  1.00  0.00    -0.206 F 
ATOM     66  C   UNL A   1      46.595  28.229  36.247  1.00  0.00     0.059 A 
ATOM     67  C   UNL A   1      44.986  26.821  37.400  1.00  0.00     0.059 A 
ATOM     68  F   UNL A   1      42.697  27.063  36.948  1.00  0.00    -0.206 F 
ATOM     69  C   UNL A   1      46.303  27.204  37.150  1.00  0.00     0.060 A 
BRANCH  69  70
ATOM     70  S   UNL A   1      47.672  26.384  37.995  1.00  0.00     0.124 S 
ATOM     71  O   UNL A   1      48.641  26.249  36.912  1.00  0.00    -0.237 OA
ATOM     72  O   UNL A   1      48.017  27.346  39.037  1.00  0.00    -0.237 OA
ATOM     73  O   UNL A   1      47.082  25.136  38.469  1.00  0.00    -0.744 OA
ENDBRANCH  69  70
ENDBRANCH  48  62
BRANCH  49  74
ATOM     74  C   UNL A   1      36.670  32.821  30.903  1.00  0.00     0.058 A 
ATOM     75  C   UNL A   1      35.337  32.626  31.290  1.00  0.00     0.135 A 
ATOM     76  C   UNL A   1      36.925  33.701  29.840  1.00  0.00     0.135 A 
ATOM     77  F   UNL A   1      35.045  31.788  32.297  1.00  0.00    -0.206 F 
ATOM     78  C   UNL A   1      34.293  33.293  30.658  1.00  0.00     0.059 A 
ATOM     79  C   UNL A   1      35.901  34.395  29.207  1.00  0.00     0.059 A 
ATOM     80  F   UNL A   1      38.187  33.928  29.445  1.00  0.00    -0.206 F 
ATOM     81  C   UNL A   1      34.588  34.185  29.624  1.00  0.00     0.060 A 
BRANCH  81  82
ATOM     82  S   UNL A   1      33.235  35.123  28.879  1.00  0.00     0.124 S 
ATOM     83  O   UNL A   1      32.409  35.421  30.043  1.00  0.00    -0.237 OA
ATOM     84  O   UNL A   1      33.939  36.257  28.287  1.00  0.00    -0.237 OA
ATOM     85  O   UNL A   1      32.665  34.182  27.921  1.00  0.00    -0.744 OA
ENDBRANCH  81  82
ENDBRANCH  49  74
BRANCH  61  86
ATOM     86  C   UNL A   1      39.693  33.956  37.092  1.00  0.00     0.058 A 
ATOM     87  C   UNL A   1      38.974  33.588  38.239  1.00  0.00     0.135 A 
ATOM     88  C   UNL A   1      40.214  35.257  37.030  1.00  0.00     0.135 A 
ATOM     89  F   UNL A   1      38.449  32.358  38.342  1.00  0.00    -0.206 F 
ATOM     90  C   UNL A   1      38.771  34.482  39.284  1.00  0.00     0.059 A 
ATOM     91  C   UNL A   1      40.040  36.162  38.073  1.00  0.00     0.059 A 
ATOM     92  F   UNL A   1      40.916  35.654  35.956  1.00  0.00    -0.206 F 
ATOM     93  C   UNL A   1      39.311  35.767  39.193  1.00  0.00     0.060 A 
BRANCH  93  94
ATOM     94  S   UNL A   1      39.077  36.904  40.577  1.00  0.00     0.124 S 
ATOM     95  O   UNL A   1      40.442  37.048  41.072  1.00  0.00    -0.237 OA
ATOM     96  O   UNL A   1      38.512  38.080  39.922  1.00  0.00    -0.237 OA
ATOM     97  O   UNL A   1      38.162  36.184  41.457  1.00  0.00    -0.744 OA
ENDBRANCH  93  94
ENDBRANCH  61  86
ENDBRANCH  35  36
ENDBRANCH  27  30
ENDBRANCH  25  26
ENDBRANCH  24  25
ENDBRANCH   1  24
TORSDOF 17
ENDMDL
MODEL 2
REMARK VINA RESULT:     -12.1      0.844      1.582
REMARK SMILES O=C(Cc1c[nH]c(=O)n(Cc2ccccc2)c1=O)NCCCCNC(=O)c1ccc(-c2c3nc(c(-c4c(F)cc(S(=O)(=O)[O-])cc4F)c4ccc([nH]4)c(-c4c(F)cc(S(=O)(=O)[O-])cc4F)c4nc(c(-c5c(F)cc(S(=O)(=O)[O-])cc5F)c5ccc2[nH]5)C=C4)C=C3)cc1
REMARK SMILES IDX 21 1 20 2 19 3 1 4 2 5 3 7 4 8 5 9 17 10 6 11 9 12 18 13
REMARK SMILES IDX 7 14 8 16 10 17 11 18 12 19 16 20 13 21 15 22 14 23 22 24
REMARK SMILES IDX 23 25 24 26 25 27 26 29 27 30 28 31 92 32 29 33 91 34 30 35
REMARK SMILES IDX 31 36 32 37 85 38 33 39 90 40 84 41 86 42 34 43 89 44 83 45
REMARK SMILES IDX 82 46 35 48 69 49 48 50 68 51 49 52 52 53 67 54 87 55 50 56
REMARK SMILES IDX 51 57 66 59 88 60 53 61 36 62 37 63 46 64 38 65 39 66 45 67
REMARK SMILES IDX 47 68 40 69 41 70 42 71 43 72 44 73 70 74 71 75 80 76 72 77
REMARK SMILES IDX 73 78 79 79 81 80 74 81 75 82 76 83 77 84 78 85 54 86 55 87
REMARK SMILES IDX 64 88 56 89 57 90 63 91 65 92 58 93 59 94 60 95 61 96 62 97
REMARK H PARENT 19 6 6 15 24 28 86 47 52 58
REMARK Flexibility Score: inf
ROOT
ATOM      1  C   UNL A   1      38.641  23.025  26.122  1.00  0.00     0.023 C 
ENDROOT
BRANCH   1   2
ATOM      2  C   UNL A   1      37.426  22.177  25.753  1.00  0.00     0.116 C 
BRANCH   2   3
ATOM      3  N   UNL A   1      36.250  22.538  26.518  1.00  0.00    -0.356 N 
ATOM      4  O   UNL A   1      34.843  21.026  25.504  1.00  0.00    -0.275 OA
ATOM      5  C   UNL A   1      35.053  21.871  26.371  1.00  0.00     0.224 C 
ATOM      6  H   UNL A   1      36.308  23.281  27.161  1.00  0.00     0.163 HD
BRANCH   5   7
ATOM      7  C   UNL A   1      33.947  22.340  27.309  1.00  0.00     0.142 C 
BRANCH   7   8
ATOM      8  C   UNL A   1      32.921  23.320  26.810  1.00  0.00     0.043 A 
ATOM      9  C   UNL A   1      31.626  23.116  27.086  1.00  0.00     0.097 A 
ATOM     10  C   UNL A   1      33.268  24.550  26.033  1.00  0.00     0.260 A 
ATOM     11  N   UNL A   1      30.667  24.011  26.732  1.00  0.00    -0.314 N 
ATOM     12  N   UNL A   1      32.210  25.344  25.613  1.00  0.00    -0.256 N 
ATOM     13  O   UNL A   1      34.441  24.826  25.797  1.00  0.00    -0.269 OA
ATOM     14  C   UNL A   1      30.909  25.166  26.045  1.00  0.00     0.328 A 
ATOM     15  H   UNL A   1      29.738  23.814  26.988  1.00  0.00     0.171 HD
ATOM     16  O   UNL A   1      29.990  25.963  25.875  1.00  0.00    -0.248 OA
BRANCH  12  17
ATOM     17  C   UNL A   1      32.486  26.478  24.739  1.00  0.00     0.166 C 
BRANCH  17  18
ATOM     18  C   UNL A   1      32.580  27.781  25.511  1.00  0.00    -0.028 A 
ATOM     19  C   UNL A   1      33.504  27.921  26.559  1.00  0.00     0.005 A 
ATOM     20  C   UNL A   1      31.740  28.864  25.208  1.00  0.00     0.005 A 
ATOM     21  C   UNL A   1      33.582  29.105  27.293  1.00  0.00     0.000 A 
ATOM     22  C   UNL A   1      31.831  30.056  25.934  1.00  0.00     0.000 A 
ATOM     23  C   UNL A   1      32.749  30.173  26.979  1.00  0.00     0.000 A 
ENDBRANCH  17  18
ENDBRANCH  12  17
ENDBRANCH   7   8
ENDBRANCH   5   7
ENDBRANCH   2   3
ENDBRANCH   1   2
BRANCH   1  24
ATOM     24  C   UNL A   1      39.791  22.257  26.776  1.00  0.00     0.023 C 
BRANCH  24  25
ATOM     25  C   UNL A   1      41.074  23.052  26.995  1.00  0.00     0.116 C 
BRANCH  25  26
ATOM     26  N   UNL A   1      41.351  24.011  25.936  1.00  0.00    -0.352 N 
ATOM     27  C   UNL A   1      41.439  25.383  26.012  1.00  0.00     0.251 C 
ATOM     28  H   UNL A   1      41.493  23.626  25.041  1.00  0.00     0.163 HD
ATOM     29  O   UNL A   1      41.577  26.050  24.990  1.00  0.00    -0.269 OA
BRANCH  27  30
ATOM     30  C   UNL A   1      41.325  26.054  27.327  1.00  0.00     0.039 A 
ATOM     31  C   UNL A   1      40.152  25.959  28.079  1.00  0.00     0.014 A 
ATOM     32  C   UNL A   1      42.393  26.831  27.788  1.00  0.00     0.014 A 
ATOM     33  C   UNL A   1      39.979  26.780  29.189  1.00  0.00     0.010 A 
ATOM     34  C   UNL A   1      42.244  27.594  28.950  1.00  0.00     0.010 A 
ATOM     35  C   UNL A   1      41.015  27.621  29.627  1.00  0.00    -0.014 A 
BRANCH  35  36
ATOM     36  C   UNL A   1      40.777  28.539  30.774  1.00  0.00     0.031 A 
ATOM     37  C   UNL A   1      41.663  28.496  31.993  1.00  0.00     0.074 A 
ATOM     38  C   UNL A   1      39.796  29.459  30.692  1.00  0.00     0.049 A 
ATOM     39  N   UNL A   1      41.627  29.247  33.064  1.00  0.00    -0.248 NA
ATOM     40  C   UNL A   1      42.724  27.476  32.015  1.00  0.00     0.031 C 
ATOM     41  C   UNL A   1      38.872  29.603  29.566  1.00  0.00     0.029 A 
ATOM     42  N   UNL A   1      39.428  30.458  31.556  1.00  0.00    -0.354 N 
ATOM     43  C   UNL A   1      42.641  28.781  33.895  1.00  0.00     0.074 A 
ATOM     44  C   UNL A   1      43.259  27.664  33.214  1.00  0.00     0.031 C 
ATOM     45  C   UNL A   1      38.078  30.663  29.784  1.00  0.00     0.029 A 
ATOM     46  C   UNL A   1      38.399  31.239  31.087  1.00  0.00     0.049 A 
ATOM     47  H   UNL A   1      39.860  30.603  32.429  1.00  0.00     0.167 HD
ATOM     48  C   UNL A   1      43.029  29.249  35.106  1.00  0.00     0.037 A 
ATOM     49  C   UNL A   1      37.776  32.297  31.642  1.00  0.00     0.037 A 
ATOM     50  C   UNL A   1      42.432  30.378  35.770  1.00  0.00     0.049 A 
ATOM     51  C   UNL A   1      38.211  32.785  32.992  1.00  0.00     0.074 A 
ATOM     52  C   UNL A   1      42.785  30.950  36.980  1.00  0.00     0.029 A 
ATOM     53  N   UNL A   1      41.358  31.110  35.283  1.00  0.00    -0.354 N 
ATOM     54  N   UNL A   1      39.181  32.341  33.753  1.00  0.00    -0.248 NA
ATOM     55  C   UNL A   1      37.462  33.912  33.564  1.00  0.00     0.031 C 
ATOM     56  C   UNL A   1      41.903  32.003  37.242  1.00  0.00     0.029 A 
ATOM     57  C   UNL A   1      41.023  32.112  36.178  1.00  0.00     0.049 A 
ATOM     58  H   UNL A   1      40.903  30.940  34.427  1.00  0.00     0.167 HD
ATOM     59  C   UNL A   1      39.161  33.131  34.895  1.00  0.00     0.074 A 
ATOM     60  C   UNL A   1      38.095  34.097  34.715  1.00  0.00     0.031 C 
ATOM     61  C   UNL A   1      39.950  33.058  35.994  1.00  0.00     0.037 A 
BRANCH  48  62
ATOM     62  C   UNL A   1      44.153  28.532  35.802  1.00  0.00     0.058 A 
ATOM     63  C   UNL A   1      43.913  27.468  36.686  1.00  0.00     0.135 A 
ATOM     64  C   UNL A   1      45.488  28.886  35.550  1.00  0.00     0.135 A 
ATOM     65  F   UNL A   1      42.655  27.099  36.973  1.00  0.00    -0.206 F 
ATOM     66  C   UNL A   1      44.956  26.796  37.313  1.00  0.00     0.059 A 
ATOM     67  C   UNL A   1      46.549  28.213  36.150  1.00  0.00     0.059 A 
ATOM     68  F   UNL A   1      45.773  29.896  34.713  1.00  0.00    -0.206 F 
ATOM     69  C   UNL A   1      46.272  27.177  37.041  1.00  0.00     0.060 A 
BRANCH  69  70
ATOM     70  S   UNL A   1      47.614  26.294  37.866  1.00  0.00     0.124 S 
ATOM     71  O   UNL A   1      48.650  26.319  36.839  1.00  0.00    -0.237 OA
ATOM     72  O   UNL A   1      47.863  27.129  39.037  1.00  0.00    -0.237 OA
ATOM     73  O   UNL A   1      47.038  24.982  38.145  1.00  0.00    -0.744 OA
ENDBRANCH  69  70
ENDBRANCH  48  62
BRANCH  49  74
ATOM     74  C   UNL A   1      36.675  32.959  30.898  1.00  0.00     0.058 A 
ATOM     75  C   UNL A   1      35.336  32.708  31.222  1.00  0.00     0.135 A 
ATOM     76  C   UNL A   1      36.944  33.908  29.898  1.00  0.00     0.135 A 
ATOM     77  F   UNL A   1      35.031  31.804  32.165  1.00  0.00    -0.206 F 
ATOM     78  C   UNL A   1      34.297  33.384  30.591  1.00  0.00     0.059 A 
ATOM     79  C   UNL A   1      35.924  34.612  29.268  1.00  0.00     0.059 A 
ATOM     80  F   UNL A   1      38.213  34.190  29.564  1.00  0.00    -0.206 F 
ATOM     81  C   UNL A   1      34.604  34.344  29.623  1.00  0.00     0.060 A 
BRANCH  81  82
ATOM     82  S   UNL A   1      33.253  35.290  28.884  1.00  0.00     0.124 S 
ATOM     83  O   UNL A   1      32.603  34.278  28.061  1.00  0.00    -0.237 OA
ATOM     84  O   UNL A   1      32.510  35.731  30.061  1.00  0.00    -0.237 OA
ATOM     85  O   UNL A   1      33.945  36.349  28.158  1.00  0.00    -0.744 OA
ENDBRANCH  81  82
ENDBRANCH  49  74
BRANCH  61  86
ATOM     86  C   UNL A   1      39.693  34.045  37.098  1.00  0.00     0.058 A 
ATOM     87  C   UNL A   1      38.982  33.678  38.250  1.00  0.00     0.135 A 
ATOM     88  C   UNL A   1      40.213  35.347  37.031  1.00  0.00     0.135 A 
ATOM     89  F   UNL A   1      38.457  32.448  38.358  1.00  0.00    -0.206 F 
ATOM     90  C   UNL A   1      38.787  34.573  39.296  1.00  0.00     0.059 A 
ATOM     91  C   UNL A   1      40.047  36.251  38.075  1.00  0.00     0.059 A 
ATOM     92  F   UNL A   1      40.908  35.743  35.952  1.00  0.00    -0.206 F 
ATOM     93  C   UNL A   1      39.327  35.857  39.201  1.00  0.00     0.060 A 
BRANCH  93  94
ATOM     94  S   UNL A   1      39.103  36.995  40.585  1.00  0.00     0.124 S 
ATOM     95  O   UNL A   1      38.438  36.140  41.563  1.00  0.00    -0.237 OA
ATOM     96  O   UNL A   1      40.476  37.373  40.904  1.00  0.00    -0.237 OA
ATOM     97  O   UNL A   1      38.281  38.061  40.020  1.00  0.00    -0.744 OA
ENDBRANCH  93  94
ENDBRANCH  61  86
ENDBRANCH  35  36
ENDBRANCH  27  30
ENDBRANCH  25  26
ENDBRANCH  24  25
ENDBRANCH   1  24
TORSDOF 17
ENDMDL
MODEL 3
REMARK VINA RESULT:     -12.0      4.931      9.971
REMARK SMILES O=C(Cc1c[nH]c(=O)n(Cc2ccccc2)c1=O)NCCCCNC(=O)c1ccc(-c2c3nc(c(-c4c(F)cc(S(=O)(=O)[O-])cc4F)c4ccc([nH]4)c(-c4c(F)cc(S(=O)(=O)[O-])cc4F)c4nc(c(-c5c(F)cc(S(=O)(=O)[O-])cc5F)c5ccc2[nH]5)C=C4)C=C3)cc1
REMARK SMILES IDX 21 1 20 2 19 3 1 4 2 5 3 7 4 8 5 9 17 10 6 11 9 12 18 13
REMARK SMILES IDX 7 14 8 16 10 17 11 18 12 19 16 20 13 21 15 22 14 23 22 24
REMARK SMILES IDX 23 25 24 26 25 27 26 29 27 30 28 31 92 32 29 33 91 34 30 35
REMARK SMILES IDX 31 36 32 37 85 38 33 39 90 40 84 41 86 42 34 43 89 44 83 45
REMARK SMILES IDX 82 46 35 48 69 49 48 50 68 51 49 52 52 53 67 54 87 55 50 56
REMARK SMILES IDX 51 57 66 59 88 60 53 61 36 62 37 63 46 64 38 65 39 66 45 67
REMARK SMILES IDX 47 68 40 69 41 70 42 71 43 72 44 73 70 74 71 75 80 76 72 77
REMARK SMILES IDX 73 78 79 79 81 80 74 81 75 82 76 83 77 84 78 85 54 86 55 87
REMARK SMILES IDX 64 88 56 89 57 90 63 91 65 92 58 93 59 94 60 95 61 96 62 97
REMARK H PARENT 19 6 6 15 24 28 86 47 52 58
REMARK Flexibility Score: inf
ROOT
ATOM      1  C   UNL A   1      32.730  29.151  24.892  1.00  0.00     0.023 C 
ENDROOT
BRANCH   1   2
ATOM      2  C   UNL A   1      31.376  28.483  24.671  1.00  0.00     0.116 C 
BRANCH   2   3
ATOM      3  N   UNL A   1      31.245  27.246  25.412  1.00  0.00    -0.356 N 
ATOM      4  O   UNL A   1      29.627  26.333  24.053  1.00  0.00    -0.275 OA
ATOM      5  C   UNL A   1      30.414  26.230  24.992  1.00  0.00     0.224 C 
ATOM      6  H   UNL A   1      31.763  27.128  26.241  1.00  0.00     0.163 HD
BRANCH   5   7
ATOM      7  C   UNL A   1      30.458  24.976  25.857  1.00  0.00     0.142 C 
BRANCH   7   8
ATOM      8  C   UNL A   1      31.348  23.832  25.456  1.00  0.00     0.043 A 
ATOM      9  C   UNL A   1      31.102  22.605  25.936  1.00  0.00     0.097 A 
ATOM     10  C   UNL A   1      32.498  23.977  24.511  1.00  0.00     0.260 A 
ATOM     11  N   UNL A   1      31.822  21.523  25.543  1.00  0.00    -0.314 N 
ATOM     12  N   UNL A   1      33.250  22.837  24.260  1.00  0.00    -0.256 N 
ATOM     13  O   UNL A   1      32.742  25.062  23.991  1.00  0.00    -0.269 OA
ATOM     14  C   UNL A   1      32.869  21.572  24.667  1.00  0.00     0.328 A 
ATOM     15  H   UNL A   1      31.573  20.646  25.914  1.00  0.00     0.171 HD
ATOM     16  O   UNL A   1      33.379  20.521  24.287  1.00  0.00    -0.248 OA
BRANCH  12  17
ATOM     17  C   UNL A   1      34.460  22.956  23.455  1.00  0.00     0.166 C 
BRANCH  17  18
ATOM     18  C   UNL A   1      35.714  22.935  24.307  1.00  0.00    -0.028 A 
ATOM     19  C   UNL A   1      36.635  21.880  24.190  1.00  0.00     0.005 A 
ATOM     20  C   UNL A   1      35.974  23.951  25.238  1.00  0.00     0.005 A 
ATOM     21  C   UNL A   1      37.780  21.835  24.986  1.00  0.00     0.000 A 
ATOM     22  C   UNL A   1      37.131  23.913  26.024  1.00  0.00     0.000 A 
ATOM     23  C   UNL A   1      38.029  22.854  25.901  1.00  0.00     0.000 A 
ENDBRANCH  17  18
ENDBRANCH  12  17
ENDBRANCH   7   8
ENDBRANCH   5   7
ENDBRANCH   2   3
ENDBRANCH   1   2
BRANCH   1  24
ATOM     24  C   UNL A   1      33.721  28.344  25.732  1.00  0.00     0.023 C 
BRANCH  24  25
ATOM     25  C   UNL A   1      33.591  28.504  27.242  1.00  0.00     0.116 C 
BRANCH  25  26
ATOM     26  N   UNL A   1      33.561  29.892  27.678  1.00  0.00    -0.352 N 
ATOM     27  C   UNL A   1      34.563  30.642  28.254  1.00  0.00     0.251 C 
ATOM     28  H   UNL A   1      32.705  30.361  27.544  1.00  0.00     0.163 HD
ATOM     29  O   UNL A   1      34.329  31.777  28.660  1.00  0.00    -0.269 OA
BRANCH  27  30
ATOM     30  C   UNL A   1      35.912  30.056  28.422  1.00  0.00     0.039 A 
ATOM     31  C   UNL A   1      36.326  29.556  29.659  1.00  0.00     0.014 A 
ATOM     32  C   UNL A   1      36.792  30.054  27.335  1.00  0.00     0.014 A 
ATOM     33  C   UNL A   1      37.664  29.228  29.855  1.00  0.00     0.010 A 
ATOM     34  C   UNL A   1      38.118  29.648  27.516  1.00  0.00     0.010 A 
ATOM     35  C   UNL A   1      38.580  29.288  28.792  1.00  0.00    -0.014 A 
BRANCH  35  36
ATOM     36  C   UNL A   1      40.017  29.001  29.047  1.00  0.00     0.031 A 
ATOM     37  C   UNL A   1      40.618  27.672  28.667  1.00  0.00     0.074 A 
ATOM     38  C   UNL A   1      40.802  29.965  29.568  1.00  0.00     0.049 A 
ATOM     39  N   UNL A   1      41.857  27.265  28.778  1.00  0.00    -0.248 NA
ATOM     40  C   UNL A   1      39.710  26.666  28.091  1.00  0.00     0.031 C 
ATOM     41  C   UNL A   1      40.342  31.293  29.976  1.00  0.00     0.029 A 
ATOM     42  N   UNL A   1      42.150  29.987  29.820  1.00  0.00    -0.354 N 
ATOM     43  C   UNL A   1      41.876  25.956  28.308  1.00  0.00     0.074 A 
ATOM     44  C   UNL A   1      40.518  25.626  27.934  1.00  0.00     0.031 C 
ATOM     45  C   UNL A   1      41.398  32.018  30.378  1.00  0.00     0.029 A 
ATOM     46  C   UNL A   1      42.598  31.190  30.308  1.00  0.00     0.049 A 
ATOM     47  H   UNL A   1      42.741  29.213  29.665  1.00  0.00     0.167 HD
ATOM     48  C   UNL A   1      42.929  25.112  28.187  1.00  0.00     0.037 A 
ATOM     49  C   UNL A   1      43.835  31.586  30.666  1.00  0.00     0.037 A 
ATOM     50  C   UNL A   1      44.285  25.451  28.533  1.00  0.00     0.049 A 
ATOM     51  C   UNL A   1      44.982  30.628  30.542  1.00  0.00     0.074 A 
ATOM     52  C   UNL A   1      45.424  24.675  28.406  1.00  0.00     0.029 A 
ATOM     53  N   UNL A   1      44.688  26.664  29.072  1.00  0.00    -0.354 N 
ATOM     54  N   UNL A   1      44.982  29.401  30.081  1.00  0.00    -0.248 NA
ATOM     55  C   UNL A   1      46.297  31.104  30.992  1.00  0.00     0.031 C 
ATOM     56  C   UNL A   1      46.510  25.404  28.903  1.00  0.00     0.029 A 
ATOM     57  C   UNL A   1      46.054  26.649  29.304  1.00  0.00     0.049 A 
ATOM     58  H   UNL A   1      44.090  27.423  29.262  1.00  0.00     0.167 HD
ATOM     59  C   UNL A   1      46.293  28.954  30.187  1.00  0.00     0.074 A 
ATOM     60  C   UNL A   1      47.065  30.052  30.735  1.00  0.00     0.031 C 
ATOM     61  C   UNL A   1      46.808  27.743  29.864  1.00  0.00     0.037 A 
BRANCH  48  62
ATOM     62  C   UNL A   1      42.657  23.728  27.665  1.00  0.00     0.058 A 
ATOM     63  C   UNL A   1      42.592  23.459  26.289  1.00  0.00     0.135 A 
ATOM     64  C   UNL A   1      42.502  22.650  28.552  1.00  0.00     0.135 A 
ATOM     65  F   UNL A   1      42.718  24.457  25.399  1.00  0.00    -0.206 F 
ATOM     66  C   UNL A   1      42.359  22.175  25.810  1.00  0.00     0.059 A 
ATOM     67  C   UNL A   1      42.290  21.352  28.094  1.00  0.00     0.059 A 
ATOM     68  F   UNL A   1      42.557  22.852  29.877  1.00  0.00    -0.206 F 
ATOM     69  C   UNL A   1      42.207  21.127  26.721  1.00  0.00     0.060 A 
BRANCH  69  70
ATOM     70  S   UNL A   1      41.904  19.466  26.081  1.00  0.00     0.124 S 
ATOM     71  O   UNL A   1      40.472  19.522  25.800  1.00  0.00    -0.237 OA
ATOM     72  O   UNL A   1      42.777  19.417  24.913  1.00  0.00    -0.237 OA
ATOM     73  O   UNL A   1      42.293  18.598  27.188  1.00  0.00    -0.744 OA
ENDBRANCH  69  70
ENDBRANCH  48  62
BRANCH  49  74
ATOM     74  C   UNL A   1      44.033  32.968  31.172  1.00  0.00     0.058 A 
ATOM     75  C   UNL A   1      44.402  34.005  30.305  1.00  0.00     0.135 A 
ATOM     76  C   UNL A   1      43.788  33.290  32.516  1.00  0.00     0.135 A 
ATOM     77  F   UNL A   1      44.654  33.744  29.013  1.00  0.00    -0.206 F 
ATOM     78  C   UNL A   1      44.509  35.319  30.749  1.00  0.00     0.059 A 
ATOM     79  C   UNL A   1      43.867  34.598  32.979  1.00  0.00     0.059 A 
ATOM     80  F   UNL A   1      43.420  32.331  33.379  1.00  0.00    -0.206 F 
ATOM     81  C   UNL A   1      44.227  35.607  32.086  1.00  0.00     0.060 A 
BRANCH  81  82
ATOM     82  S   UNL A   1      44.267  37.329  32.628  1.00  0.00     0.124 S 
ATOM     83  O   UNL A   1      43.401  37.289  33.800  1.00  0.00    -0.237 OA
ATOM     84  O   UNL A   1      45.689  37.534  32.891  1.00  0.00    -0.237 OA
ATOM     85  O   UNL A   1      43.742  38.055  31.476  1.00  0.00    -0.744 OA
ENDBRANCH  81  82
ENDBRANCH  49  74
BRANCH  61  86
ATOM     86  C   UNL A   1      48.277  27.531  30.099  1.00  0.00     0.058 A 
ATOM     87  C   UNL A   1      48.748  26.975  31.298  1.00  0.00     0.135 A 
ATOM     88  C   UNL A   1      49.213  27.826  29.096  1.00  0.00     0.135 A 
ATOM     89  F   UNL A   1      47.894  26.684  32.290  1.00  0.00    -0.206 F 
ATOM     90  C   UNL A   1      50.102  26.729  31.498  1.00  0.00     0.059 A 
ATOM     91  C   UNL A   1      50.569  27.568  29.267  1.00  0.00     0.059 A 
ATOM     92  F   UNL A   1      48.809  28.352  27.928  1.00  0.00    -0.206 F 
ATOM     93  C   UNL A   1      51.005  27.026  30.475  1.00  0.00     0.060 A 
BRANCH  93  94
ATOM     94  S   UNL A   1      52.755  26.660  30.732  1.00  0.00     0.124 S 
ATOM     95  O   UNL A   1      53.203  26.397  29.369  1.00  0.00    -0.237 OA
ATOM     96  O   UNL A   1      53.247  27.895  31.335  1.00  0.00    -0.237 OA
ATOM     97  O   UNL A   1      52.732  25.501  31.621  1.00  0.00    -0.744 OA
ENDBRANCH  93  94
ENDBRANCH  61  86
ENDBRANCH  35  36
ENDBRANCH  27  30
ENDBRANCH  25  26
ENDBRANCH  24  25
ENDBRANCH   1  24
TORSDOF 17
ENDMDL
