MODEL 1
REMARK VINA RESULT:     -13.7      0.000      0.000
REMARK SMILES Cc1c(Cl)cccc1NC(=O)C[C@](C)(C(=O)NCCCCNC(=O)c1ccc(-c2c3nc(c(-c4c(F)cc(S(=O)(=O)[O-])cc4F)c4ccc([nH]4)c(-c4c(F)cc(S(=O)(=O)[O-])cc4F)c4nc(c(-c5c(F)cc(S(=O)(=O)[O-])cc5F)c5ccc2[nH]5)C=C4)C=C3)cc1)c1ccccc1
REMARK SMILES IDX 19 1 18 2 17 3 15 4 16 5 13 7 14 8 12 9 10 10 9 11 11 13
REMARK SMILES IDX 8 14 1 15 2 16 3 17 4 18 5 19 7 20 6 21 91 22 92 23 96 24
REMARK SMILES IDX 93 25 95 26 94 27 20 28 21 29 22 30 23 31 24 33 25 34 26 35
REMARK SMILES IDX 90 36 27 37 89 38 28 39 29 40 30 41 83 42 31 43 88 44 82 45
REMARK SMILES IDX 84 46 32 47 87 48 81 49 80 50 33 52 67 53 46 54 66 55 47 56
REMARK SMILES IDX 50 57 65 58 85 59 48 60 49 61 64 63 86 64 51 65 34 66 35 67
REMARK SMILES IDX 44 68 36 69 37 70 43 71 45 72 38 73 39 74 40 75 41 76 42 77
REMARK SMILES IDX 68 78 69 79 78 80 70 81 71 82 77 83 79 84 72 85 73 86 74 87
REMARK SMILES IDX 75 88 76 89 52 90 53 91 62 92 54 93 55 94 61 95 63 96 56 97
REMARK SMILES IDX 57 98 58 99 59 100 60 101
REMARK H PARENT 17 6 9 12 22 32 84 51 50 62
REMARK Flexibility Score: inf
ROOT
ATOM      1  C   UNL A   1      38.593  23.649  26.230  1.00  0.00     0.023 C 
ENDROOT
BRANCH   1   2
ATOM      2  C   UNL A   1      37.164  22.926  25.588  1.00  0.00     0.116 C 
BRANCH   2   3
ATOM      3  N   UNL A   1      35.426  22.213  26.506  1.00  0.00    -0.355 N 
ATOM      4  C   UNL A   1      34.002  22.120  26.672  1.00  0.00     0.230 C 
ATOM      5  O   UNL A   1      33.750  21.280  27.556  1.00  0.00    -0.274 OA
ATOM      6  H   UNL A   1      35.771  21.615  27.207  1.00  0.00     0.163 HD
BRANCH   4   7
ATOM      7  C   UNL A   1      32.783  22.944  25.984  1.00  0.00     0.080 C 
ATOM      8  C   UNL A   1      31.817  21.872  25.349  1.00  0.00     0.027 C 
BRANCH   7   9
ATOM      9  C   UNL A   1      32.034  23.979  26.897  1.00  0.00     0.121 C 
BRANCH   9  10
ATOM     10  C   UNL A   1      30.522  24.076  26.842  1.00  0.00     0.225 C 
ATOM     11  N   UNL A   1      29.908  25.166  26.302  1.00  0.00    -0.326 N 
ATOM     12  H   UNL A   1      28.979  25.356  26.566  1.00  0.00     0.169 HD
ATOM     13  O   UNL A   1      29.814  23.190  27.327  1.00  0.00    -0.275 OA
BRANCH  11  14
ATOM     14  C   UNL A   1      30.521  26.030  25.397  1.00  0.00     0.045 A 
ATOM     15  C   UNL A   1      31.707  27.572  27.521  1.00  0.00     0.048 C 
ATOM     16  C   UNL A   1      31.124  27.569  26.137  1.00  0.00    -0.009 A 
ATOM     17  C   UNL A   1      31.357  29.023  25.096  1.00  0.00     0.046 A 
ATOM     18  Cl  UNL A   1      32.023  30.468  25.744  1.00  0.00    -0.084 Cl
ATOM     19  C   UNL A   1      30.884  28.989  23.359  1.00  0.00     0.021 A 
ATOM     20  C   UNL A   1      30.165  25.938  23.601  1.00  0.00     0.026 A 
ATOM     21  C   UNL A   1      30.313  27.444  22.596  1.00  0.00     0.004 A 
ENDBRANCH  11  14
ENDBRANCH   9  10
ENDBRANCH   7   9
BRANCH   7  22
ATOM     22  C   UNL A   1      33.148  23.801  24.699  1.00  0.00    -0.032 A 
ATOM     23  C   UNL A   1      33.754  25.077  24.898  1.00  0.00     0.005 A 
ATOM     24  C   UNL A   1      32.916  23.421  23.376  1.00  0.00     0.005 A 
ATOM     25  C   UNL A   1      33.973  25.976  23.858  1.00  0.00     0.000 A 
ATOM     26  C   UNL A   1      33.154  24.319  22.324  1.00  0.00     0.000 A 
ATOM     27  C   UNL A   1      33.653  25.599  22.565  1.00  0.00     0.000 A 
ENDBRANCH   7  22
ENDBRANCH   4   7
ENDBRANCH   2   3
ENDBRANCH   1   2
BRANCH   1  28
ATOM     28  C   UNL A   1      39.631  22.665  26.771  1.00  0.00     0.023 C 
BRANCH  28  29
ATOM     29  C   UNL A   1      40.948  23.291  27.167  1.00  0.00     0.116 C 
BRANCH  29  30
ATOM     30  N   UNL A   1      41.584  23.978  26.050  1.00  0.00    -0.352 N 
ATOM     31  C   UNL A   1      41.877  25.320  26.018  1.00  0.00     0.251 C 
ATOM     32  H   UNL A   1      41.823  23.440  25.260  1.00  0.00     0.163 HD
ATOM     33  O   UNL A   1      42.221  25.894  24.998  1.00  0.00    -0.269 OA
BRANCH  31  34
ATOM     34  C   UNL A   1      41.727  26.018  27.305  1.00  0.00     0.039 A 
ATOM     35  C   UNL A   1      42.658  26.991  27.657  1.00  0.00     0.014 A 
ATOM     36  C   UNL A   1      40.497  25.899  27.965  1.00  0.00     0.014 A 
ATOM     37  C   UNL A   1      42.351  27.859  28.701  1.00  0.00     0.010 A 
ATOM     38  C   UNL A   1      40.154  26.840  28.922  1.00  0.00     0.010 A 
ATOM     39  C   UNL A   1      41.095  27.796  29.334  1.00  0.00    -0.014 A 
BRANCH  39  40
ATOM     40  C   UNL A   1      40.801  28.656  30.504  1.00  0.00     0.031 A 
ATOM     41  C   UNL A   1      41.644  28.505  31.742  1.00  0.00     0.074 A 
ATOM     42  C   UNL A   1      39.814  29.572  30.450  1.00  0.00     0.049 A 
ATOM     43  N   UNL A   1      41.597  29.180  32.860  1.00  0.00    -0.248 NA
ATOM     44  C   UNL A   1      42.663  27.438  31.735  1.00  0.00     0.031 C 
ATOM     45  C   UNL A   1      38.906  29.777  29.318  1.00  0.00     0.029 A 
ATOM     46  N   UNL A   1      39.420  30.516  31.364  1.00  0.00    -0.354 N 
ATOM     47  C   UNL A   1      42.571  28.619  33.677  1.00  0.00     0.074 A 
ATOM     48  C   UNL A   1      43.132  27.495  32.969  1.00  0.00     0.031 C 
ATOM     49  C   UNL A   1      38.097  30.815  29.587  1.00  0.00     0.029 A 
ATOM     50  C   UNL A   1      38.398  31.322  30.921  1.00  0.00     0.049 A 
ATOM     51  H   UNL A   1      39.831  30.607  32.254  1.00  0.00     0.167 HD
ATOM     52  C   UNL A   1      42.994  29.030  34.894  1.00  0.00     0.037 A 
ATOM     53  C   UNL A   1      37.778  32.354  31.530  1.00  0.00     0.037 A 
ATOM     54  C   UNL A   1      42.444  30.164  35.583  1.00  0.00     0.049 A 
ATOM     55  C   UNL A   1      38.240  32.769  32.902  1.00  0.00     0.074 A 
ATOM     56  C   UNL A   1      42.820  30.691  36.804  1.00  0.00     0.029 A 
ATOM     57  N   UNL A   1      41.394  30.941  35.113  1.00  0.00    -0.354 N 
ATOM     58  N   UNL A   1      39.211  32.272  33.633  1.00  0.00    -0.248 NA
ATOM     59  C   UNL A   1      37.530  33.890  33.532  1.00  0.00     0.031 C 
ATOM     60  C   UNL A   1      41.953  31.746  37.104  1.00  0.00     0.029 A 
ATOM     61  C   UNL A   1      41.087  31.925  36.035  1.00  0.00     0.049 A 
ATOM     62  H   UNL A   1      40.936  30.811  34.251  1.00  0.00     0.167 HD
ATOM     63  C   UNL A   1      39.247  33.038  34.794  1.00  0.00     0.074 A 
ATOM     64  C   UNL A   1      38.212  34.044  34.658  1.00  0.00     0.031 C 
ATOM     65  C   UNL A   1      40.058  32.923  35.875  1.00  0.00     0.037 A 
BRANCH  52  66
ATOM     66  C   UNL A   1      44.102  28.249  35.549  1.00  0.00     0.058 A 
ATOM     67  C   UNL A   1      45.456  28.556  35.330  1.00  0.00     0.135 A 
ATOM     68  C   UNL A   1      43.805  27.195  36.425  1.00  0.00     0.135 A 
ATOM     69  F   UNL A   1      45.800  29.538  34.481  1.00  0.00    -0.206 F 
ATOM     70  C   UNL A   1      46.474  27.830  35.938  1.00  0.00     0.059 A 
ATOM     71  C   UNL A   1      44.806  26.478  37.072  1.00  0.00     0.059 A 
ATOM     72  F   UNL A   1      42.529  26.851  36.662  1.00  0.00    -0.206 F 
ATOM     73  C   UNL A   1      46.138  26.796  36.813  1.00  0.00     0.060 A 
BRANCH  73  74
ATOM     74  S   UNL A   1      47.472  25.879  37.610  1.00  0.00     0.124 S 
ATOM     75  O   UNL A   1      47.214  24.521  37.140  1.00  0.00    -0.237 OA
ATOM     76  O   UNL A   1      48.660  26.524  37.061  1.00  0.00    -0.237 OA
ATOM     77  O   UNL A   1      47.239  26.105  39.033  1.00  0.00    -0.744 OA
ENDBRANCH  73  74
ENDBRANCH  52  66
BRANCH  53  78
ATOM     78  C   UNL A   1      36.668  33.074  30.844  1.00  0.00     0.058 A 
ATOM     79  C   UNL A   1      36.919  33.979  29.801  1.00  0.00     0.135 A 
ATOM     80  C   UNL A   1      35.330  32.880  31.227  1.00  0.00     0.135 A 
ATOM     81  F   UNL A   1      38.179  34.208  29.400  1.00  0.00    -0.206 F 
ATOM     82  C   UNL A   1      35.891  34.683  29.180  1.00  0.00     0.059 A 
ATOM     83  C   UNL A   1      34.283  33.546  30.598  1.00  0.00     0.059 A 
ATOM     84  F   UNL A   1      35.030  32.016  32.209  1.00  0.00    -0.206 F 
ATOM     85  C   UNL A   1      34.574  34.457  29.585  1.00  0.00     0.060 A 
BRANCH  85  86
ATOM     86  S   UNL A   1      33.245  35.347  28.746  1.00  0.00     0.124 S 
ATOM     87  O   UNL A   1      32.524  35.928  29.872  1.00  0.00    -0.237 OA
ATOM     88  O   UNL A   1      33.989  36.285  27.910  1.00  0.00    -0.237 OA
ATOM     89  O   UNL A   1      32.542  34.294  28.020  1.00  0.00    -0.744 OA
ENDBRANCH  85  86
ENDBRANCH  53  78
BRANCH  65  90
ATOM     90  C   UNL A   1      39.894  33.931  36.979  1.00  0.00     0.058 A 
ATOM     91  C   UNL A   1      40.465  35.211  36.907  1.00  0.00     0.135 A 
ATOM     92  C   UNL A   1      39.099  33.630  38.099  1.00  0.00     0.135 A 
ATOM     93  F   UNL A   1      41.236  35.550  35.861  1.00  0.00    -0.206 F 
ATOM     94  C   UNL A   1      40.280  36.146  37.919  1.00  0.00     0.059 A 
ATOM     95  C   UNL A   1      38.868  34.563  39.103  1.00  0.00     0.059 A 
ATOM     96  F   UNL A   1      38.517  32.425  38.212  1.00  0.00    -0.206 F 
ATOM     97  C   UNL A   1      39.474  35.814  39.011  1.00  0.00     0.060 A 
BRANCH  97  98
ATOM     98  S   UNL A   1      39.215  37.052  40.298  1.00  0.00     0.124 S 
ATOM     99  O   UNL A   1      38.288  36.361  41.188  1.00  0.00    -0.237 OA
ATOM    100  O   UNL A   1      40.565  37.247  40.816  1.00  0.00    -0.237 OA
ATOM    101  O   UNL A   1      38.657  38.188  39.571  1.00  0.00    -0.744 OA
ENDBRANCH  97  98
ENDBRANCH  65  90
ENDBRANCH  39  40
ENDBRANCH  31  34
ENDBRANCH  29  30
ENDBRANCH  28  29
ENDBRANCH   1  28
TORSDOF 18
ENDMDL
MODEL 2
REMARK VINA RESULT:     -13.6      5.858      8.095
REMARK SMILES Cc1c(Cl)cccc1NC(=O)C[C@](C)(C(=O)NCCCCNC(=O)c1ccc(-c2c3nc(c(-c4c(F)cc(S(=O)(=O)[O-])cc4F)c4ccc([nH]4)c(-c4c(F)cc(S(=O)(=O)[O-])cc4F)c4nc(c(-c5c(F)cc(S(=O)(=O)[O-])cc5F)c5ccc2[nH]5)C=C4)C=C3)cc1)c1ccccc1
REMARK SMILES IDX 19 1 18 2 17 3 15 4 16 5 13 7 14 8 12 9 10 10 9 11 11 13
REMARK SMILES IDX 8 14 1 15 2 16 3 17 4 18 5 19 7 20 6 21 91 22 92 23 96 24
REMARK SMILES IDX 93 25 95 26 94 27 20 28 21 29 22 30 23 31 24 33 25 34 26 35
REMARK SMILES IDX 90 36 27 37 89 38 28 39 29 40 30 41 83 42 31 43 88 44 82 45
REMARK SMILES IDX 84 46 32 47 87 48 81 49 80 50 33 52 67 53 46 54 66 55 47 56
REMARK SMILES IDX 50 57 65 58 85 59 48 60 49 61 64 63 86 64 51 65 34 66 35 67
REMARK SMILES IDX 44 68 36 69 37 70 43 71 45 72 38 73 39 74 40 75 41 76 42 77
REMARK SMILES IDX 68 78 69 79 78 80 70 81 71 82 77 83 79 84 72 85 73 86 74 87
REMARK SMILES IDX 75 88 76 89 52 90 53 91 62 92 54 93 55 94 61 95 63 96 56 97
REMARK SMILES IDX 57 98 58 99 59 100 60 101
REMARK H PARENT 17 6 9 12 22 32 84 51 50 62
REMARK Flexibility Score: inf
ROOT
ATOM      1  C   UNL A   1      38.653  22.785  26.150  1.00  0.00     0.023 C 
ENDROOT
BRANCH   1   2
ATOM      2  C   UNL A   1      37.258  23.251  25.247  1.00  0.00     0.116 C 
BRANCH   2   3
ATOM      3  N   UNL A   1      35.442  22.280  24.882  1.00  0.00    -0.355 N 
ATOM      4  C   UNL A   1      34.027  22.244  24.636  1.00  0.00     0.230 C 
ATOM      5  O   UNL A   1      33.680  21.066  24.429  1.00  0.00    -0.274 OA
ATOM      6  H   UNL A   1      35.693  21.329  24.874  1.00  0.00     0.163 HD
BRANCH   4   7
ATOM      7  C   UNL A   1      32.900  23.413  24.668  1.00  0.00     0.080 C 
ATOM      8  C   UNL A   1      31.588  22.790  24.055  1.00  0.00     0.027 C 
BRANCH   7   9
ATOM      9  C   UNL A   1      32.657  24.115  26.052  1.00  0.00     0.121 C 
BRANCH   9  10
ATOM     10  C   UNL A   1      31.254  24.188  26.622  1.00  0.00     0.225 C 
ATOM     11  N   UNL A   1      30.505  25.320  26.501  1.00  0.00    -0.326 N 
ATOM     12  H   UNL A   1      29.768  25.460  27.137  1.00  0.00     0.169 HD
ATOM     13  O   UNL A   1      30.776  23.239  27.250  1.00  0.00    -0.275 OA
BRANCH  11  14
ATOM     14  C   UNL A   1      30.726  26.292  25.528  1.00  0.00     0.045 A 
ATOM     15  C   UNL A   1      32.418  27.816  27.293  1.00  0.00     0.048 C 
ATOM     16  C   UNL A   1      31.420  27.837  26.171  1.00  0.00    -0.009 A 
ATOM     17  C   UNL A   1      31.194  29.366  25.242  1.00  0.00     0.046 A 
ATOM     18  Cl  UNL A   1      31.924  30.829  25.770  1.00  0.00    -0.084 Cl
ATOM     19  C   UNL A   1      30.188  29.389  23.750  1.00  0.00     0.021 A 
ATOM     20  C   UNL A   1      29.816  26.273  23.938  1.00  0.00     0.026 A 
ATOM     21  C   UNL A   1      29.517  27.843  23.075  1.00  0.00     0.004 A 
ENDBRANCH  11  14
ENDBRANCH   9  10
ENDBRANCH   7   9
BRANCH   7  22
ATOM     22  C   UNL A   1      33.126  24.637  23.683  1.00  0.00    -0.032 A 
ATOM     23  C   UNL A   1      33.710  25.824  24.217  1.00  0.00     0.005 A 
ATOM     24  C   UNL A   1      32.790  24.662  22.329  1.00  0.00     0.005 A 
ATOM     25  C   UNL A   1      33.810  27.005  23.488  1.00  0.00     0.000 A 
ATOM     26  C   UNL A   1      32.909  25.848  21.587  1.00  0.00     0.000 A 
ATOM     27  C   UNL A   1      33.390  27.020  22.170  1.00  0.00     0.000 A 
ENDBRANCH   7  22
ENDBRANCH   4   7
ENDBRANCH   2   3
ENDBRANCH   1   2
BRANCH   1  28
ATOM     28  C   UNL A   1      39.260  21.438  25.756  1.00  0.00     0.023 C 
BRANCH  28  29
ATOM     29  C   UNL A   1      39.977  20.718  26.875  1.00  0.00     0.116 C 
BRANCH  29  30
ATOM     30  N   UNL A   1      40.746  19.579  26.388  1.00  0.00    -0.352 N 
ATOM     31  C   UNL A   1      42.050  19.639  25.959  1.00  0.00     0.251 C 
ATOM     32  H   UNL A   1      40.298  18.703  26.365  1.00  0.00     0.163 HD
ATOM     33  O   UNL A   1      42.593  18.715  25.373  1.00  0.00    -0.269 OA
BRANCH  31  34
ATOM     34  C   UNL A   1      42.738  20.907  26.243  1.00  0.00     0.039 A 
ATOM     35  C   UNL A   1      42.904  21.830  25.213  1.00  0.00     0.014 A 
ATOM     36  C   UNL A   1      42.913  21.261  27.587  1.00  0.00     0.014 A 
ATOM     37  C   UNL A   1      43.261  23.135  25.541  1.00  0.00     0.010 A 
ATOM     38  C   UNL A   1      43.153  22.588  27.907  1.00  0.00     0.010 A 
ATOM     39  C   UNL A   1      43.380  23.525  26.888  1.00  0.00    -0.014 A 
BRANCH  39  40
ATOM     40  C   UNL A   1      43.849  24.887  27.236  1.00  0.00     0.031 A 
ATOM     41  C   UNL A   1      45.306  25.219  27.049  1.00  0.00     0.074 A 
ATOM     42  C   UNL A   1      42.982  25.814  27.688  1.00  0.00     0.049 A 
ATOM     43  N   UNL A   1      45.924  26.353  27.243  1.00  0.00    -0.248 NA
ATOM     44  C   UNL A   1      46.192  24.126  26.608  1.00  0.00     0.031 C 
ATOM     45  C   UNL A   1      41.558  25.592  27.948  1.00  0.00     0.029 A 
ATOM     46  N   UNL A   1      43.171  27.139  27.992  1.00  0.00    -0.354 N 
ATOM     47  C   UNL A   1      47.260  26.106  26.949  1.00  0.00     0.074 A 
ATOM     48  C   UNL A   1      47.382  24.700  26.652  1.00  0.00     0.031 C 
ATOM     49  C   UNL A   1      40.993  26.752  28.322  1.00  0.00     0.029 A 
ATOM     50  C   UNL A   1      42.019  27.789  28.370  1.00  0.00     0.049 A 
ATOM     51  H   UNL A   1      44.048  27.582  27.943  1.00  0.00     0.167 HD
ATOM     52  C   UNL A   1      48.289  26.981  26.887  1.00  0.00     0.037 A 
ATOM     53  C   UNL A   1      41.820  29.078  28.715  1.00  0.00     0.037 A 
ATOM     54  C   UNL A   1      48.154  28.383  27.164  1.00  0.00     0.049 A 
ATOM     55  C   UNL A   1      42.991  30.026  28.678  1.00  0.00     0.074 A 
ATOM     56  C   UNL A   1      49.122  29.368  27.098  1.00  0.00     0.029 A 
ATOM     57  N   UNL A   1      46.977  28.999  27.567  1.00  0.00    -0.354 N 
ATOM     58  N   UNL A   1      44.235  29.791  28.329  1.00  0.00    -0.248 NA
ATOM     59  C   UNL A   1      42.732  31.417  29.071  1.00  0.00     0.031 C 
ATOM     60  C   UNL A   1      48.547  30.568  27.526  1.00  0.00     0.029 A 
ATOM     61  C   UNL A   1      47.202  30.347  27.784  1.00  0.00     0.049 A 
ATOM     62  H   UNL A   1      46.111  28.545  27.680  1.00  0.00     0.167 HD
ATOM     63  C   UNL A   1      44.898  31.009  28.433  1.00  0.00     0.074 A 
ATOM     64  C   UNL A   1      43.912  31.982  28.858  1.00  0.00     0.031 C 
ATOM     65  C   UNL A   1      46.202  31.300  28.200  1.00  0.00     0.037 A 
BRANCH  52  66
ATOM     66  C   UNL A   1      49.642  26.442  26.506  1.00  0.00     0.058 A 
ATOM     67  C   UNL A   1      50.098  26.454  25.177  1.00  0.00     0.135 A 
ATOM     68  C   UNL A   1      50.503  25.929  27.487  1.00  0.00     0.135 A 
ATOM     69  F   UNL A   1      49.306  26.909  24.192  1.00  0.00    -0.206 F 
ATOM     70  C   UNL A   1      51.348  25.954  24.832  1.00  0.00     0.059 A 
ATOM     71  C   UNL A   1      51.773  25.456  27.170  1.00  0.00     0.059 A 
ATOM     72  F   UNL A   1      50.115  25.883  28.771  1.00  0.00    -0.206 F 
ATOM     73  C   UNL A   1      52.181  25.463  25.838  1.00  0.00     0.060 A 
BRANCH  73  74
ATOM     74  S   UNL A   1      53.810  24.839  25.375  1.00  0.00     0.124 S 
ATOM     75  O   UNL A   1      54.124  25.675  24.219  1.00  0.00    -0.237 OA
ATOM     76  O   UNL A   1      54.594  25.100  26.577  1.00  0.00    -0.237 OA
ATOM     77  O   UNL A   1      53.565  23.431  25.080  1.00  0.00    -0.744 OA
ENDBRANCH  73  74
ENDBRANCH  52  66
BRANCH  53  78
ATOM     78  C   UNL A   1      40.463  29.550  29.110  1.00  0.00     0.058 A 
ATOM     79  C   UNL A   1      40.154  29.848  30.446  1.00  0.00     0.135 A 
ATOM     80  C   UNL A   1      39.442  29.702  28.157  1.00  0.00     0.135 A 
ATOM     81  F   UNL A   1      41.091  29.713  31.397  1.00  0.00    -0.206 F 
ATOM     82  C   UNL A   1      38.879  30.254  30.828  1.00  0.00     0.059 A 
ATOM     83  C   UNL A   1      38.170  30.140  28.510  1.00  0.00     0.059 A 
ATOM     84  F   UNL A   1      39.685  29.444  26.863  1.00  0.00    -0.206 F 
ATOM     85  C   UNL A   1      37.893  30.400  29.850  1.00  0.00     0.060 A 
BRANCH  85  86
ATOM     86  S   UNL A   1      36.253  30.965  30.353  1.00  0.00     0.124 S 
ATOM     87  O   UNL A   1      35.510  30.862  29.102  1.00  0.00    -0.237 OA
ATOM     88  O   UNL A   1      35.902  29.997  31.387  1.00  0.00    -0.237 OA
ATOM     89  O   UNL A   1      36.498  32.322  30.832  1.00  0.00    -0.744 OA
ENDBRANCH  85  86
ENDBRANCH  53  78
BRANCH  65  90
ATOM     90  C   UNL A   1      46.635  32.732  28.356  1.00  0.00     0.058 A 
ATOM     91  C   UNL A   1      47.195  33.213  29.551  1.00  0.00     0.135 A 
ATOM     92  C   UNL A   1      46.545  33.621  27.271  1.00  0.00     0.135 A 
ATOM     93  F   UNL A   1      47.301  32.407  30.620  1.00  0.00    -0.206 F 
ATOM     94  C   UNL A   1      47.621  34.530  29.674  1.00  0.00     0.059 A 
ATOM     95  C   UNL A   1      47.000  34.931  27.360  1.00  0.00     0.059 A 
ATOM     96  F   UNL A   1      46.030  33.210  26.101  1.00  0.00    -0.206 F 
ATOM     97  C   UNL A   1      47.524  35.381  28.570  1.00  0.00     0.060 A 
BRANCH  97  98
ATOM     98  S   UNL A   1      48.115  37.078  28.736  1.00  0.00     0.124 S 
ATOM     99  O   UNL A   1      49.487  36.868  29.186  1.00  0.00    -0.237 OA
ATOM    100  O   UNL A   1      47.965  37.591  27.378  1.00  0.00    -0.237 OA
ATOM    101  O   UNL A   1      47.212  37.658  29.724  1.00  0.00    -0.744 OA
ENDBRANCH  97  98
ENDBRANCH  65  90
ENDBRANCH  39  40
ENDBRANCH  31  34
ENDBRANCH  29  30
ENDBRANCH  28  29
ENDBRANCH   1  28
TORSDOF 18
ENDMDL
MODEL 3
REMARK VINA RESULT:     -13.4      5.976     10.607
REMARK SMILES Cc1c(Cl)cccc1NC(=O)C[C@](C)(C(=O)NCCCCNC(=O)c1ccc(-c2c3nc(c(-c4c(F)cc(S(=O)(=O)[O-])cc4F)c4ccc([nH]4)c(-c4c(F)cc(S(=O)(=O)[O-])cc4F)c4nc(c(-c5c(F)cc(S(=O)(=O)[O-])cc5F)c5ccc2[nH]5)C=C4)C=C3)cc1)c1ccccc1
REMARK SMILES IDX 19 1 18 2 17 3 15 4 16 5 13 7 14 8 12 9 10 10 9 11 11 13
REMARK SMILES IDX 8 14 1 15 2 16 3 17 4 18 5 19 7 20 6 21 91 22 92 23 96 24
REMARK SMILES IDX 93 25 95 26 94 27 20 28 21 29 22 30 23 31 24 33 25 34 26 35
REMARK SMILES IDX 90 36 27 37 89 38 28 39 29 40 30 41 83 42 31 43 88 44 82 45
REMARK SMILES IDX 84 46 32 47 87 48 81 49 80 50 33 52 67 53 46 54 66 55 47 56
REMARK SMILES IDX 50 57 65 58 85 59 48 60 49 61 64 63 86 64 51 65 34 66 35 67
REMARK SMILES IDX 44 68 36 69 37 70 43 71 45 72 38 73 39 74 40 75 41 76 42 77
REMARK SMILES IDX 68 78 69 79 78 80 70 81 71 82 77 83 79 84 72 85 73 86 74 87
REMARK SMILES IDX 75 88 76 89 52 90 53 91 62 92 54 93 55 94 61 95 63 96 56 97
REMARK SMILES IDX 57 98 58 99 59 100 60 101
REMARK H PARENT 17 6 9 12 22 32 84 51 50 62
REMARK Flexibility Score: inf
ROOT
ATOM      1  C   UNL A   1      37.749  22.329  25.259  1.00  0.00     0.023 C 
ENDROOT
BRANCH   1   2
ATOM      2  C   UNL A   1      36.477  22.354  24.093  1.00  0.00     0.116 C 
BRANCH   2   3
ATOM      3  N   UNL A   1      34.474  21.763  24.198  1.00  0.00    -0.355 N 
ATOM      4  C   UNL A   1      33.060  22.009  24.265  1.00  0.00     0.230 C 
ATOM      5  O   UNL A   1      32.456  20.920  24.225  1.00  0.00    -0.274 OA
ATOM      6  H   UNL A   1      34.530  20.781  24.208  1.00  0.00     0.163 HD
BRANCH   4   7
ATOM      7  C   UNL A   1      32.215  23.384  24.449  1.00  0.00     0.080 C 
ATOM      8  C   UNL A   1      30.811  23.143  23.772  1.00  0.00     0.027 C 
BRANCH   7   9
ATOM      9  C   UNL A   1      32.103  23.946  25.911  1.00  0.00     0.121 C 
BRANCH   9  10
ATOM     10  C   UNL A   1      30.735  24.185  26.522  1.00  0.00     0.225 C 
ATOM     11  N   UNL A   1      30.141  25.409  26.454  1.00  0.00    -0.326 N 
ATOM     12  H   UNL A   1      29.443  25.625  27.114  1.00  0.00     0.169 HD
ATOM     13  O   UNL A   1      30.151  23.288  27.135  1.00  0.00    -0.275 OA
BRANCH  11  14
ATOM     14  C   UNL A   1      30.465  26.374  25.503  1.00  0.00     0.045 A 
ATOM     15  C   UNL A   1      32.409  27.585  27.251  1.00  0.00     0.048 C 
ATOM     16  C   UNL A   1      31.389  27.784  26.167  1.00  0.00    -0.009 A 
ATOM     17  C   UNL A   1      31.351  29.361  25.293  1.00  0.00     0.046 A 
ATOM     18  Cl  UNL A   1      32.296  30.688  25.838  1.00  0.00    -0.084 Cl
ATOM     19  C   UNL A   1      30.312  29.575  23.839  1.00  0.00     0.021 A 
ATOM     20  C   UNL A   1      29.511  26.538  23.946  1.00  0.00     0.026 A 
ATOM     21  C   UNL A   1      29.409  28.163  23.142  1.00  0.00     0.004 A 
ENDBRANCH  11  14
ENDBRANCH   9  10
ENDBRANCH   7   9
BRANCH   7  22
ATOM     22  C   UNL A   1      32.723  24.639  23.622  1.00  0.00    -0.032 A 
ATOM     23  C   UNL A   1      33.577  25.572  24.283  1.00  0.00     0.005 A 
ATOM     24  C   UNL A   1      32.396  24.924  22.296  1.00  0.00     0.005 A 
ATOM     25  C   UNL A   1      33.954  26.782  23.709  1.00  0.00     0.000 A 
ATOM     26  C   UNL A   1      32.793  26.137  21.709  1.00  0.00     0.000 A 
ATOM     27  C   UNL A   1      33.543  27.073  22.420  1.00  0.00     0.000 A 
ENDBRANCH   7  22
ENDBRANCH   4   7
ENDBRANCH   2   3
ENDBRANCH   1   2
BRANCH   1  28
ATOM     28  C   UNL A   1      38.426  20.971  25.450  1.00  0.00     0.023 C 
BRANCH  28  29
ATOM     29  C   UNL A   1      39.705  21.011  26.255  1.00  0.00     0.116 C 
BRANCH  29  30
ATOM     30  N   UNL A   1      40.394  19.727  26.252  1.00  0.00    -0.352 N 
ATOM     31  C   UNL A   1      41.756  19.568  26.166  1.00  0.00     0.251 C 
ATOM     32  H   UNL A   1      39.842  18.914  26.318  1.00  0.00     0.163 HD
ATOM     33  O   UNL A   1      42.279  18.484  25.964  1.00  0.00    -0.269 OA
BRANCH  31  34
ATOM     34  C   UNL A   1      42.535  20.806  26.317  1.00  0.00     0.039 A 
ATOM     35  C   UNL A   1      42.828  21.561  25.185  1.00  0.00     0.014 A 
ATOM     36  C   UNL A   1      42.675  21.328  27.609  1.00  0.00     0.014 A 
ATOM     37  C   UNL A   1      43.280  22.867  25.354  1.00  0.00     0.010 A 
ATOM     38  C   UNL A   1      43.011  22.663  27.763  1.00  0.00     0.010 A 
ATOM     39  C   UNL A   1      43.366  23.429  26.641  1.00  0.00    -0.014 A 
BRANCH  39  40
ATOM     40  C   UNL A   1      43.933  24.786  26.831  1.00  0.00     0.031 A 
ATOM     41  C   UNL A   1      43.024  25.890  27.302  1.00  0.00     0.074 A 
ATOM     42  C   UNL A   1      45.242  25.017  26.609  1.00  0.00     0.049 A 
ATOM     43  N   UNL A   1      43.312  27.133  27.579  1.00  0.00    -0.248 NA
ATOM     44  C   UNL A   1      41.595  25.560  27.462  1.00  0.00     0.031 C 
ATOM     45  C   UNL A   1      46.207  24.034  26.110  1.00  0.00     0.029 A 
ATOM     46  N   UNL A   1      45.991  26.152  26.792  1.00  0.00    -0.354 N 
ATOM     47  C   UNL A   1      42.107  27.725  27.941  1.00  0.00     0.074 A 
ATOM     48  C   UNL A   1      41.072  26.736  27.764  1.00  0.00     0.031 C 
ATOM     49  C   UNL A   1      47.427  24.594  26.077  1.00  0.00     0.029 A 
ATOM     50  C   UNL A   1      47.326  25.984  26.509  1.00  0.00     0.049 A 
ATOM     51  H   UNL A   1      45.608  27.005  27.097  1.00  0.00     0.167 HD
ATOM     52  C   UNL A   1      41.886  28.969  28.422  1.00  0.00     0.037 A 
ATOM     53  C   UNL A   1      48.350  26.859  26.593  1.00  0.00     0.037 A 
ATOM     54  C   UNL A   1      42.927  29.940  28.615  1.00  0.00     0.049 A 
ATOM     55  C   UNL A   1      48.073  28.252  27.093  1.00  0.00     0.074 A 
ATOM     56  C   UNL A   1      42.822  31.219  29.129  1.00  0.00     0.029 A 
ATOM     57  N   UNL A   1      44.262  29.741  28.295  1.00  0.00    -0.354 N 
ATOM     58  N   UNL A   1      46.938  28.775  27.499  1.00  0.00    -0.248 NA
ATOM     59  C   UNL A   1      49.214  29.175  27.158  1.00  0.00     0.031 C 
ATOM     60  C   UNL A   1      44.082  31.818  29.057  1.00  0.00     0.029 A 
ATOM     61  C   UNL A   1      44.988  30.886  28.571  1.00  0.00     0.049 A 
ATOM     62  H   UNL A   1      44.638  28.908  27.927  1.00  0.00     0.167 HD
ATOM     63  C   UNL A   1      47.235  30.075  27.894  1.00  0.00     0.074 A 
ATOM     64  C   UNL A   1      48.660  30.252  27.696  1.00  0.00     0.031 C 
ATOM     65  C   UNL A   1      46.409  31.037  28.374  1.00  0.00     0.037 A 
BRANCH  52  66
ATOM     66  C   UNL A   1      40.470  29.341  28.770  1.00  0.00     0.058 A 
ATOM     67  C   UNL A   1      39.498  29.566  27.780  1.00  0.00     0.135 A 
ATOM     68  C   UNL A   1      40.074  29.452  30.111  1.00  0.00     0.135 A 
ATOM     69  F   UNL A   1      39.826  29.501  26.480  1.00  0.00    -0.206 F 
ATOM     70  C   UNL A   1      38.192  29.911  28.109  1.00  0.00     0.059 A 
ATOM     71  C   UNL A   1      38.764  29.760  30.464  1.00  0.00     0.059 A 
ATOM     72  F   UNL A   1      40.964  29.258  31.097  1.00  0.00    -0.206 F 
ATOM     73  C   UNL A   1      37.833  29.999  29.455  1.00  0.00     0.060 A 
BRANCH  73  74
ATOM     74  S   UNL A   1      36.128  30.426  29.862  1.00  0.00     0.124 S 
ATOM     75  O   UNL A   1      35.412  29.908  28.699  1.00  0.00    -0.237 OA
ATOM     76  O   UNL A   1      35.917  29.700  31.109  1.00  0.00    -0.237 OA
ATOM     77  O   UNL A   1      36.159  31.880  29.981  1.00  0.00    -0.744 OA
ENDBRANCH  73  74
ENDBRANCH  52  66
BRANCH  53  78
ATOM     78  C   UNL A   1      49.728  26.442  26.209  1.00  0.00     0.058 A 
ATOM     79  C   UNL A   1      50.557  25.746  27.103  1.00  0.00     0.135 A 
ATOM     80  C   UNL A   1      50.251  26.743  24.940  1.00  0.00     0.135 A 
ATOM     81  F   UNL A   1      50.110  25.440  28.331  1.00  0.00    -0.206 F 
ATOM     82  C   UNL A   1      51.857  25.386  26.765  1.00  0.00     0.059 A 
ATOM     83  C   UNL A   1      51.535  26.362  24.566  1.00  0.00     0.059 A 
ATOM     84  F   UNL A   1      49.498  27.394  24.039  1.00  0.00    -0.206 F 
ATOM     85  C   UNL A   1      52.337  25.696  25.491  1.00  0.00     0.060 A 
BRANCH  85  86
ATOM     86  S   UNL A   1      54.014  25.189  25.050  1.00  0.00     0.124 S 
ATOM     87  O   UNL A   1      54.774  25.648  26.207  1.00  0.00    -0.237 OA
ATOM     88  O   UNL A   1      53.868  23.744  24.912  1.00  0.00    -0.237 OA
ATOM     89  O   UNL A   1      54.265  25.908  23.804  1.00  0.00    -0.744 OA
ENDBRANCH  85  86
ENDBRANCH  53  78
BRANCH  65  90
ATOM     90  C   UNL A   1      47.024  32.354  28.762  1.00  0.00     0.058 A 
ATOM     91  C   UNL A   1      47.503  32.597  30.059  1.00  0.00     0.135 A 
ATOM     92  C   UNL A   1      47.195  33.365  27.801  1.00  0.00     0.135 A 
ATOM     93  F   UNL A   1      47.363  31.667  31.017  1.00  0.00    -0.206 F 
ATOM     94  C   UNL A   1      48.099  33.806  30.398  1.00  0.00     0.059 A 
ATOM     95  C   UNL A   1      47.823  34.566  28.107  1.00  0.00     0.059 A 
ATOM     96  F   UNL A   1      46.769  33.180  26.541  1.00  0.00    -0.206 F 
ATOM     97  C   UNL A   1      48.260  34.783  29.413  1.00  0.00     0.060 A 
BRANCH  97  98
ATOM     98  S   UNL A   1      49.069  36.333  29.860  1.00  0.00     0.124 S 
ATOM     99  O   UNL A   1      48.103  36.912  30.787  1.00  0.00    -0.237 OA
ATOM    100  O   UNL A   1      50.319  35.869  30.452  1.00  0.00    -0.237 OA
ATOM    101  O   UNL A   1      49.205  37.027  28.583  1.00  0.00    -0.744 OA
ENDBRANCH  97  98
ENDBRANCH  65  90
ENDBRANCH  39  40
ENDBRANCH  31  34
ENDBRANCH  29  30
ENDBRANCH  28  29
ENDBRANCH   1  28
TORSDOF 18
ENDMDL
