MODEL 1
REMARK VINA RESULT:     -11.6      0.000      0.000
REMARK SMILES CCS(=O)(=O)Nc1ccc(N2CC[NH+](C)CC2)cc1C(=O)NCCCCNC(=O)c1ccc(-c2c3nc(c(-c4c(F)cc(S(=O)(=O)[O-])cc4F)c4ccc([nH]4)c(-c4c(F)cc(S(=O)(=O)[O-])cc4F)c4nc(c(-c5c(F)cc(S(=O)(=O)[O-])cc5F)c5ccc2[nH]5)C=C4)C=C3)cc1
REMARK SMILES IDX 24 1 23 2 22 3 20 4 21 5 19 7 7 8 8 9 9 10 18 11 10 12 6 13
REMARK SMILES IDX 3 15 4 16 5 17 2 18 1 19 11 20 12 21 17 22 13 23 16 24 14 25
REMARK SMILES IDX 15 26 25 28 26 29 27 30 28 31 29 33 30 34 31 35 95 36 32 37
REMARK SMILES IDX 94 38 33 39 34 40 35 41 88 42 36 43 93 44 87 45 89 46 37 47
REMARK SMILES IDX 92 48 86 49 85 50 38 52 72 53 51 54 71 55 52 56 55 57 70 58
REMARK SMILES IDX 90 59 53 60 54 61 69 63 91 64 56 65 39 66 40 67 49 68 41 69
REMARK SMILES IDX 42 70 48 71 50 72 43 73 44 74 45 75 46 76 47 77 73 78 74 79
REMARK SMILES IDX 83 80 75 81 76 82 82 83 84 84 77 85 78 86 79 87 80 88 81 89
REMARK SMILES IDX 57 90 58 91 67 92 59 93 60 94 66 95 68 96 61 97 62 98 63 99
REMARK SMILES IDX 64 100 65 101
REMARK H PARENT 22 6 6 14 14 27 27 32 89 51 55 62
REMARK Flexibility Score: inf
ROOT
ATOM      1  C   UNL A   1      35.093  30.490  27.650  1.00  0.00     0.023 C 
ENDROOT
BRANCH   1   2
ATOM      2  C   UNL A   1      34.272  29.490  26.838  1.00  0.00     0.116 C 
BRANCH   2   3
ATOM      3  N   UNL A   1      33.187  28.869  27.575  1.00  0.00    -0.352 N 
ATOM      4  C   UNL A   1      32.045  28.240  27.143  1.00  0.00     0.253 C 
ATOM      5  O   UNL A   1      31.238  27.866  27.999  1.00  0.00    -0.269 OA
ATOM      6  H   UNL A   1      33.286  28.905  28.554  1.00  0.00     0.163 HD
BRANCH   4   7
ATOM      7  C   UNL A   1      31.699  28.012  25.707  1.00  0.00     0.066 A 
ATOM      8  C   UNL A   1      31.968  26.852  24.975  1.00  0.00     0.061 A 
ATOM      9  C   UNL A   1      31.700  26.831  23.604  1.00  0.00     0.030 A 
ATOM     10  C   UNL A   1      31.002  27.874  23.002  1.00  0.00     0.028 A 
ATOM     11  C   UNL A   1      30.927  29.030  25.081  1.00  0.00     0.042 A 
ATOM     12  C   UNL A   1      30.496  28.942  23.746  1.00  0.00     0.038 A 
BRANCH   8  13
ATOM     13  N   UNL A   1      32.445  25.621  25.512  1.00  0.00    -0.283 N 
ATOM     14  H   UNL A   1      33.409  25.528  25.683  1.00  0.00     0.180 HD
BRANCH  13  15
ATOM     15  S   UNL A   1      31.444  24.326  25.866  1.00  0.00     0.232 S 
ATOM     16  O   UNL A   1      31.243  23.581  24.642  1.00  0.00    -0.207 OA
ATOM     17  O   UNL A   1      30.310  24.967  26.504  1.00  0.00    -0.207 OA
BRANCH  15  18
ATOM     18  C   UNL A   1      32.180  23.245  27.093  1.00  0.00     0.156 C 
ATOM     19  C   UNL A   1      33.630  22.879  26.861  1.00  0.00     0.023 C 
ENDBRANCH  15  18
ENDBRANCH  13  15
ENDBRANCH   8  13
BRANCH  12  20
ATOM     20  N   UNL A   1      29.544  29.785  23.205  1.00  0.00    -0.360 N 
ATOM     21  C   UNL A   1      28.478  29.344  22.291  1.00  0.00     0.178 C 
ATOM     22  C   UNL A   1      29.371  31.148  23.742  1.00  0.00     0.178 C 
ATOM     23  C   UNL A   1      28.185  30.425  21.214  1.00  0.00     0.283 C 
ATOM     24  C   UNL A   1      29.099  32.158  22.609  1.00  0.00     0.283 C 
ATOM     25  N   UNL A   1      27.942  31.776  21.777  1.00  0.00    -0.334 N 
ATOM     26  C   UNL A   1      27.748  32.758  20.710  1.00  0.00     0.332 C 
ATOM     27  H   UNL A   1      27.093  31.757  22.342  1.00  0.00     0.347 HD
ENDBRANCH  12  20
ENDBRANCH   4   7
ENDBRANCH   2   3
ENDBRANCH   1   2
BRANCH   1  28
ATOM     28  C   UNL A   1      34.630  31.951  27.589  1.00  0.00     0.023 C 
BRANCH  28  29
ATOM     29  C   UNL A   1      33.126  32.214  27.656  1.00  0.00     0.116 C 
BRANCH  29  30
ATOM     30  N   UNL A   1      32.770  33.621  27.783  1.00  0.00    -0.352 N 
ATOM     31  C   UNL A   1      33.319  34.602  28.577  1.00  0.00     0.251 C 
ATOM     32  H   UNL A   1      32.023  33.915  27.213  1.00  0.00     0.163 HD
ATOM     33  O   UNL A   1      32.832  35.729  28.590  1.00  0.00    -0.269 OA
BRANCH  31  34
ATOM     34  C   UNL A   1      34.465  34.285  29.458  1.00  0.00     0.039 A 
ATOM     35  C   UNL A   1      34.218  33.648  30.677  1.00  0.00     0.014 A 
ATOM     36  C   UNL A   1      35.775  34.574  29.070  1.00  0.00     0.014 A 
ATOM     37  C   UNL A   1      35.291  33.207  31.456  1.00  0.00     0.010 A 
ATOM     38  C   UNL A   1      36.843  34.073  29.815  1.00  0.00     0.010 A 
ATOM     39  C   UNL A   1      36.613  33.362  31.004  1.00  0.00    -0.014 A 
BRANCH  39  40
ATOM     40  C   UNL A   1      37.748  32.727  31.728  1.00  0.00     0.031 A 
ATOM     41  C   UNL A   1      38.444  31.519  31.164  1.00  0.00     0.074 A 
ATOM     42  C   UNL A   1      38.106  33.201  32.939  1.00  0.00     0.049 A 
ATOM     43  N   UNL A   1      39.419  30.814  31.680  1.00  0.00    -0.248 NA
ATOM     44  C   UNL A   1      37.968  31.025  29.864  1.00  0.00     0.031 C 
ATOM     45  C   UNL A   1      37.470  34.328  33.626  1.00  0.00     0.029 A 
ATOM     46  N   UNL A   1      39.079  32.787  33.817  1.00  0.00    -0.354 N 
ATOM     47  C   UNL A   1      39.665  29.787  30.776  1.00  0.00     0.074 A 
ATOM     48  C   UNL A   1      38.704  29.935  29.703  1.00  0.00     0.031 C 
ATOM     49  C   UNL A   1      38.078  34.526  34.807  1.00  0.00     0.029 A 
ATOM     50  C   UNL A   1      39.118  33.517  34.984  1.00  0.00     0.049 A 
ATOM     51  H   UNL A   1      39.691  32.039  33.630  1.00  0.00     0.167 HD
ATOM     52  C   UNL A   1      40.613  28.819  30.830  1.00  0.00     0.037 A 
ATOM     53  C   UNL A   1      39.890  33.385  36.081  1.00  0.00     0.037 A 
ATOM     54  C   UNL A   1      41.573  28.685  31.896  1.00  0.00     0.049 A 
ATOM     55  C   UNL A   1      40.935  32.303  36.119  1.00  0.00     0.074 A 
ATOM     56  C   UNL A   1      42.621  27.787  32.000  1.00  0.00     0.029 A 
ATOM     57  N   UNL A   1      41.591  29.453  33.052  1.00  0.00    -0.354 N 
ATOM     58  N   UNL A   1      41.216  31.399  35.211  1.00  0.00    -0.248 NA
ATOM     59  C   UNL A   1      41.770  32.225  37.325  1.00  0.00     0.031 C 
ATOM     60  C   UNL A   1      43.235  27.971  33.243  1.00  0.00     0.029 A 
ATOM     61  C   UNL A   1      42.610  29.025  33.890  1.00  0.00     0.049 A 
ATOM     62  H   UNL A   1      40.973  30.193  33.248  1.00  0.00     0.167 HD
ATOM     63  C   UNL A   1      42.271  30.655  35.729  1.00  0.00     0.074 A 
ATOM     64  C   UNL A   1      42.591  31.227  37.021  1.00  0.00     0.031 C 
ATOM     65  C   UNL A   1      42.916  29.595  35.181  1.00  0.00     0.037 A 
BRANCH  52  66
ATOM     66  C   UNL A   1      40.652  27.818  29.705  1.00  0.00     0.058 A 
ATOM     67  C   UNL A   1      41.661  27.836  28.729  1.00  0.00     0.135 A 
ATOM     68  C   UNL A   1      39.682  26.804  29.621  1.00  0.00     0.135 A 
ATOM     69  F   UNL A   1      42.610  28.787  28.753  1.00  0.00    -0.206 F 
ATOM     70  C   UNL A   1      41.686  26.913  27.688  1.00  0.00     0.059 A 
ATOM     71  C   UNL A   1      39.707  25.850  28.607  1.00  0.00     0.059 A 
ATOM     72  F   UNL A   1      38.697  26.733  30.530  1.00  0.00    -0.206 F 
ATOM     73  C   UNL A   1      40.703  25.924  27.634  1.00  0.00     0.060 A 
BRANCH  73  74
ATOM     74  S   UNL A   1      40.745  24.738  26.274  1.00  0.00     0.124 S 
ATOM     75  O   UNL A   1      41.068  25.604  25.143  1.00  0.00    -0.237 OA
ATOM     76  O   UNL A   1      41.802  23.822  26.691  1.00  0.00    -0.237 OA
ATOM     77  O   UNL A   1      39.398  24.176  26.269  1.00  0.00    -0.744 OA
ENDBRANCH  73  74
ENDBRANCH  52  66
BRANCH  53  78
ATOM     78  C   UNL A   1      39.703  34.313  37.229  1.00  0.00     0.058 A 
ATOM     79  C   UNL A   1      38.947  33.938  38.350  1.00  0.00     0.135 A 
ATOM     80  C   UNL A   1      40.309  35.579  37.245  1.00  0.00     0.135 A 
ATOM     81  F   UNL A   1      38.339  32.743  38.380  1.00  0.00    -0.206 F 
ATOM     82  C   UNL A   1      38.794  34.787  39.443  1.00  0.00     0.059 A 
ATOM     83  C   UNL A   1      40.194  36.434  38.336  1.00  0.00     0.059 A 
ATOM     84  F   UNL A   1      41.054  35.981  36.203  1.00  0.00    -0.206 F 
ATOM     85  C   UNL A   1      39.430  36.030  39.430  1.00  0.00     0.060 A 
BRANCH  85  86
ATOM     86  S   UNL A   1      39.286  37.090  40.886  1.00  0.00     0.124 S 
ATOM     87  O   UNL A   1      38.627  36.201  41.834  1.00  0.00    -0.237 OA
ATOM     88  O   UNL A   1      40.683  37.407  41.171  1.00  0.00    -0.237 OA
ATOM     89  O   UNL A   1      38.484  38.211  40.407  1.00  0.00    -0.744 OA
ENDBRANCH  85  86
ENDBRANCH  53  78
BRANCH  65  90
ATOM     90  C   UNL A   1      44.048  28.986  35.965  1.00  0.00     0.058 A 
ATOM     91  C   UNL A   1      45.348  29.512  35.915  1.00  0.00     0.135 A 
ATOM     92  C   UNL A   1      43.816  27.898  36.824  1.00  0.00     0.135 A 
ATOM     93  F   UNL A   1      45.630  30.545  35.106  1.00  0.00    -0.206 F 
ATOM     94  C   UNL A   1      46.382  28.971  36.674  1.00  0.00     0.059 A 
ATOM     95  C   UNL A   1      44.828  27.360  37.614  1.00  0.00     0.059 A 
ATOM     96  F   UNL A   1      42.590  27.360  36.917  1.00  0.00    -0.206 F 
ATOM     97  C   UNL A   1      46.111  27.898  37.524  1.00  0.00     0.060 A 
BRANCH  97  98
ATOM     98  S   UNL A   1      47.453  27.232  38.534  1.00  0.00     0.124 S 
ATOM     99  O   UNL A   1      46.755  26.905  39.773  1.00  0.00    -0.237 OA
ATOM    100  O   UNL A   1      47.903  26.093  37.740  1.00  0.00    -0.237 OA
ATOM    101  O   UNL A   1      48.397  28.342  38.621  1.00  0.00    -0.744 OA
ENDBRANCH  97  98
ENDBRANCH  65  90
ENDBRANCH  39  40
ENDBRANCH  31  34
ENDBRANCH  29  30
ENDBRANCH  28  29
ENDBRANCH   1  28
TORSDOF 18
ENDMDL
MODEL 2
REMARK VINA RESULT:     -11.6      4.670      9.492
REMARK SMILES CCS(=O)(=O)Nc1ccc(N2CC[NH+](C)CC2)cc1C(=O)NCCCCNC(=O)c1ccc(-c2c3nc(c(-c4c(F)cc(S(=O)(=O)[O-])cc4F)c4ccc([nH]4)c(-c4c(F)cc(S(=O)(=O)[O-])cc4F)c4nc(c(-c5c(F)cc(S(=O)(=O)[O-])cc5F)c5ccc2[nH]5)C=C4)C=C3)cc1
REMARK SMILES IDX 24 1 23 2 22 3 20 4 21 5 19 7 7 8 8 9 9 10 18 11 10 12 6 13
REMARK SMILES IDX 3 15 4 16 5 17 2 18 1 19 11 20 12 21 17 22 13 23 16 24 14 25
REMARK SMILES IDX 15 26 25 28 26 29 27 30 28 31 29 33 30 34 31 35 95 36 32 37
REMARK SMILES IDX 94 38 33 39 34 40 35 41 88 42 36 43 93 44 87 45 89 46 37 47
REMARK SMILES IDX 92 48 86 49 85 50 38 52 72 53 51 54 71 55 52 56 55 57 70 58
REMARK SMILES IDX 90 59 53 60 54 61 69 63 91 64 56 65 39 66 40 67 49 68 41 69
REMARK SMILES IDX 42 70 48 71 50 72 43 73 44 74 45 75 46 76 47 77 73 78 74 79
REMARK SMILES IDX 83 80 75 81 76 82 82 83 84 84 77 85 78 86 79 87 80 88 81 89
REMARK SMILES IDX 57 90 58 91 67 92 59 93 60 94 66 95 68 96 61 97 62 98 63 99
REMARK SMILES IDX 64 100 65 101
REMARK H PARENT 22 6 6 14 14 27 27 32 89 51 55 62
REMARK Flexibility Score: inf
ROOT
ATOM      1  C   UNL A   1      33.491  27.741  24.678  1.00  0.00     0.023 C 
ENDROOT
BRANCH   1   2
ATOM      2  C   UNL A   1      33.986  26.297  24.693  1.00  0.00     0.116 C 
BRANCH   2   3
ATOM      3  N   UNL A   1      33.752  25.573  23.456  1.00  0.00    -0.352 N 
ATOM      4  C   UNL A   1      32.589  25.275  22.789  1.00  0.00     0.253 C 
ATOM      5  O   UNL A   1      32.671  24.565  21.784  1.00  0.00    -0.269 OA
ATOM      6  H   UNL A   1      34.568  25.236  23.021  1.00  0.00     0.163 HD
BRANCH   4   7
ATOM      7  C   UNL A   1      31.230  25.724  23.221  1.00  0.00     0.066 A 
ATOM      8  C   UNL A   1      30.404  25.066  24.138  1.00  0.00     0.061 A 
ATOM      9  C   UNL A   1      29.106  25.538  24.348  1.00  0.00     0.030 A 
ATOM     10  C   UNL A   1      28.694  26.750  23.804  1.00  0.00     0.028 A 
ATOM     11  C   UNL A   1      30.807  26.993  22.735  1.00  0.00     0.042 A 
ATOM     12  C   UNL A   1      29.570  27.564  23.083  1.00  0.00     0.038 A 
BRANCH   8  13
ATOM     13  N   UNL A   1      30.784  23.963  24.957  1.00  0.00    -0.283 N 
ATOM     14  H   UNL A   1      30.925  23.090  24.528  1.00  0.00     0.180 HD
BRANCH  13  15
ATOM     15  S   UNL A   1      30.999  24.082  26.613  1.00  0.00     0.232 S 
ATOM     16  O   UNL A   1      29.764  23.675  27.246  1.00  0.00    -0.207 OA
ATOM     17  O   UNL A   1      31.465  25.447  26.775  1.00  0.00    -0.207 OA
BRANCH  15  18
ATOM     18  C   UNL A   1      32.325  23.017  27.179  1.00  0.00     0.156 C 
ATOM     19  C   UNL A   1      33.661  23.209  26.495  1.00  0.00     0.023 C 
ENDBRANCH  15  18
ENDBRANCH  13  15
ENDBRANCH   8  13
BRANCH  12  20
ATOM     20  N   UNL A   1      29.255  28.886  22.832  1.00  0.00    -0.360 N 
ATOM     21  C   UNL A   1      28.028  29.544  23.310  1.00  0.00     0.178 C 
ATOM     22  C   UNL A   1      30.279  29.804  22.299  1.00  0.00     0.178 C 
ATOM     23  C   UNL A   1      27.496  30.560  22.261  1.00  0.00     0.283 C 
ATOM     24  C   UNL A   1      29.672  30.765  21.258  1.00  0.00     0.283 C 
ATOM     25  N   UNL A   1      28.522  31.522  21.790  1.00  0.00    -0.334 N 
ATOM     26  C   UNL A   1      27.978  32.398  20.753  1.00  0.00     0.332 C 
ATOM     27  H   UNL A   1      28.818  32.108  22.571  1.00  0.00     0.347 HD
ENDBRANCH  12  20
ENDBRANCH   4   7
ENDBRANCH   2   3
ENDBRANCH   1   2
BRANCH   1  28
ATOM     28  C   UNL A   1      34.162  28.694  25.677  1.00  0.00     0.023 C 
BRANCH  28  29
ATOM     29  C   UNL A   1      33.608  28.723  27.100  1.00  0.00     0.116 C 
BRANCH  29  30
ATOM     30  N   UNL A   1      33.594  30.047  27.709  1.00  0.00    -0.352 N 
ATOM     31  C   UNL A   1      34.587  30.717  28.387  1.00  0.00     0.251 C 
ATOM     32  H   UNL A   1      32.744  30.537  27.622  1.00  0.00     0.163 HD
ATOM     33  O   UNL A   1      34.359  31.815  28.888  1.00  0.00    -0.269 OA
BRANCH  31  34
ATOM     34  C   UNL A   1      35.917  30.092  28.558  1.00  0.00     0.039 A 
ATOM     35  C   UNL A   1      36.812  30.113  27.485  1.00  0.00     0.014 A 
ATOM     36  C   UNL A   1      36.296  29.524  29.777  1.00  0.00     0.014 A 
ATOM     37  C   UNL A   1      38.122  29.662  27.668  1.00  0.00     0.010 A 
ATOM     38  C   UNL A   1      37.622  29.138  29.976  1.00  0.00     0.010 A 
ATOM     39  C   UNL A   1      38.556  29.226  28.931  1.00  0.00    -0.014 A 
BRANCH  39  40
ATOM     40  C   UNL A   1      39.992  28.927  29.185  1.00  0.00     0.031 A 
ATOM     41  C   UNL A   1      40.917  29.985  29.720  1.00  0.00     0.074 A 
ATOM     42  C   UNL A   1      40.482  27.713  28.860  1.00  0.00     0.049 A 
ATOM     43  N   UNL A   1      42.203  29.913  29.958  1.00  0.00    -0.248 NA
ATOM     44  C   UNL A   1      40.327  31.302  30.002  1.00  0.00     0.031 C 
ATOM     45  C   UNL A   1      39.703  26.618  28.275  1.00  0.00     0.029 A 
ATOM     46  N   UNL A   1      41.752  27.197  28.959  1.00  0.00    -0.354 N 
ATOM     47  C   UNL A   1      42.579  31.174  30.404  1.00  0.00     0.074 A 
ATOM     48  C   UNL A   1      41.393  32.005  30.359  1.00  0.00     0.031 C 
ATOM     49  C   UNL A   1      40.505  25.559  28.083  1.00  0.00     0.029 A 
ATOM     50  C   UNL A   1      41.864  25.908  28.489  1.00  0.00     0.049 A 
ATOM     51  H   UNL A   1      42.511  27.701  29.330  1.00  0.00     0.167 HD
ATOM     52  C   UNL A   1      43.796  31.597  30.826  1.00  0.00     0.037 A 
ATOM     53  C   UNL A   1      42.936  25.098  28.382  1.00  0.00     0.037 A 
ATOM     54  C   UNL A   1      44.969  30.761  30.879  1.00  0.00     0.049 A 
ATOM     55  C   UNL A   1      44.278  25.589  28.856  1.00  0.00     0.074 A 
ATOM     56  C   UNL A   1      46.226  31.075  31.366  1.00  0.00     0.029 A 
ATOM     57  N   UNL A   1      45.039  29.457  30.410  1.00  0.00    -0.354 N 
ATOM     58  N   UNL A   1      44.594  26.755  29.365  1.00  0.00    -0.248 NA
ATOM     59  C   UNL A   1      45.406  24.654  28.745  1.00  0.00     0.031 C 
ATOM     60  C   UNL A   1      47.070  29.984  31.137  1.00  0.00     0.029 A 
ATOM     61  C   UNL A   1      46.326  28.965  30.564  1.00  0.00     0.049 A 
ATOM     62  H   UNL A   1      44.284  28.954  30.027  1.00  0.00     0.167 HD
ATOM     63  C   UNL A   1      45.953  26.689  29.652  1.00  0.00     0.074 A 
ATOM     64  C   UNL A   1      46.395  25.361  29.276  1.00  0.00     0.031 C 
ATOM     65  C   UNL A   1      46.760  27.643  30.179  1.00  0.00     0.037 A 
BRANCH  52  66
ATOM     66  C   UNL A   1      43.925  33.035  31.256  1.00  0.00     0.058 A 
ATOM     67  C   UNL A   1      44.211  34.061  30.342  1.00  0.00     0.135 A 
ATOM     68  C   UNL A   1      43.728  33.396  32.600  1.00  0.00     0.135 A 
ATOM     69  F   UNL A   1      44.419  33.775  29.046  1.00  0.00    -0.206 F 
ATOM     70  C   UNL A   1      44.337  35.386  30.748  1.00  0.00     0.059 A 
ATOM     71  C   UNL A   1      43.817  34.720  33.023  1.00  0.00     0.059 A 
ATOM     72  F   UNL A   1      43.446  32.458  33.519  1.00  0.00    -0.206 F 
ATOM     73  C   UNL A   1      44.140  35.706  32.092  1.00  0.00     0.060 A 
BRANCH  73  74
ATOM     74  S   UNL A   1      44.314  37.427  32.604  1.00  0.00     0.124 S 
ATOM     75  O   UNL A   1      45.687  37.447  33.100  1.00  0.00    -0.237 OA
ATOM     76  O   UNL A   1      44.082  38.149  31.357  1.00  0.00    -0.237 OA
ATOM     77  O   UNL A   1      43.278  37.589  33.620  1.00  0.00    -0.744 OA
ENDBRANCH  73  74
ENDBRANCH  52  66
BRANCH  53  78
ATOM     78  C   UNL A   1      42.776  23.736  27.806  1.00  0.00     0.058 A 
ATOM     79  C   UNL A   1      42.629  22.611  28.631  1.00  0.00     0.135 A 
ATOM     80  C   UNL A   1      42.728  23.537  26.417  1.00  0.00     0.135 A 
ATOM     81  F   UNL A   1      42.679  22.746  29.964  1.00  0.00    -0.206 F 
ATOM     82  C   UNL A   1      42.445  21.337  28.101  1.00  0.00     0.059 A 
ATOM     83  C   UNL A   1      42.518  22.278  25.864  1.00  0.00     0.059 A 
ATOM     84  F   UNL A   1      42.850  24.581  25.583  1.00  0.00    -0.206 F 
ATOM     85  C   UNL A   1      42.382  21.182  26.715  1.00  0.00     0.060 A 
BRANCH  85  86
ATOM     86  S   UNL A   1      42.068  19.536  26.041  1.00  0.00     0.124 S 
ATOM     87  O   UNL A   1      42.926  19.531  24.862  1.00  0.00    -0.237 OA
ATOM     88  O   UNL A   1      42.488  18.671  27.139  1.00  0.00    -0.237 OA
ATOM     89  O   UNL A   1      40.632  19.549  25.778  1.00  0.00    -0.744 OA
ENDBRANCH  85  86
ENDBRANCH  53  78
BRANCH  65  90
ATOM     90  C   UNL A   1      48.207  27.289  30.400  1.00  0.00     0.058 A 
ATOM     91  C   UNL A   1      49.192  27.570  29.440  1.00  0.00     0.135 A 
ATOM     92  C   UNL A   1      48.623  26.713  31.613  1.00  0.00     0.135 A 
ATOM     93  F   UNL A   1      48.851  28.111  28.260  1.00  0.00    -0.206 F 
ATOM     94  C   UNL A   1      50.534  27.278  29.666  1.00  0.00     0.059 A 
ATOM     95  C   UNL A   1      49.963  26.440  31.872  1.00  0.00     0.059 A 
ATOM     96  F   UNL A   1      47.725  26.430  32.570  1.00  0.00    -0.206 F 
ATOM     97  C   UNL A   1      50.910  26.718  30.888  1.00  0.00     0.060 A 
BRANCH  97  98
ATOM     98  S   UNL A   1      52.660  26.382  31.184  1.00  0.00     0.124 S 
ATOM     99  O   UNL A   1      53.025  27.481  32.070  1.00  0.00    -0.237 OA
ATOM    100  O   UNL A   1      52.623  25.058  31.798  1.00  0.00    -0.237 OA
ATOM    101  O   UNL A   1      53.247  26.431  29.849  1.00  0.00    -0.744 OA
ENDBRANCH  97  98
ENDBRANCH  65  90
ENDBRANCH  39  40
ENDBRANCH  31  34
ENDBRANCH  29  30
ENDBRANCH  28  29
ENDBRANCH   1  28
TORSDOF 18
ENDMDL
MODEL 3
REMARK VINA RESULT:     -11.5      6.460     11.417
REMARK SMILES CCS(=O)(=O)Nc1ccc(N2CC[NH+](C)CC2)cc1C(=O)NCCCCNC(=O)c1ccc(-c2c3nc(c(-c4c(F)cc(S(=O)(=O)[O-])cc4F)c4ccc([nH]4)c(-c4c(F)cc(S(=O)(=O)[O-])cc4F)c4nc(c(-c5c(F)cc(S(=O)(=O)[O-])cc5F)c5ccc2[nH]5)C=C4)C=C3)cc1
REMARK SMILES IDX 24 1 23 2 22 3 20 4 21 5 19 7 7 8 8 9 9 10 18 11 10 12 6 13
REMARK SMILES IDX 3 15 4 16 5 17 2 18 1 19 11 20 12 21 17 22 13 23 16 24 14 25
REMARK SMILES IDX 15 26 25 28 26 29 27 30 28 31 29 33 30 34 31 35 95 36 32 37
REMARK SMILES IDX 94 38 33 39 34 40 35 41 88 42 36 43 93 44 87 45 89 46 37 47
REMARK SMILES IDX 92 48 86 49 85 50 38 52 72 53 51 54 71 55 52 56 55 57 70 58
REMARK SMILES IDX 90 59 53 60 54 61 69 63 91 64 56 65 39 66 40 67 49 68 41 69
REMARK SMILES IDX 42 70 48 71 50 72 43 73 44 74 45 75 46 76 47 77 73 78 74 79
REMARK SMILES IDX 83 80 75 81 76 82 82 83 84 84 77 85 78 86 79 87 80 88 81 89
REMARK SMILES IDX 57 90 58 91 67 92 59 93 60 94 66 95 68 96 61 97 62 98 63 99
REMARK SMILES IDX 64 100 65 101
REMARK H PARENT 22 6 6 14 14 27 27 32 89 51 55 62
REMARK Flexibility Score: inf
ROOT
ATOM      1  C   UNL A   1      33.097  30.446  27.219  1.00  0.00     0.023 C 
ENDROOT
BRANCH   1   2
ATOM      2  C   UNL A   1      33.374  29.197  26.384  1.00  0.00     0.116 C 
BRANCH   2   3
ATOM      3  N   UNL A   1      33.710  29.467  24.998  1.00  0.00    -0.352 N 
ATOM      4  C   UNL A   1      33.632  28.675  23.878  1.00  0.00     0.253 C 
ATOM      5  O   UNL A   1      34.065  29.137  22.819  1.00  0.00    -0.269 OA
ATOM      6  H   UNL A   1      34.054  30.375  24.831  1.00  0.00     0.163 HD
BRANCH   4   7
ATOM      7  C   UNL A   1      33.091  27.282  23.867  1.00  0.00     0.066 A 
ATOM      8  C   UNL A   1      31.935  26.858  23.205  1.00  0.00     0.061 A 
ATOM      9  C   UNL A   1      31.483  25.549  23.389  1.00  0.00     0.030 A 
ATOM     10  C   UNL A   1      32.264  24.617  24.067  1.00  0.00     0.028 A 
ATOM     11  C   UNL A   1      33.900  26.292  24.494  1.00  0.00     0.042 A 
ATOM     12  C   UNL A   1      33.542  24.934  24.533  1.00  0.00     0.038 A 
BRANCH   8  13
ATOM     13  N   UNL A   1      31.177  27.630  22.277  1.00  0.00    -0.283 N 
ATOM     14  H   UNL A   1      31.290  27.450  21.317  1.00  0.00     0.180 HD
BRANCH  13  15
ATOM     15  S   UNL A   1      30.106  28.830  22.742  1.00  0.00     0.232 S 
ATOM     16  O   UNL A   1      29.873  29.679  21.593  1.00  0.00    -0.207 OA
ATOM     17  O   UNL A   1      30.745  29.387  23.919  1.00  0.00    -0.207 OA
BRANCH  15  18
ATOM     18  C   UNL A   1      28.544  28.139  23.284  1.00  0.00     0.156 C 
ATOM     19  C   UNL A   1      28.579  26.687  23.707  1.00  0.00     0.023 C 
ENDBRANCH  15  18
ENDBRANCH  13  15
ENDBRANCH   8  13
BRANCH  12  20
ATOM     20  N   UNL A   1      34.421  23.934  24.904  1.00  0.00    -0.360 N 
ATOM     21  C   UNL A   1      35.086  23.869  26.216  1.00  0.00     0.178 C 
ATOM     22  C   UNL A   1      34.530  22.705  24.096  1.00  0.00     0.178 C 
ATOM     23  C   UNL A   1      36.532  23.317  26.080  1.00  0.00     0.283 C 
ATOM     24  C   UNL A   1      35.995  22.235  24.001  1.00  0.00     0.283 C 
ATOM     25  N   UNL A   1      36.615  22.043  25.327  1.00  0.00    -0.334 N 
ATOM     26  C   UNL A   1      38.006  21.618  25.171  1.00  0.00     0.332 C 
ATOM     27  H   UNL A   1      36.121  21.314  25.843  1.00  0.00     0.347 HD
ENDBRANCH  12  20
ENDBRANCH   4   7
ENDBRANCH   2   3
ENDBRANCH   1   2
BRANCH   1  28
ATOM     28  C   UNL A   1      34.284  31.394  27.429  1.00  0.00     0.023 C 
BRANCH  28  29
ATOM     29  C   UNL A   1      35.565  30.798  28.010  1.00  0.00     0.116 C 
BRANCH  29  30
ATOM     30  N   UNL A   1      35.457  30.394  29.406  1.00  0.00    -0.352 N 
ATOM     31  C   UNL A   1      36.431  29.964  30.278  1.00  0.00     0.251 C 
ATOM     32  H   UNL A   1      34.548  30.436  29.782  1.00  0.00     0.163 HD
ATOM     33  O   UNL A   1      36.127  29.603  31.412  1.00  0.00    -0.269 OA
BRANCH  31  34
ATOM     34  C   UNL A   1      37.839  29.885  29.832  1.00  0.00     0.039 A 
ATOM     35  C   UNL A   1      38.850  29.884  30.797  1.00  0.00     0.014 A 
ATOM     36  C   UNL A   1      38.163  29.773  28.477  1.00  0.00     0.014 A 
ATOM     37  C   UNL A   1      40.174  29.662  30.412  1.00  0.00     0.010 A 
ATOM     38  C   UNL A   1      39.475  29.484  28.102  1.00  0.00     0.010 A 
ATOM     39  C   UNL A   1      40.492  29.401  29.068  1.00  0.00    -0.014 A 
BRANCH  39  40
ATOM     40  C   UNL A   1      41.863  28.975  28.675  1.00  0.00     0.031 A 
ATOM     41  C   UNL A   1      42.982  29.974  28.571  1.00  0.00     0.074 A 
ATOM     42  C   UNL A   1      42.084  27.687  28.339  1.00  0.00     0.049 A 
ATOM     43  N   UNL A   1      44.224  29.787  28.202  1.00  0.00    -0.248 NA
ATOM     44  C   UNL A   1      42.658  31.370  28.902  1.00  0.00     0.031 C 
ATOM     45  C   UNL A   1      41.069  26.630  28.337  1.00  0.00     0.029 A 
ATOM     46  N   UNL A   1      43.225  27.048  27.917  1.00  0.00    -0.354 N 
ATOM     47  C   UNL A   1      44.826  31.039  28.242  1.00  0.00     0.074 A 
ATOM     48  C   UNL A   1      43.800  31.984  28.628  1.00  0.00     0.031 C 
ATOM     49  C   UNL A   1      41.635  25.475  27.952  1.00  0.00     0.029 A 
ATOM     50  C   UNL A   1      43.041  25.713  27.638  1.00  0.00     0.049 A 
ATOM     51  H   UNL A   1      44.094  27.502  27.824  1.00  0.00     0.167 HD
ATOM     52  C   UNL A   1      46.119  31.367  27.996  1.00  0.00     0.037 A 
ATOM     53  C   UNL A   1      43.897  24.784  27.168  1.00  0.00     0.037 A 
ATOM     54  C   UNL A   1      47.137  30.417  27.624  1.00  0.00     0.049 A 
ATOM     55  C   UNL A   1      45.327  25.171  26.899  1.00  0.00     0.074 A 
ATOM     56  C   UNL A   1      48.490  30.640  27.431  1.00  0.00     0.029 A 
ATOM     57  N   UNL A   1      46.916  29.071  27.366  1.00  0.00    -0.354 N 
ATOM     58  N   UNL A   1      45.901  26.342  27.036  1.00  0.00    -0.248 NA
ATOM     59  C   UNL A   1      46.224  24.112  26.419  1.00  0.00     0.031 C 
ATOM     60  C   UNL A   1      49.074  29.445  26.999  1.00  0.00     0.029 A 
ATOM     61  C   UNL A   1      48.099  28.460  26.981  1.00  0.00     0.049 A 
ATOM     62  H   UNL A   1      46.046  28.617  27.447  1.00  0.00     0.167 HD
ATOM     63  C   UNL A   1      47.232  26.157  26.675  1.00  0.00     0.074 A 
ATOM     64  C   UNL A   1      47.380  24.757  26.332  1.00  0.00     0.031 C 
ATOM     65  C   UNL A   1      48.237  27.066  26.633  1.00  0.00     0.037 A 
BRANCH  52  66
ATOM     66  C   UNL A   1      46.505  32.818  28.110  1.00  0.00     0.058 A 
ATOM     67  C   UNL A   1      47.046  33.353  29.290  1.00  0.00     0.135 A 
ATOM     68  C   UNL A   1      46.360  33.681  27.010  1.00  0.00     0.135 A 
ATOM     69  F   UNL A   1      47.199  32.577  30.377  1.00  0.00    -0.206 F 
ATOM     70  C   UNL A   1      47.392  34.696  29.391  1.00  0.00     0.059 A 
ATOM     71  C   UNL A   1      46.731  35.022  27.078  1.00  0.00     0.059 A 
ATOM     72  F   UNL A   1      45.854  33.225  25.854  1.00  0.00    -0.206 F 
ATOM     73  C   UNL A   1      47.229  35.524  28.279  1.00  0.00     0.060 A 
BRANCH  73  74
ATOM     74  S   UNL A   1      47.676  37.266  28.428  1.00  0.00     0.124 S 
ATOM     75  O   UNL A   1      48.534  37.448  27.260  1.00  0.00    -0.237 OA
ATOM     76  O   UNL A   1      46.377  37.928  28.367  1.00  0.00    -0.237 OA
ATOM     77  O   UNL A   1      48.352  37.337  29.720  1.00  0.00    -0.744 OA
ENDBRANCH  73  74
ENDBRANCH  52  66
BRANCH  53  78
ATOM     78  C   UNL A   1      43.419  23.395  26.929  1.00  0.00     0.058 A 
ATOM     79  C   UNL A   1      43.207  22.913  25.629  1.00  0.00     0.135 A 
ATOM     80  C   UNL A   1      43.202  22.510  27.997  1.00  0.00     0.135 A 
ATOM     81  F   UNL A   1      43.390  23.722  24.575  1.00  0.00    -0.206 F 
ATOM     82  C   UNL A   1      42.792  21.605  25.396  1.00  0.00     0.059 A 
ATOM     83  C   UNL A   1      42.814  21.191  27.788  1.00  0.00     0.059 A 
ATOM     84  F   UNL A   1      43.404  22.917  29.260  1.00  0.00    -0.206 F 
ATOM     85  C   UNL A   1      42.607  20.748  26.482  1.00  0.00     0.060 A 
BRANCH  85  86
ATOM     86  S   UNL A   1      42.142  19.032  26.162  1.00  0.00     0.124 S 
ATOM     87  O   UNL A   1      42.422  18.406  27.449  1.00  0.00    -0.237 OA
ATOM     88  O   UNL A   1      40.732  19.159  25.807  1.00  0.00    -0.237 OA
ATOM     89  O   UNL A   1      43.023  18.644  25.066  1.00  0.00    -0.744 OA
ENDBRANCH  85  86
ENDBRANCH  53  78
BRANCH  65  90
ATOM     90  C   UNL A   1      49.600  26.580  26.215  1.00  0.00     0.058 A 
ATOM     91  C   UNL A   1      50.091  26.784  24.916  1.00  0.00     0.135 A 
ATOM     92  C   UNL A   1      50.450  25.954  27.144  1.00  0.00     0.135 A 
ATOM     93  F   UNL A   1      49.320  27.368  23.985  1.00  0.00    -0.206 F 
ATOM     94  C   UNL A   1      51.367  26.369  24.546  1.00  0.00     0.059 A 
ATOM     95  C   UNL A   1      51.740  25.558  26.804  1.00  0.00     0.059 A 
ATOM     96  F   UNL A   1      50.035  25.741  28.402  1.00  0.00    -0.206 F 
ATOM     97  C   UNL A   1      52.186  25.762  25.499  1.00  0.00     0.060 A 
BRANCH  97  98
ATOM     98  S   UNL A   1      53.855  25.266  25.018  1.00  0.00     0.124 S 
ATOM     99  O   UNL A   1      53.708  23.820  24.892  1.00  0.00    -0.237 OA
ATOM    100  O   UNL A   1      54.047  25.994  23.767  1.00  0.00    -0.237 OA
ATOM    101  O   UNL A   1      54.680  25.718  26.133  1.00  0.00    -0.744 OA
ENDBRANCH  97  98
ENDBRANCH  65  90
ENDBRANCH  39  40
ENDBRANCH  31  34
ENDBRANCH  29  30
ENDBRANCH  28  29
ENDBRANCH   1  28
TORSDOF 18
ENDMDL
