MODEL 1
REMARK VINA RESULT:      -9.2      0.000      0.000
REMARK SMILES CCN1C(=O)N/C(=C/c2cc(Cl)c(OCc3cccc(C(=O)NCCCCNC(=O)c4ccc(-c5c6nc(c(-c7c(F)cc(S(=O)(=O)[O-])cc7F)c7ccc([nH]7)c(-c7c(F)cc(S(=O)(=O)[O-])cc7F)c7nc(c(-c8c(F)cc(S(=O)(=O)[O-])cc8F)c8ccc5[nH]8)C=C7)C=C6)cc4)c3)c(OC)c2)C1=O
REMARK SMILES IDX 24 1 23 2 21 3 22 4 20 6 16 7 17 8 97 9 18 10 19 11 15 12
REMARK SMILES IDX 14 13 13 14 9 15 10 16 101 17 11 18 98 19 12 20 8 21 3 22
REMARK SMILES IDX 4 23 102 24 5 25 6 26 7 27 103 28 2 30 1 31 99 32 100 33
REMARK SMILES IDX 25 34 26 35 27 36 28 37 29 38 30 40 31 41 32 42 96 43 33 44
REMARK SMILES IDX 95 45 34 46 35 47 36 48 89 49 37 50 94 51 88 52 90 53 38 54
REMARK SMILES IDX 93 55 87 56 86 57 39 59 73 60 52 61 72 62 53 63 56 64 71 65
REMARK SMILES IDX 91 66 54 67 55 68 70 70 92 71 57 72 40 73 41 74 50 75 42 76
REMARK SMILES IDX 43 77 49 78 51 79 44 80 45 81 46 82 47 83 48 84 74 85 75 86
REMARK SMILES IDX 84 87 76 88 77 89 83 90 85 91 78 92 79 93 80 94 81 95 82 96
REMARK SMILES IDX 58 97 59 98 68 99 60 100 61 101 67 102 69 103 62 104 63 105
REMARK SMILES IDX 64 106 65 107 66 108
REMARK H PARENT 23 5 6 29 28 39 90 58 56 69
REMARK Flexibility Score: inf
ROOT
ATOM      1  C   UNL A   1      34.855  32.405  32.318  1.00  0.00     0.116 C 
ENDROOT
BRANCH   1   2
ATOM      2  N   UNL A   1      34.769  33.768  32.819  1.00  0.00    -0.352 N 
ATOM      3  C   UNL A   1      35.741  34.657  33.222  1.00  0.00     0.251 C 
ATOM      4  O   UNL A   1      35.393  35.778  33.593  1.00  0.00    -0.269 OA
ATOM      5  H   UNL A   1      33.850  34.118  32.880  1.00  0.00     0.163 HD
BRANCH   3   6
ATOM      6  C   UNL A   1      37.179  34.283  33.296  1.00  0.00     0.040 A 
ATOM      7  C   UNL A   1      39.130  33.565  34.585  1.00  0.00    -0.010 A 
ATOM      8  C   UNL A   1      39.937  33.944  33.509  1.00  0.00     0.007 A 
ATOM      9  C   UNL A   1      37.741  33.617  34.389  1.00  0.00     0.021 A 
ATOM     10  C   UNL A   1      39.384  34.455  32.331  1.00  0.00     0.001 A 
ATOM     11  C   UNL A   1      38.011  34.660  32.239  1.00  0.00     0.014 A 
BRANCH   7  12
ATOM     12  C   UNL A   1      39.651  33.077  35.930  1.00  0.00     0.265 C 
BRANCH  12  13
ATOM     13  O   UNL A   1      39.563  31.675  36.236  1.00  0.00    -0.483 OA
BRANCH  13  14
ATOM     14  C   UNL A   1      40.250  30.749  35.498  1.00  0.00     0.180 A 
ATOM     15  C   UNL A   1      41.996  29.147  33.979  1.00  0.00    -0.018 A 
ATOM     16  C   UNL A   1      40.694  29.384  33.543  1.00  0.00     0.033 A 
ATOM     17  C   UNL A   1      42.389  29.597  35.238  1.00  0.00     0.058 A 
ATOM     18  C   UNL A   1      39.810  30.145  34.313  1.00  0.00     0.087 A 
ATOM     19  C   UNL A   1      41.512  30.370  36.013  1.00  0.00     0.162 A 
ATOM     20  Cl  UNL A   1      38.191  30.221  33.712  1.00  0.00    -0.080 Cl
BRANCH  15  21
ATOM     21  C   UNL A   1      42.919  28.410  33.119  1.00  0.00     0.040 C 
ATOM     22  N   UNL A   1      43.498  24.988  34.072  1.00  0.00    -0.259 N 
ATOM     23  C   UNL A   1      44.381  25.190  33.034  1.00  0.00     0.328 C 
ATOM     24  C   UNL A   1      42.808  26.149  34.354  1.00  0.00     0.278 C 
ATOM     25  O   UNL A   1      45.212  24.424  32.575  1.00  0.00    -0.248 OA
ATOM     26  N   UNL A   1      44.201  26.481  32.566  1.00  0.00    -0.303 N 
ATOM     27  C   UNL A   1      43.270  27.135  33.316  1.00  0.00     0.109 C 
ATOM     28  O   UNL A   1      42.024  26.357  35.263  1.00  0.00    -0.267 OA
ATOM     29  H   UNL A   1      44.678  26.872  31.799  1.00  0.00     0.172 HD
BRANCH  22  30
ATOM     30  C   UNL A   1      43.361  23.795  34.891  1.00  0.00     0.127 C 
ATOM     31  C   UNL A   1      44.204  23.752  36.154  1.00  0.00     0.028 C 
ENDBRANCH  22  30
ENDBRANCH  15  21
BRANCH  19  32
ATOM     32  O   UNL A   1      41.847  30.818  37.272  1.00  0.00    -0.493 OA
ATOM     33  C   UNL A   1      43.191  31.272  37.433  1.00  0.00     0.278 C 
ENDBRANCH  19  32
ENDBRANCH  13  14
ENDBRANCH  12  13
ENDBRANCH   7  12
ENDBRANCH   3   6
ENDBRANCH   1   2
BRANCH   1  34
ATOM     34  C   UNL A   1      35.646  32.241  31.031  1.00  0.00     0.023 C 
BRANCH  34  35
ATOM     35  C   UNL A   1      35.440  33.318  29.979  1.00  0.00     0.023 C 
BRANCH  35  36
ATOM     36  C   UNL A   1      35.515  32.846  28.534  1.00  0.00     0.116 C 
BRANCH  36  37
ATOM     37  N   UNL A   1      34.533  31.822  28.200  1.00  0.00    -0.352 N 
ATOM     38  C   UNL A   1      34.721  30.473  28.005  1.00  0.00     0.251 C 
ATOM     39  H   UNL A   1      33.606  32.139  28.099  1.00  0.00     0.163 HD
ATOM     40  O   UNL A   1      33.791  29.765  27.631  1.00  0.00    -0.269 OA
BRANCH  38  41
ATOM     41  C   UNL A   1      36.066  29.896  28.210  1.00  0.00     0.039 A 
ATOM     42  C   UNL A   1      37.005  29.986  27.181  1.00  0.00     0.014 A 
ATOM     43  C   UNL A   1      36.416  29.336  29.440  1.00  0.00     0.014 A 
ATOM     44  C   UNL A   1      38.324  29.596  27.420  1.00  0.00     0.010 A 
ATOM     45  C   UNL A   1      37.748  29.039  29.706  1.00  0.00     0.010 A 
ATOM     46  C   UNL A   1      38.718  29.168  28.701  1.00  0.00    -0.014 A 
BRANCH  46  47
ATOM     47  C   UNL A   1      40.138  28.852  29.008  1.00  0.00     0.031 A 
ATOM     48  C   UNL A   1      41.022  29.901  29.628  1.00  0.00     0.074 A 
ATOM     49  C   UNL A   1      40.645  27.648  28.673  1.00  0.00     0.049 A 
ATOM     50  N   UNL A   1      42.300  29.847  29.901  1.00  0.00    -0.248 NA
ATOM     51  C   UNL A   1      40.396  31.192  29.959  1.00  0.00     0.031 C 
ATOM     52  C   UNL A   1      39.902  26.566  28.020  1.00  0.00     0.029 A 
ATOM     53  N   UNL A   1      41.908  27.131  28.826  1.00  0.00    -0.354 N 
ATOM     54  C   UNL A   1      42.628  31.090  30.427  1.00  0.00     0.074 A 
ATOM     55  C   UNL A   1      41.434  31.902  30.376  1.00  0.00     0.031 C 
ATOM     56  C   UNL A   1      40.714  25.509  27.853  1.00  0.00     0.029 A 
ATOM     57  C   UNL A   1      42.046  25.850  28.343  1.00  0.00     0.049 A 
ATOM     58  H   UNL A   1      42.648  27.632  29.242  1.00  0.00     0.167 HD
ATOM     59  C   UNL A   1      43.811  31.508  30.936  1.00  0.00     0.037 A 
ATOM     60  C   UNL A   1      43.127  25.044  28.291  1.00  0.00     0.037 A 
ATOM     61  C   UNL A   1      44.991  30.688  31.006  1.00  0.00     0.049 A 
ATOM     62  C   UNL A   1      44.436  25.543  28.847  1.00  0.00     0.074 A 
ATOM     63  C   UNL A   1      46.227  31.004  31.546  1.00  0.00     0.029 A 
ATOM     64  N   UNL A   1      45.086  29.391  30.525  1.00  0.00    -0.354 N 
ATOM     65  N   UNL A   1      44.709  26.701  29.400  1.00  0.00    -0.248 NA
ATOM     66  C   UNL A   1      45.580  24.624  28.780  1.00  0.00     0.031 C 
ATOM     67  C   UNL A   1      47.082  29.917  31.347  1.00  0.00     0.029 A 
ATOM     68  C   UNL A   1      46.363  28.899  30.738  1.00  0.00     0.049 A 
ATOM     69  H   UNL A   1      44.353  28.892  30.096  1.00  0.00     0.167 HD
ATOM     70  C   UNL A   1      46.047  26.636  29.777  1.00  0.00     0.074 A 
ATOM     71  C   UNL A   1      46.521  25.320  29.404  1.00  0.00     0.031 C 
ATOM     72  C   UNL A   1      46.814  27.579  30.377  1.00  0.00     0.037 A 
BRANCH  59  73
ATOM     73  C   UNL A   1      43.888  32.910  31.478  1.00  0.00     0.058 A 
ATOM     74  C   UNL A   1      44.222  33.998  30.654  1.00  0.00     0.135 A 
ATOM     75  C   UNL A   1      43.562  33.180  32.817  1.00  0.00     0.135 A 
ATOM     76  F   UNL A   1      44.561  33.796  29.370  1.00  0.00    -0.206 F 
ATOM     77  C   UNL A   1      44.242  35.300  31.141  1.00  0.00     0.059 A 
ATOM     78  C   UNL A   1      43.547  34.479  33.318  1.00  0.00     0.059 A 
ATOM     79  F   UNL A   1      43.241  32.178  33.649  1.00  0.00    -0.206 F 
ATOM     80  C   UNL A   1      43.896  35.531  32.472  1.00  0.00     0.060 A 
BRANCH  80  81
ATOM     81  S   UNL A   1      43.891  37.233  33.074  1.00  0.00     0.124 S 
ATOM     82  O   UNL A   1      43.769  37.983  31.828  1.00  0.00    -0.237 OA
ATOM     83  O   UNL A   1      42.717  37.251  33.941  1.00  0.00    -0.237 OA
ATOM     84  O   UNL A   1      45.174  37.358  33.758  1.00  0.00    -0.744 OA
ENDBRANCH  80  81
ENDBRANCH  59  73
BRANCH  60  85
ATOM     85  C   UNL A   1      43.025  23.682  27.698  1.00  0.00     0.058 A 
ATOM     86  C   UNL A   1      43.275  23.464  26.334  1.00  0.00     0.135 A 
ATOM     87  C   UNL A   1      42.649  22.575  28.474  1.00  0.00     0.135 A 
ATOM     88  F   UNL A   1      43.633  24.490  25.546  1.00  0.00    -0.206 F 
ATOM     89  C   UNL A   1      43.121  22.209  25.753  1.00  0.00     0.059 A 
ATOM     90  C   UNL A   1      42.519  21.303  27.923  1.00  0.00     0.059 A 
ATOM     91  F   UNL A   1      42.416  22.721  29.787  1.00  0.00    -0.206 F 
ATOM     92  C   UNL A   1      42.739  21.134  26.557  1.00  0.00     0.060 A 
BRANCH  92  93
ATOM     93  S   UNL A   1      42.552  19.507  25.796  1.00  0.00     0.124 S 
ATOM     94  O   UNL A   1      42.949  18.626  26.888  1.00  0.00    -0.237 OA
ATOM     95  O   UNL A   1      41.136  19.493  25.446  1.00  0.00    -0.237 OA
ATOM     96  O   UNL A   1      43.471  19.560  24.662  1.00  0.00    -0.744 OA
ENDBRANCH  92  93
ENDBRANCH  60  85
BRANCH  72  97
ATOM     97  C   UNL A   1      48.233  27.210  30.717  1.00  0.00     0.058 A 
ATOM     98  C   UNL A   1      49.297  27.465  29.838  1.00  0.00     0.135 A 
ATOM     99  C   UNL A   1      48.537  26.644  31.966  1.00  0.00     0.135 A 
ATOM    100  F   UNL A   1      49.062  27.998  28.629  1.00  0.00    -0.206 F 
ATOM    101  C   UNL A   1      50.608  27.147  30.174  1.00  0.00     0.059 A 
ATOM    102  C   UNL A   1      49.845  26.349  32.337  1.00  0.00     0.059 A 
ATOM    103  F   UNL A   1      47.559  26.390  32.850  1.00  0.00    -0.206 F 
ATOM    104  C   UNL A   1      50.873  26.593  31.428  1.00  0.00     0.060 A 
BRANCH 104 105
ATOM    105  S   UNL A   1      52.584  26.220  31.865  1.00  0.00     0.124 S 
ATOM    106  O   UNL A   1      53.177  25.979  30.553  1.00  0.00    -0.237 OA
ATOM    107  O   UNL A   1      53.008  27.445  32.537  1.00  0.00    -0.237 OA
ATOM    108  O   UNL A   1      52.469  25.047  32.726  1.00  0.00    -0.744 OA
ENDBRANCH 104 105
ENDBRANCH  72  97
ENDBRANCH  46  47
ENDBRANCH  38  41
ENDBRANCH  36  37
ENDBRANCH  35  36
ENDBRANCH  34  35
ENDBRANCH   1  34
TORSDOF 20
ENDMDL
MODEL 2
REMARK VINA RESULT:      -8.9      4.564     10.995
REMARK SMILES CCN1C(=O)N/C(=C/c2cc(Cl)c(OCc3cccc(C(=O)NCCCCNC(=O)c4ccc(-c5c6nc(c(-c7c(F)cc(S(=O)(=O)[O-])cc7F)c7ccc([nH]7)c(-c7c(F)cc(S(=O)(=O)[O-])cc7F)c7nc(c(-c8c(F)cc(S(=O)(=O)[O-])cc8F)c8ccc5[nH]8)C=C7)C=C6)cc4)c3)c(OC)c2)C1=O
REMARK SMILES IDX 24 1 23 2 21 3 22 4 20 6 16 7 17 8 97 9 18 10 19 11 15 12
REMARK SMILES IDX 14 13 13 14 9 15 10 16 101 17 11 18 98 19 12 20 8 21 3 22
REMARK SMILES IDX 4 23 102 24 5 25 6 26 7 27 103 28 2 30 1 31 99 32 100 33
REMARK SMILES IDX 25 34 26 35 27 36 28 37 29 38 30 40 31 41 32 42 96 43 33 44
REMARK SMILES IDX 95 45 34 46 35 47 36 48 89 49 37 50 94 51 88 52 90 53 38 54
REMARK SMILES IDX 93 55 87 56 86 57 39 59 73 60 52 61 72 62 53 63 56 64 71 65
REMARK SMILES IDX 91 66 54 67 55 68 70 70 92 71 57 72 40 73 41 74 50 75 42 76
REMARK SMILES IDX 43 77 49 78 51 79 44 80 45 81 46 82 47 83 48 84 74 85 75 86
REMARK SMILES IDX 84 87 76 88 77 89 83 90 85 91 78 92 79 93 80 94 81 95 82 96
REMARK SMILES IDX 58 97 59 98 68 99 60 100 61 101 67 102 69 103 62 104 63 105
REMARK SMILES IDX 64 106 65 107 66 108
REMARK H PARENT 23 5 6 29 28 39 90 58 56 69
REMARK Flexibility Score: inf
ROOT
ATOM      1  C   UNL A   1      33.517  30.491  26.968  1.00  0.00     0.116 C 
ENDROOT
BRANCH   1   2
ATOM      2  N   UNL A   1      32.794  29.439  27.665  1.00  0.00    -0.352 N 
ATOM      3  C   UNL A   1      31.960  28.444  27.204  1.00  0.00     0.251 C 
ATOM      4  O   UNL A   1      31.482  27.655  28.020  1.00  0.00    -0.269 OA
ATOM      5  H   UNL A   1      32.926  29.436  28.640  1.00  0.00     0.163 HD
BRANCH   3   6
ATOM      6  C   UNL A   1      31.558  28.341  25.775  1.00  0.00     0.040 A 
ATOM      7  C   UNL A   1      30.521  27.104  23.938  1.00  0.00    -0.010 A 
ATOM      8  C   UNL A   1      31.136  27.984  23.044  1.00  0.00     0.007 A 
ATOM      9  C   UNL A   1      30.638  27.399  25.305  1.00  0.00     0.021 A 
ATOM     10  C   UNL A   1      31.925  29.046  23.497  1.00  0.00     0.001 A 
ATOM     11  C   UNL A   1      32.167  29.202  24.859  1.00  0.00     0.014 A 
BRANCH   7  12
ATOM     12  C   UNL A   1      29.714  25.878  23.531  1.00  0.00     0.265 C 
BRANCH  12  13
ATOM     13  O   UNL A   1      30.407  24.638  23.312  1.00  0.00    -0.483 OA
BRANCH  13  14
ATOM     14  C   UNL A   1      31.704  24.475  23.718  1.00  0.00     0.180 A 
ATOM     15  C   UNL A   1      34.240  24.346  24.933  1.00  0.00    -0.018 A 
ATOM     16  C   UNL A   1      34.097  24.863  23.647  1.00  0.00     0.033 A 
ATOM     17  C   UNL A   1      33.140  23.769  25.565  1.00  0.00     0.058 A 
ATOM     18  C   UNL A   1      32.847  24.893  23.023  1.00  0.00     0.087 A 
ATOM     19  C   UNL A   1      31.880  23.803  24.951  1.00  0.00     0.162 A 
ATOM     20  Cl  UNL A   1      32.859  25.421  21.377  1.00  0.00    -0.080 Cl
BRANCH  15  21
ATOM     21  C   UNL A   1      35.545  24.396  25.587  1.00  0.00     0.040 C 
ATOM     22  N   UNL A   1      37.606  21.483  25.114  1.00  0.00    -0.259 N 
ATOM     23  C   UNL A   1      38.322  22.245  26.012  1.00  0.00     0.328 C 
ATOM     24  C   UNL A   1      36.408  22.094  24.807  1.00  0.00     0.278 C 
ATOM     25  O   UNL A   1      39.374  21.984  26.571  1.00  0.00    -0.248 OA
ATOM     26  N   UNL A   1      37.622  23.420  26.225  1.00  0.00    -0.303 N 
ATOM     27  C   UNL A   1      36.445  23.407  25.538  1.00  0.00     0.109 C 
ATOM     28  O   UNL A   1      35.495  21.661  24.126  1.00  0.00    -0.267 OA
ATOM     29  H   UNL A   1      37.931  24.162  26.794  1.00  0.00     0.172 HD
BRANCH  22  30
ATOM     30  C   UNL A   1      37.937  20.153  24.628  1.00  0.00     0.127 C 
ATOM     31  C   UNL A   1      36.946  19.053  24.967  1.00  0.00     0.028 C 
ENDBRANCH  22  30
ENDBRANCH  15  21
BRANCH  19  32
ATOM     32  O   UNL A   1      30.768  23.226  25.525  1.00  0.00    -0.493 OA
ATOM     33  C   UNL A   1      30.762  23.176  26.952  1.00  0.00     0.278 C 
ENDBRANCH  19  32
ENDBRANCH  13  14
ENDBRANCH  12  13
ENDBRANCH   7  12
ENDBRANCH   3   6
ENDBRANCH   1   2
BRANCH   1  34
ATOM     34  C   UNL A   1      34.179  31.523  27.868  1.00  0.00     0.023 C 
BRANCH  34  35
ATOM     35  C   UNL A   1      35.657  31.770  27.624  1.00  0.00     0.023 C 
BRANCH  35  36
ATOM     36  C   UNL A   1      36.488  32.056  28.867  1.00  0.00     0.116 C 
BRANCH  36  37
ATOM     37  N   UNL A   1      36.031  31.345  30.055  1.00  0.00    -0.352 N 
ATOM     38  C   UNL A   1      36.587  30.251  30.677  1.00  0.00     0.251 C 
ATOM     39  H   UNL A   1      35.208  31.695  30.469  1.00  0.00     0.163 HD
ATOM     40  O   UNL A   1      36.012  29.715  31.619  1.00  0.00    -0.269 OA
BRANCH  38  41
ATOM     41  C   UNL A   1      37.863  29.706  30.168  1.00  0.00     0.039 A 
ATOM     42  C   UNL A   1      38.036  29.560  28.791  1.00  0.00     0.014 A 
ATOM     43  C   UNL A   1      38.907  29.410  31.048  1.00  0.00     0.014 A 
ATOM     44  C   UNL A   1      39.291  29.204  28.291  1.00  0.00     0.010 A 
ATOM     45  C   UNL A   1      40.177  29.151  30.544  1.00  0.00     0.010 A 
ATOM     46  C   UNL A   1      40.384  29.047  29.161  1.00  0.00    -0.014 A 
BRANCH  46  47
ATOM     47  C   UNL A   1      41.751  28.777  28.644  1.00  0.00     0.031 A 
ATOM     48  C   UNL A   1      42.126  27.386  28.205  1.00  0.00     0.074 A 
ATOM     49  C   UNL A   1      42.671  29.764  28.630  1.00  0.00     0.049 A 
ATOM     50  N   UNL A   1      43.283  26.933  27.799  1.00  0.00    -0.248 NA
ATOM     51  C   UNL A   1      41.068  26.362  28.256  1.00  0.00     0.031 C 
ATOM     52  C   UNL A   1      42.444  31.141  29.078  1.00  0.00     0.029 A 
ATOM     53  N   UNL A   1      43.985  29.763  28.231  1.00  0.00    -0.354 N 
ATOM     54  C   UNL A   1      43.095  25.579  27.553  1.00  0.00     0.074 A 
ATOM     55  C   UNL A   1      41.732  25.267  27.917  1.00  0.00     0.031 C 
ATOM     56  C   UNL A   1      43.570  31.854  28.906  1.00  0.00     0.029 A 
ATOM     57  C   UNL A   1      44.612  30.979  28.378  1.00  0.00     0.049 A 
ATOM     58  H   UNL A   1      44.437  28.964  27.873  1.00  0.00     0.167 HD
ATOM     59  C   UNL A   1      43.970  24.681  27.040  1.00  0.00     0.037 A 
ATOM     60  C   UNL A   1      45.885  31.345  28.127  1.00  0.00     0.037 A 
ATOM     61  C   UNL A   1      45.319  25.003  26.657  1.00  0.00     0.049 A 
ATOM     62  C   UNL A   1      46.843  30.320  27.575  1.00  0.00     0.074 A 
ATOM     63  C   UNL A   1      46.270  24.175  26.086  1.00  0.00     0.029 A 
ATOM     64  N   UNL A   1      45.910  26.249  26.804  1.00  0.00    -0.354 N 
ATOM     65  N   UNL A   1      46.626  29.058  27.289  1.00  0.00    -0.248 NA
ATOM     66  C   UNL A   1      48.215  30.771  27.304  1.00  0.00     0.031 C 
ATOM     67  C   UNL A   1      47.451  24.907  25.932  1.00  0.00     0.029 A 
ATOM     68  C   UNL A   1      47.219  26.208  26.351  1.00  0.00     0.049 A 
ATOM     69  H   UNL A   1      45.465  27.045  27.174  1.00  0.00     0.167 HD
ATOM     70  C   UNL A   1      47.824  28.575  26.772  1.00  0.00     0.074 A 
ATOM     71  C   UNL A   1      48.755  29.683  26.772  1.00  0.00     0.031 C 
ATOM     72  C   UNL A   1      48.128  27.326  26.339  1.00  0.00     0.037 A 
BRANCH  59  73
ATOM     73  C   UNL A   1      43.493  23.268  26.843  1.00  0.00     0.058 A 
ATOM     74  C   UNL A   1      43.222  22.757  25.563  1.00  0.00     0.135 A 
ATOM     75  C   UNL A   1      43.368  22.395  27.936  1.00  0.00     0.135 A 
ATOM     76  F   UNL A   1      43.306  23.552  24.485  1.00  0.00    -0.206 F 
ATOM     77  C   UNL A   1      42.831  21.435  25.375  1.00  0.00     0.059 A 
ATOM     78  C   UNL A   1      43.008  21.061  27.768  1.00  0.00     0.059 A 
ATOM     79  F   UNL A   1      43.610  22.832  29.181  1.00  0.00    -0.206 F 
ATOM     80  C   UNL A   1      42.735  20.593  26.483  1.00  0.00     0.060 A 
BRANCH  80  81
ATOM     81  S   UNL A   1      42.265  18.872  26.213  1.00  0.00     0.124 S 
ATOM     82  O   UNL A   1      40.890  19.014  25.744  1.00  0.00    -0.237 OA
ATOM     83  O   UNL A   1      43.234  18.439  25.212  1.00  0.00    -0.237 OA
ATOM     84  O   UNL A   1      42.416  18.265  27.532  1.00  0.00    -0.744 OA
ENDBRANCH  80  81
ENDBRANCH  59  73
BRANCH  60  85
ATOM     85  C   UNL A   1      46.335  32.741  28.385  1.00  0.00     0.058 A 
ATOM     86  C   UNL A   1      46.927  33.098  29.608  1.00  0.00     0.135 A 
ATOM     87  C   UNL A   1      46.157  33.754  27.430  1.00  0.00     0.135 A 
ATOM     88  F   UNL A   1      47.115  32.168  30.557  1.00  0.00    -0.206 F 
ATOM     89  C   UNL A   1      47.292  34.411  29.887  1.00  0.00     0.059 A 
ATOM     90  C   UNL A   1      46.544  35.068  27.674  1.00  0.00     0.059 A 
ATOM     91  F   UNL A   1      45.613  33.466  26.237  1.00  0.00    -0.206 F 
ATOM     92  C   UNL A   1      47.093  35.390  28.914  1.00  0.00     0.060 A 
BRANCH  92  93
ATOM     93  S   UNL A   1      47.581  37.089  29.284  1.00  0.00     0.124 S 
ATOM     94  O   UNL A   1      47.138  37.789  28.083  1.00  0.00    -0.237 OA
ATOM     95  O   UNL A   1      46.825  37.368  30.500  1.00  0.00    -0.237 OA
ATOM     96  O   UNL A   1      49.027  36.992  29.460  1.00  0.00    -0.744 OA
ENDBRANCH  92  93
ENDBRANCH  60  85
BRANCH  72  97
ATOM     97  C   UNL A   1      49.505  27.098  25.779  1.00  0.00     0.058 A 
ATOM     98  C   UNL A   1      50.565  26.642  26.577  1.00  0.00     0.135 A 
ATOM     99  C   UNL A   1      49.752  27.288  24.409  1.00  0.00     0.135 A 
ATOM    100  F   UNL A   1      50.386  26.451  27.894  1.00  0.00    -0.206 F 
ATOM    101  C   UNL A   1      51.827  26.406  26.044  1.00  0.00     0.059 A 
ATOM    102  C   UNL A   1      50.997  27.026  23.846  1.00  0.00     0.059 A 
ATOM    103  F   UNL A   1      48.770  27.713  23.597  1.00  0.00    -0.206 F 
ATOM    104  C   UNL A   1      52.033  26.597  24.675  1.00  0.00     0.060 A 
BRANCH 104 105
ATOM    105  S   UNL A   1      53.666  26.253  23.989  1.00  0.00     0.124 S 
ATOM    106  O   UNL A   1      53.344  25.962  22.595  1.00  0.00    -0.237 OA
ATOM    107  O   UNL A   1      54.375  27.506  24.228  1.00  0.00    -0.237 OA
ATOM    108  O   UNL A   1      54.134  25.115  24.774  1.00  0.00    -0.744 OA
ENDBRANCH 104 105
ENDBRANCH  72  97
ENDBRANCH  46  47
ENDBRANCH  38  41
ENDBRANCH  36  37
ENDBRANCH  35  36
ENDBRANCH  34  35
ENDBRANCH   1  34
TORSDOF 20
ENDMDL
MODEL 3
REMARK VINA RESULT:      -8.4      1.497      2.204
REMARK SMILES CCN1C(=O)N/C(=C/c2cc(Cl)c(OCc3cccc(C(=O)NCCCCNC(=O)c4ccc(-c5c6nc(c(-c7c(F)cc(S(=O)(=O)[O-])cc7F)c7ccc([nH]7)c(-c7c(F)cc(S(=O)(=O)[O-])cc7F)c7nc(c(-c8c(F)cc(S(=O)(=O)[O-])cc8F)c8ccc5[nH]8)C=C7)C=C6)cc4)c3)c(OC)c2)C1=O
REMARK SMILES IDX 24 1 23 2 21 3 22 4 20 6 16 7 17 8 97 9 18 10 19 11 15 12
REMARK SMILES IDX 14 13 13 14 9 15 10 16 101 17 11 18 98 19 12 20 8 21 3 22
REMARK SMILES IDX 4 23 102 24 5 25 6 26 7 27 103 28 2 30 1 31 99 32 100 33
REMARK SMILES IDX 25 34 26 35 27 36 28 37 29 38 30 40 31 41 32 42 96 43 33 44
REMARK SMILES IDX 95 45 34 46 35 47 36 48 89 49 37 50 94 51 88 52 90 53 38 54
REMARK SMILES IDX 93 55 87 56 86 57 39 59 73 60 52 61 72 62 53 63 56 64 71 65
REMARK SMILES IDX 91 66 54 67 55 68 70 70 92 71 57 72 40 73 41 74 50 75 42 76
REMARK SMILES IDX 43 77 49 78 51 79 44 80 45 81 46 82 47 83 48 84 74 85 75 86
REMARK SMILES IDX 84 87 76 88 77 89 83 90 85 91 78 92 79 93 80 94 81 95 82 96
REMARK SMILES IDX 58 97 59 98 68 99 60 100 61 101 67 102 69 103 62 104 63 105
REMARK SMILES IDX 64 106 65 107 66 108
REMARK H PARENT 23 5 6 29 28 39 90 58 56 69
REMARK Flexibility Score: inf
ROOT
ATOM      1  C   UNL A   1      35.015  32.144  32.308  1.00  0.00     0.116 C 
ENDROOT
BRANCH   1   2
ATOM      2  N   UNL A   1      34.812  33.413  32.989  1.00  0.00    -0.352 N 
ATOM      3  C   UNL A   1      35.700  34.291  33.570  1.00  0.00     0.251 C 
ATOM      4  O   UNL A   1      35.260  35.324  34.074  1.00  0.00    -0.269 OA
ATOM      5  H   UNL A   1      33.870  33.696  33.043  1.00  0.00     0.163 HD
BRANCH   3   6
ATOM      6  C   UNL A   1      37.155  33.996  33.678  1.00  0.00     0.040 A 
ATOM      7  C   UNL A   1      39.071  33.159  34.947  1.00  0.00    -0.010 A 
ATOM      8  C   UNL A   1      39.912  33.786  34.024  1.00  0.00     0.007 A 
ATOM      9  C   UNL A   1      37.696  33.165  34.663  1.00  0.00     0.021 A 
ATOM     10  C   UNL A   1      39.396  34.481  32.926  1.00  0.00     0.001 A 
ATOM     11  C   UNL A   1      38.019  34.619  32.774  1.00  0.00     0.014 A 
BRANCH   7  12
ATOM     12  C   UNL A   1      39.544  32.452  36.210  1.00  0.00     0.265 C 
BRANCH  12  13
ATOM     13  O   UNL A   1      39.599  31.015  36.216  1.00  0.00    -0.483 OA
BRANCH  13  14
ATOM     14  C   UNL A   1      40.453  30.340  35.386  1.00  0.00     0.180 A 
ATOM     15  C   UNL A   1      42.480  29.309  33.728  1.00  0.00    -0.018 A 
ATOM     16  C   UNL A   1      41.160  29.357  33.284  1.00  0.00     0.033 A 
ATOM     17  C   UNL A   1      42.772  29.649  35.047  1.00  0.00     0.058 A 
ATOM     18  C   UNL A   1      40.143  29.831  34.118  1.00  0.00     0.087 A 
ATOM     19  C   UNL A   1      41.760  30.135  35.888  1.00  0.00     0.162 A 
ATOM     20  Cl  UNL A   1      38.543  29.686  33.480  1.00  0.00    -0.080 Cl
BRANCH  15  21
ATOM     21  C   UNL A   1      43.531  28.878  32.809  1.00  0.00     0.040 C 
ATOM     22  N   UNL A   1      44.659  25.489  33.254  1.00  0.00    -0.259 N 
ATOM     23  C   UNL A   1      45.517  25.995  32.301  1.00  0.00     0.328 C 
ATOM     24  C   UNL A   1      43.778  26.463  33.677  1.00  0.00     0.278 C 
ATOM     25  O   UNL A   1      46.474  25.457  31.769  1.00  0.00    -0.248 OA
ATOM     26  N   UNL A   1      45.131  27.296  32.028  1.00  0.00    -0.303 N 
ATOM     27  C   UNL A   1      44.088  27.662  32.825  1.00  0.00     0.109 C 
ATOM     28  O   UNL A   1      42.952  26.393  34.570  1.00  0.00    -0.267 OA
ATOM     29  H   UNL A   1      45.551  27.876  31.353  1.00  0.00     0.172 HD
BRANCH  22  30
ATOM     30  C   UNL A   1      44.709  24.175  33.874  1.00  0.00     0.127 C 
ATOM     31  C   UNL A   1      43.660  23.179  33.411  1.00  0.00     0.028 C 
ENDBRANCH  22  30
ENDBRANCH  15  21
BRANCH  19  32
ATOM     32  O   UNL A   1      41.995  30.463  37.205  1.00  0.00    -0.493 OA
ATOM     33  C   UNL A   1      43.294  30.981  37.494  1.00  0.00     0.278 C 
ENDBRANCH  19  32
ENDBRANCH  13  14
ENDBRANCH  12  13
ENDBRANCH   7  12
ENDBRANCH   3   6
ENDBRANCH   1   2
BRANCH   1  34
ATOM     34  C   UNL A   1      35.831  32.224  31.027  1.00  0.00     0.023 C 
BRANCH  34  35
ATOM     35  C   UNL A   1      35.187  32.968  29.871  1.00  0.00     0.023 C 
BRANCH  35  36
ATOM     36  C   UNL A   1      35.422  32.367  28.492  1.00  0.00     0.116 C 
BRANCH  36  37
ATOM     37  N   UNL A   1      34.645  31.160  28.239  1.00  0.00    -0.352 N 
ATOM     38  C   UNL A   1      35.082  29.862  28.102  1.00  0.00     0.251 C 
ATOM     39  H   UNL A   1      33.673  31.290  28.152  1.00  0.00     0.163 HD
ATOM     40  O   UNL A   1      34.296  28.973  27.791  1.00  0.00    -0.269 OA
BRANCH  38  41
ATOM     41  C   UNL A   1      36.516  29.561  28.291  1.00  0.00     0.039 A 
ATOM     42  C   UNL A   1      37.399  29.777  27.232  1.00  0.00     0.014 A 
ATOM     43  C   UNL A   1      36.993  29.138  29.534  1.00  0.00     0.014 A 
ATOM     44  C   UNL A   1      38.773  29.656  27.448  1.00  0.00     0.010 A 
ATOM     45  C   UNL A   1      38.363  29.113  29.772  1.00  0.00     0.010 A 
ATOM     46  C   UNL A   1      39.268  29.373  28.733  1.00  0.00    -0.014 A 
BRANCH  46  47
ATOM     47  C   UNL A   1      40.728  29.348  29.012  1.00  0.00     0.031 A 
ATOM     48  C   UNL A   1      41.365  30.473  29.782  1.00  0.00     0.074 A 
ATOM     49  C   UNL A   1      41.488  28.347  28.519  1.00  0.00     0.049 A 
ATOM     50  N   UNL A   1      42.627  30.672  30.060  1.00  0.00    -0.248 NA
ATOM     51  C   UNL A   1      40.470  31.531  30.282  1.00  0.00     0.031 C 
ATOM     52  C   UNL A   1      40.996  27.226  27.713  1.00  0.00     0.029 A 
ATOM     53  N   UNL A   1      42.838  28.113  28.614  1.00  0.00    -0.354 N 
ATOM     54  C   UNL A   1      42.677  31.872  30.759  1.00  0.00     0.074 A 
ATOM     55  C   UNL A   1      41.329  32.392  30.806  1.00  0.00     0.031 C 
ATOM     56  C   UNL A   1      42.022  26.414  27.411  1.00  0.00     0.029 A 
ATOM     57  C   UNL A   1      43.252  26.976  27.960  1.00  0.00     0.049 A 
ATOM     58  H   UNL A   1      43.453  28.707  29.104  1.00  0.00     0.167 HD
ATOM     59  C   UNL A   1      43.744  32.473  31.336  1.00  0.00     0.037 A 
ATOM     60  C   UNL A   1      44.485  26.451  27.809  1.00  0.00     0.037 A 
ATOM     61  C   UNL A   1      45.080  31.939  31.305  1.00  0.00     0.049 A 
ATOM     62  C   UNL A   1      45.658  27.151  28.446  1.00  0.00     0.074 A 
ATOM     63  C   UNL A   1      46.223  32.450  31.899  1.00  0.00     0.029 A 
ATOM     64  N   UNL A   1      45.456  30.777  30.650  1.00  0.00    -0.354 N 
ATOM     65  N   UNL A   1      45.674  28.253  29.157  1.00  0.00    -0.248 NA
ATOM     66  C   UNL A   1      46.979  26.533  28.266  1.00  0.00     0.031 C 
ATOM     67  C   UNL A   1      47.297  31.622  31.561  1.00  0.00     0.029 A 
ATOM     68  C   UNL A   1      46.815  30.562  30.808  1.00  0.00     0.049 A 
ATOM     69  H   UNL A   1      44.846  30.190  30.147  1.00  0.00     0.167 HD
ATOM     70  C   UNL A   1      46.999  28.441  29.538  1.00  0.00     0.074 A 
ATOM     71  C   UNL A   1      47.751  27.331  28.992  1.00  0.00     0.031 C 
ATOM     72  C   UNL A   1      47.546  29.441  30.273  1.00  0.00     0.037 A 
BRANCH  59  73
ATOM     73  C   UNL A   1      43.513  33.767  32.067  1.00  0.00     0.058 A 
ATOM     74  C   UNL A   1      43.415  33.811  33.468  1.00  0.00     0.135 A 
ATOM     75  C   UNL A   1      43.453  34.984  31.370  1.00  0.00     0.135 A 
ATOM     76  F   UNL A   1      43.446  32.676  34.184  1.00  0.00    -0.206 F 
ATOM     77  C   UNL A   1      43.253  35.013  34.149  1.00  0.00     0.059 A 
ATOM     78  C   UNL A   1      43.322  36.202  32.032  1.00  0.00     0.059 A 
ATOM     79  F   UNL A   1      43.537  35.000  30.030  1.00  0.00    -0.206 F 
ATOM     80  C   UNL A   1      43.215  36.203  33.422  1.00  0.00     0.060 A 
BRANCH  80  81
ATOM     81  S   UNL A   1      43.044  37.755  34.328  1.00  0.00     0.124 S 
ATOM     82  O   UNL A   1      41.759  37.565  34.994  1.00  0.00    -0.237 OA
ATOM     83  O   UNL A   1      44.217  37.738  35.197  1.00  0.00    -0.237 OA
ATOM     84  O   UNL A   1      43.061  38.768  33.277  1.00  0.00    -0.744 OA
ENDBRANCH  80  81
ENDBRANCH  59  73
BRANCH  60  85
ATOM     85  C   UNL A   1      44.682  25.196  27.032  1.00  0.00     0.058 A 
ATOM     86  C   UNL A   1      44.844  25.225  25.637  1.00  0.00     0.135 A 
ATOM     87  C   UNL A   1      44.684  23.941  27.660  1.00  0.00     0.135 A 
ATOM     88  F   UNL A   1      44.845  26.398  24.987  1.00  0.00    -0.206 F 
ATOM     89  C   UNL A   1      44.964  24.056  24.891  1.00  0.00     0.059 A 
ATOM     90  C   UNL A   1      44.835  22.760  26.939  1.00  0.00     0.059 A 
ATOM     91  F   UNL A   1      44.552  23.855  28.993  1.00  0.00    -0.206 F 
ATOM     92  C   UNL A   1      44.955  22.828  25.552  1.00  0.00     0.060 A 
BRANCH  92  93
ATOM     93  S   UNL A   1      45.122  21.318  24.575  1.00  0.00     0.124 S 
ATOM     94  O   UNL A   1      44.582  21.740  23.288  1.00  0.00    -0.237 OA
ATOM     95  O   UNL A   1      46.562  21.083  24.618  1.00  0.00    -0.237 OA
ATOM     96  O   UNL A   1      44.314  20.351  25.312  1.00  0.00    -0.744 OA
ENDBRANCH  92  93
ENDBRANCH  60  85
BRANCH  72  97
ATOM     97  C   UNL A   1      49.017  29.360  30.576  1.00  0.00     0.058 A 
ATOM     98  C   UNL A   1      49.516  28.589  31.637  1.00  0.00     0.135 A 
ATOM     99  C   UNL A   1      49.946  30.021  29.754  1.00  0.00     0.135 A 
ATOM    100  F   UNL A   1      48.672  27.943  32.457  1.00  0.00    -0.206 F 
ATOM    101  C   UNL A   1      50.880  28.497  31.890  1.00  0.00     0.059 A 
ATOM    102  C   UNL A   1      51.316  29.916  29.967  1.00  0.00     0.059 A 
ATOM    103  F   UNL A   1      49.524  30.762  28.717  1.00  0.00    -0.206 F 
ATOM    104  C   UNL A   1      51.773  29.161  31.047  1.00  0.00     0.060 A 
BRANCH 104 105
ATOM    105  S   UNL A   1      53.543  29.003  31.364  1.00  0.00     0.124 S 
ATOM    106  O   UNL A   1      53.550  28.310  32.650  1.00  0.00    -0.237 OA
ATOM    107  O   UNL A   1      53.996  28.219  30.220  1.00  0.00    -0.237 OA
ATOM    108  O   UNL A   1      54.009  30.385  31.395  1.00  0.00    -0.744 OA
ENDBRANCH 104 105
ENDBRANCH  72  97
ENDBRANCH  46  47
ENDBRANCH  38  41
ENDBRANCH  36  37
ENDBRANCH  35  36
ENDBRANCH  34  35
ENDBRANCH   1  34
TORSDOF 20
ENDMDL
