MODEL 1
REMARK VINA RESULT:      -9.7      0.000      0.000
REMARK SMILES CCCC#C[C@](C)(O)C[NH2+][C@H](C)C(=O)NCCCCNC(=O)c1ccc(-c2c3nc(c(-c4c(F)cc(S(=O)(=O)[O-])cc4F)c4ccc([nH]4)c(-c4c(F)cc(S(=O)(=O)[O-])cc4F)c4nc(c(-c5c(F)cc(S(=O)(=O)[O-])cc5F)c5ccc2[nH]5)C=C4)C=C3)cc1
REMARK SMILES IDX 16 1 15 2 13 3 14 4 11 6 12 7 10 8 9 11 6 12 7 13 5 14 4 15
REMARK SMILES IDX 3 16 2 17 1 18 8 19 17 21 18 22 19 23 20 24 21 25 22 27
REMARK SMILES IDX 23 28 24 29 88 30 25 31 87 32 26 33 27 34 28 35 81 36 29 37
REMARK SMILES IDX 86 38 80 39 82 40 30 41 85 42 79 43 78 44 31 46 65 47 44 48
REMARK SMILES IDX 64 49 45 50 48 51 63 52 83 53 46 54 47 55 62 57 84 58 49 59
REMARK SMILES IDX 32 60 33 61 42 62 34 63 35 64 41 65 43 66 36 67 37 68 38 69
REMARK SMILES IDX 39 70 40 71 66 72 67 73 76 74 68 75 69 76 75 77 77 78 70 79
REMARK SMILES IDX 71 80 72 81 73 82 74 83 50 84 51 85 60 86 52 87 53 88 59 89
REMARK SMILES IDX 61 90 54 91 55 92 56 93 57 94 58 95
REMARK H PARENT 15 5 10 9 10 10 8 20 20 26 82 45 48 56
REMARK Flexibility Score: inf
ROOT
ATOM      1  C   UNL A   1      30.973  25.754  25.779  1.00  0.00     0.116 C 
ENDROOT
BRANCH   1   2
ATOM      2  N   UNL A   1      30.213  24.824  26.589  1.00  0.00    -0.351 N 
ATOM      3  C   UNL A   1      30.453  23.513  26.875  1.00  0.00     0.277 C 
ATOM      4  O   UNL A   1      29.642  22.923  27.593  1.00  0.00    -0.268 OA
ATOM      5  H   UNL A   1      29.398  25.196  26.995  1.00  0.00     0.163 HD
BRANCH   3   6
ATOM      6  C   UNL A   1      31.711  22.793  26.351  1.00  0.00     0.269 C 
ATOM      7  C   UNL A   1      32.785  22.697  27.439  1.00  0.00     0.086 C 
BRANCH   6   8
ATOM      8  N   UNL A   1      31.430  21.467  25.753  1.00  0.00    -0.333 N 
ATOM      9  H   UNL A   1      31.686  20.747  26.429  1.00  0.00     0.347 HD
ATOM     10  H   UNL A   1      30.436  21.444  25.524  1.00  0.00     0.347 HD
BRANCH   8  11
ATOM     11  C   UNL A   1      32.173  21.221  24.501  1.00  0.00     0.310 C 
BRANCH  11  12
ATOM     12  C   UNL A   1      33.169  20.035  24.638  1.00  0.00     0.171 C 
ATOM     13  C   UNL A   1      32.856  19.183  25.873  1.00  0.00     0.063 C 
BRANCH  12  14
ATOM     14  C   UNL A   1      34.549  20.550  24.700  1.00  0.00    -0.063 C 
ATOM     15  C   UNL A   1      35.733  21.096  24.722  1.00  0.00    -0.100 C 
BRANCH  15  16
ATOM     16  C   UNL A   1      37.113  21.732  24.748  1.00  0.00     0.089 C 
BRANCH  16  17
ATOM     17  C   UNL A   1      37.016  23.235  25.013  1.00  0.00     0.010 C 
ATOM     18  C   UNL A   1      37.954  23.714  26.115  1.00  0.00     0.005 C 
ENDBRANCH  16  17
ENDBRANCH  15  16
ENDBRANCH  12  14
BRANCH  12  19
ATOM     19  O   UNL A   1      33.048  19.203  23.474  1.00  0.00    -0.372 OA
ATOM     20  H   UNL A   1      33.932  18.979  23.143  1.00  0.00     0.212 HD
ENDBRANCH  12  19
ENDBRANCH  11  12
ENDBRANCH   8  11
ENDBRANCH   6   8
ENDBRANCH   3   6
ENDBRANCH   1   2
BRANCH   1  21
ATOM     21  C   UNL A   1      32.181  26.289  26.538  1.00  0.00     0.023 C 
BRANCH  21  22
ATOM     22  C   UNL A   1      32.679  27.651  26.055  1.00  0.00     0.023 C 
BRANCH  22  23
ATOM     23  C   UNL A   1      33.876  28.203  26.819  1.00  0.00     0.116 C 
BRANCH  23  24
ATOM     24  N   UNL A   1      33.654  29.553  27.311  1.00  0.00    -0.352 N 
ATOM     25  C   UNL A   1      34.499  30.366  28.024  1.00  0.00     0.251 C 
ATOM     26  H   UNL A   1      32.772  29.939  27.102  1.00  0.00     0.163 HD
ATOM     27  O   UNL A   1      34.080  31.419  28.499  1.00  0.00    -0.269 OA
BRANCH  25  28
ATOM     28  C   UNL A   1      35.904  29.957  28.240  1.00  0.00     0.039 A 
ATOM     29  C   UNL A   1      36.813  30.082  27.188  1.00  0.00     0.014 A 
ATOM     30  C   UNL A   1      36.326  29.461  29.478  1.00  0.00     0.014 A 
ATOM     31  C   UNL A   1      38.156  29.762  27.396  1.00  0.00     0.010 A 
ATOM     32  C   UNL A   1      37.680  29.231  29.708  1.00  0.00     0.010 A 
ATOM     33  C   UNL A   1      38.608  29.366  28.667  1.00  0.00    -0.014 A 
BRANCH  33  34
ATOM     34  C   UNL A   1      40.049  29.093  28.908  1.00  0.00     0.031 A 
ATOM     35  C   UNL A   1      40.644  27.756  28.555  1.00  0.00     0.074 A 
ATOM     36  C   UNL A   1      40.816  30.044  29.479  1.00  0.00     0.049 A 
ATOM     37  N   UNL A   1      41.882  27.348  28.670  1.00  0.00    -0.248 NA
ATOM     38  C   UNL A   1      39.726  26.731  28.034  1.00  0.00     0.031 C 
ATOM     39  C   UNL A   1      40.340  31.352  29.937  1.00  0.00     0.029 A 
ATOM     40  N   UNL A   1      42.157  30.060  29.773  1.00  0.00    -0.354 N 
ATOM     41  C   UNL A   1      41.888  26.025  28.246  1.00  0.00     0.074 A 
ATOM     42  C   UNL A   1      40.521  25.677  27.933  1.00  0.00     0.031 C 
ATOM     43  C   UNL A   1      41.377  32.056  30.417  1.00  0.00     0.029 A 
ATOM     44  C   UNL A   1      42.585  31.240  30.335  1.00  0.00     0.049 A 
ATOM     45  H   UNL A   1      42.756  29.299  29.597  1.00  0.00     0.167 HD
ATOM     46  C   UNL A   1      42.942  25.184  28.104  1.00  0.00     0.037 A 
ATOM     47  C   UNL A   1      43.812  31.626  30.736  1.00  0.00     0.037 A 
ATOM     48  C   UNL A   1      44.303  25.547  28.399  1.00  0.00     0.049 A 
ATOM     49  C   UNL A   1      44.971  30.687  30.544  1.00  0.00     0.074 A 
ATOM     50  C   UNL A   1      45.451  24.795  28.222  1.00  0.00     0.029 A 
ATOM     51  N   UNL A   1      44.702  26.762  28.940  1.00  0.00    -0.354 N 
ATOM     52  N   UNL A   1      44.974  29.469  30.055  1.00  0.00    -0.248 NA
ATOM     53  C   UNL A   1      46.298  31.178  30.941  1.00  0.00     0.031 C 
ATOM     54  C   UNL A   1      46.536  25.532  28.710  1.00  0.00     0.029 A 
ATOM     55  C   UNL A   1      46.074  26.770  29.128  1.00  0.00     0.049 A 
ATOM     56  H   UNL A   1      44.098  27.508  29.159  1.00  0.00     0.167 HD
ATOM     57  C   UNL A   1      46.303  29.061  30.056  1.00  0.00     0.074 A 
ATOM     58  C   UNL A   1      47.076  30.165  30.584  1.00  0.00     0.031 C 
ATOM     59  C   UNL A   1      46.834  27.878  29.652  1.00  0.00     0.037 A 
BRANCH  46  60
ATOM     60  C   UNL A   1      42.663  23.789  27.609  1.00  0.00     0.058 A 
ATOM     61  C   UNL A   1      42.582  23.488  26.239  1.00  0.00     0.135 A 
ATOM     62  C   UNL A   1      42.504  22.729  28.518  1.00  0.00     0.135 A 
ATOM     63  F   UNL A   1      42.711  24.462  25.324  1.00  0.00    -0.206 F 
ATOM     64  C   UNL A   1      42.320  22.198  25.790  1.00  0.00     0.059 A 
ATOM     65  C   UNL A   1      42.275  21.424  28.090  1.00  0.00     0.059 A 
ATOM     66  F   UNL A   1      42.573  22.956  29.840  1.00  0.00    -0.206 F 
ATOM     67  C   UNL A   1      42.167  21.172  26.723  1.00  0.00     0.060 A 
BRANCH  67  68
ATOM     68  S   UNL A   1      41.827  19.504  26.123  1.00  0.00     0.124 S 
ATOM     69  O   UNL A   1      42.749  19.406  24.996  1.00  0.00    -0.237 OA
ATOM     70  O   UNL A   1      42.156  18.682  27.285  1.00  0.00    -0.237 OA
ATOM     71  O   UNL A   1      40.411  19.550  25.773  1.00  0.00    -0.744 OA
ENDBRANCH  67  68
ENDBRANCH  46  60
BRANCH  47  72
ATOM     72  C   UNL A   1      44.005  32.977  31.327  1.00  0.00     0.058 A 
ATOM     73  C   UNL A   1      43.967  33.178  32.716  1.00  0.00     0.135 A 
ATOM     74  C   UNL A   1      44.264  34.093  30.515  1.00  0.00     0.135 A 
ATOM     75  F   UNL A   1      43.719  32.145  33.536  1.00  0.00    -0.206 F 
ATOM     76  C   UNL A   1      44.164  34.435  33.277  1.00  0.00     0.059 A 
ATOM     77  C   UNL A   1      44.492  35.355  31.055  1.00  0.00     0.059 A 
ATOM     78  F   UNL A   1      44.330  33.953  29.182  1.00  0.00    -0.206 F 
ATOM     79  C   UNL A   1      44.432  35.517  32.438  1.00  0.00     0.060 A 
BRANCH  79  80
ATOM     80  S   UNL A   1      44.747  37.133  33.182  1.00  0.00     0.124 S 
ATOM     81  O   UNL A   1      45.383  36.759  34.439  1.00  0.00    -0.237 OA
ATOM     82  O   UNL A   1      45.610  37.764  32.190  1.00  0.00    -0.237 OA
ATOM     83  O   UNL A   1      43.411  37.714  33.299  1.00  0.00    -0.744 OA
ENDBRANCH  79  80
ENDBRANCH  47  72
BRANCH  59  84
ATOM     84  C   UNL A   1      48.330  27.731  29.722  1.00  0.00     0.058 A 
ATOM     85  C   UNL A   1      49.164  28.071  28.644  1.00  0.00     0.135 A 
ATOM     86  C   UNL A   1      48.941  27.282  30.905  1.00  0.00     0.135 A 
ATOM     87  F   UNL A   1      48.634  28.502  27.489  1.00  0.00    -0.206 F 
ATOM     88  C   UNL A   1      50.547  27.940  28.726  1.00  0.00     0.059 A 
ATOM     89  C   UNL A   1      50.323  27.175  31.020  1.00  0.00     0.059 A 
ATOM     90  F   UNL A   1      48.193  26.956  31.971  1.00  0.00    -0.206 F 
ATOM     91  C   UNL A   1      51.116  27.491  29.919  1.00  0.00     0.060 A 
BRANCH  91  92
ATOM     92  S   UNL A   1      52.912  27.344  30.018  1.00  0.00     0.124 S 
ATOM     93  O   UNL A   1      53.275  27.215  28.611  1.00  0.00    -0.237 OA
ATOM     94  O   UNL A   1      53.294  28.599  30.659  1.00  0.00    -0.237 OA
ATOM     95  O   UNL A   1      53.112  26.146  30.830  1.00  0.00    -0.744 OA
ENDBRANCH  91  92
ENDBRANCH  59  84
ENDBRANCH  33  34
ENDBRANCH  25  28
ENDBRANCH  23  24
ENDBRANCH  22  23
ENDBRANCH  21  22
ENDBRANCH   1  21
TORSDOF 21
ENDMDL
MODEL 2
REMARK VINA RESULT:      -9.6      0.796      8.508
REMARK SMILES CCCC#C[C@](C)(O)C[NH2+][C@H](C)C(=O)NCCCCNC(=O)c1ccc(-c2c3nc(c(-c4c(F)cc(S(=O)(=O)[O-])cc4F)c4ccc([nH]4)c(-c4c(F)cc(S(=O)(=O)[O-])cc4F)c4nc(c(-c5c(F)cc(S(=O)(=O)[O-])cc5F)c5ccc2[nH]5)C=C4)C=C3)cc1
REMARK SMILES IDX 16 1 15 2 13 3 14 4 11 6 12 7 10 8 9 11 6 12 7 13 5 14 4 15
REMARK SMILES IDX 3 16 2 17 1 18 8 19 17 21 18 22 19 23 20 24 21 25 22 27
REMARK SMILES IDX 23 28 24 29 88 30 25 31 87 32 26 33 27 34 28 35 81 36 29 37
REMARK SMILES IDX 86 38 80 39 82 40 30 41 85 42 79 43 78 44 31 46 65 47 44 48
REMARK SMILES IDX 64 49 45 50 48 51 63 52 83 53 46 54 47 55 62 57 84 58 49 59
REMARK SMILES IDX 32 60 33 61 42 62 34 63 35 64 41 65 43 66 36 67 37 68 38 69
REMARK SMILES IDX 39 70 40 71 66 72 67 73 76 74 68 75 69 76 75 77 77 78 70 79
REMARK SMILES IDX 71 80 72 81 73 82 74 83 50 84 51 85 60 86 52 87 53 88 59 89
REMARK SMILES IDX 61 90 54 91 55 92 56 93 57 94 58 95
REMARK H PARENT 15 5 10 9 10 10 8 20 20 26 82 45 48 56
REMARK Flexibility Score: inf
ROOT
ATOM      1  C   UNL A   1      30.965  26.027  25.851  1.00  0.00     0.116 C 
ENDROOT
BRANCH   1   2
ATOM      2  N   UNL A   1      30.198  25.054  26.603  1.00  0.00    -0.351 N 
ATOM      3  C   UNL A   1      30.420  23.723  26.794  1.00  0.00     0.277 C 
ATOM      4  O   UNL A   1      29.606  23.097  27.479  1.00  0.00    -0.268 OA
ATOM      5  H   UNL A   1      29.393  25.410  27.044  1.00  0.00     0.163 HD
BRANCH   3   6
ATOM      6  C   UNL A   1      31.660  23.022  26.206  1.00  0.00     0.269 C 
ATOM      7  C   UNL A   1      32.841  23.081  27.181  1.00  0.00     0.086 C 
BRANCH   6   8
ATOM      8  N   UNL A   1      31.400  21.633  25.758  1.00  0.00    -0.333 N 
ATOM      9  H   UNL A   1      31.703  20.995  26.494  1.00  0.00     0.347 HD
ATOM     10  H   UNL A   1      30.400  21.559  25.572  1.00  0.00     0.347 HD
BRANCH   8  11
ATOM     11  C   UNL A   1      32.107  21.280  24.510  1.00  0.00     0.310 C 
BRANCH  11  12
ATOM     12  C   UNL A   1      33.117  20.117  24.723  1.00  0.00     0.171 C 
ATOM     13  C   UNL A   1      32.820  19.348  26.014  1.00  0.00     0.063 C 
BRANCH  12  14
ATOM     14  C   UNL A   1      34.491  20.652  24.741  1.00  0.00    -0.063 C 
ATOM     15  C   UNL A   1      35.668  21.213  24.722  1.00  0.00    -0.100 C 
BRANCH  15  16
ATOM     16  C   UNL A   1      37.040  21.867  24.700  1.00  0.00     0.089 C 
BRANCH  16  17
ATOM     17  C   UNL A   1      36.930  23.374  24.925  1.00  0.00     0.010 C 
ATOM     18  C   UNL A   1      37.840  23.886  26.036  1.00  0.00     0.005 C 
ENDBRANCH  16  17
ENDBRANCH  15  16
ENDBRANCH  12  14
BRANCH  12  19
ATOM     19  O   UNL A   1      33.000  19.207  23.618  1.00  0.00    -0.372 OA
ATOM     20  H   UNL A   1      33.885  18.972  23.298  1.00  0.00     0.212 HD
ENDBRANCH  12  19
ENDBRANCH  11  12
ENDBRANCH   8  11
ENDBRANCH   6   8
ENDBRANCH   3   6
ENDBRANCH   1   2
BRANCH   1  21
ATOM     21  C   UNL A   1      32.177  26.504  26.640  1.00  0.00     0.023 C 
BRANCH  21  22
ATOM     22  C   UNL A   1      32.683  27.891  26.244  1.00  0.00     0.023 C 
BRANCH  22  23
ATOM     23  C   UNL A   1      33.913  28.366  27.007  1.00  0.00     0.116 C 
BRANCH  23  24
ATOM     24  N   UNL A   1      33.769  29.720  27.517  1.00  0.00    -0.352 N 
ATOM     25  C   UNL A   1      34.667  30.480  28.224  1.00  0.00     0.251 C 
ATOM     26  H   UNL A   1      32.905  30.153  27.328  1.00  0.00     0.163 HD
ATOM     27  O   UNL A   1      34.310  31.548  28.717  1.00  0.00    -0.269 OA
BRANCH  25  28
ATOM     28  C   UNL A   1      36.052  29.997  28.411  1.00  0.00     0.039 A 
ATOM     29  C   UNL A   1      36.959  30.126  27.358  1.00  0.00     0.014 A 
ATOM     30  C   UNL A   1      36.458  29.429  29.623  1.00  0.00     0.014 A 
ATOM     31  C   UNL A   1      38.287  29.735  27.542  1.00  0.00     0.010 A 
ATOM     32  C   UNL A   1      37.800  29.127  29.833  1.00  0.00     0.010 A 
ATOM     33  C   UNL A   1      38.728  29.263  28.791  1.00  0.00    -0.014 A 
BRANCH  33  34
ATOM     34  C   UNL A   1      40.156  28.914  29.009  1.00  0.00     0.031 A 
ATOM     35  C   UNL A   1      41.111  29.921  29.590  1.00  0.00     0.074 A 
ATOM     36  C   UNL A   1      40.601  27.693  28.647  1.00  0.00     0.049 A 
ATOM     37  N   UNL A   1      42.381  29.786  29.873  1.00  0.00    -0.248 NA
ATOM     38  C   UNL A   1      40.580  31.267  29.863  1.00  0.00     0.031 C 
ATOM     39  C   UNL A   1      39.792  26.655  28.002  1.00  0.00     0.029 A 
ATOM     40  N   UNL A   1      41.840  27.115  28.769  1.00  0.00    -0.354 N 
ATOM     41  C   UNL A   1      42.800  31.025  30.346  1.00  0.00     0.074 A 
ATOM     42  C   UNL A   1      41.667  31.917  30.251  1.00  0.00     0.031 C 
ATOM     43  C   UNL A   1      40.543  25.558  27.821  1.00  0.00     0.029 A 
ATOM     44  C   UNL A   1      41.896  25.823  28.303  1.00  0.00     0.049 A 
ATOM     45  H   UNL A   1      42.616  27.582  29.154  1.00  0.00     0.167 HD
ATOM     46  C   UNL A   1      44.012  31.379  30.839  1.00  0.00     0.037 A 
ATOM     47  C   UNL A   1      42.918  24.946  28.269  1.00  0.00     0.037 A 
ATOM     48  C   UNL A   1      45.128  30.477  30.948  1.00  0.00     0.049 A 
ATOM     49  C   UNL A   1      44.246  25.351  28.848  1.00  0.00     0.074 A 
ATOM     50  C   UNL A   1      46.375  30.715  31.499  1.00  0.00     0.029 A 
ATOM     51  N   UNL A   1      45.138  29.166  30.492  1.00  0.00    -0.354 N 
ATOM     52  N   UNL A   1      44.600  26.499  29.376  1.00  0.00    -0.248 NA
ATOM     53  C   UNL A   1      45.310  24.339  28.844  1.00  0.00     0.031 C 
ATOM     54  C   UNL A   1      47.158  29.568  31.324  1.00  0.00     0.029 A 
ATOM     55  C   UNL A   1      46.377  28.592  30.725  1.00  0.00     0.049 A 
ATOM     56  H   UNL A   1      44.376  28.711  30.065  1.00  0.00     0.167 HD
ATOM     57  C   UNL A   1      45.916  26.337  29.794  1.00  0.00     0.074 A 
ATOM     58  C   UNL A   1      46.291  24.977  29.467  1.00  0.00     0.031 C 
ATOM     59  C   UNL A   1      46.737  27.234  30.398  1.00  0.00     0.037 A 
BRANCH  46  60
ATOM     60  C   UNL A   1      44.192  32.803  31.297  1.00  0.00     0.058 A 
ATOM     61  C   UNL A   1      43.928  33.198  32.619  1.00  0.00     0.135 A 
ATOM     62  C   UNL A   1      44.666  33.782  30.408  1.00  0.00     0.135 A 
ATOM     63  F   UNL A   1      43.460  32.309  33.510  1.00  0.00    -0.206 F 
ATOM     64  C   UNL A   1      44.094  34.515  33.033  1.00  0.00     0.059 A 
ATOM     65  C   UNL A   1      44.871  35.099  30.809  1.00  0.00     0.059 A 
ATOM     66  F   UNL A   1      44.937  33.463  29.132  1.00  0.00    -0.206 F 
ATOM     67  C   UNL A   1      44.565  35.460  32.121  1.00  0.00     0.060 A 
BRANCH  67  68
ATOM     68  S   UNL A   1      44.773  37.166  32.674  1.00  0.00     0.124 S 
ATOM     69  O   UNL A   1      45.110  36.975  34.082  1.00  0.00    -0.237 OA
ATOM     70  O   UNL A   1      45.859  37.639  31.821  1.00  0.00    -0.237 OA
ATOM     71  O   UNL A   1      43.470  37.769  32.417  1.00  0.00    -0.744 OA
ENDBRANCH  67  68
ENDBRANCH  46  60
BRANCH  47  72
ATOM     72  C   UNL A   1      42.709  23.589  27.696  1.00  0.00     0.058 A 
ATOM     73  C   UNL A   1      42.808  23.358  26.316  1.00  0.00     0.135 A 
ATOM     74  C   UNL A   1      42.438  22.487  28.523  1.00  0.00     0.135 A 
ATOM     75  F   UNL A   1      43.062  24.378  25.482  1.00  0.00    -0.206 F 
ATOM     76  C   UNL A   1      42.632  22.089  25.774  1.00  0.00     0.059 A 
ATOM     77  C   UNL A   1      42.285  21.204  28.008  1.00  0.00     0.059 A 
ATOM     78  F   UNL A   1      42.351  22.650  29.853  1.00  0.00    -0.206 F 
ATOM     79  C   UNL A   1      42.376  21.016  26.630  1.00  0.00     0.060 A 
BRANCH  79  80
ATOM     80  S   UNL A   1      42.209  19.364  25.920  1.00  0.00     0.124 S 
ATOM     81  O   UNL A   1      43.061  19.461  24.741  1.00  0.00    -0.237 OA
ATOM     82  O   UNL A   1      42.704  18.516  27.000  1.00  0.00    -0.237 OA
ATOM     83  O   UNL A   1      40.776  19.255  25.656  1.00  0.00    -0.744 OA
ENDBRANCH  79  80
ENDBRANCH  47  72
BRANCH  59  84
ATOM     84  C   UNL A   1      48.112  26.761  30.788  1.00  0.00     0.058 A 
ATOM     85  C   UNL A   1      49.229  26.953  29.960  1.00  0.00     0.135 A 
ATOM     86  C   UNL A   1      48.319  26.144  32.033  1.00  0.00     0.135 A 
ATOM     87  F   UNL A   1      49.088  27.534  28.759  1.00  0.00    -0.206 F 
ATOM     88  C   UNL A   1      50.496  26.520  30.338  1.00  0.00     0.059 A 
ATOM     89  C   UNL A   1      49.582  25.733  32.446  1.00  0.00     0.059 A 
ATOM     90  F   UNL A   1      47.288  25.948  32.871  1.00  0.00    -0.206 F 
ATOM     91  C   UNL A   1      50.662  25.912  31.584  1.00  0.00     0.060 A 
BRANCH  91  92
ATOM     92  S   UNL A   1      52.314  25.372  32.070  1.00  0.00     0.124 S 
ATOM     93  O   UNL A   1      52.550  26.182  33.260  1.00  0.00    -0.237 OA
ATOM     94  O   UNL A   1      52.121  23.944  32.304  1.00  0.00    -0.237 OA
ATOM     95  O   UNL A   1      53.137  25.706  30.911  1.00  0.00    -0.744 OA
ENDBRANCH  91  92
ENDBRANCH  59  84
ENDBRANCH  33  34
ENDBRANCH  25  28
ENDBRANCH  23  24
ENDBRANCH  22  23
ENDBRANCH  21  22
ENDBRANCH   1  21
TORSDOF 21
ENDMDL
MODEL 3
REMARK VINA RESULT:      -9.5      5.432     10.124
REMARK SMILES CCCC#C[C@](C)(O)C[NH2+][C@H](C)C(=O)NCCCCNC(=O)c1ccc(-c2c3nc(c(-c4c(F)cc(S(=O)(=O)[O-])cc4F)c4ccc([nH]4)c(-c4c(F)cc(S(=O)(=O)[O-])cc4F)c4nc(c(-c5c(F)cc(S(=O)(=O)[O-])cc5F)c5ccc2[nH]5)C=C4)C=C3)cc1
REMARK SMILES IDX 16 1 15 2 13 3 14 4 11 6 12 7 10 8 9 11 6 12 7 13 5 14 4 15
REMARK SMILES IDX 3 16 2 17 1 18 8 19 17 21 18 22 19 23 20 24 21 25 22 27
REMARK SMILES IDX 23 28 24 29 88 30 25 31 87 32 26 33 27 34 28 35 81 36 29 37
REMARK SMILES IDX 86 38 80 39 82 40 30 41 85 42 79 43 78 44 31 46 65 47 44 48
REMARK SMILES IDX 64 49 45 50 48 51 63 52 83 53 46 54 47 55 62 57 84 58 49 59
REMARK SMILES IDX 32 60 33 61 42 62 34 63 35 64 41 65 43 66 36 67 37 68 38 69
REMARK SMILES IDX 39 70 40 71 66 72 67 73 76 74 68 75 69 76 75 77 77 78 70 79
REMARK SMILES IDX 71 80 72 81 73 82 74 83 50 84 51 85 60 86 52 87 53 88 59 89
REMARK SMILES IDX 61 90 54 91 55 92 56 93 57 94 58 95
REMARK H PARENT 15 5 10 9 10 10 8 20 20 26 82 45 48 56
REMARK Flexibility Score: inf
ROOT
ATOM      1  C   UNL A   1      34.795  23.027  25.054  1.00  0.00     0.116 C 
ENDROOT
BRANCH   1   2
ATOM      2  N   UNL A   1      34.558  22.904  23.630  1.00  0.00    -0.351 N 
ATOM      3  C   UNL A   1      33.759  23.643  22.809  1.00  0.00     0.277 C 
ATOM      4  O   UNL A   1      33.719  23.334  21.615  1.00  0.00    -0.268 OA
ATOM      5  H   UNL A   1      35.049  22.176  23.187  1.00  0.00     0.163 HD
BRANCH   3   6
ATOM      6  C   UNL A   1      32.956  24.847  23.338  1.00  0.00     0.269 C 
ATOM      7  C   UNL A   1      33.649  26.168  22.991  1.00  0.00     0.086 C 
BRANCH   6   8
ATOM      8  N   UNL A   1      31.539  24.852  22.904  1.00  0.00    -0.333 N 
ATOM      9  H   UNL A   1      31.363  25.713  22.386  1.00  0.00     0.347 HD
ATOM     10  H   UNL A   1      31.397  24.021  22.331  1.00  0.00     0.347 HD
BRANCH   8  11
ATOM     11  C   UNL A   1      30.584  24.778  24.029  1.00  0.00     0.310 C 
BRANCH  11  12
ATOM     12  C   UNL A   1      29.945  26.161  24.341  1.00  0.00     0.171 C 
ATOM     13  C   UNL A   1      29.972  27.079  23.115  1.00  0.00     0.063 C 
BRANCH  12  14
ATOM     14  C   UNL A   1      30.648  26.788  25.475  1.00  0.00    -0.063 C 
ATOM     15  C   UNL A   1      31.305  27.413  26.412  1.00  0.00    -0.100 C 
BRANCH  15  16
ATOM     16  C   UNL A   1      32.070  28.142  27.504  1.00  0.00     0.089 C 
BRANCH  16  17
ATOM     17  C   UNL A   1      33.518  28.393  27.082  1.00  0.00     0.010 C 
ATOM     18  C   UNL A   1      33.643  28.999  25.689  1.00  0.00     0.005 C 
ENDBRANCH  16  17
ENDBRANCH  15  16
ENDBRANCH  12  14
BRANCH  12  19
ATOM     19  O   UNL A   1      28.574  25.953  24.718  1.00  0.00    -0.372 OA
ATOM     20  H   UNL A   1      28.438  25.019  24.939  1.00  0.00     0.212 HD
ENDBRANCH  12  19
ENDBRANCH  11  12
ENDBRANCH   8  11
ENDBRANCH   6   8
ENDBRANCH   3   6
ENDBRANCH   1   2
BRANCH   1  21
ATOM     21  C   UNL A   1      35.875  24.060  25.348  1.00  0.00     0.023 C 
BRANCH  21  22
ATOM     22  C   UNL A   1      37.284  23.484  25.471  1.00  0.00     0.023 C 
BRANCH  22  23
ATOM     23  C   UNL A   1      38.189  24.209  26.459  1.00  0.00     0.116 C 
BRANCH  23  24
ATOM     24  N   UNL A   1      39.598  24.105  26.110  1.00  0.00    -0.352 N 
ATOM     25  C   UNL A   1      40.650  24.889  26.514  1.00  0.00     0.251 C 
ATOM     26  H   UNL A   1      39.829  23.368  25.499  1.00  0.00     0.163 HD
ATOM     27  O   UNL A   1      41.751  24.754  25.985  1.00  0.00    -0.269 OA
BRANCH  25  28
ATOM     28  C   UNL A   1      40.446  25.912  27.562  1.00  0.00     0.039 A 
ATOM     29  C   UNL A   1      39.483  25.685  28.547  1.00  0.00     0.014 A 
ATOM     30  C   UNL A   1      41.207  27.085  27.581  1.00  0.00     0.014 A 
ATOM     31  C   UNL A   1      39.324  26.609  29.581  1.00  0.00     0.010 A 
ATOM     32  C   UNL A   1      41.111  27.958  28.661  1.00  0.00     0.010 A 
ATOM     33  C   UNL A   1      40.160  27.738  29.666  1.00  0.00    -0.014 A 
BRANCH  33  34
ATOM     34  C   UNL A   1      40.039  28.685  30.805  1.00  0.00     0.031 A 
ATOM     35  C   UNL A   1      40.880  28.509  32.040  1.00  0.00     0.074 A 
ATOM     36  C   UNL A   1      39.140  29.689  30.738  1.00  0.00     0.049 A 
ATOM     37  N   UNL A   1      40.929  29.250  33.118  1.00  0.00    -0.248 NA
ATOM     38  C   UNL A   1      41.762  27.331  32.087  1.00  0.00     0.031 C 
ATOM     39  C   UNL A   1      38.213  29.920  29.627  1.00  0.00     0.029 A 
ATOM     40  N   UNL A   1      38.859  30.704  31.619  1.00  0.00    -0.354 N 
ATOM     41  C   UNL A   1      41.833  28.625  33.969  1.00  0.00     0.074 A 
ATOM     42  C   UNL A   1      42.262  27.412  33.311  1.00  0.00     0.031 C 
ATOM     43  C   UNL A   1      37.494  31.026  29.876  1.00  0.00     0.029 A 
ATOM     44  C   UNL A   1      37.882  31.564  31.177  1.00  0.00     0.049 A 
ATOM     45  H   UNL A   1      39.314  30.806  32.485  1.00  0.00     0.167 HD
ATOM     46  C   UNL A   1      42.287  29.040  35.177  1.00  0.00     0.037 A 
ATOM     47  C   UNL A   1      37.358  32.665  31.749  1.00  0.00     0.037 A 
ATOM     48  C   UNL A   1      41.869  30.261  35.814  1.00  0.00     0.049 A 
ATOM     49  C   UNL A   1      37.896  33.122  33.078  1.00  0.00     0.074 A 
ATOM     50  C   UNL A   1      42.320  30.809  37.002  1.00  0.00     0.029 A 
ATOM     51  N   UNL A   1      40.898  31.122  35.322  1.00  0.00    -0.354 N 
ATOM     52  N   UNL A   1      38.819  32.569  33.828  1.00  0.00    -0.248 NA
ATOM     53  C   UNL A   1      37.335  34.362  33.631  1.00  0.00     0.031 C 
ATOM     54  C   UNL A   1      41.581  31.969  37.258  1.00  0.00     0.029 A 
ATOM     55  C   UNL A   1      40.717  32.182  36.196  1.00  0.00     0.049 A 
ATOM     56  H   UNL A   1      40.409  30.998  34.477  1.00  0.00     0.167 HD
ATOM     57  C   UNL A   1      38.972  33.409  34.926  1.00  0.00     0.074 A 
ATOM     58  C   UNL A   1      38.054  34.512  34.736  1.00  0.00     0.031 C 
ATOM     59  C   UNL A   1      39.801  33.278  35.993  1.00  0.00     0.037 A 
BRANCH  46  60
ATOM     60  C   UNL A   1      43.285  28.164  35.888  1.00  0.00     0.058 A 
ATOM     61  C   UNL A   1      44.670  28.348  35.743  1.00  0.00     0.135 A 
ATOM     62  C   UNL A   1      42.851  27.146  36.754  1.00  0.00     0.135 A 
ATOM     63  F   UNL A   1      45.145  29.295  34.919  1.00  0.00    -0.206 F 
ATOM     64  C   UNL A   1      45.586  27.532  36.400  1.00  0.00     0.059 A 
ATOM     65  C   UNL A   1      43.749  26.341  37.447  1.00  0.00     0.059 A 
ATOM     66  F   UNL A   1      41.538  26.926  36.933  1.00  0.00    -0.206 F 
ATOM     67  C   UNL A   1      45.116  26.530  37.250  1.00  0.00     0.060 A 
BRANCH  67  68
ATOM     68  S   UNL A   1      46.318  25.481  38.095  1.00  0.00     0.124 S 
ATOM     69  O   UNL A   1      46.942  24.791  36.970  1.00  0.00    -0.237 OA
ATOM     70  O   UNL A   1      47.157  26.459  38.781  1.00  0.00    -0.237 OA
ATOM     71  O   UNL A   1      45.494  24.648  38.963  1.00  0.00    -0.744 OA
ENDBRANCH  67  68
ENDBRANCH  46  60
BRANCH  47  72
ATOM     72  C   UNL A   1      36.288  33.425  31.049  1.00  0.00     0.058 A 
ATOM     73  C   UNL A   1      36.572  34.213  29.923  1.00  0.00     0.135 A 
ATOM     74  C   UNL A   1      34.951  33.352  31.472  1.00  0.00     0.135 A 
ATOM     75  F   UNL A   1      37.835  34.320  29.481  1.00  0.00    -0.206 F 
ATOM     76  C   UNL A   1      35.575  34.913  29.252  1.00  0.00     0.059 A 
ATOM     77  C   UNL A   1      33.933  34.020  30.800  1.00  0.00     0.059 A 
ATOM     78  F   UNL A   1      34.622  32.597  32.532  1.00  0.00    -0.206 F 
ATOM     79  C   UNL A   1      34.256  34.806  29.695  1.00  0.00     0.060 A 
BRANCH  79  80
ATOM     80  S   UNL A   1      32.961  35.670  28.779  1.00  0.00     0.124 S 
ATOM     81  O   UNL A   1      32.153  36.221  29.860  1.00  0.00    -0.237 OA
ATOM     82  O   UNL A   1      33.731  36.633  27.999  1.00  0.00    -0.237 OA
ATOM     83  O   UNL A   1      32.333  34.605  28.001  1.00  0.00    -0.744 OA
ENDBRANCH  79  80
ENDBRANCH  47  72
BRANCH  59  84
ATOM     84  C   UNL A   1      39.789  34.380  37.019  1.00  0.00     0.058 A 
ATOM     85  C   UNL A   1      38.997  34.312  38.175  1.00  0.00     0.135 A 
ATOM     86  C   UNL A   1      40.620  35.501  36.860  1.00  0.00     0.135 A 
ATOM     87  F   UNL A   1      38.182  33.265  38.376  1.00  0.00    -0.206 F 
ATOM     88  C   UNL A   1      39.003  35.333  39.121  1.00  0.00     0.059 A 
ATOM     89  C   UNL A   1      40.668  36.517  37.808  1.00  0.00     0.059 A 
ATOM     90  F   UNL A   1      41.410  35.611  35.779  1.00  0.00    -0.206 F 
ATOM     91  C   UNL A   1      39.843  36.431  38.928  1.00  0.00     0.060 A 
BRANCH  91  92
ATOM     92  S   UNL A   1      39.856  37.739  40.172  1.00  0.00     0.124 S 
ATOM     93  O   UNL A   1      38.860  38.662  39.638  1.00  0.00    -0.237 OA
ATOM     94  O   UNL A   1      39.471  37.022  41.383  1.00  0.00    -0.237 OA
ATOM     95  O   UNL A   1      41.234  38.220  40.146  1.00  0.00    -0.744 OA
ENDBRANCH  91  92
ENDBRANCH  59  84
ENDBRANCH  33  34
ENDBRANCH  25  28
ENDBRANCH  23  24
ENDBRANCH  22  23
ENDBRANCH  21  22
ENDBRANCH   1  21
TORSDOF 21
ENDMDL
