MODEL 1
REMARK VINA RESULT:     -12.1      0.000      0.000
REMARK SMILES C[C@H](NC(=O)N1CC[C@H](C(=O)NCCCCNC(=O)c2ccc(-c3c4nc(c(-c5c(F)cc(S(=O)(=O)[O-])cc5F)c5ccc([nH]5)c(-c5c(F)cc(S(=O)(=O)[O-])cc5F)c5nc(c(-c6c(F)cc(S(=O)(=O)[O-])cc6F)c6ccc3[nH]6)C=C5)C=C4)cc2)[C@H]1C)c1ccsc1
REMARK SMILES IDX 14 1 13 2 12 3 10 4 11 5 9 7 6 8 7 9 86 10 8 11 87 12 4 13
REMARK SMILES IDX 3 14 5 16 2 17 1 18 88 19 89 20 92 21 90 22 91 23 15 24
REMARK SMILES IDX 16 25 17 26 18 27 19 29 20 30 21 31 85 32 22 33 84 34 23 35
REMARK SMILES IDX 24 36 25 37 78 38 26 39 83 40 77 41 79 42 27 43 82 44 76 45
REMARK SMILES IDX 75 46 28 48 62 49 41 50 61 51 42 52 45 53 60 54 80 55 43 56
REMARK SMILES IDX 44 57 59 59 81 60 46 61 29 62 30 63 39 64 31 65 32 66 38 67
REMARK SMILES IDX 40 68 33 69 34 70 35 71 36 72 37 73 63 74 64 75 73 76 65 77
REMARK SMILES IDX 66 78 72 79 74 80 67 81 68 82 69 83 70 84 71 85 47 86 48 87
REMARK SMILES IDX 57 88 49 89 50 90 56 91 58 92 51 93 52 94 53 95 54 96 55 97
REMARK H PARENT 12 6 3 15 17 28 79 47 45 58
REMARK Flexibility Score: inf
ROOT
ATOM      1  C   UNL A   1      37.725  21.835  25.648  1.00  0.00     0.023 C 
ENDROOT
BRANCH   1   2
ATOM      2  C   UNL A   1      36.622  21.107  24.899  1.00  0.00     0.116 C 
BRANCH   2   3
ATOM      3  N   UNL A   1      35.525  20.696  25.751  1.00  0.00    -0.356 N 
ATOM      4  C   UNL A   1      34.281  21.248  25.846  1.00  0.00     0.225 C 
ATOM      5  O   UNL A   1      33.473  20.746  26.621  1.00  0.00    -0.275 OA
ATOM      6  H   UNL A   1      35.698  19.920  26.332  1.00  0.00     0.163 HD
BRANCH   4   7
ATOM      7  C   UNL A   1      34.005  22.509  25.048  1.00  0.00     0.102 C 
ATOM      8  N   UNL A   1      32.023  23.697  25.676  1.00  0.00    -0.321 N 
ATOM      9  C   UNL A   1      31.657  22.595  24.813  1.00  0.00     0.122 C 
ATOM     10  C   UNL A   1      33.487  23.666  25.936  1.00  0.00     0.096 C 
ATOM     11  C   UNL A   1      32.901  22.357  23.999  1.00  0.00     0.037 C 
ATOM     12  C   UNL A   1      34.264  24.922  25.521  1.00  0.00     0.032 C 
BRANCH   8  13
ATOM     13  C   UNL A   1      31.065  24.072  26.587  1.00  0.00     0.318 C 
ATOM     14  N   UNL A   1      30.536  25.318  26.469  1.00  0.00    -0.331 N 
ATOM     15  H   UNL A   1      29.926  25.607  27.186  1.00  0.00     0.165 HD
ATOM     16  O   UNL A   1      30.525  23.286  27.364  1.00  0.00    -0.249 OA
BRANCH  14  17
ATOM     17  C   UNL A   1      30.774  26.261  25.406  1.00  0.00     0.112 C 
ATOM     18  C   UNL A   1      29.585  26.410  24.455  1.00  0.00     0.036 C 
BRANCH  17  19
ATOM     19  C   UNL A   1      31.270  27.595  25.903  1.00  0.00    -0.015 A 
ATOM     20  C   UNL A   1      31.699  27.957  27.224  1.00  0.00     0.017 A 
ATOM     21  C   UNL A   1      31.376  28.686  25.051  1.00  0.00     0.070 A 
ATOM     22  C   UNL A   1      32.086  29.278  27.311  1.00  0.00     0.065 A 
ATOM     23  S   UNL A   1      31.939  30.096  25.821  1.00  0.00    -0.152 S 
ENDBRANCH  17  19
ENDBRANCH  14  17
ENDBRANCH   8  13
ENDBRANCH   4   7
ENDBRANCH   2   3
ENDBRANCH   1   2
BRANCH   1  24
ATOM     24  C   UNL A   1      37.671  23.355  25.539  1.00  0.00     0.023 C 
BRANCH  24  25
ATOM     25  C   UNL A   1      38.569  24.103  26.516  1.00  0.00     0.116 C 
BRANCH  25  26
ATOM     26  N   UNL A   1      39.974  24.045  26.144  1.00  0.00    -0.352 N 
ATOM     27  C   UNL A   1      41.004  24.886  26.499  1.00  0.00     0.251 C 
ATOM     28  H   UNL A   1      40.225  23.297  25.554  1.00  0.00     0.163 HD
ATOM     29  O   UNL A   1      42.094  24.782  25.955  1.00  0.00    -0.269 OA
BRANCH  27  30
ATOM     30  C   UNL A   1      40.767  25.931  27.518  1.00  0.00     0.039 A 
ATOM     31  C   UNL A   1      39.796  25.715  28.496  1.00  0.00     0.014 A 
ATOM     32  C   UNL A   1      41.523  27.106  27.522  1.00  0.00     0.014 A 
ATOM     33  C   UNL A   1      39.630  26.651  29.519  1.00  0.00     0.010 A 
ATOM     34  C   UNL A   1      41.428  27.984  28.596  1.00  0.00     0.010 A 
ATOM     35  C   UNL A   1      40.470  27.775  29.599  1.00  0.00    -0.014 A 
BRANCH  35  36
ATOM     36  C   UNL A   1      40.344  28.758  30.707  1.00  0.00     0.031 A 
ATOM     37  C   UNL A   1      41.205  28.617  31.936  1.00  0.00     0.074 A 
ATOM     38  C   UNL A   1      39.423  29.740  30.634  1.00  0.00     0.049 A 
ATOM     39  N   UNL A   1      41.206  29.332  33.030  1.00  0.00    -0.248 NA
ATOM     40  C   UNL A   1      42.171  27.505  31.949  1.00  0.00     0.031 C 
ATOM     41  C   UNL A   1      38.491  29.948  29.523  1.00  0.00     0.029 A 
ATOM     42  N   UNL A   1      39.110  30.744  31.517  1.00  0.00    -0.354 N 
ATOM     43  C   UNL A   1      42.155  28.750  33.863  1.00  0.00     0.074 A 
ATOM     44  C   UNL A   1      42.664  27.586  33.175  1.00  0.00     0.031 C 
ATOM     45  C   UNL A   1      37.734  31.028  29.779  1.00  0.00     0.029 A 
ATOM     46  C   UNL A   1      38.096  31.566  31.085  1.00  0.00     0.049 A 
ATOM     47  H   UNL A   1      39.572  30.865  32.378  1.00  0.00     0.167 HD
ATOM     48  C   UNL A   1      42.585  29.165  35.078  1.00  0.00     0.037 A 
ATOM     49  C   UNL A   1      37.518  32.629  31.679  1.00  0.00     0.037 A 
ATOM     50  C   UNL A   1      42.098  30.344  35.743  1.00  0.00     0.049 A 
ATOM     51  C   UNL A   1      38.022  33.077  33.026  1.00  0.00     0.074 A 
ATOM     52  C   UNL A   1      42.508  30.882  36.949  1.00  0.00     0.029 A 
ATOM     53  N   UNL A   1      41.091  31.167  35.260  1.00  0.00    -0.354 N 
ATOM     54  N   UNL A   1      38.967  32.552  33.770  1.00  0.00    -0.248 NA
ATOM     55  C   UNL A   1      37.391  34.267  33.610  1.00  0.00     0.031 C 
ATOM     56  C   UNL A   1      41.717  32.003  37.219  1.00  0.00     0.029 A 
ATOM     57  C   UNL A   1      40.857  32.200  36.150  1.00  0.00     0.049 A 
ATOM     58  H   UNL A   1      40.615  31.037  34.408  1.00  0.00     0.167 HD
ATOM     59  C   UNL A   1      39.069  33.371  34.890  1.00  0.00     0.074 A 
ATOM     60  C   UNL A   1      38.097  34.430  34.721  1.00  0.00     0.031 C 
ATOM     61  C   UNL A   1      39.897  33.259  35.959  1.00  0.00     0.037 A 
BRANCH  48  62
ATOM     62  C   UNL A   1      43.645  28.345  35.764  1.00  0.00     0.058 A 
ATOM     63  C   UNL A   1      43.318  27.294  36.636  1.00  0.00     0.135 A 
ATOM     64  C   UNL A   1      45.006  28.583  35.511  1.00  0.00     0.135 A 
ATOM     65  F   UNL A   1      42.034  27.033  36.930  1.00  0.00    -0.206 F 
ATOM     66  C   UNL A   1      44.300  26.524  37.250  1.00  0.00     0.059 A 
ATOM     67  C   UNL A   1      46.005  27.805  36.090  1.00  0.00     0.059 A 
ATOM     68  F   UNL A   1      45.378  29.577  34.689  1.00  0.00    -0.206 F 
ATOM     69  C   UNL A   1      45.642  26.784  36.966  1.00  0.00     0.060 A 
BRANCH  69  70
ATOM     70  S   UNL A   1      46.901  25.757  37.752  1.00  0.00     0.124 S 
ATOM     71  O   UNL A   1      46.517  24.425  37.295  1.00  0.00    -0.237 OA
ATOM     72  O   UNL A   1      48.135  26.289  37.184  1.00  0.00    -0.237 OA
ATOM     73  O   UNL A   1      46.708  26.010  39.176  1.00  0.00    -0.744 OA
ENDBRANCH  69  70
ENDBRANCH  48  62
BRANCH  49  74
ATOM     74  C   UNL A   1      36.416  33.363  30.996  1.00  0.00     0.058 A 
ATOM     75  C   UNL A   1      35.089  33.249  31.436  1.00  0.00     0.135 A 
ATOM     76  C   UNL A   1      36.668  34.186  29.888  1.00  0.00     0.135 A 
ATOM     77  F   UNL A   1      34.796  32.471  32.489  1.00  0.00    -0.206 F 
ATOM     78  C   UNL A   1      34.046  33.902  30.786  1.00  0.00     0.059 A 
ATOM     79  C   UNL A   1      35.646  34.873  29.240  1.00  0.00     0.059 A 
ATOM     80  F   UNL A   1      37.922  34.346  29.438  1.00  0.00    -0.206 F 
ATOM     81  C   UNL A   1      34.335  34.713  29.688  1.00  0.00     0.060 A 
BRANCH  81  82
ATOM     82  S   UNL A   1      32.979  35.581  28.871  1.00  0.00     0.124 S 
ATOM     83  O   UNL A   1      32.206  36.060  30.012  1.00  0.00    -0.237 OA
ATOM     84  O   UNL A   1      33.686  36.601  28.104  1.00  0.00    -0.237 OA
ATOM     85  O   UNL A   1      32.344  34.536  28.072  1.00  0.00    -0.744 OA
ENDBRANCH  81  82
ENDBRANCH  49  74
BRANCH  61  86
ATOM     86  C   UNL A   1      39.832  34.340  37.004  1.00  0.00     0.058 A 
ATOM     87  C   UNL A   1      39.073  34.199  38.176  1.00  0.00     0.135 A 
ATOM     88  C   UNL A   1      40.578  35.519  36.844  1.00  0.00     0.135 A 
ATOM     89  F   UNL A   1      38.339  33.094  38.378  1.00  0.00    -0.206 F 
ATOM     90  C   UNL A   1      39.029  35.204  39.138  1.00  0.00     0.059 A 
ATOM     91  C   UNL A   1      40.576  36.522  37.808  1.00  0.00     0.059 A 
ATOM     92  F   UNL A   1      41.332  35.700  35.748  1.00  0.00    -0.206 F 
ATOM     93  C   UNL A   1      39.785  36.362  38.944  1.00  0.00     0.060 A 
BRANCH  93  94
ATOM     94  S   UNL A   1      39.735  37.650  40.207  1.00  0.00     0.124 S 
ATOM     95  O   UNL A   1      38.843  38.629  39.594  1.00  0.00    -0.237 OA
ATOM     96  O   UNL A   1      39.195  36.936  41.361  1.00  0.00    -0.237 OA
ATOM     97  O   UNL A   1      41.129  38.063  40.329  1.00  0.00    -0.744 OA
ENDBRANCH  93  94
ENDBRANCH  61  86
ENDBRANCH  35  36
ENDBRANCH  27  30
ENDBRANCH  25  26
ENDBRANCH  24  25
ENDBRANCH   1  24
TORSDOF 17
ENDMDL
MODEL 2
REMARK VINA RESULT:     -11.9      0.477      1.469
REMARK SMILES C[C@H](NC(=O)N1CC[C@H](C(=O)NCCCCNC(=O)c2ccc(-c3c4nc(c(-c5c(F)cc(S(=O)(=O)[O-])cc5F)c5ccc([nH]5)c(-c5c(F)cc(S(=O)(=O)[O-])cc5F)c5nc(c(-c6c(F)cc(S(=O)(=O)[O-])cc6F)c6ccc3[nH]6)C=C5)C=C4)cc2)[C@H]1C)c1ccsc1
REMARK SMILES IDX 14 1 13 2 12 3 10 4 11 5 9 7 6 8 7 9 86 10 8 11 87 12 4 13
REMARK SMILES IDX 3 14 5 16 2 17 1 18 88 19 89 20 92 21 90 22 91 23 15 24
REMARK SMILES IDX 16 25 17 26 18 27 19 29 20 30 21 31 85 32 22 33 84 34 23 35
REMARK SMILES IDX 24 36 25 37 78 38 26 39 83 40 77 41 79 42 27 43 82 44 76 45
REMARK SMILES IDX 75 46 28 48 62 49 41 50 61 51 42 52 45 53 60 54 80 55 43 56
REMARK SMILES IDX 44 57 59 59 81 60 46 61 29 62 30 63 39 64 31 65 32 66 38 67
REMARK SMILES IDX 40 68 33 69 34 70 35 71 36 72 37 73 63 74 64 75 73 76 65 77
REMARK SMILES IDX 66 78 72 79 74 80 67 81 68 82 69 83 70 84 71 85 47 86 48 87
REMARK SMILES IDX 57 88 49 89 50 90 56 91 58 92 51 93 52 94 53 95 54 96 55 97
REMARK H PARENT 12 6 3 15 17 28 79 47 45 58
REMARK Flexibility Score: inf
ROOT
ATOM      1  C   UNL A   1      38.021  21.840  25.662  1.00  0.00     0.023 C 
ENDROOT
BRANCH   1   2
ATOM      2  C   UNL A   1      36.930  21.470  24.671  1.00  0.00     0.116 C 
BRANCH   2   3
ATOM      3  N   UNL A   1      35.845  20.716  25.268  1.00  0.00    -0.356 N 
ATOM      4  C   UNL A   1      34.506  20.961  25.185  1.00  0.00     0.225 C 
ATOM      5  O   UNL A   1      33.732  20.194  25.751  1.00  0.00    -0.275 OA
ATOM      6  H   UNL A   1      36.108  19.928  25.796  1.00  0.00     0.163 HD
BRANCH   4   7
ATOM      7  C   UNL A   1      34.061  22.225  24.471  1.00  0.00     0.102 C 
ATOM      8  N   UNL A   1      32.379  23.497  25.605  1.00  0.00    -0.321 N 
ATOM      9  C   UNL A   1      31.747  22.401  24.903  1.00  0.00     0.122 C 
ATOM     10  C   UNL A   1      33.855  23.410  25.444  1.00  0.00     0.096 C 
ATOM     11  C   UNL A   1      32.702  22.106  23.778  1.00  0.00     0.037 C 
ATOM     12  C   UNL A   1      34.528  24.630  24.801  1.00  0.00     0.032 C 
BRANCH   8  13
ATOM     13  C   UNL A   1      31.730  23.918  26.740  1.00  0.00     0.318 C 
ATOM     14  N   UNL A   1      31.209  25.173  26.739  1.00  0.00    -0.331 N 
ATOM     15  H   UNL A   1      30.835  25.495  27.591  1.00  0.00     0.165 HD
ATOM     16  O   UNL A   1      31.425  23.167  27.664  1.00  0.00    -0.249 OA
BRANCH  14  17
ATOM     17  C   UNL A   1      31.144  26.082  25.623  1.00  0.00     0.112 C 
ATOM     18  C   UNL A   1      29.829  25.993  24.847  1.00  0.00     0.036 C 
BRANCH  17  19
ATOM     19  C   UNL A   1      31.484  27.502  25.999  1.00  0.00    -0.015 A 
ATOM     20  C   UNL A   1      31.853  28.025  27.283  1.00  0.00     0.017 A 
ATOM     21  C   UNL A   1      31.478  28.517  25.053  1.00  0.00     0.070 A 
ATOM     22  C   UNL A   1      32.090  29.383  27.252  1.00  0.00     0.065 A 
ATOM     23  S   UNL A   1      31.872  30.044  25.694  1.00  0.00    -0.152 S 
ENDBRANCH  17  19
ENDBRANCH  14  17
ENDBRANCH   8  13
ENDBRANCH   4   7
ENDBRANCH   2   3
ENDBRANCH   1   2
BRANCH   1  24
ATOM     24  C   UNL A   1      38.078  23.321  26.018  1.00  0.00     0.023 C 
BRANCH  24  25
ATOM     25  C   UNL A   1      39.265  23.730  26.881  1.00  0.00     0.116 C 
BRANCH  25  26
ATOM     26  N   UNL A   1      40.448  24.046  26.095  1.00  0.00    -0.352 N 
ATOM     27  C   UNL A   1      41.343  25.081  26.246  1.00  0.00     0.251 C 
ATOM     28  H   UNL A   1      40.635  23.432  25.348  1.00  0.00     0.163 HD
ATOM     29  O   UNL A   1      42.187  25.290  25.387  1.00  0.00    -0.269 OA
BRANCH  27  30
ATOM     30  C   UNL A   1      41.250  25.950  27.439  1.00  0.00     0.039 A 
ATOM     31  C   UNL A   1      42.159  26.998  27.586  1.00  0.00     0.014 A 
ATOM     32  C   UNL A   1      40.247  25.747  28.391  1.00  0.00     0.014 A 
ATOM     33  C   UNL A   1      42.020  27.883  28.657  1.00  0.00     0.010 A 
ATOM     34  C   UNL A   1      40.049  26.687  29.395  1.00  0.00     0.010 A 
ATOM     35  C   UNL A   1      40.942  27.758  29.550  1.00  0.00    -0.014 A 
BRANCH  35  36
ATOM     36  C   UNL A   1      40.748  28.718  30.667  1.00  0.00     0.031 A 
ATOM     37  C   UNL A   1      41.584  28.595  31.915  1.00  0.00     0.074 A 
ATOM     38  C   UNL A   1      39.790  29.663  30.584  1.00  0.00     0.049 A 
ATOM     39  N   UNL A   1      41.529  29.294  33.019  1.00  0.00    -0.248 NA
ATOM     40  C   UNL A   1      42.594  27.523  31.939  1.00  0.00     0.031 C 
ATOM     41  C   UNL A   1      38.878  29.849  29.452  1.00  0.00     0.029 A 
ATOM     42  N   UNL A   1      39.416  30.642  31.471  1.00  0.00    -0.354 N 
ATOM     43  C   UNL A   1      42.480  28.739  33.867  1.00  0.00     0.074 A 
ATOM     44  C   UNL A   1      43.053  27.606  33.178  1.00  0.00     0.031 C 
ATOM     45  C   UNL A   1      38.072  30.894  29.702  1.00  0.00     0.029 A 
ATOM     46  C   UNL A   1      38.380  31.428  31.025  1.00  0.00     0.049 A 
ATOM     47  H   UNL A   1      39.850  30.769  32.346  1.00  0.00     0.167 HD
ATOM     48  C   UNL A   1      42.862  29.154  35.098  1.00  0.00     0.037 A 
ATOM     49  C   UNL A   1      37.744  32.459  31.617  1.00  0.00     0.037 A 
ATOM     50  C   UNL A   1      42.311  30.302  35.767  1.00  0.00     0.049 A 
ATOM     51  C   UNL A   1      38.196  32.908  32.983  1.00  0.00     0.074 A 
ATOM     52  C   UNL A   1      42.669  30.840  36.990  1.00  0.00     0.029 A 
ATOM     53  N   UNL A   1      41.284  31.092  35.268  1.00  0.00    -0.354 N 
ATOM     54  N   UNL A   1      39.143  32.410  33.744  1.00  0.00    -0.248 NA
ATOM     55  C   UNL A   1      37.503  34.064  33.566  1.00  0.00     0.031 C 
ATOM     56  C   UNL A   1      41.827  31.925  37.253  1.00  0.00     0.029 A 
ATOM     57  C   UNL A   1      40.986  32.102  36.166  1.00  0.00     0.049 A 
ATOM     58  H   UNL A   1      40.835  30.954  34.403  1.00  0.00     0.167 HD
ATOM     59  C   UNL A   1      39.184  33.217  34.876  1.00  0.00     0.074 A 
ATOM     60  C   UNL A   1      38.174  34.239  34.696  1.00  0.00     0.031 C 
ATOM     61  C   UNL A   1      39.989  33.124  35.964  1.00  0.00     0.037 A 
BRANCH  48  62
ATOM     62  C   UNL A   1      43.937  28.368  35.800  1.00  0.00     0.058 A 
ATOM     63  C   UNL A   1      43.631  27.301  36.661  1.00  0.00     0.135 A 
ATOM     64  C   UNL A   1      45.294  28.654  35.575  1.00  0.00     0.135 A 
ATOM     65  F   UNL A   1      42.351  26.993  36.928  1.00  0.00    -0.206 F 
ATOM     66  C   UNL A   1      44.627  26.562  37.289  1.00  0.00     0.059 A 
ATOM     67  C   UNL A   1      46.308  27.908  36.168  1.00  0.00     0.059 A 
ATOM     68  F   UNL A   1      45.646  29.666  34.765  1.00  0.00    -0.206 F 
ATOM     69  C   UNL A   1      45.964  26.870  37.033  1.00  0.00     0.060 A 
BRANCH  69  70
ATOM     70  S   UNL A   1      47.243  25.884  37.837  1.00  0.00     0.124 S 
ATOM     71  O   UNL A   1      47.676  25.020  36.742  1.00  0.00    -0.237 OA
ATOM     72  O   UNL A   1      48.203  26.900  38.257  1.00  0.00    -0.237 OA
ATOM     73  O   UNL A   1      46.528  25.214  38.918  1.00  0.00    -0.744 OA
ENDBRANCH  69  70
ENDBRANCH  48  62
BRANCH  49  74
ATOM     74  C   UNL A   1      36.632  33.157  30.917  1.00  0.00     0.058 A 
ATOM     75  C   UNL A   1      36.879  33.995  29.819  1.00  0.00     0.135 A 
ATOM     76  C   UNL A   1      35.300  33.005  31.333  1.00  0.00     0.135 A 
ATOM     77  F   UNL A   1      38.135  34.177  29.384  1.00  0.00    -0.206 F 
ATOM     78  C   UNL A   1      35.852  34.680  29.176  1.00  0.00     0.059 A 
ATOM     79  C   UNL A   1      34.252  33.655  30.688  1.00  0.00     0.059 A 
ATOM     80  F   UNL A   1      35.005  32.200  32.366  1.00  0.00    -0.206 F 
ATOM     81  C   UNL A   1      34.540  34.503  29.619  1.00  0.00     0.060 A 
BRANCH  81  82
ATOM     82  S   UNL A   1      33.211  35.371  28.758  1.00  0.00     0.124 S 
ATOM     83  O   UNL A   1      32.443  35.913  29.873  1.00  0.00    -0.237 OA
ATOM     84  O   UNL A   1      33.949  36.342  27.958  1.00  0.00    -0.237 OA
ATOM     85  O   UNL A   1      32.556  34.311  27.996  1.00  0.00    -0.744 OA
ENDBRANCH  81  82
ENDBRANCH  49  74
BRANCH  61  86
ATOM     86  C   UNL A   1      39.854  34.186  37.022  1.00  0.00     0.058 A 
ATOM     87  C   UNL A   1      40.457  35.446  36.894  1.00  0.00     0.135 A 
ATOM     88  C   UNL A   1      39.071  33.947  38.164  1.00  0.00     0.135 A 
ATOM     89  F   UNL A   1      41.219  35.726  35.824  1.00  0.00    -0.206 F 
ATOM     90  C   UNL A   1      40.317  36.422  37.875  1.00  0.00     0.059 A 
ATOM     91  C   UNL A   1      38.889  34.919  39.142  1.00  0.00     0.059 A 
ATOM     92  F   UNL A   1      38.461  32.764  38.330  1.00  0.00    -0.206 F 
ATOM     93  C   UNL A   1      39.530  36.148  38.996  1.00  0.00     0.060 A 
BRANCH  93  94
ATOM     94  S   UNL A   1      39.341  37.428  40.255  1.00  0.00     0.124 S 
ATOM     95  O   UNL A   1      40.701  37.948  40.353  1.00  0.00    -0.237 OA
ATOM     96  O   UNL A   1      38.362  38.323  39.645  1.00  0.00    -0.237 OA
ATOM     97  O   UNL A   1      38.866  36.691  41.422  1.00  0.00    -0.744 OA
ENDBRANCH  93  94
ENDBRANCH  61  86
ENDBRANCH  35  36
ENDBRANCH  27  30
ENDBRANCH  25  26
ENDBRANCH  24  25
ENDBRANCH   1  24
TORSDOF 17
ENDMDL
MODEL 3
REMARK VINA RESULT:     -11.8      6.350      8.496
REMARK SMILES C[C@H](NC(=O)N1CC[C@H](C(=O)NCCCCNC(=O)c2ccc(-c3c4nc(c(-c5c(F)cc(S(=O)(=O)[O-])cc5F)c5ccc([nH]5)c(-c5c(F)cc(S(=O)(=O)[O-])cc5F)c5nc(c(-c6c(F)cc(S(=O)(=O)[O-])cc6F)c6ccc3[nH]6)C=C5)C=C4)cc2)[C@H]1C)c1ccsc1
REMARK SMILES IDX 14 1 13 2 12 3 10 4 11 5 9 7 6 8 7 9 86 10 8 11 87 12 4 13
REMARK SMILES IDX 3 14 5 16 2 17 1 18 88 19 89 20 92 21 90 22 91 23 15 24
REMARK SMILES IDX 16 25 17 26 18 27 19 29 20 30 21 31 85 32 22 33 84 34 23 35
REMARK SMILES IDX 24 36 25 37 78 38 26 39 83 40 77 41 79 42 27 43 82 44 76 45
REMARK SMILES IDX 75 46 28 48 62 49 41 50 61 51 42 52 45 53 60 54 80 55 43 56
REMARK SMILES IDX 44 57 59 59 81 60 46 61 29 62 30 63 39 64 31 65 32 66 38 67
REMARK SMILES IDX 40 68 33 69 34 70 35 71 36 72 37 73 63 74 64 75 73 76 65 77
REMARK SMILES IDX 66 78 72 79 74 80 67 81 68 82 69 83 70 84 71 85 47 86 48 87
REMARK SMILES IDX 57 88 49 89 50 90 56 91 58 92 51 93 52 94 53 95 54 96 55 97
REMARK H PARENT 12 6 3 15 17 28 79 47 45 58
REMARK Flexibility Score: inf
ROOT
ATOM      1  C   UNL A   1      37.729  21.143  24.925  1.00  0.00     0.023 C 
ENDROOT
BRANCH   1   2
ATOM      2  C   UNL A   1      36.254  20.891  24.661  1.00  0.00     0.116 C 
BRANCH   2   3
ATOM      3  N   UNL A   1      35.461  20.809  25.870  1.00  0.00    -0.356 N 
ATOM      4  C   UNL A   1      34.429  21.614  26.255  1.00  0.00     0.225 C 
ATOM      5  O   UNL A   1      33.862  21.376  27.318  1.00  0.00    -0.275 OA
ATOM      6  H   UNL A   1      35.695  20.081  26.491  1.00  0.00     0.163 HD
BRANCH   4   7
ATOM      7  C   UNL A   1      34.103  22.812  25.382  1.00  0.00     0.102 C 
ATOM      8  N   UNL A   1      31.961  23.807  25.776  1.00  0.00    -0.321 N 
ATOM      9  C   UNL A   1      31.792  22.644  24.931  1.00  0.00     0.122 C 
ATOM     10  C   UNL A   1      33.389  23.937  26.169  1.00  0.00     0.096 C 
ATOM     11  C   UNL A   1      33.125  22.511  24.245  1.00  0.00     0.037 C 
ATOM     12  C   UNL A   1      34.071  25.253  25.773  1.00  0.00     0.032 C 
BRANCH   8  13
ATOM     13  C   UNL A   1      30.888  24.109  26.579  1.00  0.00     0.318 C 
ATOM     14  N   UNL A   1      30.241  25.282  26.351  1.00  0.00    -0.331 N 
ATOM     15  H   UNL A   1      29.540  25.530  26.996  1.00  0.00     0.165 HD
ATOM     16  O   UNL A   1      30.366  23.300  27.344  1.00  0.00    -0.249 OA
BRANCH  14  17
ATOM     17  C   UNL A   1      30.473  26.201  25.266  1.00  0.00     0.112 C 
ATOM     18  C   UNL A   1      29.234  26.438  24.400  1.00  0.00     0.036 C 
BRANCH  17  19
ATOM     19  C   UNL A   1      31.104  27.495  25.715  1.00  0.00    -0.015 A 
ATOM     20  C   UNL A   1      31.643  27.831  27.002  1.00  0.00     0.017 A 
ATOM     21  C   UNL A   1      31.241  28.568  24.845  1.00  0.00     0.070 A 
ATOM     22  C   UNL A   1      32.138  29.117  27.049  1.00  0.00     0.065 A 
ATOM     23  S   UNL A   1      31.962  29.934  25.561  1.00  0.00    -0.152 S 
ENDBRANCH  17  19
ENDBRANCH  14  17
ENDBRANCH   8  13
ENDBRANCH   4   7
ENDBRANCH   2   3
ENDBRANCH   1   2
BRANCH   1  24
ATOM     24  C   UNL A   1      38.522  19.904  25.327  1.00  0.00     0.023 C 
BRANCH  24  25
ATOM     25  C   UNL A   1      39.720  20.173  26.230  1.00  0.00     0.116 C 
BRANCH  25  26
ATOM     26  N   UNL A   1      40.768  19.173  26.085  1.00  0.00    -0.352 N 
ATOM     27  C   UNL A   1      42.131  19.346  26.017  1.00  0.00     0.251 C 
ATOM     28  H   UNL A   1      40.456  18.241  26.027  1.00  0.00     0.163 HD
ATOM     29  O   UNL A   1      42.853  18.403  25.724  1.00  0.00    -0.269 OA
BRANCH  27  30
ATOM     30  C   UNL A   1      42.705  20.684  26.271  1.00  0.00     0.039 A 
ATOM     31  C   UNL A   1      43.083  21.476  25.186  1.00  0.00     0.014 A 
ATOM     32  C   UNL A   1      42.840  21.166  27.576  1.00  0.00     0.014 A 
ATOM     33  C   UNL A   1      43.535  22.778  25.409  1.00  0.00     0.010 A 
ATOM     34  C   UNL A   1      43.191  22.494  27.788  1.00  0.00     0.010 A 
ATOM     35  C   UNL A   1      43.558  23.312  26.709  1.00  0.00    -0.014 A 
BRANCH  35  36
ATOM     36  C   UNL A   1      43.989  24.711  26.963  1.00  0.00     0.031 A 
ATOM     37  C   UNL A   1      45.440  25.088  26.808  1.00  0.00     0.074 A 
ATOM     38  C   UNL A   1      43.092  25.626  27.382  1.00  0.00     0.049 A 
ATOM     39  N   UNL A   1      46.024  26.235  27.037  1.00  0.00    -0.248 NA
ATOM     40  C   UNL A   1      46.362  24.027  26.369  1.00  0.00     0.031 C 
ATOM     41  C   UNL A   1      41.670  25.371  27.624  1.00  0.00     0.029 A 
ATOM     42  N   UNL A   1      43.243  26.955  27.689  1.00  0.00    -0.354 N 
ATOM     43  C   UNL A   1      47.376  26.029  26.786  1.00  0.00     0.074 A 
ATOM     44  C   UNL A   1      47.536  24.633  26.449  1.00  0.00     0.031 C 
ATOM     45  C   UNL A   1      41.076  26.511  28.013  1.00  0.00     0.029 A 
ATOM     46  C   UNL A   1      42.078  27.569  28.087  1.00  0.00     0.049 A 
ATOM     47  H   UNL A   1      44.106  27.426  27.628  1.00  0.00     0.167 HD
ATOM     48  C   UNL A   1      48.388  26.929  26.804  1.00  0.00     0.037 A 
ATOM     49  C   UNL A   1      41.846  28.839  28.474  1.00  0.00     0.037 A 
ATOM     50  C   UNL A   1      48.217  28.324  27.109  1.00  0.00     0.049 A 
ATOM     51  C   UNL A   1      42.987  29.823  28.476  1.00  0.00     0.074 A 
ATOM     52  C   UNL A   1      49.167  29.329  27.099  1.00  0.00     0.029 A 
ATOM     53  N   UNL A   1      47.016  28.914  27.477  1.00  0.00    -0.354 N 
ATOM     54  N   UNL A   1      44.249  29.625  28.172  1.00  0.00    -0.248 NA
ATOM     55  C   UNL A   1      42.674  31.205  28.863  1.00  0.00     0.031 C 
ATOM     56  C   UNL A   1      48.552  30.516  27.508  1.00  0.00     0.029 A 
ATOM     57  C   UNL A   1      47.204  30.265  27.712  1.00  0.00     0.049 A 
ATOM     58  H   UNL A   1      46.156  28.441  27.558  1.00  0.00     0.167 HD
ATOM     59  C   UNL A   1      44.868  30.864  28.292  1.00  0.00     0.074 A 
ATOM     60  C   UNL A   1      43.842  31.806  28.688  1.00  0.00     0.031 C 
ATOM     61  C   UNL A   1      46.168  31.194  28.088  1.00  0.00     0.037 A 
BRANCH  48  62
ATOM     62  C   UNL A   1      49.771  26.434  26.476  1.00  0.00     0.058 A 
ATOM     63  C   UNL A   1      50.617  25.896  27.459  1.00  0.00     0.135 A 
ATOM     64  C   UNL A   1      50.242  26.456  25.153  1.00  0.00     0.135 A 
ATOM     65  F   UNL A   1      50.228  25.866  28.745  1.00  0.00    -0.206 F 
ATOM     66  C   UNL A   1      51.885  25.418  27.149  1.00  0.00     0.059 A 
ATOM     67  C   UNL A   1      51.495  25.955  24.813  1.00  0.00     0.059 A 
ATOM     68  F   UNL A   1      49.478  26.963  24.172  1.00  0.00    -0.206 F 
ATOM     69  C   UNL A   1      52.314  25.448  25.820  1.00  0.00     0.060 A 
BRANCH  69  70
ATOM     70  S   UNL A   1      53.953  24.800  25.431  1.00  0.00     0.124 S 
ATOM     71  O   UNL A   1      53.644  23.415  25.087  1.00  0.00    -0.237 OA
ATOM     72  O   UNL A   1      54.368  25.650  24.321  1.00  0.00    -0.237 OA
ATOM     73  O   UNL A   1      54.696  24.985  26.673  1.00  0.00    -0.744 OA
ENDBRANCH  69  70
ENDBRANCH  48  62
BRANCH  49  74
ATOM     74  C   UNL A   1      40.474  29.264  28.868  1.00  0.00     0.058 A 
ATOM     75  C   UNL A   1      39.490  29.522  27.901  1.00  0.00     0.135 A 
ATOM     76  C   UNL A   1      40.121  29.426  30.216  1.00  0.00     0.135 A 
ATOM     77  F   UNL A   1      39.779  29.385  26.598  1.00  0.00    -0.206 F 
ATOM     78  C   UNL A   1      38.215  29.952  28.254  1.00  0.00     0.059 A 
ATOM     79  C   UNL A   1      38.843  29.826  30.595  1.00  0.00     0.059 A 
ATOM     80  F   UNL A   1      41.018  29.174  31.182  1.00  0.00    -0.206 F 
ATOM     81  C   UNL A   1      37.901  30.101  29.605  1.00  0.00     0.060 A 
BRANCH  81  82
ATOM     82  S   UNL A   1      36.233  30.629  30.054  1.00  0.00     0.124 S 
ATOM     83  O   UNL A   1      36.428  32.057  30.283  1.00  0.00    -0.237 OA
ATOM     84  O   UNL A   1      35.468  30.271  28.864  1.00  0.00    -0.237 OA
ATOM     85  O   UNL A   1      35.937  29.834  31.242  1.00  0.00    -0.744 OA
ENDBRANCH  81  82
ENDBRANCH  49  74
BRANCH  61  86
ATOM     86  C   UNL A   1      46.548  32.643  28.231  1.00  0.00     0.058 A 
ATOM     87  C   UNL A   1      46.400  33.560  27.179  1.00  0.00     0.135 A 
ATOM     88  C   UNL A   1      47.030  33.126  29.459  1.00  0.00     0.135 A 
ATOM     89  F   UNL A   1      45.947  33.150  25.983  1.00  0.00    -0.206 F 
ATOM     90  C   UNL A   1      46.748  34.899  27.328  1.00  0.00     0.059 A 
ATOM     91  C   UNL A   1      47.352  34.467  29.641  1.00  0.00     0.059 A 
ATOM     92  F   UNL A   1      47.178  32.295  30.502  1.00  0.00    -0.206 F 
ATOM     93  C   UNL A   1      47.223  35.342  28.564  1.00  0.00     0.060 A 
BRANCH  93  94
ATOM     94  S   UNL A   1      47.654  37.086  28.751  1.00  0.00     0.124 S 
ATOM     95  O   UNL A   1      49.101  37.052  28.569  1.00  0.00    -0.237 OA
ATOM     96  O   UNL A   1      46.894  37.713  27.673  1.00  0.00    -0.237 OA
ATOM     97  O   UNL A   1      47.199  37.406  30.100  1.00  0.00    -0.744 OA
ENDBRANCH  93  94
ENDBRANCH  61  86
ENDBRANCH  35  36
ENDBRANCH  27  30
ENDBRANCH  25  26
ENDBRANCH  24  25
ENDBRANCH   1  24
TORSDOF 17
ENDMDL
