MODEL 1
REMARK VINA RESULT:     -11.6      0.000      0.000
REMARK SMILES CC1(C)S[C@H](c2ccccc2O)[NH2+][C@H]1C(=O)NCCCCNC(=O)c1ccc(-c2c3nc(c(-c4c(F)cc(S(=O)(=O)[O-])cc4F)c4ccc([nH]4)c(-c4c(F)cc(S(=O)(=O)[O-])cc4F)c4nc(c(-c5c(F)cc(S(=O)(=O)[O-])cc5F)c5ccc2[nH]5)C=C4)C=C3)cc1
REMARK SMILES IDX 20 1 19 2 18 3 17 4 15 5 16 6 14 8 1 9 2 10 3 11 4 12 5 13
REMARK SMILES IDX 13 14 6 17 7 18 11 19 8 20 10 21 9 22 12 23 21 25 22 26
REMARK SMILES IDX 23 27 24 29 25 30 26 31 90 32 27 33 89 34 28 35 29 36 30 37
REMARK SMILES IDX 83 38 31 39 88 40 82 41 84 42 32 43 87 44 81 45 80 46 33 48
REMARK SMILES IDX 67 49 46 50 66 51 47 52 50 53 65 54 85 55 48 56 49 57 64 59
REMARK SMILES IDX 86 60 51 61 34 62 35 63 44 64 36 65 37 66 43 67 45 68 38 69
REMARK SMILES IDX 39 70 40 71 41 72 42 73 68 74 69 75 78 76 70 77 71 78 77 79
REMARK SMILES IDX 79 80 72 81 73 82 74 83 75 84 76 85 52 86 53 87 62 88 54 89
REMARK SMILES IDX 55 90 61 91 63 92 56 93 57 94 58 95 59 96 60 97
REMARK H PARENT 17 7 13 15 13 16 12 24 22 28 84 47 50 58
REMARK Flexibility Score: inf
ROOT
ATOM      1  C   UNL A   1      33.415  27.160  25.616  1.00  0.00     0.023 C 
ENDROOT
BRANCH   1   2
ATOM      2  C   UNL A   1      32.587  26.121  26.358  1.00  0.00     0.023 C 
BRANCH   2   3
ATOM      3  C   UNL A   1      32.402  24.797  25.618  1.00  0.00     0.116 C 
BRANCH   3   4
ATOM      4  N   UNL A   1      32.880  24.867  24.251  1.00  0.00    -0.351 N 
ATOM      5  C   UNL A   1      33.719  24.089  23.513  1.00  0.00     0.279 C 
ATOM      6  O   UNL A   1      33.979  24.503  22.376  1.00  0.00    -0.268 OA
ATOM      7  H   UNL A   1      32.523  25.637  23.753  1.00  0.00     0.163 HD
BRANCH   5   8
ATOM      8  C   UNL A   1      34.375  22.786  24.013  1.00  0.00     0.289 C 
ATOM      9  C   UNL A   1      36.246  24.080  25.333  1.00  0.00     0.030 C 
ATOM     10  C   UNL A   1      35.848  22.909  24.444  1.00  0.00     0.077 C 
ATOM     11  C   UNL A   1      36.781  22.881  23.226  1.00  0.00     0.030 C 
ATOM     12  S   UNL A   1      36.111  21.405  25.431  1.00  0.00    -0.081 SA
ATOM     13  C   UNL A   1      34.341  20.974  25.581  1.00  0.00     0.278 C 
ATOM     14  N   UNL A   1      33.538  22.063  25.002  1.00  0.00    -0.320 N 
ATOM     15  H   UNL A   1      33.244  22.704  25.740  1.00  0.00     0.348 HD
ATOM     16  H   UNL A   1      32.708  21.683  24.548  1.00  0.00     0.348 HD
BRANCH  13  17
ATOM     17  C   UNL A   1      34.075  19.597  24.998  1.00  0.00     0.062 A 
ATOM     18  C   UNL A   1      35.104  18.737  24.577  1.00  0.00     0.015 A 
ATOM     19  C   UNL A   1      32.756  19.119  24.913  1.00  0.00     0.125 A 
ATOM     20  C   UNL A   1      34.825  17.442  24.133  1.00  0.00     0.001 A 
ATOM     21  C   UNL A   1      32.470  17.824  24.480  1.00  0.00     0.047 A 
ATOM     22  C   UNL A   1      33.511  16.981  24.098  1.00  0.00     0.004 A 
BRANCH  19  23
ATOM     23  O   UNL A   1      31.725  19.949  25.264  1.00  0.00    -0.507 OA
ATOM     24  H   UNL A   1      30.856  19.608  25.344  1.00  0.00     0.293 HD
ENDBRANCH  19  23
ENDBRANCH  13  17
ENDBRANCH   5   8
ENDBRANCH   3   4
ENDBRANCH   2   3
ENDBRANCH   1   2
BRANCH   1  25
ATOM     25  C   UNL A   1      34.396  27.921  26.491  1.00  0.00     0.116 C 
BRANCH  25  26
ATOM     26  N   UNL A   1      33.898  29.230  26.897  1.00  0.00    -0.352 N 
ATOM     27  C   UNL A   1      34.518  30.181  27.674  1.00  0.00     0.251 C 
ATOM     28  H   UNL A   1      32.999  29.465  26.571  1.00  0.00     0.163 HD
ATOM     29  O   UNL A   1      33.910  31.173  28.047  1.00  0.00    -0.269 OA
BRANCH  27  30
ATOM     30  C   UNL A   1      35.923  29.959  28.068  1.00  0.00     0.039 A 
ATOM     31  C   UNL A   1      36.205  29.451  29.337  1.00  0.00     0.014 A 
ATOM     32  C   UNL A   1      36.947  30.189  27.146  1.00  0.00     0.014 A 
ATOM     33  C   UNL A   1      37.520  29.112  29.657  1.00  0.00     0.010 A 
ATOM     34  C   UNL A   1      38.232  29.754  27.430  1.00  0.00     0.010 A 
ATOM     35  C   UNL A   1      38.536  29.230  28.695  1.00  0.00    -0.014 A 
BRANCH  35  36
ATOM     36  C   UNL A   1      39.942  28.866  28.995  1.00  0.00     0.031 A 
ATOM     37  C   UNL A   1      40.844  29.891  29.629  1.00  0.00     0.074 A 
ATOM     38  C   UNL A   1      40.420  27.661  28.631  1.00  0.00     0.049 A 
ATOM     39  N   UNL A   1      42.127  29.826  29.873  1.00  0.00    -0.248 NA
ATOM     40  C   UNL A   1      40.231  31.179  29.996  1.00  0.00     0.031 C 
ATOM     41  C   UNL A   1      39.656  26.611  27.952  1.00  0.00     0.029 A 
ATOM     42  N   UNL A   1      41.671  27.119  28.772  1.00  0.00    -0.354 N 
ATOM     43  C   UNL A   1      42.474  31.069  30.387  1.00  0.00     0.074 A 
ATOM     44  C   UNL A   1      41.285  31.889  30.362  1.00  0.00     0.031 C 
ATOM     45  C   UNL A   1      40.447  25.543  27.762  1.00  0.00     0.029 A 
ATOM     46  C   UNL A   1      41.781  25.842  28.274  1.00  0.00     0.049 A 
ATOM     47  H   UNL A   1      42.422  27.600  29.189  1.00  0.00     0.167 HD
ATOM     48  C   UNL A   1      43.670  31.480  30.871  1.00  0.00     0.037 A 
ATOM     49  C   UNL A   1      42.839  25.010  28.240  1.00  0.00     0.037 A 
ATOM     50  C   UNL A   1      44.833  30.637  30.946  1.00  0.00     0.049 A 
ATOM     51  C   UNL A   1      44.143  25.468  28.835  1.00  0.00     0.074 A 
ATOM     52  C   UNL A   1      46.077  30.928  31.473  1.00  0.00     0.029 A 
ATOM     53  N   UNL A   1      44.884  29.327  30.491  1.00  0.00    -0.354 N 
ATOM     54  N   UNL A   1      44.443  26.630  29.366  1.00  0.00    -0.248 NA
ATOM     55  C   UNL A   1      45.247  24.499  28.840  1.00  0.00     0.031 C 
ATOM     56  C   UNL A   1      46.891  29.800  31.316  1.00  0.00     0.029 A 
ATOM     57  C   UNL A   1      46.140  28.795  30.725  1.00  0.00     0.049 A 
ATOM     58  H   UNL A   1      44.138  28.847  30.064  1.00  0.00     0.167 HD
ATOM     59  C   UNL A   1      45.761  26.522  29.797  1.00  0.00     0.074 A 
ATOM     60  C   UNL A   1      46.196  25.179  29.472  1.00  0.00     0.031 C 
ATOM     61  C   UNL A   1      46.541  27.447  30.408  1.00  0.00     0.037 A 
BRANCH  48  62
ATOM     62  C   UNL A   1      43.766  32.895  31.370  1.00  0.00     0.058 A 
ATOM     63  C   UNL A   1      43.608  33.208  32.732  1.00  0.00     0.135 A 
ATOM     64  C   UNL A   1      44.019  33.953  30.483  1.00  0.00     0.135 A 
ATOM     65  F   UNL A   1      43.342  32.238  33.621  1.00  0.00    -0.206 F 
ATOM     66  C   UNL A   1      43.659  34.519  33.188  1.00  0.00     0.059 A 
ATOM     67  C   UNL A   1      44.105  35.270  30.922  1.00  0.00     0.059 A 
ATOM     68  F   UNL A   1      44.175  33.712  29.171  1.00  0.00    -0.206 F 
ATOM     69  C   UNL A   1      43.905  35.545  32.274  1.00  0.00     0.060 A 
BRANCH  69  70
ATOM     70  S   UNL A   1      43.966  37.244  32.881  1.00  0.00     0.124 S 
ATOM     71  O   UNL A   1      42.803  37.279  33.763  1.00  0.00    -0.237 OA
ATOM     72  O   UNL A   1      45.265  37.294  33.545  1.00  0.00    -0.237 OA
ATOM     73  O   UNL A   1      43.856  38.043  31.664  1.00  0.00    -0.744 OA
ENDBRANCH  69  70
ENDBRANCH  48  62
BRANCH  49  74
ATOM     74  C   UNL A   1      42.696  23.644  27.669  1.00  0.00     0.058 A 
ATOM     75  C   UNL A   1      42.395  22.549  28.493  1.00  0.00     0.135 A 
ATOM     76  C   UNL A   1      42.838  23.406  26.294  1.00  0.00     0.135 A 
ATOM     77  F   UNL A   1      42.249  22.726  29.816  1.00  0.00    -0.206 F 
ATOM     78  C   UNL A   1      42.261  21.264  27.979  1.00  0.00     0.059 A 
ATOM     79  C   UNL A   1      42.688  22.133  25.753  1.00  0.00     0.059 A 
ATOM     80  F   UNL A   1      43.106  24.423  25.461  1.00  0.00    -0.206 F 
ATOM     81  C   UNL A   1      42.409  21.066  26.606  1.00  0.00     0.060 A 
BRANCH  81  82
ATOM     82  S   UNL A   1      42.188  19.400  25.941  1.00  0.00     0.124 S 
ATOM     83  O   UNL A   1      42.681  18.579  27.040  1.00  0.00    -0.237 OA
ATOM     84  O   UNL A   1      40.749  19.353  25.703  1.00  0.00    -0.237 OA
ATOM     85  O   UNL A   1      43.013  19.409  24.738  1.00  0.00    -0.744 OA
ENDBRANCH  81  82
ENDBRANCH  49  74
BRANCH  61  86
ATOM     86  C   UNL A   1      47.924  27.024  30.809  1.00  0.00     0.058 A 
ATOM     87  C   UNL A   1      48.189  26.454  32.063  1.00  0.00     0.135 A 
ATOM     88  C   UNL A   1      48.991  27.150  29.903  1.00  0.00     0.135 A 
ATOM     89  F   UNL A   1      47.203  26.317  32.964  1.00  0.00    -0.206 F 
ATOM     90  C   UNL A   1      49.470  26.047  32.417  1.00  0.00     0.059 A 
ATOM     91  C   UNL A   1      50.274  26.726  30.227  1.00  0.00     0.059 A 
ATOM     92  F   UNL A   1      48.785  27.678  28.686  1.00  0.00    -0.206 F 
ATOM     93  C   UNL A   1      50.507  26.188  31.491  1.00  0.00     0.060 A 
BRANCH  93  94
ATOM     94  S   UNL A   1      52.162  25.632  31.953  1.00  0.00     0.124 S 
ATOM     95  O   UNL A   1      52.923  25.947  30.749  1.00  0.00    -0.237 OA
ATOM     96  O   UNL A   1      52.454  26.455  33.123  1.00  0.00    -0.237 OA
ATOM     97  O   UNL A   1      51.976  24.210  32.226  1.00  0.00    -0.744 OA
ENDBRANCH  93  94
ENDBRANCH  61  86
ENDBRANCH  35  36
ENDBRANCH  27  30
ENDBRANCH  25  26
ENDBRANCH   1  25
TORSDOF 16
ENDMDL
MODEL 2
REMARK VINA RESULT:     -11.5      2.919      4.077
REMARK SMILES CC1(C)S[C@H](c2ccccc2O)[NH2+][C@H]1C(=O)NCCCCNC(=O)c1ccc(-c2c3nc(c(-c4c(F)cc(S(=O)(=O)[O-])cc4F)c4ccc([nH]4)c(-c4c(F)cc(S(=O)(=O)[O-])cc4F)c4nc(c(-c5c(F)cc(S(=O)(=O)[O-])cc5F)c5ccc2[nH]5)C=C4)C=C3)cc1
REMARK SMILES IDX 20 1 19 2 18 3 17 4 15 5 16 6 14 8 1 9 2 10 3 11 4 12 5 13
REMARK SMILES IDX 13 14 6 17 7 18 11 19 8 20 10 21 9 22 12 23 21 25 22 26
REMARK SMILES IDX 23 27 24 29 25 30 26 31 90 32 27 33 89 34 28 35 29 36 30 37
REMARK SMILES IDX 83 38 31 39 88 40 82 41 84 42 32 43 87 44 81 45 80 46 33 48
REMARK SMILES IDX 67 49 46 50 66 51 47 52 50 53 65 54 85 55 48 56 49 57 64 59
REMARK SMILES IDX 86 60 51 61 34 62 35 63 44 64 36 65 37 66 43 67 45 68 38 69
REMARK SMILES IDX 39 70 40 71 41 72 42 73 68 74 69 75 78 76 70 77 71 78 77 79
REMARK SMILES IDX 79 80 72 81 73 82 74 83 75 84 76 85 52 86 53 87 62 88 54 89
REMARK SMILES IDX 55 90 61 91 63 92 56 93 57 94 58 95 59 96 60 97
REMARK H PARENT 17 7 13 15 13 16 12 24 22 28 84 47 50 58
REMARK Flexibility Score: inf
ROOT
ATOM      1  C   UNL A   1      32.594  27.854  25.817  1.00  0.00     0.023 C 
ENDROOT
BRANCH   1   2
ATOM      2  C   UNL A   1      32.509  27.468  24.348  1.00  0.00     0.023 C 
BRANCH   2   3
ATOM      3  C   UNL A   1      33.795  26.892  23.757  1.00  0.00     0.116 C 
BRANCH   3   4
ATOM      4  N   UNL A   1      33.528  25.835  22.801  1.00  0.00    -0.351 N 
ATOM      5  C   UNL A   1      33.793  24.500  22.784  1.00  0.00     0.279 C 
ATOM      6  O   UNL A   1      33.492  23.903  21.743  1.00  0.00    -0.268 OA
ATOM      7  H   UNL A   1      33.056  26.149  21.996  1.00  0.00     0.163 HD
BRANCH   5   8
ATOM      8  C   UNL A   1      34.464  23.724  23.936  1.00  0.00     0.289 C 
ATOM      9  C   UNL A   1      32.333  22.239  24.350  1.00  0.00     0.030 C 
ATOM     10  C   UNL A   1      33.500  23.035  24.919  1.00  0.00     0.077 C 
ATOM     11  C   UNL A   1      32.955  24.035  25.947  1.00  0.00     0.030 C 
ATOM     12  S   UNL A   1      34.572  21.834  25.767  1.00  0.00    -0.081 SA
ATOM     13  C   UNL A   1      35.967  21.977  24.595  1.00  0.00     0.278 C 
ATOM     14  N   UNL A   1      35.555  22.833  23.470  1.00  0.00    -0.320 N 
ATOM     15  H   UNL A   1      35.222  22.252  22.700  1.00  0.00     0.348 HD
ATOM     16  H   UNL A   1      36.346  23.388  23.143  1.00  0.00     0.348 HD
BRANCH  13  17
ATOM     17  C   UNL A   1      37.227  22.424  25.316  1.00  0.00     0.062 A 
ATOM     18  C   UNL A   1      37.387  23.720  25.838  1.00  0.00     0.015 A 
ATOM     19  C   UNL A   1      38.272  21.507  25.527  1.00  0.00     0.125 A 
ATOM     20  C   UNL A   1      38.522  24.064  26.576  1.00  0.00     0.001 A 
ATOM     21  C   UNL A   1      39.403  21.841  26.272  1.00  0.00     0.047 A 
ATOM     22  C   UNL A   1      39.522  23.123  26.804  1.00  0.00     0.004 A 
BRANCH  19  23
ATOM     23  O   UNL A   1      38.173  20.252  24.987  1.00  0.00    -0.507 OA
ATOM     24  H   UNL A   1      38.948  19.788  24.738  1.00  0.00     0.293 HD
ENDBRANCH  19  23
ENDBRANCH  13  17
ENDBRANCH   5   8
ENDBRANCH   3   4
ENDBRANCH   2   3
ENDBRANCH   1   2
BRANCH   1  25
ATOM     25  C   UNL A   1      33.879  28.565  26.205  1.00  0.00     0.116 C 
BRANCH  25  26
ATOM     26  N   UNL A   1      33.676  29.973  26.521  1.00  0.00    -0.352 N 
ATOM     27  C   UNL A   1      34.406  30.777  27.365  1.00  0.00     0.251 C 
ATOM     28  H   UNL A   1      32.914  30.406  26.072  1.00  0.00     0.163 HD
ATOM     29  O   UNL A   1      34.021  31.904  27.639  1.00  0.00    -0.269 OA
BRANCH  27  30
ATOM     30  C   UNL A   1      35.647  30.235  27.952  1.00  0.00     0.039 A 
ATOM     31  C   UNL A   1      36.857  30.413  27.280  1.00  0.00     0.014 A 
ATOM     32  C   UNL A   1      35.610  29.617  29.205  1.00  0.00     0.014 A 
ATOM     33  C   UNL A   1      38.044  30.023  27.900  1.00  0.00     0.010 A 
ATOM     34  C   UNL A   1      36.797  29.329  29.860  1.00  0.00     0.010 A 
ATOM     35  C   UNL A   1      38.025  29.509  29.206  1.00  0.00    -0.014 A 
BRANCH  35  36
ATOM     36  C   UNL A   1      39.268  29.099  29.902  1.00  0.00     0.031 A 
ATOM     37  C   UNL A   1      39.683  29.828  31.152  1.00  0.00     0.074 A 
ATOM     38  C   UNL A   1      40.053  28.140  29.374  1.00  0.00     0.049 A 
ATOM     39  N   UNL A   1      40.781  29.712  31.852  1.00  0.00    -0.248 NA
ATOM     40  C   UNL A   1      38.759  30.860  31.656  1.00  0.00     0.031 C 
ATOM     41  C   UNL A   1      39.785  27.408  28.133  1.00  0.00     0.029 A 
ATOM     42  N   UNL A   1      41.244  27.622  29.813  1.00  0.00    -0.354 N 
ATOM     43  C   UNL A   1      40.692  30.673  32.852  1.00  0.00     0.074 A 
ATOM     44  C   UNL A   1      39.466  31.406  32.632  1.00  0.00     0.031 C 
ATOM     45  C   UNL A   1      40.768  26.517  27.926  1.00  0.00     0.029 A 
ATOM     46  C   UNL A   1      41.751  26.636  28.999  1.00  0.00     0.049 A 
ATOM     47  H   UNL A   1      41.695  27.928  30.632  1.00  0.00     0.167 HD
ATOM     48  C   UNL A   1      41.539  30.902  33.883  1.00  0.00     0.037 A 
ATOM     49  C   UNL A   1      42.880  25.911  29.111  1.00  0.00     0.037 A 
ATOM     50  C   UNL A   1      42.726  30.129  34.127  1.00  0.00     0.049 A 
ATOM     51  C   UNL A   1      43.778  26.144  30.297  1.00  0.00     0.074 A 
ATOM     52  C   UNL A   1      43.623  30.231  35.173  1.00  0.00     0.029 A 
ATOM     53  N   UNL A   1      43.171  29.094  33.315  1.00  0.00    -0.354 N 
ATOM     54  N   UNL A   1      43.654  27.022  31.264  1.00  0.00    -0.248 NA
ATOM     55  C   UNL A   1      44.960  25.279  30.415  1.00  0.00     0.031 C 
ATOM     56  C   UNL A   1      44.626  29.273  34.983  1.00  0.00     0.029 A 
ATOM     57  C   UNL A   1      44.330  28.550  33.838  1.00  0.00     0.049 A 
ATOM     58  H   UNL A   1      42.728  28.793  32.489  1.00  0.00     0.167 HD
ATOM     59  C   UNL A   1      44.724  26.795  32.123  1.00  0.00     0.074 A 
ATOM     60  C   UNL A   1      45.479  25.692  31.564  1.00  0.00     0.031 C 
ATOM     61  C   UNL A   1      45.052  27.438  33.270  1.00  0.00     0.037 A 
BRANCH  48  62
ATOM     62  C   UNL A   1      41.193  32.020  34.827  1.00  0.00     0.058 A 
ATOM     63  C   UNL A   1      41.701  33.319  34.646  1.00  0.00     0.135 A 
ATOM     64  C   UNL A   1      40.346  31.797  35.924  1.00  0.00     0.135 A 
ATOM     65  F   UNL A   1      42.533  33.583  33.627  1.00  0.00    -0.206 F 
ATOM     66  C   UNL A   1      41.411  34.344  35.539  1.00  0.00     0.059 A 
ATOM     67  C   UNL A   1      40.018  32.815  36.813  1.00  0.00     0.059 A 
ATOM     68  F   UNL A   1      39.835  30.574  36.146  1.00  0.00    -0.206 F 
ATOM     69  C   UNL A   1      40.571  34.082  36.622  1.00  0.00     0.060 A 
BRANCH  69  70
ATOM     70  S   UNL A   1      40.207  35.421  37.775  1.00  0.00     0.124 S 
ATOM     71  O   UNL A   1      39.032  34.898  38.466  1.00  0.00    -0.237 OA
ATOM     72  O   UNL A   1      41.429  35.493  38.571  1.00  0.00    -0.237 OA
ATOM     73  O   UNL A   1      39.964  36.565  36.901  1.00  0.00    -0.744 OA
ENDBRANCH  69  70
ENDBRANCH  48  62
BRANCH  49  74
ATOM     74  C   UNL A   1      43.199  24.865  28.104  1.00  0.00     0.058 A 
ATOM     75  C   UNL A   1      43.906  25.185  26.935  1.00  0.00     0.135 A 
ATOM     76  C   UNL A   1      42.820  23.527  28.291  1.00  0.00     0.135 A 
ATOM     77  F   UNL A   1      44.290  26.452  26.710  1.00  0.00    -0.206 F 
ATOM     78  C   UNL A   1      44.210  24.223  25.979  1.00  0.00     0.059 A 
ATOM     79  C   UNL A   1      43.131  22.542  27.359  1.00  0.00     0.059 A 
ATOM     80  F   UNL A   1      42.160  23.165  29.402  1.00  0.00    -0.206 F 
ATOM     81  C   UNL A   1      43.818  22.902  26.200  1.00  0.00     0.060 A 
BRANCH  81  82
ATOM     82  S   UNL A   1      44.257  21.650  24.973  1.00  0.00     0.124 S 
ATOM     83  O   UNL A   1      43.299  20.594  25.276  1.00  0.00    -0.237 OA
ATOM     84  O   UNL A   1      44.047  22.364  23.718  1.00  0.00    -0.237 OA
ATOM     85  O   UNL A   1      45.650  21.350  25.287  1.00  0.00    -0.744 OA
ENDBRANCH  81  82
ENDBRANCH  49  74
BRANCH  61  86
ATOM     86  C   UNL A   1      46.249  26.934  34.022  1.00  0.00     0.058 A 
ATOM     87  C   UNL A   1      47.534  27.454  33.802  1.00  0.00     0.135 A 
ATOM     88  C   UNL A   1      46.098  25.950  35.013  1.00  0.00     0.135 A 
ATOM     89  F   UNL A   1      47.730  28.393  32.863  1.00  0.00    -0.206 F 
ATOM     90  C   UNL A   1      48.633  26.995  34.517  1.00  0.00     0.059 A 
ATOM     91  C   UNL A   1      47.180  25.495  35.758  1.00  0.00     0.059 A 
ATOM     92  F   UNL A   1      44.887  25.431  35.271  1.00  0.00    -0.206 F 
ATOM     93  C   UNL A   1      48.446  26.014  35.494  1.00  0.00     0.060 A 
BRANCH  93  94
ATOM     94  S   UNL A   1      49.877  25.443  36.435  1.00  0.00     0.124 S 
ATOM     95  O   UNL A   1      50.027  26.511  37.417  1.00  0.00    -0.237 OA
ATOM     96  O   UNL A   1      49.418  24.160  36.958  1.00  0.00    -0.237 OA
ATOM     97  O   UNL A   1      50.932  25.362  35.428  1.00  0.00    -0.744 OA
ENDBRANCH  93  94
ENDBRANCH  61  86
ENDBRANCH  35  36
ENDBRANCH  27  30
ENDBRANCH  25  26
ENDBRANCH   1  25
TORSDOF 16
ENDMDL
MODEL 3
REMARK VINA RESULT:     -11.4      4.048     10.773
REMARK SMILES CC1(C)S[C@H](c2ccccc2O)[NH2+][C@H]1C(=O)NCCCCNC(=O)c1ccc(-c2c3nc(c(-c4c(F)cc(S(=O)(=O)[O-])cc4F)c4ccc([nH]4)c(-c4c(F)cc(S(=O)(=O)[O-])cc4F)c4nc(c(-c5c(F)cc(S(=O)(=O)[O-])cc5F)c5ccc2[nH]5)C=C4)C=C3)cc1
REMARK SMILES IDX 20 1 19 2 18 3 17 4 15 5 16 6 14 8 1 9 2 10 3 11 4 12 5 13
REMARK SMILES IDX 13 14 6 17 7 18 11 19 8 20 10 21 9 22 12 23 21 25 22 26
REMARK SMILES IDX 23 27 24 29 25 30 26 31 90 32 27 33 89 34 28 35 29 36 30 37
REMARK SMILES IDX 83 38 31 39 88 40 82 41 84 42 32 43 87 44 81 45 80 46 33 48
REMARK SMILES IDX 67 49 46 50 66 51 47 52 50 53 65 54 85 55 48 56 49 57 64 59
REMARK SMILES IDX 86 60 51 61 34 62 35 63 44 64 36 65 37 66 43 67 45 68 38 69
REMARK SMILES IDX 39 70 40 71 41 72 42 73 68 74 69 75 78 76 70 77 71 78 77 79
REMARK SMILES IDX 79 80 72 81 73 82 74 83 75 84 76 85 52 86 53 87 62 88 54 89
REMARK SMILES IDX 55 90 61 91 63 92 56 93 57 94 58 95 59 96 60 97
REMARK H PARENT 17 7 13 15 13 16 12 24 22 28 84 47 50 58
REMARK Flexibility Score: inf
ROOT
ATOM      1  C   UNL A   1      41.560  21.703  26.509  1.00  0.00     0.023 C 
ENDROOT
BRANCH   1   2
ATOM      2  C   UNL A   1      42.594  21.732  27.625  1.00  0.00     0.023 C 
BRANCH   2   3
ATOM      3  C   UNL A   1      43.810  22.616  27.354  1.00  0.00     0.116 C 
BRANCH   3   4
ATOM      4  N   UNL A   1      44.165  22.636  25.947  1.00  0.00    -0.351 N 
ATOM      5  C   UNL A   1      44.700  23.585  25.132  1.00  0.00     0.279 C 
ATOM      6  O   UNL A   1      44.791  23.280  23.935  1.00  0.00    -0.268 OA
ATOM      7  H   UNL A   1      43.980  21.785  25.488  1.00  0.00     0.163 HD
BRANCH   5   8
ATOM      8  C   UNL A   1      45.147  24.988  25.592  1.00  0.00     0.289 C 
ATOM      9  C   UNL A   1      47.641  24.574  24.867  1.00  0.00     0.030 C 
ATOM     10  C   UNL A   1      46.653  25.143  25.876  1.00  0.00     0.077 C 
ATOM     11  C   UNL A   1      47.008  24.602  27.267  1.00  0.00     0.030 C 
ATOM     12  S   UNL A   1      46.887  26.946  25.859  1.00  0.00    -0.081 SA
ATOM     13  C   UNL A   1      45.263  27.334  25.115  1.00  0.00     0.278 C 
ATOM     14  N   UNL A   1      44.600  26.074  24.741  1.00  0.00    -0.320 N 
ATOM     15  H   UNL A   1      44.784  25.867  23.758  1.00  0.00     0.348 HD
ATOM     16  H   UNL A   1      43.593  26.152  24.877  1.00  0.00     0.348 HD
BRANCH  13  17
ATOM     17  C   UNL A   1      44.456  28.237  26.032  1.00  0.00     0.062 A 
ATOM     18  C   UNL A   1      44.987  28.797  27.207  1.00  0.00     0.015 A 
ATOM     19  C   UNL A   1      43.139  28.584  25.687  1.00  0.00     0.125 A 
ATOM     20  C   UNL A   1      44.245  29.698  27.975  1.00  0.00     0.001 A 
ATOM     21  C   UNL A   1      42.396  29.490  26.443  1.00  0.00     0.047 A 
ATOM     22  C   UNL A   1      42.956  30.055  27.586  1.00  0.00     0.004 A 
BRANCH  19  23
ATOM     23  O   UNL A   1      42.572  28.015  24.577  1.00  0.00    -0.507 OA
ATOM     24  H   UNL A   1      41.733  28.307  24.278  1.00  0.00     0.293 HD
ENDBRANCH  19  23
ENDBRANCH  13  17
ENDBRANCH   5   8
ENDBRANCH   3   4
ENDBRANCH   2   3
ENDBRANCH   1   2
BRANCH   1  25
ATOM     25  C   UNL A   1      40.122  21.622  26.990  1.00  0.00     0.116 C 
BRANCH  25  26
ATOM     26  N   UNL A   1      39.166  22.124  26.011  1.00  0.00    -0.352 N 
ATOM     27  C   UNL A   1      38.652  23.394  25.884  1.00  0.00     0.251 C 
ATOM     28  H   UNL A   1      38.845  21.466  25.352  1.00  0.00     0.163 HD
ATOM     29  O   UNL A   1      37.745  23.623  25.099  1.00  0.00    -0.269 OA
BRANCH  27  30
ATOM     30  C   UNL A   1      39.203  24.462  26.741  1.00  0.00     0.039 A 
ATOM     31  C   UNL A   1      40.091  25.389  26.193  1.00  0.00     0.014 A 
ATOM     32  C   UNL A   1      38.775  24.580  28.066  1.00  0.00     0.014 A 
ATOM     33  C   UNL A   1      40.502  26.476  26.964  1.00  0.00     0.010 A 
ATOM     34  C   UNL A   1      39.101  25.714  28.791  1.00  0.00     0.010 A 
ATOM     35  C   UNL A   1      39.985  26.664  28.256  1.00  0.00    -0.014 A 
BRANCH  35  36
ATOM     36  C   UNL A   1      40.387  27.816  29.098  1.00  0.00     0.031 A 
ATOM     37  C   UNL A   1      41.703  27.765  29.828  1.00  0.00     0.074 A 
ATOM     38  C   UNL A   1      39.548  28.855  29.268  1.00  0.00     0.049 A 
ATOM     39  N   UNL A   1      42.199  28.603  30.701  1.00  0.00    -0.248 NA
ATOM     40  C   UNL A   1      42.555  26.589  29.578  1.00  0.00     0.031 C 
ATOM     41  C   UNL A   1      38.220  28.984  28.662  1.00  0.00     0.029 A 
ATOM     42  N   UNL A   1      39.685  29.999  30.011  1.00  0.00    -0.354 N 
ATOM     43  C   UNL A   1      43.397  28.040  31.123  1.00  0.00     0.074 A 
ATOM     44  C   UNL A   1      43.524  26.761  30.462  1.00  0.00     0.031 C 
ATOM     45  C   UNL A   1      37.677  30.155  29.036  1.00  0.00     0.029 A 
ATOM     46  C   UNL A   1      38.602  30.843  29.932  1.00  0.00     0.049 A 
ATOM     47  H   UNL A   1      40.483  30.197  30.552  1.00  0.00     0.167 HD
ATOM     48  C   UNL A   1      44.326  28.558  31.961  1.00  0.00     0.037 A 
ATOM     49  C   UNL A   1      38.386  32.037  30.515  1.00  0.00     0.037 A 
ATOM     50  C   UNL A   1      44.217  29.856  32.568  1.00  0.00     0.049 A 
ATOM     51  C   UNL A   1      39.457  32.619  31.398  1.00  0.00     0.074 A 
ATOM     52  C   UNL A   1      45.124  30.508  33.382  1.00  0.00     0.029 A 
ATOM     53  N   UNL A   1      43.133  30.710  32.410  1.00  0.00    -0.354 N 
ATOM     54  N   UNL A   1      40.609  32.098  31.747  1.00  0.00    -0.248 NA
ATOM     55  C   UNL A   1      39.207  33.956  31.953  1.00  0.00     0.031 C 
ATOM     56  C   UNL A   1      44.579  31.747  33.737  1.00  0.00     0.029 A 
ATOM     57  C   UNL A   1      43.349  31.882  33.112  1.00  0.00     0.049 A 
ATOM     58  H   UNL A   1      42.329  30.510  31.878  1.00  0.00     0.167 HD
ATOM     59  C   UNL A   1      41.236  33.055  32.537  1.00  0.00     0.074 A 
ATOM     60  C   UNL A   1      40.337  34.190  32.606  1.00  0.00     0.031 C 
ATOM     61  C   UNL A   1      42.445  33.004  33.148  1.00  0.00     0.037 A 
BRANCH  48  62
ATOM     62  C   UNL A   1      45.542  27.722  32.247  1.00  0.00     0.058 A 
ATOM     63  C   UNL A   1      46.712  27.836  31.475  1.00  0.00     0.135 A 
ATOM     64  C   UNL A   1      45.545  26.798  33.304  1.00  0.00     0.135 A 
ATOM     65  F   UNL A   1      46.757  28.688  30.438  1.00  0.00    -0.206 F 
ATOM     66  C   UNL A   1      47.823  27.038  31.716  1.00  0.00     0.059 A 
ATOM     67  C   UNL A   1      46.657  26.010  33.582  1.00  0.00     0.059 A 
ATOM     68  F   UNL A   1      44.453  26.647  34.072  1.00  0.00    -0.206 F 
ATOM     69  C   UNL A   1      47.786  26.124  32.771  1.00  0.00     0.060 A 
BRANCH  69  70
ATOM     70  S   UNL A   1      49.235  25.092  33.070  1.00  0.00     0.124 S 
ATOM     71  O   UNL A   1      50.084  25.999  33.838  1.00  0.00    -0.237 OA
ATOM     72  O   UNL A   1      48.673  23.969  33.816  1.00  0.00    -0.237 OA
ATOM     73  O   UNL A   1      49.709  24.775  31.727  1.00  0.00    -0.744 OA
ENDBRANCH  69  70
ENDBRANCH  48  62
BRANCH  49  74
ATOM     74  C   UNL A   1      37.128  32.783  30.244  1.00  0.00     0.058 A 
ATOM     75  C   UNL A   1      36.025  32.668  31.104  1.00  0.00     0.135 A 
ATOM     76  C   UNL A   1      37.006  33.636  29.137  1.00  0.00     0.135 A 
ATOM     77  F   UNL A   1      36.093  31.864  32.176  1.00  0.00    -0.206 F 
ATOM     78  C   UNL A   1      34.839  33.354  30.865  1.00  0.00     0.059 A 
ATOM     79  C   UNL A   1      35.838  34.349  28.888  1.00  0.00     0.059 A 
ATOM     80  F   UNL A   1      38.039  33.796  28.295  1.00  0.00    -0.206 F 
ATOM     81  C   UNL A   1      34.755  34.193  29.753  1.00  0.00     0.060 A 
BRANCH  81  82
ATOM     82  S   UNL A   1      33.226  35.115  29.477  1.00  0.00     0.124 S 
ATOM     83  O   UNL A   1      33.738  36.419  29.074  1.00  0.00    -0.237 OA
ATOM     84  O   UNL A   1      32.579  34.330  28.430  1.00  0.00    -0.237 OA
ATOM     85  O   UNL A   1      32.569  35.068  30.779  1.00  0.00    -0.744 OA
ENDBRANCH  81  82
ENDBRANCH  49  74
BRANCH  61  86
ATOM     86  C   UNL A   1      42.887  34.224  33.903  1.00  0.00     0.058 A 
ATOM     87  C   UNL A   1      42.582  34.405  35.260  1.00  0.00     0.135 A 
ATOM     88  C   UNL A   1      43.667  35.204  33.267  1.00  0.00     0.135 A 
ATOM     89  F   UNL A   1      41.836  33.498  35.911  1.00  0.00    -0.206 F 
ATOM     90  C   UNL A   1      43.012  35.528  35.956  1.00  0.00     0.059 A 
ATOM     91  C   UNL A   1      44.129  36.323  33.950  1.00  0.00     0.059 A 
ATOM     92  F   UNL A   1      43.996  35.070  31.972  1.00  0.00    -0.206 F 
ATOM     93  C   UNL A   1      43.786  36.483  35.291  1.00  0.00     0.060 A 
BRANCH  93  94
ATOM     94  S   UNL A   1      44.361  37.926  36.210  1.00  0.00     0.124 S 
ATOM     95  O   UNL A   1      43.698  37.738  37.496  1.00  0.00    -0.237 OA
ATOM     96  O   UNL A   1      45.809  37.742  36.210  1.00  0.00    -0.237 OA
ATOM     97  O   UNL A   1      43.878  39.049  35.412  1.00  0.00    -0.744 OA
ENDBRANCH  93  94
ENDBRANCH  61  86
ENDBRANCH  35  36
ENDBRANCH  27  30
ENDBRANCH  25  26
ENDBRANCH   1  25
TORSDOF 16
ENDMDL
