MODEL 1
REMARK VINA RESULT:     -11.2      0.000      0.000
REMARK SMILES Cc1cc2cc(-c3ccc([C@@H](C)C(=O)NCCCCNC(=O)c4ccc(-c5c6nc(c(-c7c(F)cc(S(=O)(=O)[O-])cc7F)c7ccc([nH]7)c(-c7c(F)cc(S(=O)(=O)[O-])cc7F)c7nc(c(-c8c(F)cc(S(=O)(=O)[O-])cc8F)c8ccc5[nH]8)C=C7)C=C6)cc4)cc3)ccc2[nH]1
REMARK SMILES IDX 18 1 17 2 16 3 15 4 13 5 14 6 11 8 12 9 10 10 7 11 8 12
REMARK SMILES IDX 90 13 9 14 89 15 6 16 1 17 2 18 3 19 94 20 4 21 93 22 5 24
REMARK SMILES IDX 92 25 91 26 19 27 20 28 21 29 22 31 23 32 24 33 88 34 25 35
REMARK SMILES IDX 87 36 26 37 27 38 28 39 81 40 29 41 86 42 80 43 82 44 30 45
REMARK SMILES IDX 85 46 79 47 78 48 31 50 65 51 44 52 64 53 45 54 48 55 63 56
REMARK SMILES IDX 83 57 46 58 47 59 62 61 84 62 49 63 32 64 33 65 42 66 34 67
REMARK SMILES IDX 35 68 41 69 43 70 36 71 37 72 38 73 39 74 40 75 66 76 67 77
REMARK SMILES IDX 76 78 68 79 69 80 75 81 77 82 70 83 71 84 72 85 73 86 74 87
REMARK SMILES IDX 50 88 51 89 60 90 52 91 53 92 59 93 61 94 54 95 55 96 56 97
REMARK SMILES IDX 57 98 58 99
REMARK H PARENT 15 7 94 23 20 30 82 49 48 60
REMARK Flexibility Score: inf
ROOT
ATOM      1  C   UNL A   1      35.065  34.632  28.410  1.00  0.00     0.023 C 
ENDROOT
BRANCH   1   2
ATOM      2  C   UNL A   1      33.765  35.046  29.096  1.00  0.00     0.023 C 
BRANCH   2   3
ATOM      3  C   UNL A   1      33.302  36.473  28.804  1.00  0.00     0.116 C 
BRANCH   3   4
ATOM      4  N   UNL A   1      33.377  37.329  29.970  1.00  0.00    -0.356 N 
ATOM      5  C   UNL A   1      33.163  37.075  31.291  1.00  0.00     0.227 C 
ATOM      6  O   UNL A   1      33.259  38.038  32.063  1.00  0.00    -0.274 OA
ATOM      7  H   UNL A   1      33.627  38.261  29.773  1.00  0.00     0.163 HD
BRANCH   5   8
ATOM      8  C   UNL A   1      32.835  35.683  31.852  1.00  0.00     0.105 C 
ATOM      9  C   UNL A   1      31.646  35.669  32.814  1.00  0.00     0.023 C 
BRANCH   8  10
ATOM     10  C   UNL A   1      34.064  34.904  32.292  1.00  0.00    -0.036 A 
ATOM     11  C   UNL A   1      36.404  33.384  32.925  1.00  0.00    -0.018 A 
ATOM     12  C   UNL A   1      36.365  34.782  33.065  1.00  0.00     0.009 A 
ATOM     13  C   UNL A   1      35.226  32.761  32.486  1.00  0.00     0.009 A 
ATOM     14  C   UNL A   1      35.211  35.523  32.792  1.00  0.00     0.005 A 
ATOM     15  C   UNL A   1      34.085  33.508  32.157  1.00  0.00     0.005 A 
BRANCH  11  16
ATOM     16  C   UNL A   1      37.648  32.630  33.212  1.00  0.00    -0.018 A 
ATOM     17  C   UNL A   1      41.304  27.738  33.796  1.00  0.00     0.064 C 
ATOM     18  C   UNL A   1      40.480  28.960  33.648  1.00  0.00     0.013 A 
ATOM     19  C   UNL A   1      39.236  29.140  33.082  1.00  0.00     0.031 A 
ATOM     20  N   UNL A   1      40.897  30.185  34.113  1.00  0.00    -0.359 N 
ATOM     21  C   UNL A   1      38.883  30.507  33.226  1.00  0.00     0.000 A 
ATOM     22  C   UNL A   1      39.935  31.141  33.877  1.00  0.00     0.046 A 
ATOM     23  H   UNL A   1      41.762  30.354  34.553  1.00  0.00     0.166 HD
ATOM     24  C   UNL A   1      37.750  31.263  32.874  1.00  0.00     0.019 A 
ATOM     25  C   UNL A   1      39.905  32.501  34.196  1.00  0.00     0.027 A 
ATOM     26  C   UNL A   1      38.745  33.222  33.864  1.00  0.00     0.011 A 
ENDBRANCH  11  16
ENDBRANCH   8  10
ENDBRANCH   5   8
ENDBRANCH   3   4
ENDBRANCH   2   3
ENDBRANCH   1   2
BRANCH   1  27
ATOM     27  C   UNL A   1      35.453  33.165  28.572  1.00  0.00     0.116 C 
BRANCH  27  28
ATOM     28  N   UNL A   1      34.420  32.226  28.155  1.00  0.00    -0.352 N 
ATOM     29  C   UNL A   1      34.540  30.867  27.959  1.00  0.00     0.251 C 
ATOM     30  H   UNL A   1      33.527  32.609  27.993  1.00  0.00     0.163 HD
ATOM     31  O   UNL A   1      33.596  30.211  27.539  1.00  0.00    -0.269 OA
BRANCH  29  32
ATOM     32  C   UNL A   1      35.848  30.226  28.215  1.00  0.00     0.039 A 
ATOM     33  C   UNL A   1      36.807  30.216  27.200  1.00  0.00     0.014 A 
ATOM     34  C   UNL A   1      36.148  29.712  29.480  1.00  0.00     0.014 A 
ATOM     35  C   UNL A   1      38.102  29.775  27.481  1.00  0.00     0.010 A 
ATOM     36  C   UNL A   1      37.454  29.339  29.775  1.00  0.00     0.010 A 
ATOM     37  C   UNL A   1      38.446  29.378  28.783  1.00  0.00    -0.014 A 
BRANCH  37  38
ATOM     38  C   UNL A   1      39.839  29.013  29.144  1.00  0.00     0.031 A 
ATOM     39  C   UNL A   1      40.735  30.033  29.791  1.00  0.00     0.074 A 
ATOM     40  C   UNL A   1      40.324  27.802  28.805  1.00  0.00     0.049 A 
ATOM     41  N   UNL A   1      42.013  29.961  30.056  1.00  0.00    -0.248 NA
ATOM     42  C   UNL A   1      40.116  31.318  30.156  1.00  0.00     0.031 C 
ATOM     43  C   UNL A   1      39.568  26.744  28.129  1.00  0.00     0.029 A 
ATOM     44  N   UNL A   1      41.576  27.263  28.965  1.00  0.00    -0.354 N 
ATOM     45  C   UNL A   1      42.357  31.195  30.594  1.00  0.00     0.074 A 
ATOM     46  C   UNL A   1      41.163  32.011  30.577  1.00  0.00     0.031 C 
ATOM     47  C   UNL A   1      40.367  25.679  27.948  1.00  0.00     0.029 A 
ATOM     48  C   UNL A   1      41.698  25.989  28.457  1.00  0.00     0.049 A 
ATOM     49  H   UNL A   1      42.317  27.742  29.400  1.00  0.00     0.167 HD
ATOM     50  C   UNL A   1      43.555  31.603  31.077  1.00  0.00     0.037 A 
ATOM     51  C   UNL A   1      42.767  25.169  28.402  1.00  0.00     0.037 A 
ATOM     52  C   UNL A   1      44.729  30.773  31.128  1.00  0.00     0.049 A 
ATOM     53  C   UNL A   1      44.080  25.636  28.969  1.00  0.00     0.074 A 
ATOM     54  C   UNL A   1      45.975  31.075  31.648  1.00  0.00     0.029 A 
ATOM     55  N   UNL A   1      44.798  29.473  30.649  1.00  0.00    -0.354 N 
ATOM     56  N   UNL A   1      44.376  26.791  29.514  1.00  0.00    -0.248 NA
ATOM     57  C   UNL A   1      45.202  24.689  28.914  1.00  0.00     0.031 C 
ATOM     58  C   UNL A   1      46.805  29.964  31.463  1.00  0.00     0.029 A 
ATOM     59  C   UNL A   1      46.067  28.959  30.857  1.00  0.00     0.049 A 
ATOM     60  H   UNL A   1      44.056  28.986  30.224  1.00  0.00     0.167 HD
ATOM     61  C   UNL A   1      45.711  26.702  29.891  1.00  0.00     0.074 A 
ATOM     62  C   UNL A   1      46.163  25.377  29.518  1.00  0.00     0.031 C 
ATOM     63  C   UNL A   1      46.492  27.632  30.492  1.00  0.00     0.037 A 
BRANCH  50  64
ATOM     64  C   UNL A   1      43.645  33.009  31.598  1.00  0.00     0.058 A 
ATOM     65  C   UNL A   1      43.489  33.294  32.964  1.00  0.00     0.135 A 
ATOM     66  C   UNL A   1      43.902  34.080  30.728  1.00  0.00     0.135 A 
ATOM     67  F   UNL A   1      43.225  32.307  33.835  1.00  0.00    -0.206 F 
ATOM     68  C   UNL A   1      43.550  34.598  33.445  1.00  0.00     0.059 A 
ATOM     69  C   UNL A   1      43.992  35.389  31.192  1.00  0.00     0.059 A 
ATOM     70  F   UNL A   1      44.058  33.862  29.413  1.00  0.00    -0.206 F 
ATOM     71  C   UNL A   1      43.796  35.640  32.550  1.00  0.00     0.060 A 
BRANCH  71  72
ATOM     72  S   UNL A   1      43.862  37.328  33.185  1.00  0.00     0.124 S 
ATOM     73  O   UNL A   1      42.679  37.361  34.040  1.00  0.00    -0.237 OA
ATOM     74  O   UNL A   1      45.146  37.353  33.880  1.00  0.00    -0.237 OA
ATOM     75  O   UNL A   1      43.790  38.146  31.980  1.00  0.00    -0.744 OA
ENDBRANCH  71  72
ENDBRANCH  50  64
BRANCH  51  76
ATOM     76  C   UNL A   1      42.632  23.812  27.811  1.00  0.00     0.058 A 
ATOM     77  C   UNL A   1      42.441  22.690  28.631  1.00  0.00     0.135 A 
ATOM     78  C   UNL A   1      42.682  23.609  26.424  1.00  0.00     0.135 A 
ATOM     79  F   UNL A   1      42.392  22.835  29.964  1.00  0.00    -0.206 F 
ATOM     80  C   UNL A   1      42.318  21.412  28.099  1.00  0.00     0.059 A 
ATOM     81  C   UNL A   1      42.540  22.342  25.867  1.00  0.00     0.059 A 
ATOM     82  F   UNL A   1      42.846  24.654  25.597  1.00  0.00    -0.206 F 
ATOM     83  C   UNL A   1      42.370  21.247  26.713  1.00  0.00     0.060 A 
BRANCH  83  84
ATOM     84  S   UNL A   1      42.162  19.589  26.028  1.00  0.00     0.124 S 
ATOM     85  O   UNL A   1      40.732  19.567  25.745  1.00  0.00    -0.237 OA
ATOM     86  O   UNL A   1      43.043  19.620  24.866  1.00  0.00    -0.237 OA
ATOM     87  O   UNL A   1      42.605  18.722  27.116  1.00  0.00    -0.744 OA
ENDBRANCH  83  84
ENDBRANCH  51  76
BRANCH  63  88
ATOM     88  C   UNL A   1      47.904  27.243  30.821  1.00  0.00     0.058 A 
ATOM     89  C   UNL A   1      48.229  26.611  32.030  1.00  0.00     0.135 A 
ATOM     90  C   UNL A   1      48.931  27.444  29.884  1.00  0.00     0.135 A 
ATOM     91  F   UNL A   1      47.282  26.405  32.959  1.00  0.00    -0.206 F 
ATOM     92  C   UNL A   1      49.528  26.198  32.305  1.00  0.00     0.059 A 
ATOM     93  C   UNL A   1      50.233  27.021  30.130  1.00  0.00     0.059 A 
ATOM     94  F   UNL A   1      48.668  28.038  28.709  1.00  0.00    -0.206 F 
ATOM     95  C   UNL A   1      50.523  26.405  31.347  1.00  0.00     0.060 A 
BRANCH  95  96
ATOM     96  S   UNL A   1      52.196  25.818  31.690  1.00  0.00     0.124 S 
ATOM     97  O   UNL A   1      52.578  26.662  32.816  1.00  0.00    -0.237 OA
ATOM     98  O   UNL A   1      51.976  24.408  32.001  1.00  0.00    -0.237 OA
ATOM     99  O   UNL A   1      52.907  26.073  30.442  1.00  0.00    -0.744 OA
ENDBRANCH  95  96
ENDBRANCH  63  88
ENDBRANCH  37  38
ENDBRANCH  29  32
ENDBRANCH  27  28
ENDBRANCH   1  27
TORSDOF 16
ENDMDL
MODEL 2
REMARK VINA RESULT:     -11.1      1.417      3.207
REMARK SMILES Cc1cc2cc(-c3ccc([C@@H](C)C(=O)NCCCCNC(=O)c4ccc(-c5c6nc(c(-c7c(F)cc(S(=O)(=O)[O-])cc7F)c7ccc([nH]7)c(-c7c(F)cc(S(=O)(=O)[O-])cc7F)c7nc(c(-c8c(F)cc(S(=O)(=O)[O-])cc8F)c8ccc5[nH]8)C=C7)C=C6)cc4)cc3)ccc2[nH]1
REMARK SMILES IDX 18 1 17 2 16 3 15 4 13 5 14 6 11 8 12 9 10 10 7 11 8 12
REMARK SMILES IDX 90 13 9 14 89 15 6 16 1 17 2 18 3 19 94 20 4 21 93 22 5 24
REMARK SMILES IDX 92 25 91 26 19 27 20 28 21 29 22 31 23 32 24 33 88 34 25 35
REMARK SMILES IDX 87 36 26 37 27 38 28 39 81 40 29 41 86 42 80 43 82 44 30 45
REMARK SMILES IDX 85 46 79 47 78 48 31 50 65 51 44 52 64 53 45 54 48 55 63 56
REMARK SMILES IDX 83 57 46 58 47 59 62 61 84 62 49 63 32 64 33 65 42 66 34 67
REMARK SMILES IDX 35 68 41 69 43 70 36 71 37 72 38 73 39 74 40 75 66 76 67 77
REMARK SMILES IDX 76 78 68 79 69 80 75 81 77 82 70 83 71 84 72 85 73 86 74 87
REMARK SMILES IDX 50 88 51 89 60 90 52 91 53 92 59 93 61 94 54 95 55 96 56 97
REMARK SMILES IDX 57 98 58 99
REMARK H PARENT 15 7 94 23 20 30 82 49 48 60
REMARK Flexibility Score: inf
ROOT
ATOM      1  C   UNL A   1      34.806  32.752  31.154  1.00  0.00     0.023 C 
ENDROOT
BRANCH   1   2
ATOM      2  C   UNL A   1      34.469  34.169  31.617  1.00  0.00     0.023 C 
BRANCH   2   3
ATOM      3  C   UNL A   1      35.509  34.819  32.529  1.00  0.00     0.116 C 
BRANCH   3   4
ATOM      4  N   UNL A   1      36.843  34.774  31.966  1.00  0.00    -0.356 N 
ATOM      5  C   UNL A   1      37.996  34.205  32.419  1.00  0.00     0.227 C 
ATOM      6  O   UNL A   1      39.008  34.377  31.727  1.00  0.00    -0.274 OA
ATOM      7  H   UNL A   1      36.934  35.236  31.101  1.00  0.00     0.163 HD
BRANCH   5   8
ATOM      8  C   UNL A   1      38.088  33.368  33.704  1.00  0.00     0.105 C 
ATOM      9  C   UNL A   1      38.219  34.205  34.978  1.00  0.00     0.023 C 
BRANCH   8  10
ATOM     10  C   UNL A   1      39.025  32.177  33.584  1.00  0.00    -0.036 A 
ATOM     11  C   UNL A   1      40.803  29.936  33.561  1.00  0.00    -0.018 A 
ATOM     12  C   UNL A   1      39.466  29.830  33.141  1.00  0.00     0.009 A 
ATOM     13  C   UNL A   1      41.237  31.207  33.967  1.00  0.00     0.009 A 
ATOM     14  C   UNL A   1      38.606  30.931  33.115  1.00  0.00     0.005 A 
ATOM     15  C   UNL A   1      40.360  32.303  33.997  1.00  0.00     0.005 A 
BRANCH  11  16
ATOM     16  C   UNL A   1      41.685  28.745  33.586  1.00  0.00    -0.018 A 
ATOM     17  C   UNL A   1      43.843  23.328  35.494  1.00  0.00     0.064 C 
ATOM     18  C   UNL A   1      43.353  24.624  34.970  1.00  0.00     0.013 A 
ATOM     19  C   UNL A   1      42.196  25.322  35.242  1.00  0.00     0.031 A 
ATOM     20  N   UNL A   1      44.072  25.365  34.063  1.00  0.00    -0.359 N 
ATOM     21  C   UNL A   1      42.225  26.528  34.493  1.00  0.00     0.000 A 
ATOM     22  C   UNL A   1      43.410  26.535  33.766  1.00  0.00     0.046 A 
ATOM     23  H   UNL A   1      44.939  25.097  33.679  1.00  0.00     0.166 HD
ATOM     24  C   UNL A   1      41.354  27.627  34.381  1.00  0.00     0.019 A 
ATOM     25  C   UNL A   1      43.766  27.597  32.929  1.00  0.00     0.027 A 
ATOM     26  C   UNL A   1      42.892  28.695  32.866  1.00  0.00     0.011 A 
ENDBRANCH  11  16
ENDBRANCH   8  10
ENDBRANCH   5   8
ENDBRANCH   3   4
ENDBRANCH   2   3
ENDBRANCH   1   2
BRANCH   1  27
ATOM     27  C   UNL A   1      35.202  32.619  29.687  1.00  0.00     0.116 C 
BRANCH  27  28
ATOM     28  N   UNL A   1      34.285  31.813  28.892  1.00  0.00    -0.352 N 
ATOM     29  C   UNL A   1      34.539  30.613  28.264  1.00  0.00     0.251 C 
ATOM     30  H   UNL A   1      33.373  32.170  28.790  1.00  0.00     0.163 HD
ATOM     31  O   UNL A   1      33.685  30.080  27.568  1.00  0.00    -0.269 OA
BRANCH  29  32
ATOM     32  C   UNL A   1      35.882  30.009  28.403  1.00  0.00     0.039 A 
ATOM     33  C   UNL A   1      36.780  30.105  27.337  1.00  0.00     0.014 A 
ATOM     34  C   UNL A   1      36.273  29.426  29.611  1.00  0.00     0.014 A 
ATOM     35  C   UNL A   1      38.105  29.699  27.516  1.00  0.00     0.010 A 
ATOM     36  C   UNL A   1      37.606  29.086  29.807  1.00  0.00     0.010 A 
ATOM     37  C   UNL A   1      38.538  29.231  28.767  1.00  0.00    -0.014 A 
BRANCH  37  38
ATOM     38  C   UNL A   1      39.962  28.899  29.025  1.00  0.00     0.031 A 
ATOM     39  C   UNL A   1      40.888  29.952  29.565  1.00  0.00     0.074 A 
ATOM     40  C   UNL A   1      40.438  27.685  28.685  1.00  0.00     0.049 A 
ATOM     41  N   UNL A   1      42.185  29.908  29.728  1.00  0.00    -0.248 NA
ATOM     42  C   UNL A   1      40.278  31.239  29.939  1.00  0.00     0.031 C 
ATOM     43  C   UNL A   1      39.650  26.594  28.106  1.00  0.00     0.029 A 
ATOM     44  N   UNL A   1      41.709  27.170  28.759  1.00  0.00    -0.354 N 
ATOM     45  C   UNL A   1      42.549  31.164  30.197  1.00  0.00     0.074 A 
ATOM     46  C   UNL A   1      41.343  31.961  30.252  1.00  0.00     0.031 C 
ATOM     47  C   UNL A   1      40.450  25.536  27.893  1.00  0.00     0.029 A 
ATOM     48  C   UNL A   1      41.813  25.883  28.283  1.00  0.00     0.049 A 
ATOM     49  H   UNL A   1      42.474  27.674  29.118  1.00  0.00     0.167 HD
ATOM     50  C   UNL A   1      43.775  31.605  30.568  1.00  0.00     0.037 A 
ATOM     51  C   UNL A   1      42.887  25.078  28.166  1.00  0.00     0.037 A 
ATOM     52  C   UNL A   1      44.963  30.796  30.549  1.00  0.00     0.049 A 
ATOM     53  C   UNL A   1      44.233  25.582  28.609  1.00  0.00     0.074 A 
ATOM     54  C   UNL A   1      46.242  31.133  30.957  1.00  0.00     0.029 A 
ATOM     55  N   UNL A   1      45.017  29.482  30.107  1.00  0.00    -0.354 N 
ATOM     56  N   UNL A   1      44.552  26.759  29.093  1.00  0.00    -0.248 NA
ATOM     57  C   UNL A   1      45.364  24.652  28.493  1.00  0.00     0.031 C 
ATOM     58  C   UNL A   1      47.074  30.029  30.739  1.00  0.00     0.029 A 
ATOM     59  C   UNL A   1      46.307  28.995  30.226  1.00  0.00     0.049 A 
ATOM     60  H   UNL A   1      44.251  28.971  29.758  1.00  0.00     0.167 HD
ATOM     61  C   UNL A   1      45.914  26.702  29.363  1.00  0.00     0.074 A 
ATOM     62  C   UNL A   1      46.358  25.373  28.995  1.00  0.00     0.031 C 
ATOM     63  C   UNL A   1      46.725  27.663  29.870  1.00  0.00     0.037 A 
BRANCH  50  64
ATOM     64  C   UNL A   1      43.882  33.029  31.037  1.00  0.00     0.058 A 
ATOM     65  C   UNL A   1      43.898  34.099  30.128  1.00  0.00     0.135 A 
ATOM     66  C   UNL A   1      43.956  33.328  32.406  1.00  0.00     0.135 A 
ATOM     67  F   UNL A   1      43.846  33.865  28.807  1.00  0.00    -0.206 F 
ATOM     68  C   UNL A   1      44.020  35.416  30.559  1.00  0.00     0.059 A 
ATOM     69  C   UNL A   1      44.053  34.640  32.860  1.00  0.00     0.059 A 
ATOM     70  F   UNL A   1      43.946  32.342  33.316  1.00  0.00    -0.206 F 
ATOM     71  C   UNL A   1      44.103  35.676  31.927  1.00  0.00     0.060 A 
BRANCH  71  72
ATOM     72  S   UNL A   1      44.271  37.388  32.473  1.00  0.00     0.124 S 
ATOM     73  O   UNL A   1      45.657  37.410  32.929  1.00  0.00    -0.237 OA
ATOM     74  O   UNL A   1      43.995  38.137  31.251  1.00  0.00    -0.237 OA
ATOM     75  O   UNL A   1      43.263  37.510  33.520  1.00  0.00    -0.744 OA
ENDBRANCH  71  72
ENDBRANCH  50  64
BRANCH  51  76
ATOM     76  C   UNL A   1      42.729  23.700  27.631  1.00  0.00     0.058 A 
ATOM     77  C   UNL A   1      42.519  22.616  28.495  1.00  0.00     0.135 A 
ATOM     78  C   UNL A   1      42.775  23.441  26.253  1.00  0.00     0.135 A 
ATOM     79  F   UNL A   1      42.474  22.815  29.821  1.00  0.00    -0.206 F 
ATOM     80  C   UNL A   1      42.375  21.319  28.015  1.00  0.00     0.059 A 
ATOM     81  C   UNL A   1      42.612  22.156  25.747  1.00  0.00     0.059 A 
ATOM     82  F   UNL A   1      42.957  24.449  25.384  1.00  0.00    -0.206 F 
ATOM     83  C   UNL A   1      42.423  21.099  26.637  1.00  0.00     0.060 A 
BRANCH  83  84
ATOM     84  S   UNL A   1      42.187  19.417  26.019  1.00  0.00     0.124 S 
ATOM     85  O   UNL A   1      42.644  18.622  27.152  1.00  0.00    -0.237 OA
ATOM     86  O   UNL A   1      40.753  19.384  25.751  1.00  0.00    -0.237 OA
ATOM     87  O   UNL A   1      43.037  19.376  24.833  1.00  0.00    -0.744 OA
ENDBRANCH  83  84
ENDBRANCH  51  76
BRANCH  63  88
ATOM     88  C   UNL A   1      48.165  27.306  30.094  1.00  0.00     0.058 A 
ATOM     89  C   UNL A   1      49.129  27.479  29.090  1.00  0.00     0.135 A 
ATOM     90  C   UNL A   1      48.595  26.849  31.351  1.00  0.00     0.135 A 
ATOM     91  F   UNL A   1      48.765  27.906  27.871  1.00  0.00    -0.206 F 
ATOM     92  C   UNL A   1      50.473  27.204  29.321  1.00  0.00     0.059 A 
ATOM     93  C   UNL A   1      49.937  26.587  31.609  1.00  0.00     0.059 A 
ATOM     94  F   UNL A   1      47.711  26.674  32.345  1.00  0.00    -0.206 F 
ATOM     95  C   UNL A   1      50.867  26.761  30.586  1.00  0.00     0.060 A 
BRANCH  95  96
ATOM     96  S   UNL A   1      52.621  26.457  30.891  1.00  0.00     0.124 S 
ATOM     97  O   UNL A   1      53.003  27.657  31.626  1.00  0.00    -0.237 OA
ATOM     98  O   UNL A   1      52.595  25.220  31.668  1.00  0.00    -0.237 OA
ATOM     99  O   UNL A   1      53.182  26.333  29.549  1.00  0.00    -0.744 OA
ENDBRANCH  95  96
ENDBRANCH  63  88
ENDBRANCH  37  38
ENDBRANCH  29  32
ENDBRANCH  27  28
ENDBRANCH   1  27
TORSDOF 16
ENDMDL
MODEL 3
REMARK VINA RESULT:     -11.1      4.032      7.111
REMARK SMILES Cc1cc2cc(-c3ccc([C@@H](C)C(=O)NCCCCNC(=O)c4ccc(-c5c6nc(c(-c7c(F)cc(S(=O)(=O)[O-])cc7F)c7ccc([nH]7)c(-c7c(F)cc(S(=O)(=O)[O-])cc7F)c7nc(c(-c8c(F)cc(S(=O)(=O)[O-])cc8F)c8ccc5[nH]8)C=C7)C=C6)cc4)cc3)ccc2[nH]1
REMARK SMILES IDX 18 1 17 2 16 3 15 4 13 5 14 6 11 8 12 9 10 10 7 11 8 12
REMARK SMILES IDX 90 13 9 14 89 15 6 16 1 17 2 18 3 19 94 20 4 21 93 22 5 24
REMARK SMILES IDX 92 25 91 26 19 27 20 28 21 29 22 31 23 32 24 33 88 34 25 35
REMARK SMILES IDX 87 36 26 37 27 38 28 39 81 40 29 41 86 42 80 43 82 44 30 45
REMARK SMILES IDX 85 46 79 47 78 48 31 50 65 51 44 52 64 53 45 54 48 55 63 56
REMARK SMILES IDX 83 57 46 58 47 59 62 61 84 62 49 63 32 64 33 65 42 66 34 67
REMARK SMILES IDX 35 68 41 69 43 70 36 71 37 72 38 73 39 74 40 75 66 76 67 77
REMARK SMILES IDX 76 78 68 79 69 80 75 81 77 82 70 83 71 84 72 85 73 86 74 87
REMARK SMILES IDX 50 88 51 89 60 90 52 91 53 92 59 93 61 94 54 95 55 96 56 97
REMARK SMILES IDX 57 98 58 99
REMARK H PARENT 15 7 94 23 20 30 82 49 48 60
REMARK Flexibility Score: inf
ROOT
ATOM      1  C   UNL A   1      33.225  27.896  26.938  1.00  0.00     0.023 C 
ENDROOT
BRANCH   1   2
ATOM      2  C   UNL A   1      31.702  27.944  26.823  1.00  0.00     0.023 C 
BRANCH   2   3
ATOM      3  C   UNL A   1      31.086  26.888  25.906  1.00  0.00     0.116 C 
BRANCH   3   4
ATOM      4  N   UNL A   1      30.742  27.419  24.603  1.00  0.00    -0.356 N 
ATOM      5  C   UNL A   1      31.509  27.705  23.514  1.00  0.00     0.227 C 
ATOM      6  O   UNL A   1      30.927  28.203  22.541  1.00  0.00    -0.274 OA
ATOM      7  H   UNL A   1      29.784  27.608  24.483  1.00  0.00     0.163 HD
BRANCH   5   8
ATOM      8  C   UNL A   1      33.018  27.426  23.434  1.00  0.00     0.105 C 
ATOM      9  C   UNL A   1      33.730  28.195  22.319  1.00  0.00     0.023 C 
BRANCH   8  10
ATOM     10  C   UNL A   1      33.368  25.952  23.563  1.00  0.00    -0.036 A 
ATOM     11  C   UNL A   1      33.942  23.183  23.993  1.00  0.00    -0.018 A 
ATOM     12  C   UNL A   1      33.032  23.610  23.011  1.00  0.00     0.009 A 
ATOM     13  C   UNL A   1      34.582  24.185  24.738  1.00  0.00     0.009 A 
ATOM     14  C   UNL A   1      32.778  24.964  22.773  1.00  0.00     0.005 A 
ATOM     15  C   UNL A   1      34.286  25.542  24.541  1.00  0.00     0.005 A 
BRANCH  11  16
ATOM     16  C   UNL A   1      34.180  21.738  24.226  1.00  0.00    -0.018 A 
ATOM     17  C   UNL A   1      32.774  15.821  25.039  1.00  0.00     0.064 C 
ATOM     18  C   UNL A   1      33.179  17.230  24.823  1.00  0.00     0.013 A 
ATOM     19  C   UNL A   1      32.447  18.319  24.400  1.00  0.00     0.031 A 
ATOM     20  N   UNL A   1      34.463  17.665  25.050  1.00  0.00    -0.359 N 
ATOM     21  C   UNL A   1      33.309  19.447  24.389  1.00  0.00     0.000 A 
ATOM     22  C   UNL A   1      34.564  19.016  24.803  1.00  0.00     0.046 A 
ATOM     23  H   UNL A   1      35.207  17.092  25.347  1.00  0.00     0.166 HD
ATOM     24  C   UNL A   1      33.128  20.808  24.079  1.00  0.00     0.019 A 
ATOM     25  C   UNL A   1      35.651  19.886  24.923  1.00  0.00     0.027 A 
ATOM     26  C   UNL A   1      35.430  21.245  24.640  1.00  0.00     0.011 A 
ENDBRANCH  11  16
ENDBRANCH   8  10
ENDBRANCH   5   8
ENDBRANCH   3   4
ENDBRANCH   2   3
ENDBRANCH   1   2
BRANCH   1  27
ATOM     27  C   UNL A   1      33.960  29.133  26.431  1.00  0.00     0.116 C 
BRANCH  27  28
ATOM     28  N   UNL A   1      33.782  30.315  27.264  1.00  0.00    -0.352 N 
ATOM     29  C   UNL A   1      34.668  30.852  28.172  1.00  0.00     0.251 C 
ATOM     30  H   UNL A   1      32.924  30.788  27.165  1.00  0.00     0.163 HD
ATOM     31  O   UNL A   1      34.354  31.818  28.855  1.00  0.00    -0.269 OA
BRANCH  29  32
ATOM     32  C   UNL A   1      35.987  30.206  28.345  1.00  0.00     0.039 A 
ATOM     33  C   UNL A   1      36.914  30.270  27.302  1.00  0.00     0.014 A 
ATOM     34  C   UNL A   1      36.330  29.614  29.563  1.00  0.00     0.014 A 
ATOM     35  C   UNL A   1      38.220  29.822  27.513  1.00  0.00     0.010 A 
ATOM     36  C   UNL A   1      37.647  29.233  29.793  1.00  0.00     0.010 A 
ATOM     37  C   UNL A   1      38.607  29.345  28.775  1.00  0.00    -0.014 A 
BRANCH  37  38
ATOM     38  C   UNL A   1      40.013  28.968  29.069  1.00  0.00     0.031 A 
ATOM     39  C   UNL A   1      40.955  29.988  29.648  1.00  0.00     0.074 A 
ATOM     40  C   UNL A   1      40.464  27.745  28.727  1.00  0.00     0.049 A 
ATOM     41  N   UNL A   1      42.244  29.904  29.846  1.00  0.00    -0.248 NA
ATOM     42  C   UNL A   1      40.371  31.287  30.021  1.00  0.00     0.031 C 
ATOM     43  C   UNL A   1      39.661  26.685  28.112  1.00  0.00     0.029 A 
ATOM     44  N   UNL A   1      41.717  27.193  28.830  1.00  0.00    -0.354 N 
ATOM     45  C   UNL A   1      42.631  31.143  30.341  1.00  0.00     0.074 A 
ATOM     46  C   UNL A   1      41.448  31.975  30.373  1.00  0.00     0.031 C 
ATOM     47  C   UNL A   1      40.436  25.606  27.908  1.00  0.00     0.029 A 
ATOM     48  C   UNL A   1      41.797  25.909  28.341  1.00  0.00     0.049 A 
ATOM     49  H   UNL A   1      42.486  27.670  29.216  1.00  0.00     0.167 HD
ATOM     50  C   UNL A   1      43.858  31.544  30.751  1.00  0.00     0.037 A 
ATOM     51  C   UNL A   1      42.851  25.074  28.244  1.00  0.00     0.037 A 
ATOM     52  C   UNL A   1      45.022  30.701  30.755  1.00  0.00     0.049 A 
ATOM     53  C   UNL A   1      44.197  25.534  28.731  1.00  0.00     0.074 A 
ATOM     54  C   UNL A   1      46.298  30.995  31.203  1.00  0.00     0.029 A 
ATOM     55  N   UNL A   1      45.051  29.391  30.298  1.00  0.00    -0.354 N 
ATOM     56  N   UNL A   1      44.536  26.695  29.238  1.00  0.00    -0.248 NA
ATOM     57  C   UNL A   1      45.304  24.572  28.635  1.00  0.00     0.031 C 
ATOM     58  C   UNL A   1      47.104  29.871  30.995  1.00  0.00     0.029 A 
ATOM     59  C   UNL A   1      46.322  28.865  30.447  1.00  0.00     0.049 A 
ATOM     60  H   UNL A   1      44.281  28.907  29.922  1.00  0.00     0.167 HD
ATOM     61  C   UNL A   1      45.888  26.595  29.545  1.00  0.00     0.074 A 
ATOM     62  C   UNL A   1      46.304  25.258  29.173  1.00  0.00     0.031 C 
ATOM     63  C   UNL A   1      46.712  27.526  30.086  1.00  0.00     0.037 A 
BRANCH  50  64
ATOM     64  C   UNL A   1      43.993  32.958  31.241  1.00  0.00     0.058 A 
ATOM     65  C   UNL A   1      44.280  34.013  30.360  1.00  0.00     0.135 A 
ATOM     66  C   UNL A   1      43.821  33.265  32.600  1.00  0.00     0.135 A 
ATOM     67  F   UNL A   1      44.470  33.770  29.053  1.00  0.00    -0.206 F 
ATOM     68  C   UNL A   1      44.428  35.319  30.814  1.00  0.00     0.059 A 
ATOM     69  C   UNL A   1      43.939  34.569  33.072  1.00  0.00     0.059 A 
ATOM     70  F   UNL A   1      43.546  32.294  33.483  1.00  0.00    -0.206 F 
ATOM     71  C   UNL A   1      44.261  35.587  32.174  1.00  0.00     0.060 A 
BRANCH  71  72
ATOM     72  S   UNL A   1      44.465  37.284  32.752  1.00  0.00     0.124 S 
ATOM     73  O   UNL A   1      44.543  38.012  31.490  1.00  0.00    -0.237 OA
ATOM     74  O   UNL A   1      43.251  37.499  33.534  1.00  0.00    -0.237 OA
ATOM     75  O   UNL A   1      45.702  37.232  33.524  1.00  0.00    -0.744 OA
ENDBRANCH  71  72
ENDBRANCH  50  64
BRANCH  51  76
ATOM     76  C   UNL A   1      42.668  23.708  27.687  1.00  0.00     0.058 A 
ATOM     77  C   UNL A   1      42.451  22.612  28.535  1.00  0.00     0.135 A 
ATOM     78  C   UNL A   1      42.698  23.472  26.305  1.00  0.00     0.135 A 
ATOM     79  F   UNL A   1      42.420  22.790  29.864  1.00  0.00    -0.206 F 
ATOM     80  C   UNL A   1      42.283  21.326  28.034  1.00  0.00     0.059 A 
ATOM     81  C   UNL A   1      42.512  22.197  25.779  1.00  0.00     0.059 A 
ATOM     82  F   UNL A   1      42.886  24.491  25.451  1.00  0.00    -0.206 F 
ATOM     83  C   UNL A   1      42.316  21.128  26.652  1.00  0.00     0.060 A 
BRANCH  83  84
ATOM     84  S   UNL A   1      42.050  19.461  26.008  1.00  0.00     0.124 S 
ATOM     85  O   UNL A   1      40.614  19.470  25.760  1.00  0.00    -0.237 OA
ATOM     86  O   UNL A   1      42.904  19.446  24.825  1.00  0.00    -0.237 OA
ATOM     87  O   UNL A   1      42.498  18.606  27.104  1.00  0.00    -0.744 OA
ENDBRANCH  83  84
ENDBRANCH  51  76
BRANCH  63  88
ATOM     88  C   UNL A   1      48.135  27.124  30.346  1.00  0.00     0.058 A 
ATOM     89  C   UNL A   1      49.157  27.415  29.431  1.00  0.00     0.135 A 
ATOM     90  C   UNL A   1      48.486  26.503  31.555  1.00  0.00     0.135 A 
ATOM     91  F   UNL A   1      48.868  28.001  28.259  1.00  0.00    -0.206 F 
ATOM     92  C   UNL A   1      50.483  27.095  29.702  1.00  0.00     0.059 A 
ATOM     93  C   UNL A   1      49.809  26.192  31.855  1.00  0.00     0.059 A 
ATOM     94  F   UNL A   1      47.543  26.211  32.465  1.00  0.00    -0.206 F 
ATOM     95  C   UNL A   1      50.799  26.486  30.919  1.00  0.00     0.060 A 
BRANCH  95  96
ATOM     96  S   UNL A   1      52.530  26.122  31.285  1.00  0.00     0.124 S 
ATOM     97  O   UNL A   1      52.906  27.273  32.099  1.00  0.00    -0.237 OA
ATOM     98  O   UNL A   1      52.441  24.848  31.992  1.00  0.00    -0.237 OA
ATOM     99  O   UNL A   1      53.148  26.055  29.965  1.00  0.00    -0.744 OA
ENDBRANCH  95  96
ENDBRANCH  63  88
ENDBRANCH  37  38
ENDBRANCH  29  32
ENDBRANCH  27  28
ENDBRANCH   1  27
TORSDOF 16
ENDMDL
