MODEL 1
REMARK VINA RESULT:     -12.1      0.000      0.000
REMARK SMILES [NH3+][C@H](CS[C@@H]1CC(=O)N(c2ccc3ccccc3c2)C1=O)C(=O)NCCCCNC(=O)c1ccc(-c2c3nc(c(-c4c(F)cc(S(=O)(=O)[O-])cc4F)c4ccc([nH]4)c(-c4c(F)cc(S(=O)(=O)[O-])cc4F)c4nc(c(-c5c(F)cc(S(=O)(=O)[O-])cc5F)c5ccc2[nH]5)C=C4)C=C3)cc1
REMARK SMILES IDX 26 1 25 2 24 3 22 4 23 5 2 7 1 8 3 12 4 13 5 14 6 15 20 16
REMARK SMILES IDX 7 17 9 18 21 19 8 20 10 21 11 22 19 23 12 24 18 25 13 26
REMARK SMILES IDX 17 27 14 28 16 29 15 30 27 31 28 32 29 33 30 34 31 36 32 37
REMARK SMILES IDX 33 38 97 39 34 40 96 41 35 42 36 43 37 44 90 45 38 46 95 47
REMARK SMILES IDX 89 48 91 49 39 50 94 51 88 52 87 53 40 55 74 56 53 57 73 58
REMARK SMILES IDX 54 59 57 60 72 61 92 62 55 63 56 64 71 66 93 67 58 68 41 69
REMARK SMILES IDX 42 70 51 71 43 72 44 73 50 74 52 75 45 76 46 77 47 78 48 79
REMARK SMILES IDX 49 80 75 81 76 82 85 83 77 84 78 85 84 86 86 87 79 88 80 89
REMARK SMILES IDX 81 90 82 91 83 92 59 93 60 94 69 95 61 96 62 97 68 98 70 99
REMARK SMILES IDX 63 100 64 101 65 102 66 103 67 104
REMARK H PARENT 24 6 1 9 1 10 1 11 29 35 91 54 57 65
REMARK Flexibility Score: inf
ROOT
ATOM      1  C   UNL A   1      39.670  22.607  26.818  1.00  0.00     0.023 C 
ENDROOT
BRANCH   1   2
ATOM      2  C   UNL A   1      38.908  21.613  25.945  1.00  0.00     0.116 C 
BRANCH   2   3
ATOM      3  N   UNL A   1      37.995  22.175  24.965  1.00  0.00    -0.351 N 
ATOM      4  C   UNL A   1      36.810  22.784  25.282  1.00  0.00     0.279 C 
ATOM      5  O   UNL A   1      36.711  23.985  25.008  1.00  0.00    -0.268 OA
ATOM      6  H   UNL A   1      38.242  22.115  24.015  1.00  0.00     0.163 HD
BRANCH   4   7
ATOM      7  C   UNL A   1      35.675  22.066  26.046  1.00  0.00     0.280 C 
BRANCH   7   8
ATOM      8  N   UNL A   1      35.535  20.674  25.547  1.00  0.00    -0.347 N 
ATOM      9  H   UNL A   1      36.091  20.558  24.700  1.00  0.00     0.345 HD
ATOM     10  H   UNL A   1      34.555  20.484  25.339  1.00  0.00     0.345 HD
ATOM     11  H   UNL A   1      35.863  20.023  26.261  1.00  0.00     0.345 HD
ENDBRANCH   7   8
BRANCH   7  12
ATOM     12  C   UNL A   1      34.314  22.768  26.286  1.00  0.00     0.145 C 
BRANCH  12  13
ATOM     13  S   UNL A   1      32.734  21.951  25.872  1.00  0.00    -0.141 SA
BRANCH  13  14
ATOM     14  C   UNL A   1      31.740  23.302  25.138  1.00  0.00     0.146 C 
ATOM     15  C   UNL A   1      32.252  23.666  23.751  1.00  0.00     0.125 C 
ATOM     16  C   UNL A   1      31.802  24.599  25.901  1.00  0.00     0.247 C 
ATOM     17  C   UNL A   1      32.748  25.075  23.887  1.00  0.00     0.235 C 
ATOM     18  N   UNL A   1      32.392  25.564  25.116  1.00  0.00    -0.250 N 
ATOM     19  O   UNL A   1      31.319  24.726  27.021  1.00  0.00    -0.273 OA
ATOM     20  O   UNL A   1      33.404  25.634  23.016  1.00  0.00    -0.274 OA
BRANCH  18  21
ATOM     21  C   UNL A   1      32.566  26.914  25.522  1.00  0.00     0.052 A 
ATOM     22  C   UNL A   1      31.552  27.863  25.366  1.00  0.00     0.027 A 
ATOM     23  C   UNL A   1      33.749  27.319  26.148  1.00  0.00     0.035 A 
ATOM     24  C   UNL A   1      31.690  29.148  25.915  1.00  0.00     0.011 A 
ATOM     25  C   UNL A   1      33.933  28.615  26.645  1.00  0.00    -0.016 A 
ATOM     26  C   UNL A   1      32.870  29.533  26.575  1.00  0.00    -0.018 A 
ATOM     27  C   UNL A   1      35.151  28.994  27.231  1.00  0.00     0.009 A 
ATOM     28  C   UNL A   1      33.030  30.796  27.172  1.00  0.00     0.009 A 
ATOM     29  C   UNL A   1      35.301  30.255  27.800  1.00  0.00     0.001 A 
ATOM     30  C   UNL A   1      34.234  31.148  27.791  1.00  0.00     0.001 A 
ENDBRANCH  18  21
ENDBRANCH  13  14
ENDBRANCH  12  13
ENDBRANCH   7  12
ENDBRANCH   4   7
ENDBRANCH   2   3
ENDBRANCH   1   2
BRANCH   1  31
ATOM     31  C   UNL A   1      40.948  22.095  27.480  1.00  0.00     0.023 C 
BRANCH  31  32
ATOM     32  C   UNL A   1      42.096  23.094  27.545  1.00  0.00     0.116 C 
BRANCH  32  33
ATOM     33  N   UNL A   1      42.133  23.946  26.369  1.00  0.00    -0.352 N 
ATOM     34  C   UNL A   1      41.805  25.272  26.223  1.00  0.00     0.251 C 
ATOM     35  H   UNL A   1      42.443  23.503  25.546  1.00  0.00     0.163 HD
ATOM     36  O   UNL A   1      41.652  25.721  25.089  1.00  0.00    -0.269 OA
BRANCH  34  37
ATOM     37  C   UNL A   1      41.635  26.162  27.398  1.00  0.00     0.039 A 
ATOM     38  C   UNL A   1      40.500  26.008  28.201  1.00  0.00     0.014 A 
ATOM     39  C   UNL A   1      42.530  27.201  27.665  1.00  0.00     0.014 A 
ATOM     40  C   UNL A   1      40.280  26.871  29.280  1.00  0.00     0.010 A 
ATOM     41  C   UNL A   1      42.351  28.010  28.788  1.00  0.00     0.010 A 
ATOM     42  C   UNL A   1      41.211  27.874  29.592  1.00  0.00    -0.014 A 
BRANCH  42  43
ATOM     43  C   UNL A   1      40.984  28.822  30.717  1.00  0.00     0.031 A 
ATOM     44  C   UNL A   1      41.832  28.730  31.962  1.00  0.00     0.074 A 
ATOM     45  C   UNL A   1      39.991  29.730  30.648  1.00  0.00     0.049 A 
ATOM     46  N   UNL A   1      41.744  29.411  33.076  1.00  0.00    -0.248 NA
ATOM     47  C   UNL A   1      42.904  27.722  31.962  1.00  0.00     0.031 C 
ATOM     48  C   UNL A   1      39.074  29.896  29.518  1.00  0.00     0.029 A 
ATOM     49  N   UNL A   1      39.578  30.679  31.551  1.00  0.00    -0.354 N 
ATOM     50  C   UNL A   1      42.725  28.894  33.916  1.00  0.00     0.074 A 
ATOM     51  C   UNL A   1      43.368  27.815  33.200  1.00  0.00     0.031 C 
ATOM     52  C   UNL A   1      38.223  30.900  29.788  1.00  0.00     0.029 A 
ATOM     53  C   UNL A   1      38.507  31.424  31.120  1.00  0.00     0.049 A 
ATOM     54  H   UNL A   1      40.010  30.812  32.425  1.00  0.00     0.167 HD
ATOM     55  C   UNL A   1      43.075  29.296  35.162  1.00  0.00     0.037 A 
ATOM     56  C   UNL A   1      37.826  32.414  31.731  1.00  0.00     0.037 A 
ATOM     57  C   UNL A   1      42.463  30.400  35.856  1.00  0.00     0.049 A 
ATOM     58  C   UNL A   1      38.243  32.854  33.109  1.00  0.00     0.074 A 
ATOM     59  C   UNL A   1      42.795  30.930  37.090  1.00  0.00     0.029 A 
ATOM     60  N   UNL A   1      41.397  31.145  35.373  1.00  0.00    -0.354 N 
ATOM     61  N   UNL A   1      39.211  32.392  33.864  1.00  0.00    -0.248 NA
ATOM     62  C   UNL A   1      37.479  33.952  33.716  1.00  0.00     0.031 C 
ATOM     63  C   UNL A   1      41.904  31.973  37.372  1.00  0.00     0.029 A 
ATOM     64  C   UNL A   1      41.047  32.119  36.293  1.00  0.00     0.049 A 
ATOM     65  H   UNL A   1      40.956  31.003  34.505  1.00  0.00     0.167 HD
ATOM     66  C   UNL A   1      39.189  33.161  35.023  1.00  0.00     0.074 A 
ATOM     67  C   UNL A   1      38.119  34.124  34.865  1.00  0.00     0.031 C 
ATOM     68  C   UNL A   1      39.986  33.078  36.117  1.00  0.00     0.037 A 
BRANCH  55  69
ATOM     69  C   UNL A   1      44.175  28.539  35.858  1.00  0.00     0.058 A 
ATOM     70  C   UNL A   1      43.903  27.449  36.700  1.00  0.00     0.135 A 
ATOM     71  C   UNL A   1      45.520  28.887  35.653  1.00  0.00     0.135 A 
ATOM     72  F   UNL A   1      42.635  27.081  36.942  1.00  0.00    -0.206 F 
ATOM     73  C   UNL A   1      44.923  26.753  37.342  1.00  0.00     0.059 A 
ATOM     74  C   UNL A   1      46.558  28.187  36.263  1.00  0.00     0.059 A 
ATOM     75  F   UNL A   1      45.839  29.919  34.856  1.00  0.00    -0.206 F 
ATOM     76  C   UNL A   1      46.248  27.131  37.118  1.00  0.00     0.060 A 
BRANCH  76  77
ATOM     77  S   UNL A   1      47.560  26.217  37.956  1.00  0.00     0.124 S 
ATOM     78  O   UNL A   1      47.090  24.842  37.817  1.00  0.00    -0.237 OA
ATOM     79  O   UNL A   1      48.737  26.566  37.168  1.00  0.00    -0.237 OA
ATOM     80  O   UNL A   1      47.535  26.754  39.314  1.00  0.00    -0.744 OA
ENDBRANCH  76  77
ENDBRANCH  55  69
BRANCH  56  81
ATOM     81  C   UNL A   1      36.695  33.079  31.031  1.00  0.00     0.058 A 
ATOM     82  C   UNL A   1      35.366  32.795  31.379  1.00  0.00     0.135 A 
ATOM     83  C   UNL A   1      36.916  34.020  30.013  1.00  0.00     0.135 A 
ATOM     84  F   UNL A   1      35.104  31.896  32.340  1.00  0.00    -0.206 F 
ATOM     85  C   UNL A   1      34.296  33.407  30.736  1.00  0.00     0.059 A 
ATOM     86  C   UNL A   1      35.862  34.664  29.371  1.00  0.00     0.059 A 
ATOM     87  F   UNL A   1      38.169  34.338  29.651  1.00  0.00    -0.206 F 
ATOM     88  C   UNL A   1      34.554  34.343  29.734  1.00  0.00     0.060 A 
BRANCH  88  89
ATOM     89  S   UNL A   1      33.160  35.172  28.941  1.00  0.00     0.124 S 
ATOM     90  O   UNL A   1      32.291  35.442  30.081  1.00  0.00    -0.237 OA
ATOM     91  O   UNL A   1      33.798  36.336  28.334  1.00  0.00    -0.237 OA
ATOM     92  O   UNL A   1      32.669  34.174  27.995  1.00  0.00    -0.744 OA
ENDBRANCH  88  89
ENDBRANCH  56  81
BRANCH  68  93
ATOM     93  C   UNL A   1      39.755  34.075  37.219  1.00  0.00     0.058 A 
ATOM     94  C   UNL A   1      39.022  33.748  38.370  1.00  0.00     0.135 A 
ATOM     95  C   UNL A   1      40.323  35.358  37.145  1.00  0.00     0.135 A 
ATOM     96  F   UNL A   1      38.452  32.538  38.487  1.00  0.00    -0.206 F 
ATOM     97  C   UNL A   1      38.841  34.664  39.400  1.00  0.00     0.059 A 
ATOM     98  C   UNL A   1      40.176  36.282  38.175  1.00  0.00     0.059 A 
ATOM     99  F   UNL A   1      41.043  35.717  36.070  1.00  0.00    -0.206 F 
ATOM    100  C   UNL A   1      39.424  35.929  39.294  1.00  0.00     0.060 A 
BRANCH 100 101
ATOM    101  S   UNL A   1      39.213  37.098  40.655  1.00  0.00     0.124 S 
ATOM    102  O   UNL A   1      38.344  38.100  40.047  1.00  0.00    -0.237 OA
ATOM    103  O   UNL A   1      38.600  36.269  41.688  1.00  0.00    -0.237 OA
ATOM    104  O   UNL A   1      40.576  37.537  40.939  1.00  0.00    -0.744 OA
ENDBRANCH 100 101
ENDBRANCH  68  93
ENDBRANCH  42  43
ENDBRANCH  34  37
ENDBRANCH  32  33
ENDBRANCH  31  32
ENDBRANCH   1  31
TORSDOF 19
ENDMDL
MODEL 2
REMARK VINA RESULT:     -12.0      6.359     11.972
REMARK SMILES [NH3+][C@H](CS[C@@H]1CC(=O)N(c2ccc3ccccc3c2)C1=O)C(=O)NCCCCNC(=O)c1ccc(-c2c3nc(c(-c4c(F)cc(S(=O)(=O)[O-])cc4F)c4ccc([nH]4)c(-c4c(F)cc(S(=O)(=O)[O-])cc4F)c4nc(c(-c5c(F)cc(S(=O)(=O)[O-])cc5F)c5ccc2[nH]5)C=C4)C=C3)cc1
REMARK SMILES IDX 26 1 25 2 24 3 22 4 23 5 2 7 1 8 3 12 4 13 5 14 6 15 20 16
REMARK SMILES IDX 7 17 9 18 21 19 8 20 10 21 11 22 19 23 12 24 18 25 13 26
REMARK SMILES IDX 17 27 14 28 16 29 15 30 27 31 28 32 29 33 30 34 31 36 32 37
REMARK SMILES IDX 33 38 97 39 34 40 96 41 35 42 36 43 37 44 90 45 38 46 95 47
REMARK SMILES IDX 89 48 91 49 39 50 94 51 88 52 87 53 40 55 74 56 53 57 73 58
REMARK SMILES IDX 54 59 57 60 72 61 92 62 55 63 56 64 71 66 93 67 58 68 41 69
REMARK SMILES IDX 42 70 51 71 43 72 44 73 50 74 52 75 45 76 46 77 47 78 48 79
REMARK SMILES IDX 49 80 75 81 76 82 85 83 77 84 78 85 84 86 86 87 79 88 80 89
REMARK SMILES IDX 81 90 82 91 83 92 59 93 60 94 69 95 61 96 62 97 68 98 70 99
REMARK SMILES IDX 63 100 64 101 65 102 66 103 67 104
REMARK H PARENT 24 6 1 9 1 10 1 11 29 35 91 54 57 65
REMARK Flexibility Score: inf
ROOT
ATOM      1  C   UNL A   1      34.282  28.794  26.232  1.00  0.00     0.023 C 
ENDROOT
BRANCH   1   2
ATOM      2  C   UNL A   1      33.216  29.519  25.412  1.00  0.00     0.116 C 
BRANCH   2   3
ATOM      3  N   UNL A   1      33.369  29.476  23.968  1.00  0.00    -0.351 N 
ATOM      4  C   UNL A   1      32.709  28.597  23.152  1.00  0.00     0.279 C 
ATOM      5  O   UNL A   1      31.917  29.082  22.337  1.00  0.00    -0.268 OA
ATOM      6  H   UNL A   1      33.986  30.119  23.550  1.00  0.00     0.163 HD
BRANCH   4   7
ATOM      7  C   UNL A   1      32.839  27.064  23.291  1.00  0.00     0.280 C 
BRANCH   7   8
ATOM      8  N   UNL A   1      32.817  26.434  21.946  1.00  0.00    -0.347 N 
ATOM      9  H   UNL A   1      33.330  25.553  21.974  1.00  0.00     0.345 HD
ATOM     10  H   UNL A   1      33.255  27.060  21.270  1.00  0.00     0.345 HD
ATOM     11  H   UNL A   1      31.852  26.256  21.669  1.00  0.00     0.345 HD
ENDBRANCH   7   8
BRANCH   7  12
ATOM     12  C   UNL A   1      32.003  26.290  24.342  1.00  0.00     0.145 C 
BRANCH  12  13
ATOM     13  S   UNL A   1      30.480  25.394  23.876  1.00  0.00    -0.141 SA
BRANCH  13  14
ATOM     14  C   UNL A   1      30.892  23.646  24.233  1.00  0.00     0.146 C 
ATOM     15  C   UNL A   1      30.609  23.305  25.689  1.00  0.00     0.125 C 
ATOM     16  C   UNL A   1      32.349  23.307  24.056  1.00  0.00     0.247 C 
ATOM     17  C   UNL A   1      31.954  22.992  26.274  1.00  0.00     0.235 C 
ATOM     18  N   UNL A   1      32.884  22.942  25.271  1.00  0.00    -0.250 N 
ATOM     19  O   UNL A   1      32.895  23.309  22.958  1.00  0.00    -0.273 OA
ATOM     20  O   UNL A   1      32.138  22.856  27.478  1.00  0.00    -0.274 OA
BRANCH  18  21
ATOM     21  C   UNL A   1      34.229  22.521  25.446  1.00  0.00     0.052 A 
ATOM     22  C   UNL A   1      34.634  21.215  25.151  1.00  0.00     0.027 A 
ATOM     23  C   UNL A   1      35.207  23.428  25.867  1.00  0.00     0.035 A 
ATOM     24  C   UNL A   1      35.994  20.867  25.182  1.00  0.00     0.011 A 
ATOM     25  C   UNL A   1      36.560  23.083  25.969  1.00  0.00    -0.016 A 
ATOM     26  C   UNL A   1      36.972  21.798  25.573  1.00  0.00    -0.018 A 
ATOM     27  C   UNL A   1      37.505  24.011  26.435  1.00  0.00     0.009 A 
ATOM     28  C   UNL A   1      38.346  21.500  25.579  1.00  0.00     0.009 A 
ATOM     29  C   UNL A   1      38.860  23.694  26.454  1.00  0.00     0.001 A 
ATOM     30  C   UNL A   1      39.283  22.446  26.005  1.00  0.00     0.001 A 
ENDBRANCH  18  21
ENDBRANCH  13  14
ENDBRANCH  12  13
ENDBRANCH   7  12
ENDBRANCH   4   7
ENDBRANCH   2   3
ENDBRANCH   1   2
BRANCH   1  31
ATOM     31  C   UNL A   1      34.448  29.244  27.684  1.00  0.00     0.023 C 
BRANCH  31  32
ATOM     32  C   UNL A   1      35.272  30.508  27.885  1.00  0.00     0.116 C 
BRANCH  32  33
ATOM     33  N   UNL A   1      35.363  30.871  29.289  1.00  0.00    -0.352 N 
ATOM     34  C   UNL A   1      36.338  30.592  30.216  1.00  0.00     0.251 C 
ATOM     35  H   UNL A   1      34.607  31.401  29.630  1.00  0.00     0.163 HD
ATOM     36  O   UNL A   1      36.086  30.762  31.407  1.00  0.00    -0.269 OA
BRANCH  34  37
ATOM     37  C   UNL A   1      37.676  30.096  29.808  1.00  0.00     0.039 A 
ATOM     38  C   UNL A   1      38.578  29.700  30.802  1.00  0.00     0.014 A 
ATOM     39  C   UNL A   1      38.084  30.101  28.472  1.00  0.00     0.014 A 
ATOM     40  C   UNL A   1      39.869  29.285  30.455  1.00  0.00     0.010 A 
ATOM     41  C   UNL A   1      39.342  29.612  28.120  1.00  0.00     0.010 A 
ATOM     42  C   UNL A   1      40.260  29.224  29.108  1.00  0.00    -0.014 A 
BRANCH  42  43
ATOM     43  C   UNL A   1      41.636  28.815  28.716  1.00  0.00     0.031 A 
ATOM     44  C   UNL A   1      42.744  29.839  28.678  1.00  0.00     0.074 A 
ATOM     45  C   UNL A   1      41.886  27.543  28.349  1.00  0.00     0.049 A 
ATOM     46  N   UNL A   1      43.987  29.700  28.294  1.00  0.00    -0.248 NA
ATOM     47  C   UNL A   1      42.399  31.206  29.102  1.00  0.00     0.031 C 
ATOM     48  C   UNL A   1      40.896  26.465  28.304  1.00  0.00     0.029 A 
ATOM     49  N   UNL A   1      43.049  26.941  27.933  1.00  0.00    -0.354 N 
ATOM     50  C   UNL A   1      44.562  30.962  28.403  1.00  0.00     0.074 A 
ATOM     51  C   UNL A   1      43.521  31.863  28.846  1.00  0.00     0.031 C 
ATOM     52  C   UNL A   1      41.497  25.332  27.906  1.00  0.00     0.029 A 
ATOM     53  C   UNL A   1      42.905  25.608  27.631  1.00  0.00     0.049 A 
ATOM     54  H   UNL A   1      43.904  27.421  27.858  1.00  0.00     0.167 HD
ATOM     55  C   UNL A   1      45.845  31.334  28.176  1.00  0.00     0.037 A 
ATOM     56  C   UNL A   1      43.802  24.710  27.179  1.00  0.00     0.037 A 
ATOM     57  C   UNL A   1      46.890  30.427  27.778  1.00  0.00     0.049 A 
ATOM     58  C   UNL A   1      45.225  25.143  26.949  1.00  0.00     0.074 A 
ATOM     59  C   UNL A   1      48.236  30.692  27.592  1.00  0.00     0.029 A 
ATOM     60  N   UNL A   1      46.707  29.078  27.507  1.00  0.00    -0.354 N 
ATOM     61  N   UNL A   1      45.764  26.328  27.113  1.00  0.00    -0.248 NA
ATOM     62  C   UNL A   1      46.165  24.116  26.477  1.00  0.00     0.031 C 
ATOM     63  C   UNL A   1      48.860  29.513  27.172  1.00  0.00     0.029 A 
ATOM     64  C   UNL A   1      47.912  28.503  27.139  1.00  0.00     0.049 A 
ATOM     65  H   UNL A   1      45.848  28.602  27.568  1.00  0.00     0.167 HD
ATOM     66  C   UNL A   1      47.109  26.182  26.791  1.00  0.00     0.074 A 
ATOM     67  C   UNL A   1      47.304  24.793  26.433  1.00  0.00     0.031 C 
ATOM     68  C   UNL A   1      48.093  27.115  26.795  1.00  0.00     0.037 A 
BRANCH  55  69
ATOM     69  C   UNL A   1      46.194  32.788  28.357  1.00  0.00     0.058 A 
ATOM     70  C   UNL A   1      46.096  33.708  27.301  1.00  0.00     0.135 A 
ATOM     71  C   UNL A   1      46.601  33.273  29.611  1.00  0.00     0.135 A 
ATOM     72  F   UNL A   1      45.725  33.296  26.078  1.00  0.00    -0.206 F 
ATOM     73  C   UNL A   1      46.421  35.050  27.472  1.00  0.00     0.059 A 
ATOM     74  C   UNL A   1      46.903  34.617  29.812  1.00  0.00     0.059 A 
ATOM     75  F   UNL A   1      46.710  32.438  30.657  1.00  0.00    -0.206 F 
ATOM     76  C   UNL A   1      46.826  35.495  28.732  1.00  0.00     0.060 A 
BRANCH  76  77
ATOM     77  S   UNL A   1      47.241  37.239  28.939  1.00  0.00     0.124 S 
ATOM     78  O   UNL A   1      46.096  37.722  29.704  1.00  0.00    -0.237 OA
ATOM     79  O   UNL A   1      48.505  37.176  29.665  1.00  0.00    -0.237 OA
ATOM     80  O   UNL A   1      47.333  37.732  27.568  1.00  0.00    -0.744 OA
ENDBRANCH  76  77
ENDBRANCH  55  69
BRANCH  56  81
ATOM     81  C   UNL A   1      43.389  23.301  26.941  1.00  0.00     0.058 A 
ATOM     82  C   UNL A   1      43.245  22.804  25.637  1.00  0.00     0.135 A 
ATOM     83  C   UNL A   1      43.142  22.421  28.006  1.00  0.00     0.135 A 
ATOM     84  F   UNL A   1      43.460  23.610  24.586  1.00  0.00    -0.206 F 
ATOM     85  C   UNL A   1      42.859  21.490  25.395  1.00  0.00     0.059 A 
ATOM     86  C   UNL A   1      42.779  21.095  27.790  1.00  0.00     0.059 A 
ATOM     87  F   UNL A   1      43.279  22.843  29.273  1.00  0.00    -0.206 F 
ATOM     88  C   UNL A   1      42.630  20.642  26.479  1.00  0.00     0.060 A 
BRANCH  88  89
ATOM     89  S   UNL A   1      42.182  18.922  26.156  1.00  0.00     0.124 S 
ATOM     90  O   UNL A   1      42.448  18.302  27.448  1.00  0.00    -0.237 OA
ATOM     91  O   UNL A   1      40.777  19.037  25.778  1.00  0.00    -0.237 OA
ATOM     92  O   UNL A   1      43.083  18.539  25.073  1.00  0.00    -0.744 OA
ENDBRANCH  88  89
ENDBRANCH  56  81
BRANCH  68  93
ATOM     93  C   UNL A   1      49.480  26.661  26.432  1.00  0.00     0.058 A 
ATOM     94  C   UNL A   1      50.295  25.974  27.344  1.00  0.00     0.135 A 
ATOM     95  C   UNL A   1      49.978  26.870  25.135  1.00  0.00     0.135 A 
ATOM     96  F   UNL A   1      49.869  25.755  28.599  1.00  0.00    -0.206 F 
ATOM     97  C   UNL A   1      51.563  25.527  26.991  1.00  0.00     0.059 A 
ATOM     98  C   UNL A   1      51.233  26.409  24.752  1.00  0.00     0.059 A 
ATOM     99  F   UNL A   1      49.233  27.512  24.220  1.00  0.00    -0.206 F 
ATOM    100  C   UNL A   1      52.024  25.748  25.691  1.00  0.00     0.060 A 
BRANCH 100 101
ATOM    101  S   UNL A   1      53.658  25.132  25.233  1.00  0.00     0.124 S 
ATOM    102  O   UNL A   1      54.511  25.816  26.200  1.00  0.00    -0.237 OA
ATOM    103  O   UNL A   1      53.515  23.692  25.423  1.00  0.00    -0.237 OA
ATOM    104  O   UNL A   1      53.807  25.563  23.847  1.00  0.00    -0.744 OA
ENDBRANCH 100 101
ENDBRANCH  68  93
ENDBRANCH  42  43
ENDBRANCH  34  37
ENDBRANCH  32  33
ENDBRANCH  31  32
ENDBRANCH   1  31
TORSDOF 19
ENDMDL
MODEL 3
REMARK VINA RESULT:     -11.8      0.567      8.120
REMARK SMILES [NH3+][C@H](CS[C@@H]1CC(=O)N(c2ccc3ccccc3c2)C1=O)C(=O)NCCCCNC(=O)c1ccc(-c2c3nc(c(-c4c(F)cc(S(=O)(=O)[O-])cc4F)c4ccc([nH]4)c(-c4c(F)cc(S(=O)(=O)[O-])cc4F)c4nc(c(-c5c(F)cc(S(=O)(=O)[O-])cc5F)c5ccc2[nH]5)C=C4)C=C3)cc1
REMARK SMILES IDX 26 1 25 2 24 3 22 4 23 5 2 7 1 8 3 12 4 13 5 14 6 15 20 16
REMARK SMILES IDX 7 17 9 18 21 19 8 20 10 21 11 22 19 23 12 24 18 25 13 26
REMARK SMILES IDX 17 27 14 28 16 29 15 30 27 31 28 32 29 33 30 34 31 36 32 37
REMARK SMILES IDX 33 38 97 39 34 40 96 41 35 42 36 43 37 44 90 45 38 46 95 47
REMARK SMILES IDX 89 48 91 49 39 50 94 51 88 52 87 53 40 55 74 56 53 57 73 58
REMARK SMILES IDX 54 59 57 60 72 61 92 62 55 63 56 64 71 66 93 67 58 68 41 69
REMARK SMILES IDX 42 70 51 71 43 72 44 73 50 74 52 75 45 76 46 77 47 78 48 79
REMARK SMILES IDX 49 80 75 81 76 82 85 83 77 84 78 85 84 86 86 87 79 88 80 89
REMARK SMILES IDX 81 90 82 91 83 92 59 93 60 94 69 95 61 96 62 97 68 98 70 99
REMARK SMILES IDX 63 100 64 101 65 102 66 103 67 104
REMARK H PARENT 24 6 1 9 1 10 1 11 29 35 91 54 57 65
REMARK Flexibility Score: inf
ROOT
ATOM      1  C   UNL A   1      40.116  21.729  26.460  1.00  0.00     0.023 C 
ENDROOT
BRANCH   1   2
ATOM      2  C   UNL A   1      38.698  22.189  26.125  1.00  0.00     0.116 C 
BRANCH   2   3
ATOM      3  N   UNL A   1      38.163  21.763  24.844  1.00  0.00    -0.351 N 
ATOM      4  C   UNL A   1      36.929  22.120  24.371  1.00  0.00     0.279 C 
ATOM      5  O   UNL A   1      36.904  22.808  23.345  1.00  0.00    -0.268 OA
ATOM      6  H   UNL A   1      38.722  21.181  24.280  1.00  0.00     0.163 HD
BRANCH   4   7
ATOM      7  C   UNL A   1      35.617  21.793  25.118  1.00  0.00     0.280 C 
BRANCH   7   8
ATOM      8  N   UNL A   1      35.514  20.328  25.336  1.00  0.00    -0.347 N 
ATOM      9  H   UNL A   1      35.374  20.140  26.329  1.00  0.00     0.345 HD
ATOM     10  H   UNL A   1      36.374  19.876  25.023  1.00  0.00     0.345 HD
ATOM     11  H   UNL A   1      34.725  19.959  24.806  1.00  0.00     0.345 HD
ENDBRANCH   7   8
BRANCH   7  12
ATOM     12  C   UNL A   1      34.277  22.441  24.686  1.00  0.00     0.145 C 
BRANCH  12  13
ATOM     13  S   UNL A   1      32.705  22.028  25.521  1.00  0.00    -0.141 SA
BRANCH  13  14
ATOM     14  C   UNL A   1      31.589  23.390  25.019  1.00  0.00     0.146 C 
ATOM     15  C   UNL A   1      31.859  23.817  23.583  1.00  0.00     0.125 C 
ATOM     16  C   UNL A   1      31.765  24.658  25.815  1.00  0.00     0.247 C 
ATOM     17  C   UNL A   1      32.358  25.228  23.693  1.00  0.00     0.235 C 
ATOM     18  N   UNL A   1      32.207  25.662  24.983  1.00  0.00    -0.250 N 
ATOM     19  O   UNL A   1      31.474  24.732  27.003  1.00  0.00    -0.273 OA
ATOM     20  O   UNL A   1      32.854  25.831  22.749  1.00  0.00    -0.274 OA
BRANCH  18  21
ATOM     21  C   UNL A   1      32.433  26.998  25.410  1.00  0.00     0.052 A 
ATOM     22  C   UNL A   1      31.473  27.998  25.231  1.00  0.00     0.027 A 
ATOM     23  C   UNL A   1      33.613  27.338  26.081  1.00  0.00     0.035 A 
ATOM     24  C   UNL A   1      31.655  29.269  25.799  1.00  0.00     0.011 A 
ATOM     25  C   UNL A   1      33.843  28.618  26.598  1.00  0.00    -0.016 A 
ATOM     26  C   UNL A   1      32.829  29.588  26.503  1.00  0.00    -0.018 A 
ATOM     27  C   UNL A   1      35.057  28.930  27.230  1.00  0.00     0.009 A 
ATOM     28  C   UNL A   1      33.031  30.836  27.120  1.00  0.00     0.009 A 
ATOM     29  C   UNL A   1      35.249  30.177  27.818  1.00  0.00     0.001 A 
ATOM     30  C   UNL A   1      34.228  31.122  27.783  1.00  0.00     0.001 A 
ENDBRANCH  18  21
ENDBRANCH  13  14
ENDBRANCH  12  13
ENDBRANCH   7  12
ENDBRANCH   4   7
ENDBRANCH   2   3
ENDBRANCH   1   2
BRANCH   1  31
ATOM     31  C   UNL A   1      40.738  22.305  27.731  1.00  0.00     0.023 C 
BRANCH  31  32
ATOM     32  C   UNL A   1      41.950  23.202  27.515  1.00  0.00     0.116 C 
BRANCH  32  33
ATOM     33  N   UNL A   1      41.812  24.011  26.317  1.00  0.00    -0.352 N 
ATOM     34  C   UNL A   1      41.313  25.281  26.155  1.00  0.00     0.251 C 
ATOM     35  H   UNL A   1      42.128  23.582  25.488  1.00  0.00     0.163 HD
ATOM     36  O   UNL A   1      41.040  25.668  25.021  1.00  0.00    -0.269 OA
BRANCH  34  37
ATOM     37  C   UNL A   1      41.101  26.183  27.314  1.00  0.00     0.039 A 
ATOM     38  C   UNL A   1      41.997  27.238  27.518  1.00  0.00     0.014 A 
ATOM     39  C   UNL A   1      40.088  25.952  28.248  1.00  0.00     0.014 A 
ATOM     40  C   UNL A   1      41.861  28.070  28.635  1.00  0.00     0.010 A 
ATOM     41  C   UNL A   1      39.905  26.829  29.317  1.00  0.00     0.010 A 
ATOM     42  C   UNL A   1      40.804  27.882  29.539  1.00  0.00    -0.014 A 
BRANCH  42  43
ATOM     43  C   UNL A   1      40.657  28.735  30.750  1.00  0.00     0.031 A 
ATOM     44  C   UNL A   1      39.602  29.814  30.785  1.00  0.00     0.074 A 
ATOM     45  C   UNL A   1      41.493  28.581  31.794  1.00  0.00     0.049 A 
ATOM     46  N   UNL A   1      39.362  30.708  31.711  1.00  0.00    -0.248 NA
ATOM     47  C   UNL A   1      38.718  29.917  29.613  1.00  0.00     0.031 C 
ATOM     48  C   UNL A   1      42.580  27.604  31.870  1.00  0.00     0.029 A 
ATOM     49  N   UNL A   1      41.569  29.253  32.990  1.00  0.00    -0.354 N 
ATOM     50  C   UNL A   1      38.323  31.493  31.221  1.00  0.00     0.074 A 
ATOM     51  C   UNL A   1      38.008  30.999  29.899  1.00  0.00     0.031 C 
ATOM     52  C   UNL A   1      43.198  27.725  33.057  1.00  0.00     0.029 A 
ATOM     53  C   UNL A   1      42.578  28.810  33.811  1.00  0.00     0.049 A 
ATOM     54  H   UNL A   1      40.956  29.983  33.235  1.00  0.00     0.167 HD
ATOM     55  C   UNL A   1      37.675  32.519  31.825  1.00  0.00     0.037 A 
ATOM     56  C   UNL A   1      42.965  29.233  35.030  1.00  0.00     0.037 A 
ATOM     57  C   UNL A   1      37.962  32.980  33.160  1.00  0.00     0.049 A 
ATOM     58  C   UNL A   1      42.221  30.364  35.688  1.00  0.00     0.074 A 
ATOM     59  C   UNL A   1      37.314  33.964  33.887  1.00  0.00     0.029 A 
ATOM     60  N   UNL A   1      38.976  32.487  33.967  1.00  0.00    -0.354 N 
ATOM     61  N   UNL A   1      41.204  31.057  35.234  1.00  0.00    -0.248 NA
ATOM     62  C   UNL A   1      42.672  30.768  37.027  1.00  0.00     0.031 C 
ATOM     63  C   UNL A   1      37.962  34.092  35.121  1.00  0.00     0.029 A 
ATOM     64  C   UNL A   1      38.984  33.158  35.178  1.00  0.00     0.049 A 
ATOM     65  H   UNL A   1      39.598  31.767  33.716  1.00  0.00     0.167 HD
ATOM     66  C   UNL A   1      40.877  31.958  36.241  1.00  0.00     0.074 A 
ATOM     67  C   UNL A   1      41.798  31.717  37.332  1.00  0.00     0.031 C 
ATOM     68  C   UNL A   1      39.901  32.900  36.260  1.00  0.00     0.037 A 
BRANCH  55  69
ATOM     69  C   UNL A   1      36.587  33.212  31.050  1.00  0.00     0.058 A 
ATOM     70  C   UNL A   1      36.879  34.140  30.037  1.00  0.00     0.135 A 
ATOM     71  C   UNL A   1      35.236  32.921  31.300  1.00  0.00     0.135 A 
ATOM     72  F   UNL A   1      38.153  34.466  29.764  1.00  0.00    -0.206 F 
ATOM     73  C   UNL A   1      35.870  34.780  29.323  1.00  0.00     0.059 A 
ATOM     74  C   UNL A   1      34.212  33.528  30.579  1.00  0.00     0.059 A 
ATOM     75  F   UNL A   1      34.899  32.040  32.256  1.00  0.00    -0.206 F 
ATOM     76  C   UNL A   1      34.538  34.468  29.603  1.00  0.00     0.060 A 
BRANCH  76  77
ATOM     77  S   UNL A   1      33.241  35.305  28.667  1.00  0.00     0.124 S 
ATOM     78  O   UNL A   1      34.027  36.111  27.738  1.00  0.00    -0.237 OA
ATOM     79  O   UNL A   1      32.513  34.188  28.075  1.00  0.00    -0.237 OA
ATOM     80  O   UNL A   1      32.514  36.053  29.688  1.00  0.00    -0.744 OA
ENDBRANCH  76  77
ENDBRANCH  55  69
BRANCH  56  81
ATOM     81  C   UNL A   1      44.098  28.565  35.724  1.00  0.00     0.058 A 
ATOM     82  C   UNL A   1      45.420  28.985  35.513  1.00  0.00     0.135 A 
ATOM     83  C   UNL A   1      43.885  27.504  36.619  1.00  0.00     0.135 A 
ATOM     84  F   UNL A   1      45.675  29.989  34.660  1.00  0.00    -0.206 F 
ATOM     85  C   UNL A   1      46.492  28.372  36.153  1.00  0.00     0.059 A 
ATOM     86  C   UNL A   1      44.939  26.891  37.290  1.00  0.00     0.059 A 
ATOM     87  F   UNL A   1      42.639  27.073  36.866  1.00  0.00    -0.206 F 
ATOM     88  C   UNL A   1      46.241  27.326  37.042  1.00  0.00     0.060 A 
BRANCH  88  89
ATOM     89  S   UNL A   1      47.634  26.571  37.909  1.00  0.00     0.124 S 
ATOM     90  O   UNL A   1      47.091  26.408  39.252  1.00  0.00    -0.237 OA
ATOM     91  O   UNL A   1      47.840  25.343  37.149  1.00  0.00    -0.237 OA
ATOM     92  O   UNL A   1      48.693  27.567  37.772  1.00  0.00    -0.744 OA
ENDBRANCH  88  89
ENDBRANCH  56  81
BRANCH  68  93
ATOM     93  C   UNL A   1      39.753  33.719  37.512  1.00  0.00     0.058 A 
ATOM     94  C   UNL A   1      40.420  34.943  37.677  1.00  0.00     0.135 A 
ATOM     95  C   UNL A   1      38.889  33.299  38.537  1.00  0.00     0.135 A 
ATOM     96  F   UNL A   1      41.262  35.386  36.730  1.00  0.00    -0.206 F 
ATOM     97  C   UNL A   1      40.252  35.712  38.823  1.00  0.00     0.059 A 
ATOM     98  C   UNL A   1      38.687  34.064  39.681  1.00  0.00     0.059 A 
ATOM     99  F   UNL A   1      38.218  32.141  38.424  1.00  0.00    -0.206 F 
ATOM    100  C   UNL A   1      39.382  35.265  39.820  1.00  0.00     0.060 A 
BRANCH 100 101
ATOM    101  S   UNL A   1      39.144  36.290  41.287  1.00  0.00     0.124 S 
ATOM    102  O   UNL A   1      37.952  35.687  41.876  1.00  0.00    -0.237 OA
ATOM    103  O   UNL A   1      40.388  36.080  42.021  1.00  0.00    -0.237 OA
ATOM    104  O   UNL A   1      38.966  37.631  40.740  1.00  0.00    -0.744 OA
ENDBRANCH 100 101
ENDBRANCH  68  93
ENDBRANCH  42  43
ENDBRANCH  34  37
ENDBRANCH  32  33
ENDBRANCH  31  32
ENDBRANCH   1  31
TORSDOF 19
ENDMDL
