MODEL 1
REMARK VINA RESULT:     -12.8      0.000      0.000
REMARK SMILES CC1(C)C[C@@H](Nc2ccc(Cl)c(C(=O)NCCCCNC(=O)c3ccc(-c4c5nc(c(-c6c(F)cc(S(=O)(=O)[O-])cc6F)c6ccc([nH]6)c(-c6c(F)cc(S(=O)(=O)[O-])cc6F)c6nc(c(-c7c(F)cc(S(=O)(=O)[O-])cc7F)c7ccc4[nH]7)C=C6)C=C5)cc3)c2)C(C)(C)O1
REMARK SMILES IDX 18 1 17 2 16 3 15 4 13 5 14 6 12 8 7 9 8 10 89 11 9 12 10 13
REMARK SMILES IDX 11 14 6 15 5 17 1 18 2 19 3 20 4 21 93 22 90 23 91 24 92 25
REMARK SMILES IDX 19 26 20 27 21 28 22 30 23 31 24 32 88 33 25 34 87 35 26 36
REMARK SMILES IDX 27 37 28 38 81 39 29 40 86 41 80 42 82 43 30 44 85 45 79 46
REMARK SMILES IDX 78 47 31 49 65 50 44 51 64 52 45 53 48 54 63 55 83 56 46 57
REMARK SMILES IDX 47 58 62 60 84 61 49 62 32 63 33 64 42 65 34 66 35 67 41 68
REMARK SMILES IDX 43 69 36 70 37 71 38 72 39 73 40 74 66 75 67 76 76 77 68 78
REMARK SMILES IDX 69 79 75 80 77 81 70 82 71 83 72 84 73 85 74 86 50 87 51 88
REMARK SMILES IDX 60 89 52 90 53 91 59 92 61 93 54 94 55 95 56 96 57 97 58 98
REMARK H PARENT 15 7 6 16 20 29 82 48 48 59
REMARK Flexibility Score: inf
ROOT
ATOM      1  C   UNL A   1      37.362  23.417  25.361  1.00  0.00     0.023 C 
ENDROOT
BRANCH   1   2
ATOM      2  C   UNL A   1      37.729  21.977  25.002  1.00  0.00     0.023 C 
BRANCH   2   3
ATOM      3  C   UNL A   1      36.645  20.929  25.213  1.00  0.00     0.116 C 
BRANCH   3   4
ATOM      4  N   UNL A   1      35.708  21.225  26.281  1.00  0.00    -0.352 N 
ATOM      5  C   UNL A   1      34.331  21.213  26.277  1.00  0.00     0.252 C 
ATOM      6  O   UNL A   1      33.730  21.458  27.323  1.00  0.00    -0.269 OA
ATOM      7  H   UNL A   1      36.120  21.472  27.140  1.00  0.00     0.163 HD
BRANCH   5   8
ATOM      8  C   UNL A   1      33.542  21.018  25.035  1.00  0.00     0.060 A 
ATOM      9  C   UNL A   1      32.524  22.125  23.102  1.00  0.00     0.035 A 
ATOM     10  C   UNL A   1      32.135  20.870  22.627  1.00  0.00     0.027 A 
ATOM     11  C   UNL A   1      33.287  22.178  24.273  1.00  0.00     0.041 A 
ATOM     12  C   UNL A   1      32.332  19.723  23.394  1.00  0.00     0.023 A 
ATOM     13  C   UNL A   1      32.956  19.812  24.638  1.00  0.00     0.053 A 
ATOM     14  Cl  UNL A   1      32.794  18.433  25.665  1.00  0.00    -0.083 Cl
BRANCH   9  15
ATOM     15  N   UNL A   1      32.034  23.295  22.530  1.00  0.00    -0.379 N 
ATOM     16  H   UNL A   1      31.855  23.352  21.564  1.00  0.00     0.160 HD
BRANCH  15  17
ATOM     17  C   UNL A   1      31.788  24.438  23.414  1.00  0.00     0.113 C 
ATOM     18  C   UNL A   1      29.208  27.096  23.593  1.00  0.00     0.042 C 
ATOM     19  C   UNL A   1      30.393  26.241  24.027  1.00  0.00     0.065 C 
ATOM     20  C   UNL A   1      30.486  26.231  25.559  1.00  0.00     0.042 C 
ATOM     21  C   UNL A   1      30.328  24.837  23.434  1.00  0.00     0.062 C 
ATOM     22  O   UNL A   1      31.607  26.826  23.513  1.00  0.00    -0.367 OA
ATOM     23  C   UNL A   1      32.487  25.766  23.042  1.00  0.00     0.083 C 
ATOM     24  C   UNL A   1      32.685  26.004  21.544  1.00  0.00     0.044 C 
ATOM     25  C   UNL A   1      33.825  25.916  23.770  1.00  0.00     0.044 C 
ENDBRANCH  15  17
ENDBRANCH   9  15
ENDBRANCH   5   8
ENDBRANCH   3   4
ENDBRANCH   2   3
ENDBRANCH   1   2
BRANCH   1  26
ATOM     26  C   UNL A   1      38.241  24.116  26.397  1.00  0.00     0.116 C 
BRANCH  26  27
ATOM     27  N   UNL A   1      39.667  23.880  26.224  1.00  0.00    -0.352 N 
ATOM     28  C   UNL A   1      40.747  24.557  26.744  1.00  0.00     0.251 C 
ATOM     29  H   UNL A   1      39.896  23.117  25.646  1.00  0.00     0.163 HD
ATOM     30  O   UNL A   1      41.886  24.229  26.418  1.00  0.00    -0.269 OA
BRANCH  28  31
ATOM     31  C   UNL A   1      40.544  25.708  27.653  1.00  0.00     0.039 A 
ATOM     32  C   UNL A   1      39.541  25.630  28.624  1.00  0.00     0.014 A 
ATOM     33  C   UNL A   1      41.349  26.846  27.573  1.00  0.00     0.014 A 
ATOM     34  C   UNL A   1      39.414  26.647  29.576  1.00  0.00     0.010 A 
ATOM     35  C   UNL A   1      41.274  27.818  28.568  1.00  0.00     0.010 A 
ATOM     36  C   UNL A   1      40.315  27.724  29.589  1.00  0.00    -0.014 A 
BRANCH  36  37
ATOM     37  C   UNL A   1      40.285  28.753  30.663  1.00  0.00     0.031 A 
ATOM     38  C   UNL A   1      41.171  28.609  31.871  1.00  0.00     0.074 A 
ATOM     39  C   UNL A   1      39.401  29.770  30.593  1.00  0.00     0.049 A 
ATOM     40  N   UNL A   1      41.196  29.323  32.967  1.00  0.00    -0.248 NA
ATOM     41  C   UNL A   1      42.135  27.497  31.857  1.00  0.00     0.031 C 
ATOM     42  C   UNL A   1      38.451  29.996  29.501  1.00  0.00     0.029 A 
ATOM     43  N   UNL A   1      39.144  30.797  31.468  1.00  0.00    -0.354 N 
ATOM     44  C   UNL A   1      42.162  28.737  33.779  1.00  0.00     0.074 A 
ATOM     45  C   UNL A   1      42.664  27.581  33.069  1.00  0.00     0.031 C 
ATOM     46  C   UNL A   1      37.724  31.094  29.766  1.00  0.00     0.029 A 
ATOM     47  C   UNL A   1      38.127  31.631  31.061  1.00  0.00     0.049 A 
ATOM     48  H   UNL A   1      39.640  30.924  32.309  1.00  0.00     0.167 HD
ATOM     49  C   UNL A   1      42.606  29.140  34.993  1.00  0.00     0.037 A 
ATOM     50  C   UNL A   1      37.572  32.699  31.668  1.00  0.00     0.037 A 
ATOM     51  C   UNL A   1      42.130  30.311  35.681  1.00  0.00     0.049 A 
ATOM     52  C   UNL A   1      38.098  33.137  33.010  1.00  0.00     0.074 A 
ATOM     53  C   UNL A   1      42.548  30.824  36.897  1.00  0.00     0.029 A 
ATOM     54  N   UNL A   1      41.140  31.159  35.208  1.00  0.00    -0.354 N 
ATOM     55  N   UNL A   1      39.042  32.594  33.742  1.00  0.00    -0.248 NA
ATOM     56  C   UNL A   1      37.492  34.337  33.604  1.00  0.00     0.031 C 
ATOM     57  C   UNL A   1      41.792  31.969  37.171  1.00  0.00     0.029 A 
ATOM     58  C   UNL A   1      40.932  32.190  36.109  1.00  0.00     0.049 A 
ATOM     59  H   UNL A   1      40.656  31.045  34.358  1.00  0.00     0.167 HD
ATOM     60  C   UNL A   1      39.161  33.401  34.867  1.00  0.00     0.074 A 
ATOM     61  C   UNL A   1      38.202  34.475  34.716  1.00  0.00     0.031 C 
ATOM     62  C   UNL A   1      39.990  33.266  35.931  1.00  0.00     0.037 A 
BRANCH  49  63
ATOM     63  C   UNL A   1      43.682  28.319  35.648  1.00  0.00     0.058 A 
ATOM     64  C   UNL A   1      45.042  28.562  35.396  1.00  0.00     0.135 A 
ATOM     65  C   UNL A   1      43.357  27.315  36.573  1.00  0.00     0.135 A 
ATOM     66  F   UNL A   1      45.408  29.501  34.507  1.00  0.00    -0.206 F 
ATOM     67  C   UNL A   1      46.040  27.824  36.020  1.00  0.00     0.059 A 
ATOM     68  C   UNL A   1      44.341  26.580  37.229  1.00  0.00     0.059 A 
ATOM     69  F   UNL A   1      42.072  27.040  36.851  1.00  0.00    -0.206 F 
ATOM     70  C   UNL A   1      45.680  26.834  36.937  1.00  0.00     0.060 A 
BRANCH  70  71
ATOM     71  S   UNL A   1      46.990  25.899  37.753  1.00  0.00     0.124 S 
ATOM     72  O   UNL A   1      46.495  25.843  39.126  1.00  0.00    -0.237 OA
ATOM     73  O   UNL A   1      46.974  24.636  37.024  1.00  0.00    -0.237 OA
ATOM     74  O   UNL A   1      48.177  26.724  37.547  1.00  0.00    -0.744 OA
ENDBRANCH  70  71
ENDBRANCH  49  63
BRANCH  50  75
ATOM     75  C   UNL A   1      36.462  33.441  31.015  1.00  0.00     0.058 A 
ATOM     76  C   UNL A   1      35.148  33.348  31.499  1.00  0.00     0.135 A 
ATOM     77  C   UNL A   1      36.685  34.242  29.885  1.00  0.00     0.135 A 
ATOM     78  F   UNL A   1      34.883  32.590  32.575  1.00  0.00    -0.206 F 
ATOM     79  C   UNL A   1      34.091  33.998  30.871  1.00  0.00     0.059 A 
ATOM     80  C   UNL A   1      35.647  34.922  29.253  1.00  0.00     0.059 A 
ATOM     81  F   UNL A   1      37.926  34.380  29.392  1.00  0.00    -0.206 F 
ATOM     82  C   UNL A   1      34.350  34.779  29.744  1.00  0.00     0.060 A 
BRANCH  82  83
ATOM     83  S   UNL A   1      32.976  35.637  28.946  1.00  0.00     0.124 S 
ATOM     84  O   UNL A   1      33.674  36.685  28.209  1.00  0.00    -0.237 OA
ATOM     85  O   UNL A   1      32.377  34.580  28.139  1.00  0.00    -0.237 OA
ATOM     86  O   UNL A   1      32.166  36.090  30.073  1.00  0.00    -0.744 OA
ENDBRANCH  82  83
ENDBRANCH  50  75
BRANCH  62  87
ATOM     87  C   UNL A   1      39.937  34.327  36.993  1.00  0.00     0.058 A 
ATOM     88  C   UNL A   1      40.630  35.539  36.861  1.00  0.00     0.135 A 
ATOM     89  C   UNL A   1      39.131  34.149  38.130  1.00  0.00     0.135 A 
ATOM     90  F   UNL A   1      41.419  35.754  35.797  1.00  0.00    -0.206 F 
ATOM     91  C   UNL A   1      40.540  36.534  37.829  1.00  0.00     0.059 A 
ATOM     92  C   UNL A   1      39.007  35.140  39.098  1.00  0.00     0.059 A 
ATOM     93  F   UNL A   1      38.440  33.010  38.297  1.00  0.00    -0.206 F 
ATOM     94  C   UNL A   1      39.723  36.326  38.943  1.00  0.00     0.060 A 
BRANCH  94  95
ATOM     95  S   UNL A   1      39.580  37.642  40.171  1.00  0.00     0.124 S 
ATOM     96  O   UNL A   1      40.946  38.149  40.219  1.00  0.00    -0.237 OA
ATOM     97  O   UNL A   1      38.594  38.531  39.564  1.00  0.00    -0.237 OA
ATOM     98  O   UNL A   1      39.127  36.940  41.368  1.00  0.00    -0.744 OA
ENDBRANCH  94  95
ENDBRANCH  62  87
ENDBRANCH  36  37
ENDBRANCH  28  31
ENDBRANCH  26  27
ENDBRANCH   1  26
TORSDOF 16
ENDMDL
MODEL 2
REMARK VINA RESULT:     -12.4      6.821     12.187
REMARK SMILES CC1(C)C[C@@H](Nc2ccc(Cl)c(C(=O)NCCCCNC(=O)c3ccc(-c4c5nc(c(-c6c(F)cc(S(=O)(=O)[O-])cc6F)c6ccc([nH]6)c(-c6c(F)cc(S(=O)(=O)[O-])cc6F)c6nc(c(-c7c(F)cc(S(=O)(=O)[O-])cc7F)c7ccc4[nH]7)C=C6)C=C5)cc3)c2)C(C)(C)O1
REMARK SMILES IDX 18 1 17 2 16 3 15 4 13 5 14 6 12 8 7 9 8 10 89 11 9 12 10 13
REMARK SMILES IDX 11 14 6 15 5 17 1 18 2 19 3 20 4 21 93 22 90 23 91 24 92 25
REMARK SMILES IDX 19 26 20 27 21 28 22 30 23 31 24 32 88 33 25 34 87 35 26 36
REMARK SMILES IDX 27 37 28 38 81 39 29 40 86 41 80 42 82 43 30 44 85 45 79 46
REMARK SMILES IDX 78 47 31 49 65 50 44 51 64 52 45 53 48 54 63 55 83 56 46 57
REMARK SMILES IDX 47 58 62 60 84 61 49 62 32 63 33 64 42 65 34 66 35 67 41 68
REMARK SMILES IDX 43 69 36 70 37 71 38 72 39 73 40 74 66 75 67 76 76 77 68 78
REMARK SMILES IDX 69 79 75 80 77 81 70 82 71 83 72 84 73 85 74 86 50 87 51 88
REMARK SMILES IDX 60 89 52 90 53 91 59 92 61 93 54 94 55 95 56 96 57 97 58 98
REMARK H PARENT 15 7 6 16 20 29 82 48 48 59
REMARK Flexibility Score: inf
ROOT
ATOM      1  C   UNL A   1      34.283  29.017  26.962  1.00  0.00     0.023 C 
ENDROOT
BRANCH   1   2
ATOM      2  C   UNL A   1      32.981  29.791  27.166  1.00  0.00     0.023 C 
BRANCH   2   3
ATOM      3  C   UNL A   1      32.183  30.116  25.910  1.00  0.00     0.116 C 
BRANCH   3   4
ATOM      4  N   UNL A   1      32.848  29.792  24.661  1.00  0.00    -0.352 N 
ATOM      5  C   UNL A   1      32.390  29.080  23.575  1.00  0.00     0.252 C 
ATOM      6  O   UNL A   1      33.118  28.962  22.590  1.00  0.00    -0.269 OA
ATOM      7  H   UNL A   1      33.768  30.132  24.578  1.00  0.00     0.163 HD
BRANCH   5   8
ATOM      8  C   UNL A   1      31.091  28.363  23.586  1.00  0.00     0.060 A 
ATOM      9  C   UNL A   1      29.929  26.314  24.258  1.00  0.00     0.035 A 
ATOM     10  C   UNL A   1      28.738  26.871  23.782  1.00  0.00     0.027 A 
ATOM     11  C   UNL A   1      31.085  27.100  24.216  1.00  0.00     0.041 A 
ATOM     12  C   UNL A   1      28.738  28.091  23.111  1.00  0.00     0.023 A 
ATOM     13  C   UNL A   1      29.930  28.794  22.936  1.00  0.00     0.053 A 
ATOM     14  Cl  UNL A   1      29.893  30.065  21.768  1.00  0.00    -0.083 Cl
BRANCH   9  15
ATOM     15  N   UNL A   1      30.006  24.969  24.607  1.00  0.00    -0.379 N 
ATOM     16  H   UNL A   1      29.231  24.499  24.991  1.00  0.00     0.160 HD
BRANCH  15  17
ATOM     17  C   UNL A   1      31.277  24.276  24.383  1.00  0.00     0.113 C 
ATOM     18  C   UNL A   1      32.241  20.950  23.054  1.00  0.00     0.042 C 
ATOM     19  C   UNL A   1      32.414  22.381  23.552  1.00  0.00     0.065 C 
ATOM     20  C   UNL A   1      33.675  22.994  22.928  1.00  0.00     0.042 C 
ATOM     21  C   UNL A   1      31.167  23.223  23.300  1.00  0.00     0.062 C 
ATOM     22  O   UNL A   1      32.590  22.362  24.982  1.00  0.00    -0.367 OA
ATOM     23  C   UNL A   1      31.846  23.466  25.571  1.00  0.00     0.083 C 
ATOM     24  C   UNL A   1      30.800  22.839  26.495  1.00  0.00     0.044 C 
ATOM     25  C   UNL A   1      32.828  24.301  26.396  1.00  0.00     0.044 C 
ENDBRANCH  15  17
ENDBRANCH   9  15
ENDBRANCH   5   8
ENDBRANCH   3   4
ENDBRANCH   2   3
ENDBRANCH   1   2
BRANCH   1  26
ATOM     26  C   UNL A   1      35.536  29.585  27.627  1.00  0.00     0.116 C 
BRANCH  26  27
ATOM     27  N   UNL A   1      35.374  29.889  29.041  1.00  0.00    -0.352 N 
ATOM     28  C   UNL A   1      36.319  30.013  30.034  1.00  0.00     0.251 C 
ATOM     29  H   UNL A   1      34.444  30.026  29.333  1.00  0.00     0.163 HD
ATOM     30  O   UNL A   1      35.960  30.215  31.193  1.00  0.00    -0.269 OA
BRANCH  28  31
ATOM     31  C   UNL A   1      37.758  29.859  29.726  1.00  0.00     0.039 A 
ATOM     32  C   UNL A   1      38.643  29.573  30.769  1.00  0.00     0.014 A 
ATOM     33  C   UNL A   1      38.235  29.968  28.418  1.00  0.00     0.014 A 
ATOM     34  C   UNL A   1      39.985  29.296  30.487  1.00  0.00     0.010 A 
ATOM     35  C   UNL A   1      39.551  29.614  28.129  1.00  0.00     0.010 A 
ATOM     36  C   UNL A   1      40.439  29.262  29.159  1.00  0.00    -0.014 A 
BRANCH  36  37
ATOM     37  C   UNL A   1      41.827  28.847  28.819  1.00  0.00     0.031 A 
ATOM     38  C   UNL A   1      42.932  29.867  28.787  1.00  0.00     0.074 A 
ATOM     39  C   UNL A   1      42.075  27.571  28.456  1.00  0.00     0.049 A 
ATOM     40  N   UNL A   1      44.171  29.731  28.389  1.00  0.00    -0.248 NA
ATOM     41  C   UNL A   1      42.592  31.228  29.234  1.00  0.00     0.031 C 
ATOM     42  C   UNL A   1      41.082  26.496  28.395  1.00  0.00     0.029 A 
ATOM     43  N   UNL A   1      43.239  26.965  28.050  1.00  0.00    -0.354 N 
ATOM     44  C   UNL A   1      44.752  30.988  28.519  1.00  0.00     0.074 A 
ATOM     45  C   UNL A   1      43.716  31.884  28.986  1.00  0.00     0.031 C 
ATOM     46  C   UNL A   1      41.679  25.364  27.988  1.00  0.00     0.029 A 
ATOM     47  C   UNL A   1      43.087  25.637  27.722  1.00  0.00     0.049 A 
ATOM     48  H   UNL A   1      44.102  27.437  27.998  1.00  0.00     0.167 HD
ATOM     49  C   UNL A   1      46.035  31.356  28.293  1.00  0.00     0.037 A 
ATOM     50  C   UNL A   1      43.978  24.743  27.248  1.00  0.00     0.037 A 
ATOM     51  C   UNL A   1      47.072  30.455  27.863  1.00  0.00     0.049 A 
ATOM     52  C   UNL A   1      45.403  25.174  27.023  1.00  0.00     0.074 A 
ATOM     53  C   UNL A   1      48.412  30.725  27.647  1.00  0.00     0.029 A 
ATOM     54  N   UNL A   1      46.888  29.107  27.597  1.00  0.00    -0.354 N 
ATOM     55  N   UNL A   1      45.942  26.358  27.193  1.00  0.00    -0.248 NA
ATOM     56  C   UNL A   1      46.344  24.147  26.553  1.00  0.00     0.031 C 
ATOM     57  C   UNL A   1      49.033  29.546  27.225  1.00  0.00     0.029 A 
ATOM     58  C   UNL A   1      48.089  28.532  27.216  1.00  0.00     0.049 A 
ATOM     59  H   UNL A   1      46.030  28.628  27.668  1.00  0.00     0.167 HD
ATOM     60  C   UNL A   1      47.288  26.212  26.878  1.00  0.00     0.074 A 
ATOM     61  C   UNL A   1      47.485  24.823  26.518  1.00  0.00     0.031 C 
ATOM     62  C   UNL A   1      48.273  27.142  26.886  1.00  0.00     0.037 A 
BRANCH  49  63
ATOM     63  C   UNL A   1      46.399  32.796  28.531  1.00  0.00     0.058 A 
ATOM     64  C   UNL A   1      46.918  33.224  29.763  1.00  0.00     0.135 A 
ATOM     65  C   UNL A   1      46.275  33.747  27.506  1.00  0.00     0.135 A 
ATOM     66  F   UNL A   1      47.042  32.358  30.783  1.00  0.00    -0.206 F 
ATOM     67  C   UNL A   1      47.281  34.548  29.979  1.00  0.00     0.059 A 
ATOM     68  C   UNL A   1      46.656  35.073  27.692  1.00  0.00     0.059 A 
ATOM     69  F   UNL A   1      45.784  33.391  26.308  1.00  0.00    -0.206 F 
ATOM     70  C   UNL A   1      47.147  35.466  28.936  1.00  0.00     0.060 A 
BRANCH  70  71
ATOM     71  S   UNL A   1      47.642  37.178  29.227  1.00  0.00     0.124 S 
ATOM     72  O   UNL A   1      47.476  37.286  30.674  1.00  0.00    -0.237 OA
ATOM     73  O   UNL A   1      49.020  37.191  28.747  1.00  0.00    -0.237 OA
ATOM     74  O   UNL A   1      46.694  37.947  28.427  1.00  0.00    -0.744 OA
ENDBRANCH  70  71
ENDBRANCH  49  63
BRANCH  50  75
ATOM     75  C   UNL A   1      43.558  23.346  26.960  1.00  0.00     0.058 A 
ATOM     76  C   UNL A   1      43.355  22.910  25.642  1.00  0.00     0.135 A 
ATOM     77  C   UNL A   1      43.334  22.424  27.994  1.00  0.00     0.135 A 
ATOM     78  F   UNL A   1      43.552  23.757  24.619  1.00  0.00    -0.206 F 
ATOM     79  C   UNL A   1      42.917  21.621  25.358  1.00  0.00     0.059 A 
ATOM     80  C   UNL A   1      42.919  21.120  27.734  1.00  0.00     0.059 A 
ATOM     81  F   UNL A   1      43.532  22.784  29.272  1.00  0.00    -0.206 F 
ATOM     82  C   UNL A   1      42.696  20.734  26.413  1.00  0.00     0.060 A 
BRANCH  82  83
ATOM     83  S   UNL A   1      42.148  19.054  26.037  1.00  0.00     0.124 S 
ATOM     84  O   UNL A   1      42.959  18.738  24.866  1.00  0.00    -0.237 OA
ATOM     85  O   UNL A   1      42.486  18.336  27.261  1.00  0.00    -0.237 OA
ATOM     86  O   UNL A   1      40.718  19.218  25.790  1.00  0.00    -0.744 OA
ENDBRANCH  82  83
ENDBRANCH  50  75
BRANCH  62  87
ATOM     87  C   UNL A   1      49.662  26.687  26.543  1.00  0.00     0.058 A 
ATOM     88  C   UNL A   1      50.547  26.213  27.523  1.00  0.00     0.135 A 
ATOM     89  C   UNL A   1      50.091  26.668  25.205  1.00  0.00     0.135 A 
ATOM     90  F   UNL A   1      50.188  26.217  28.816  1.00  0.00    -0.206 F 
ATOM     91  C   UNL A   1      51.817  25.752  27.191  1.00  0.00     0.059 A 
ATOM     92  C   UNL A   1      51.346  26.188  24.848  1.00  0.00     0.059 A 
ATOM     93  F   UNL A   1      49.277  27.102  24.228  1.00  0.00    -0.206 F 
ATOM     94  C   UNL A   1      52.206  25.741  25.849  1.00  0.00     0.060 A 
BRANCH  94  95
ATOM     95  S   UNL A   1      53.840  25.099  25.426  1.00  0.00     0.124 S 
ATOM     96  O   UNL A   1      54.103  25.777  24.162  1.00  0.00    -0.237 OA
ATOM     97  O   UNL A   1      54.651  25.534  26.559  1.00  0.00    -0.237 OA
ATOM     98  O   UNL A   1      53.625  23.658  25.335  1.00  0.00    -0.744 OA
ENDBRANCH  94  95
ENDBRANCH  62  87
ENDBRANCH  36  37
ENDBRANCH  28  31
ENDBRANCH  26  27
ENDBRANCH   1  26
TORSDOF 16
ENDMDL
MODEL 3
REMARK VINA RESULT:     -12.4      6.834     12.158
REMARK SMILES CC1(C)C[C@@H](Nc2ccc(Cl)c(C(=O)NCCCCNC(=O)c3ccc(-c4c5nc(c(-c6c(F)cc(S(=O)(=O)[O-])cc6F)c6ccc([nH]6)c(-c6c(F)cc(S(=O)(=O)[O-])cc6F)c6nc(c(-c7c(F)cc(S(=O)(=O)[O-])cc7F)c7ccc4[nH]7)C=C6)C=C5)cc3)c2)C(C)(C)O1
REMARK SMILES IDX 18 1 17 2 16 3 15 4 13 5 14 6 12 8 7 9 8 10 89 11 9 12 10 13
REMARK SMILES IDX 11 14 6 15 5 17 1 18 2 19 3 20 4 21 93 22 90 23 91 24 92 25
REMARK SMILES IDX 19 26 20 27 21 28 22 30 23 31 24 32 88 33 25 34 87 35 26 36
REMARK SMILES IDX 27 37 28 38 81 39 29 40 86 41 80 42 82 43 30 44 85 45 79 46
REMARK SMILES IDX 78 47 31 49 65 50 44 51 64 52 45 53 48 54 63 55 83 56 46 57
REMARK SMILES IDX 47 58 62 60 84 61 49 62 32 63 33 64 42 65 34 66 35 67 41 68
REMARK SMILES IDX 43 69 36 70 37 71 38 72 39 73 40 74 66 75 67 76 76 77 68 78
REMARK SMILES IDX 69 79 75 80 77 81 70 82 71 83 72 84 73 85 74 86 50 87 51 88
REMARK SMILES IDX 60 89 52 90 53 91 59 92 61 93 54 94 55 95 56 96 57 97 58 98
REMARK H PARENT 15 7 6 16 20 29 82 48 48 59
REMARK Flexibility Score: inf
ROOT
ATOM      1  C   UNL A   1      35.112  32.125  27.999  1.00  0.00     0.023 C 
ENDROOT
BRANCH   1   2
ATOM      2  C   UNL A   1      34.777  30.669  27.676  1.00  0.00     0.023 C 
BRANCH   2   3
ATOM      3  C   UNL A   1      33.495  30.427  26.889  1.00  0.00     0.116 C 
BRANCH   3   4
ATOM      4  N   UNL A   1      32.486  29.652  27.586  1.00  0.00    -0.352 N 
ATOM      5  C   UNL A   1      31.918  28.441  27.258  1.00  0.00     0.252 C 
ATOM      6  O   UNL A   1      31.100  27.939  28.027  1.00  0.00    -0.269 OA
ATOM      7  H   UNL A   1      32.156  30.054  28.422  1.00  0.00     0.163 HD
BRANCH   5   8
ATOM      8  C   UNL A   1      32.178  27.768  25.961  1.00  0.00     0.060 A 
ATOM      9  C   UNL A   1      33.513  26.069  24.808  1.00  0.00     0.035 A 
ATOM     10  C   UNL A   1      32.777  26.323  23.647  1.00  0.00     0.027 A 
ATOM     11  C   UNL A   1      33.156  26.751  25.976  1.00  0.00     0.041 A 
ATOM     12  C   UNL A   1      31.848  27.360  23.603  1.00  0.00     0.023 A 
ATOM     13  C   UNL A   1      31.614  28.139  24.737  1.00  0.00     0.053 A 
ATOM     14  Cl  UNL A   1      30.763  29.618  24.474  1.00  0.00    -0.083 Cl
BRANCH   9  15
ATOM     15  N   UNL A   1      34.668  25.293  24.772  1.00  0.00    -0.379 N 
ATOM     16  H   UNL A   1      35.554  25.694  24.923  1.00  0.00     0.160 HD
BRANCH  15  17
ATOM     17  C   UNL A   1      34.521  23.860  24.506  1.00  0.00     0.113 C 
ATOM     18  C   UNL A   1      33.674  20.893  26.564  1.00  0.00     0.042 C 
ATOM     19  C   UNL A   1      33.953  21.714  25.310  1.00  0.00     0.065 C 
ATOM     20  C   UNL A   1      33.220  21.091  24.113  1.00  0.00     0.042 C 
ATOM     21  C   UNL A   1      33.606  23.186  25.507  1.00  0.00     0.062 C 
ATOM     22  O   UNL A   1      35.367  21.679  25.032  1.00  0.00    -0.367 OA
ATOM     23  C   UNL A   1      35.803  23.000  24.603  1.00  0.00     0.083 C 
ATOM     24  C   UNL A   1      36.830  23.472  25.633  1.00  0.00     0.044 C 
ATOM     25  C   UNL A   1      36.476  22.846  23.237  1.00  0.00     0.044 C 
ENDBRANCH  15  17
ENDBRANCH   9  15
ENDBRANCH   5   8
ENDBRANCH   3   4
ENDBRANCH   2   3
ENDBRANCH   1   2
BRANCH   1  26
ATOM     26  C   UNL A   1      35.990  32.376  29.224  1.00  0.00     0.116 C 
BRANCH  26  27
ATOM     27  N   UNL A   1      35.749  31.459  30.328  1.00  0.00    -0.352 N 
ATOM     28  C   UNL A   1      36.573  30.509  30.887  1.00  0.00     0.251 C 
ATOM     29  H   UNL A   1      34.857  31.528  30.739  1.00  0.00     0.163 HD
ATOM     30  O   UNL A   1      36.147  29.786  31.785  1.00  0.00    -0.269 OA
BRANCH  28  31
ATOM     31  C   UNL A   1      37.952  30.321  30.383  1.00  0.00     0.039 A 
ATOM     32  C   UNL A   1      39.012  30.347  31.294  1.00  0.00     0.014 A 
ATOM     33  C   UNL A   1      38.205  30.094  29.028  1.00  0.00     0.014 A 
ATOM     34  C   UNL A   1      40.308  30.045  30.864  1.00  0.00     0.010 A 
ATOM     35  C   UNL A   1      39.480  29.716  28.615  1.00  0.00     0.010 A 
ATOM     36  C   UNL A   1      40.544  29.674  29.531  1.00  0.00    -0.014 A 
BRANCH  36  37
ATOM     37  C   UNL A   1      41.887  29.225  29.072  1.00  0.00     0.031 A 
ATOM     38  C   UNL A   1      43.013  30.216  28.951  1.00  0.00     0.074 A 
ATOM     39  C   UNL A   1      42.070  27.946  28.684  1.00  0.00     0.049 A 
ATOM     40  N   UNL A   1      44.209  30.050  28.448  1.00  0.00    -0.248 NA
ATOM     41  C   UNL A   1      42.748  31.582  29.430  1.00  0.00     0.031 C 
ATOM     42  C   UNL A   1      41.046  26.898  28.704  1.00  0.00     0.029 A 
ATOM     43  N   UNL A   1      43.178  27.312  28.178  1.00  0.00    -0.354 N 
ATOM     44  C   UNL A   1      44.832  31.290  28.533  1.00  0.00     0.074 A 
ATOM     45  C   UNL A   1      43.864  32.211  29.090  1.00  0.00     0.031 C 
ATOM     46  C   UNL A   1      41.576  25.753  28.242  1.00  0.00     0.029 A 
ATOM     47  C   UNL A   1      42.963  25.990  27.859  1.00  0.00     0.049 A 
ATOM     48  H   UNL A   1      44.045  27.761  28.054  1.00  0.00     0.167 HD
ATOM     49  C   UNL A   1      46.101  31.626  28.200  1.00  0.00     0.037 A 
ATOM     50  C   UNL A   1      43.786  25.076  27.307  1.00  0.00     0.037 A 
ATOM     51  C   UNL A   1      47.074  30.701  27.680  1.00  0.00     0.049 A 
ATOM     52  C   UNL A   1      45.198  25.471  26.963  1.00  0.00     0.074 A 
ATOM     53  C   UNL A   1      48.397  30.937  27.351  1.00  0.00     0.029 A 
ATOM     54  N   UNL A   1      46.831  29.359  27.425  1.00  0.00    -0.354 N 
ATOM     55  N   UNL A   1      45.781  26.639  27.091  1.00  0.00    -0.248 NA
ATOM     56  C   UNL A   1      46.068  24.423  26.410  1.00  0.00     0.031 C 
ATOM     57  C   UNL A   1      48.948  29.744  26.873  1.00  0.00     0.029 A 
ATOM     58  C   UNL A   1      47.980  28.756  26.941  1.00  0.00     0.049 A 
ATOM     59  H   UNL A   1      45.970  28.903  27.566  1.00  0.00     0.167 HD
ATOM     60  C   UNL A   1      47.091  26.459  26.662  1.00  0.00     0.074 A 
ATOM     61  C   UNL A   1      47.219  25.068  26.281  1.00  0.00     0.031 C 
ATOM     62  C   UNL A   1      48.098  27.364  26.590  1.00  0.00     0.037 A 
BRANCH  49  63
ATOM     63  C   UNL A   1      46.522  33.054  28.412  1.00  0.00     0.058 A 
ATOM     64  C   UNL A   1      47.089  33.476  29.626  1.00  0.00     0.135 A 
ATOM     65  C   UNL A   1      46.406  33.998  27.380  1.00  0.00     0.135 A 
ATOM     66  F   UNL A   1      47.208  32.617  30.651  1.00  0.00    -0.206 F 
ATOM     67  C   UNL A   1      47.504  34.788  29.817  1.00  0.00     0.059 A 
ATOM     68  C   UNL A   1      46.839  35.312  27.541  1.00  0.00     0.059 A 
ATOM     69  F   UNL A   1      45.871  33.648  26.200  1.00  0.00    -0.206 F 
ATOM     70  C   UNL A   1      47.376  35.700  28.767  1.00  0.00     0.060 A 
BRANCH  70  71
ATOM     71  S   UNL A   1      47.940  37.395  29.026  1.00  0.00     0.124 S 
ATOM     72  O   UNL A   1      46.811  38.159  28.500  1.00  0.00    -0.237 OA
ATOM     73  O   UNL A   1      48.119  37.448  30.472  1.00  0.00    -0.237 OA
ATOM     74  O   UNL A   1      49.168  37.469  28.241  1.00  0.00    -0.744 OA
ENDBRANCH  70  71
ENDBRANCH  49  63
BRANCH  50  75
ATOM     75  C   UNL A   1      43.306  23.693  27.050  1.00  0.00     0.058 A 
ATOM     76  C   UNL A   1      43.165  22.771  28.099  1.00  0.00     0.135 A 
ATOM     77  C   UNL A   1      42.995  23.257  25.753  1.00  0.00     0.135 A 
ATOM     78  F   UNL A   1      43.454  23.139  29.357  1.00  0.00    -0.206 F 
ATOM     79  C   UNL A   1      42.762  21.460  27.870  1.00  0.00     0.059 A 
ATOM     80  C   UNL A   1      42.566  21.956  25.501  1.00  0.00     0.059 A 
ATOM     81  F   UNL A   1      43.094  24.104  24.716  1.00  0.00    -0.206 F 
ATOM     82  C   UNL A   1      42.469  21.060  26.565  1.00  0.00     0.060 A 
BRANCH  82  83
ATOM     83  S   UNL A   1      41.926  19.362  26.277  1.00  0.00     0.124 S 
ATOM     84  O   UNL A   1      40.478  19.528  26.202  1.00  0.00    -0.237 OA
ATOM     85  O   UNL A   1      42.596  19.030  25.025  1.00  0.00    -0.237 OA
ATOM     86  O   UNL A   1      42.420  18.650  27.452  1.00  0.00    -0.744 OA
ENDBRANCH  82  83
ENDBRANCH  50  75
BRANCH  62  87
ATOM     87  C   UNL A   1      49.440  26.874  26.128  1.00  0.00     0.058 A 
ATOM     88  C   UNL A   1      49.847  26.986  24.790  1.00  0.00     0.135 A 
ATOM     89  C   UNL A   1      50.355  26.340  27.052  1.00  0.00     0.135 A 
ATOM     90  F   UNL A   1      49.006  27.482  23.869  1.00  0.00    -0.206 F 
ATOM     91  C   UNL A   1      51.109  26.569  24.379  1.00  0.00     0.059 A 
ATOM     92  C   UNL A   1      51.630  25.940  26.667  1.00  0.00     0.059 A 
ATOM     93  F   UNL A   1      50.017  26.221  28.346  1.00  0.00    -0.206 F 
ATOM     94  C   UNL A   1      51.995  26.050  25.326  1.00  0.00     0.060 A 
BRANCH  94  95
ATOM     95  S   UNL A   1      53.645  25.553  24.789  1.00  0.00     0.124 S 
ATOM     96  O   UNL A   1      54.488  26.223  25.771  1.00  0.00    -0.237 OA
ATOM     97  O   UNL A   1      53.584  24.098  24.893  1.00  0.00    -0.237 OA
ATOM     98  O   UNL A   1      53.729  26.073  23.427  1.00  0.00    -0.744 OA
ENDBRANCH  94  95
ENDBRANCH  62  87
ENDBRANCH  36  37
ENDBRANCH  28  31
ENDBRANCH  26  27
ENDBRANCH   1  26
TORSDOF 16
ENDMDL
