MODEL 1
REMARK VINA RESULT:     -11.8      0.000      0.000
REMARK SMILES CC1(C)CCC[C@@]1(NC(=O)OCc1ccccc1)C(=O)NCCCCNC(=O)c1ccc(-c2c3nc(c(-c4c(F)cc(S(=O)(=O)[O-])cc4F)c4ccc([nH]4)c(-c4c(F)cc(S(=O)(=O)[O-])cc4F)c4nc(c(-c5c(F)cc(S(=O)(=O)[O-])cc5F)c5ccc2[nH]5)C=C4)C=C3)cc1
REMARK SMILES IDX 23 1 22 2 21 3 19 4 20 5 7 7 1 8 2 9 3 10 4 11 5 12 6 13
REMARK SMILES IDX 8 14 9 15 10 17 11 18 12 19 13 20 14 21 18 22 15 23 17 24
REMARK SMILES IDX 16 25 24 26 25 27 26 28 27 29 28 31 29 32 30 33 94 34 31 35
REMARK SMILES IDX 93 36 32 37 33 38 34 39 87 40 35 41 92 42 86 43 88 44 36 45
REMARK SMILES IDX 91 46 85 47 84 48 37 50 71 51 50 52 70 53 51 54 54 55 69 56
REMARK SMILES IDX 89 57 52 58 53 59 68 61 90 62 55 63 38 64 39 65 48 66 40 67
REMARK SMILES IDX 41 68 47 69 49 70 42 71 43 72 44 73 45 74 46 75 72 76 73 77
REMARK SMILES IDX 82 78 74 79 75 80 81 81 83 82 76 83 77 84 78 85 79 86 80 87
REMARK SMILES IDX 56 88 57 89 66 90 58 91 59 92 65 93 67 94 60 95 61 96 62 97
REMARK SMILES IDX 63 98 64 99
REMARK H PARENT 21 6 8 16 26 30 88 49 54 60
REMARK Flexibility Score: inf
ROOT
ATOM      1  C   UNL A   1      37.155  22.159  25.196  1.00  0.00     0.023 C 
ENDROOT
BRANCH   1   2
ATOM      2  C   UNL A   1      35.712  21.663  25.228  1.00  0.00     0.116 C 
BRANCH   2   3
ATOM      3  N   UNL A   1      35.038  22.083  26.437  1.00  0.00    -0.354 N 
ATOM      4  C   UNL A   1      33.853  22.713  26.664  1.00  0.00     0.246 C 
ATOM      5  O   UNL A   1      33.443  22.585  27.825  1.00  0.00    -0.272 OA
ATOM      6  H   UNL A   1      35.536  21.871  27.260  1.00  0.00     0.163 HD
BRANCH   4   7
ATOM      7  C   UNL A   1      32.960  23.399  25.546  1.00  0.00     0.127 C 
ATOM      8  C   UNL A   1      32.141  20.905  24.964  1.00  0.00     0.014 C 
ATOM      9  C   UNL A   1      31.785  22.393  25.105  1.00  0.00    -0.003 C 
ATOM     10  C   UNL A   1      31.102  22.792  23.765  1.00  0.00     0.014 C 
ATOM     11  C   UNL A   1      30.776  22.586  26.253  1.00  0.00     0.009 C 
ATOM     12  C   UNL A   1      30.775  24.082  26.523  1.00  0.00     0.004 C 
ATOM     13  C   UNL A   1      32.101  24.616  25.975  1.00  0.00     0.039 C 
BRANCH   7  14
ATOM     14  N   UNL A   1      33.783  23.752  24.365  1.00  0.00    -0.306 N 
ATOM     15  C   UNL A   1      34.084  24.969  23.836  1.00  0.00     0.408 C 
ATOM     16  H   UNL A   1      34.172  22.984  23.887  1.00  0.00     0.168 HD
ATOM     17  O   UNL A   1      34.432  25.063  22.663  1.00  0.00    -0.225 OA
BRANCH  15  18
ATOM     18  O   UNL A   1      34.055  25.978  24.724  1.00  0.00    -0.445 OA
BRANCH  18  19
ATOM     19  C   UNL A   1      33.830  27.297  24.201  1.00  0.00     0.270 C 
BRANCH  19  20
ATOM     20  C   UNL A   1      33.420  28.306  25.253  1.00  0.00    -0.011 A 
ATOM     21  C   UNL A   1      32.295  29.115  25.024  1.00  0.00     0.007 A 
ATOM     22  C   UNL A   1      34.160  28.518  26.426  1.00  0.00     0.007 A 
ATOM     23  C   UNL A   1      31.925  30.103  25.940  1.00  0.00     0.000 A 
ATOM     24  C   UNL A   1      33.792  29.509  27.338  1.00  0.00     0.000 A 
ATOM     25  C   UNL A   1      32.676  30.303  27.094  1.00  0.00     0.000 A 
ENDBRANCH  19  20
ENDBRANCH  18  19
ENDBRANCH  15  18
ENDBRANCH   7  14
ENDBRANCH   4   7
ENDBRANCH   2   3
ENDBRANCH   1   2
BRANCH   1  26
ATOM     26  C   UNL A   1      37.292  23.681  25.265  1.00  0.00     0.023 C 
BRANCH  26  27
ATOM     27  C   UNL A   1      38.200  24.186  26.379  1.00  0.00     0.116 C 
BRANCH  27  28
ATOM     28  N   UNL A   1      39.608  23.885  26.161  1.00  0.00    -0.352 N 
ATOM     29  C   UNL A   1      40.690  24.578  26.654  1.00  0.00     0.251 C 
ATOM     30  H   UNL A   1      39.807  23.102  25.600  1.00  0.00     0.163 HD
ATOM     31  O   UNL A   1      41.834  24.286  26.325  1.00  0.00    -0.269 OA
BRANCH  29  32
ATOM     32  C   UNL A   1      40.426  25.716  27.553  1.00  0.00     0.039 A 
ATOM     33  C   UNL A   1      39.588  25.530  28.654  1.00  0.00     0.014 A 
ATOM     34  C   UNL A   1      41.105  26.921  27.362  1.00  0.00     0.014 A 
ATOM     35  C   UNL A   1      39.489  26.538  29.614  1.00  0.00     0.010 A 
ATOM     36  C   UNL A   1      41.051  27.897  28.349  1.00  0.00     0.010 A 
ATOM     37  C   UNL A   1      40.252  27.710  29.488  1.00  0.00    -0.014 A 
BRANCH  37  38
ATOM     38  C   UNL A   1      40.244  28.764  30.531  1.00  0.00     0.031 A 
ATOM     39  C   UNL A   1      41.161  28.642  31.713  1.00  0.00     0.074 A 
ATOM     40  C   UNL A   1      39.341  29.764  30.467  1.00  0.00     0.049 A 
ATOM     41  N   UNL A   1      41.201  29.356  32.806  1.00  0.00    -0.248 NA
ATOM     42  C   UNL A   1      42.142  27.545  31.673  1.00  0.00     0.031 C 
ATOM     43  C   UNL A   1      38.375  29.968  29.386  1.00  0.00     0.029 A 
ATOM     44  N   UNL A   1      39.077  30.786  31.343  1.00  0.00    -0.354 N 
ATOM     45  C   UNL A   1      42.185  28.776  33.599  1.00  0.00     0.074 A 
ATOM     46  C   UNL A   1      42.692  27.631  32.876  1.00  0.00     0.031 C 
ATOM     47  C   UNL A   1      37.634  31.056  29.656  1.00  0.00     0.029 A 
ATOM     48  C   UNL A   1      38.041  31.601  30.948  1.00  0.00     0.049 A 
ATOM     49  H   UNL A   1      39.581  30.924  32.178  1.00  0.00     0.167 HD
ATOM     50  C   UNL A   1      42.631  29.173  34.814  1.00  0.00     0.037 A 
ATOM     51  C   UNL A   1      37.478  32.658  31.564  1.00  0.00     0.037 A 
ATOM     52  C   UNL A   1      42.148  30.337  35.507  1.00  0.00     0.049 A 
ATOM     53  C   UNL A   1      38.002  33.088  32.907  1.00  0.00     0.074 A 
ATOM     54  C   UNL A   1      42.582  30.864  36.711  1.00  0.00     0.029 A 
ATOM     55  N   UNL A   1      41.125  31.159  35.055  1.00  0.00    -0.354 N 
ATOM     56  N   UNL A   1      38.965  32.558  33.623  1.00  0.00    -0.248 NA
ATOM     57  C   UNL A   1      37.366  34.258  33.527  1.00  0.00     0.031 C 
ATOM     58  C   UNL A   1      41.800  31.987  37.002  1.00  0.00     0.029 A 
ATOM     59  C   UNL A   1      40.906  32.182  35.961  1.00  0.00     0.049 A 
ATOM     60  H   UNL A   1      40.630  31.033  34.214  1.00  0.00     0.167 HD
ATOM     61  C   UNL A   1      39.073  33.350  34.761  1.00  0.00     0.074 A 
ATOM     62  C   UNL A   1      38.077  34.395  34.638  1.00  0.00     0.031 C 
ATOM     63  C   UNL A   1      39.923  33.226  35.809  1.00  0.00     0.037 A 
BRANCH  50  64
ATOM     64  C   UNL A   1      43.691  28.334  35.470  1.00  0.00     0.058 A 
ATOM     65  C   UNL A   1      45.057  28.596  35.287  1.00  0.00     0.135 A 
ATOM     66  C   UNL A   1      43.335  27.261  36.303  1.00  0.00     0.135 A 
ATOM     67  F   UNL A   1      45.453  29.598  34.487  1.00  0.00    -0.206 F 
ATOM     68  C   UNL A   1      46.035  27.803  35.879  1.00  0.00     0.059 A 
ATOM     69  C   UNL A   1      44.296  26.471  36.927  1.00  0.00     0.059 A 
ATOM     70  F   UNL A   1      42.042  26.966  36.511  1.00  0.00    -0.206 F 
ATOM     71  C   UNL A   1      45.643  26.739  36.694  1.00  0.00     0.060 A 
BRANCH  71  72
ATOM     72  S   UNL A   1      46.922  25.712  37.448  1.00  0.00     0.124 S 
ATOM     73  O   UNL A   1      46.224  24.438  37.588  1.00  0.00    -0.237 OA
ATOM     74  O   UNL A   1      47.983  25.746  36.447  1.00  0.00    -0.237 OA
ATOM     75  O   UNL A   1      47.221  26.405  38.697  1.00  0.00    -0.744 OA
ENDBRANCH  71  72
ENDBRANCH  50  64
BRANCH  51  76
ATOM     76  C   UNL A   1      36.376  33.403  30.902  1.00  0.00     0.058 A 
ATOM     77  C   UNL A   1      35.069  33.345  31.410  1.00  0.00     0.135 A 
ATOM     78  C   UNL A   1      36.602  34.198  29.769  1.00  0.00     0.135 A 
ATOM     79  F   UNL A   1      34.802  32.593  32.488  1.00  0.00    -0.206 F 
ATOM     80  C   UNL A   1      34.024  34.039  30.812  1.00  0.00     0.059 A 
ATOM     81  C   UNL A   1      35.576  34.920  29.165  1.00  0.00     0.059 A 
ATOM     82  F   UNL A   1      37.839  34.300  29.255  1.00  0.00    -0.206 F 
ATOM     83  C   UNL A   1      34.287  34.827  29.689  1.00  0.00     0.060 A 
BRANCH  83  84
ATOM     84  S   UNL A   1      32.932  35.768  28.955  1.00  0.00     0.124 S 
ATOM     85  O   UNL A   1      32.134  36.097  30.129  1.00  0.00    -0.237 OA
ATOM     86  O   UNL A   1      33.637  36.883  28.328  1.00  0.00    -0.237 OA
ATOM     87  O   UNL A   1      32.329  34.816  28.027  1.00  0.00    -0.744 OA
ENDBRANCH  83  84
ENDBRANCH  51  76
BRANCH  63  88
ATOM     88  C   UNL A   1      39.856  34.273  36.884  1.00  0.00     0.058 A 
ATOM     89  C   UNL A   1      40.548  35.488  36.776  1.00  0.00     0.135 A 
ATOM     90  C   UNL A   1      39.027  34.083  38.002  1.00  0.00     0.135 A 
ATOM     91  F   UNL A   1      41.359  35.715  35.730  1.00  0.00    -0.206 F 
ATOM     92  C   UNL A   1      40.431  36.477  37.749  1.00  0.00     0.059 A 
ATOM     93  C   UNL A   1      38.878  35.067  38.974  1.00  0.00     0.059 A 
ATOM     94  F   UNL A   1      38.337  32.941  38.146  1.00  0.00    -0.206 F 
ATOM     95  C   UNL A   1      39.589  36.258  38.842  1.00  0.00     0.060 A 
BRANCH  95  96
ATOM     96  S   UNL A   1      39.403  37.568  40.069  1.00  0.00     0.124 S 
ATOM     97  O   UNL A   1      40.690  38.249  39.971  1.00  0.00    -0.237 OA
ATOM     98  O   UNL A   1      38.252  38.311  39.565  1.00  0.00    -0.237 OA
ATOM     99  O   UNL A   1      39.172  36.837  41.312  1.00  0.00    -0.744 OA
ENDBRANCH  95  96
ENDBRANCH  63  88
ENDBRANCH  37  38
ENDBRANCH  29  32
ENDBRANCH  27  28
ENDBRANCH  26  27
ENDBRANCH   1  26
TORSDOF 18
ENDMDL
MODEL 2
REMARK VINA RESULT:     -11.5      6.394     10.700
REMARK SMILES CC1(C)CCC[C@@]1(NC(=O)OCc1ccccc1)C(=O)NCCCCNC(=O)c1ccc(-c2c3nc(c(-c4c(F)cc(S(=O)(=O)[O-])cc4F)c4ccc([nH]4)c(-c4c(F)cc(S(=O)(=O)[O-])cc4F)c4nc(c(-c5c(F)cc(S(=O)(=O)[O-])cc5F)c5ccc2[nH]5)C=C4)C=C3)cc1
REMARK SMILES IDX 23 1 22 2 21 3 19 4 20 5 7 7 1 8 2 9 3 10 4 11 5 12 6 13
REMARK SMILES IDX 8 14 9 15 10 17 11 18 12 19 13 20 14 21 18 22 15 23 17 24
REMARK SMILES IDX 16 25 24 26 25 27 26 28 27 29 28 31 29 32 30 33 94 34 31 35
REMARK SMILES IDX 93 36 32 37 33 38 34 39 87 40 35 41 92 42 86 43 88 44 36 45
REMARK SMILES IDX 91 46 85 47 84 48 37 50 71 51 50 52 70 53 51 54 54 55 69 56
REMARK SMILES IDX 89 57 52 58 53 59 68 61 90 62 55 63 38 64 39 65 48 66 40 67
REMARK SMILES IDX 41 68 47 69 49 70 42 71 43 72 44 73 45 74 46 75 72 76 73 77
REMARK SMILES IDX 82 78 74 79 75 80 81 81 83 82 76 83 77 84 78 85 79 86 80 87
REMARK SMILES IDX 56 88 57 89 66 90 58 91 59 92 65 93 67 94 60 95 61 96 62 97
REMARK SMILES IDX 63 98 64 99
REMARK H PARENT 21 6 8 16 26 30 88 49 54 60
REMARK Flexibility Score: inf
ROOT
ATOM      1  C   UNL A   1      37.674  22.888  24.941  1.00  0.00     0.023 C 
ENDROOT
BRANCH   1   2
ATOM      2  C   UNL A   1      36.237  23.036  24.446  1.00  0.00     0.116 C 
BRANCH   2   3
ATOM      3  N   UNL A   1      35.377  23.568  25.480  1.00  0.00    -0.354 N 
ATOM      4  C   UNL A   1      34.024  23.656  25.601  1.00  0.00     0.246 C 
ATOM      5  O   UNL A   1      33.646  23.840  26.766  1.00  0.00    -0.272 OA
ATOM      6  H   UNL A   1      35.867  23.942  26.248  1.00  0.00     0.163 HD
BRANCH   4   7
ATOM      7  C   UNL A   1      32.986  23.379  24.433  1.00  0.00     0.127 C 
ATOM      8  C   UNL A   1      34.022  20.897  24.385  1.00  0.00     0.014 C 
ATOM      9  C   UNL A   1      32.778  21.792  24.265  1.00  0.00    -0.003 C 
ATOM     10  C   UNL A   1      32.103  21.398  22.920  1.00  0.00     0.014 C 
ATOM     11  C   UNL A   1      31.802  21.493  25.418  1.00  0.00     0.009 C 
ATOM     12  C   UNL A   1      30.813  22.648  25.400  1.00  0.00     0.004 C 
ATOM     13  C   UNL A   1      31.515  23.800  24.679  1.00  0.00     0.039 C 
BRANCH   7  14
ATOM     14  N   UNL A   1      33.471  23.955  23.156  1.00  0.00    -0.306 N 
ATOM     15  C   UNL A   1      33.697  25.250  22.807  1.00  0.00     0.408 C 
ATOM     16  H   UNL A   1      33.660  23.296  22.450  1.00  0.00     0.168 HD
ATOM     17  O   UNL A   1      33.712  25.577  21.625  1.00  0.00    -0.225 OA
BRANCH  15  18
ATOM     18  O   UNL A   1      33.984  26.059  23.842  1.00  0.00    -0.445 OA
BRANCH  18  19
ATOM     19  C   UNL A   1      33.675  27.452  23.685  1.00  0.00     0.270 C 
BRANCH  19  20
ATOM     20  C   UNL A   1      33.068  28.084  24.920  1.00  0.00    -0.011 A 
ATOM     21  C   UNL A   1      33.013  27.343  26.111  1.00  0.00     0.007 A 
ATOM     22  C   UNL A   1      32.492  29.364  24.908  1.00  0.00     0.007 A 
ATOM     23  C   UNL A   1      32.401  27.867  27.253  1.00  0.00     0.000 A 
ATOM     24  C   UNL A   1      31.876  29.884  26.047  1.00  0.00     0.000 A 
ATOM     25  C   UNL A   1      31.828  29.136  27.219  1.00  0.00     0.000 A 
ENDBRANCH  19  20
ENDBRANCH  18  19
ENDBRANCH  15  18
ENDBRANCH   7  14
ENDBRANCH   4   7
ENDBRANCH   2   3
ENDBRANCH   1   2
BRANCH   1  26
ATOM     26  C   UNL A   1      38.051  21.460  25.338  1.00  0.00     0.023 C 
BRANCH  26  27
ATOM     27  C   UNL A   1      39.274  21.354  26.240  1.00  0.00     0.116 C 
BRANCH  27  28
ATOM     28  N   UNL A   1      39.987  20.091  26.103  1.00  0.00    -0.352 N 
ATOM     29  C   UNL A   1      41.349  19.899  26.149  1.00  0.00     0.251 C 
ATOM     30  H   UNL A   1      39.435  19.289  25.963  1.00  0.00     0.163 HD
ATOM     31  O   UNL A   1      41.842  18.799  25.926  1.00  0.00    -0.269 OA
BRANCH  29  32
ATOM     32  C   UNL A   1      42.200  21.071  26.427  1.00  0.00     0.039 A 
ATOM     33  C   UNL A   1      42.600  21.885  25.366  1.00  0.00     0.014 A 
ATOM     34  C   UNL A   1      42.492  21.415  27.748  1.00  0.00     0.014 A 
ATOM     35  C   UNL A   1      43.235  23.097  25.639  1.00  0.00     0.010 A 
ATOM     36  C   UNL A   1      43.070  22.649  28.018  1.00  0.00     0.010 A 
ATOM     37  C   UNL A   1      43.437  23.504  26.967  1.00  0.00    -0.014 A 
BRANCH  37  38
ATOM     38  C   UNL A   1      44.027  24.825  27.299  1.00  0.00     0.031 A 
ATOM     39  C   UNL A   1      43.135  25.932  27.782  1.00  0.00     0.074 A 
ATOM     40  C   UNL A   1      45.333  25.054  27.063  1.00  0.00     0.049 A 
ATOM     41  N   UNL A   1      43.413  27.194  27.972  1.00  0.00    -0.248 NA
ATOM     42  C   UNL A   1      41.733  25.576  28.055  1.00  0.00     0.031 C 
ATOM     43  C   UNL A   1      46.292  24.066  26.561  1.00  0.00     0.029 A 
ATOM     44  N   UNL A   1      46.077  26.199  27.195  1.00  0.00    -0.354 N 
ATOM     45  C   UNL A   1      42.216  27.791  28.351  1.00  0.00     0.074 A 
ATOM     46  C   UNL A   1      41.203  26.758  28.332  1.00  0.00     0.031 C 
ATOM     47  C   UNL A   1      47.499  24.644  26.442  1.00  0.00     0.029 A 
ATOM     48  C   UNL A   1      47.392  26.052  26.816  1.00  0.00     0.049 A 
ATOM     49  H   UNL A   1      45.706  27.047  27.529  1.00  0.00     0.167 HD
ATOM     50  C   UNL A   1      41.989  29.080  28.697  1.00  0.00     0.037 A 
ATOM     51  C   UNL A   1      48.392  26.953  26.764  1.00  0.00     0.037 A 
ATOM     52  C   UNL A   1      43.012  30.089  28.753  1.00  0.00     0.049 A 
ATOM     53  C   UNL A   1      48.117  28.376  27.168  1.00  0.00     0.074 A 
ATOM     54  C   UNL A   1      42.898  31.408  29.157  1.00  0.00     0.029 A 
ATOM     55  N   UNL A   1      44.338  29.892  28.399  1.00  0.00    -0.354 N 
ATOM     56  N   UNL A   1      46.990  28.915  27.570  1.00  0.00    -0.248 NA
ATOM     57  C   UNL A   1      49.246  29.314  27.112  1.00  0.00     0.031 C 
ATOM     58  C   UNL A   1      44.150  32.016  29.017  1.00  0.00     0.029 A 
ATOM     59  C   UNL A   1      45.052  31.066  28.563  1.00  0.00     0.049 A 
ATOM     60  H   UNL A   1      44.716  29.041  28.078  1.00  0.00     0.167 HD
ATOM     61  C   UNL A   1      47.283  30.245  27.848  1.00  0.00     0.074 A 
ATOM     62  C   UNL A   1      48.693  30.430  27.568  1.00  0.00     0.031 C 
ATOM     63  C   UNL A   1      46.461  31.223  28.300  1.00  0.00     0.037 A 
BRANCH  50  64
ATOM     64  C   UNL A   1      40.576  29.467  29.035  1.00  0.00     0.058 A 
ATOM     65  C   UNL A   1      39.580  29.557  28.051  1.00  0.00     0.135 A 
ATOM     66  C   UNL A   1      40.213  29.738  30.363  1.00  0.00     0.135 A 
ATOM     67  F   UNL A   1      39.879  29.325  26.763  1.00  0.00    -0.206 F 
ATOM     68  C   UNL A   1      38.280  29.937  28.366  1.00  0.00     0.059 A 
ATOM     69  C   UNL A   1      38.910  30.094  30.706  1.00  0.00     0.059 A 
ATOM     70  F   UNL A   1      41.127  29.668  31.344  1.00  0.00    -0.206 F 
ATOM     71  C   UNL A   1      37.957  30.208  29.696  1.00  0.00     0.060 A 
BRANCH  71  72
ATOM     72  S   UNL A   1      36.267  30.709  30.091  1.00  0.00     0.124 S 
ATOM     73  O   UNL A   1      35.577  30.409  28.840  1.00  0.00    -0.237 OA
ATOM     74  O   UNL A   1      35.938  29.843  31.218  1.00  0.00    -0.237 OA
ATOM     75  O   UNL A   1      36.400  32.126  30.411  1.00  0.00    -0.744 OA
ENDBRANCH  71  72
ENDBRANCH  50  64
BRANCH  51  76
ATOM     76  C   UNL A   1      49.753  26.530  26.344  1.00  0.00     0.058 A 
ATOM     77  C   UNL A   1      50.639  25.954  27.267  1.00  0.00     0.135 A 
ATOM     78  C   UNL A   1      50.191  26.673  25.019  1.00  0.00     0.135 A 
ATOM     79  F   UNL A   1      50.267  25.803  28.547  1.00  0.00    -0.206 F 
ATOM     80  C   UNL A   1      51.915  25.546  26.895  1.00  0.00     0.059 A 
ATOM     81  C   UNL A   1      51.456  26.252  24.617  1.00  0.00     0.059 A 
ATOM     82  F   UNL A   1      49.375  27.203  24.094  1.00  0.00    -0.206 F 
ATOM     83  C   UNL A   1      52.315  25.697  25.567  1.00  0.00     0.060 A 
BRANCH  83  84
ATOM     84  S   UNL A   1      53.953  25.110  25.084  1.00  0.00     0.124 S 
ATOM     85  O   UNL A   1      54.760  25.523  26.225  1.00  0.00    -0.237 OA
ATOM     86  O   UNL A   1      53.736  23.674  24.941  1.00  0.00    -0.237 OA
ATOM     87  O   UNL A   1      54.209  25.824  23.836  1.00  0.00    -0.744 OA
ENDBRANCH  83  84
ENDBRANCH  51  76
BRANCH  63  88
ATOM     88  C   UNL A   1      47.068  32.570  28.571  1.00  0.00     0.058 A 
ATOM     89  C   UNL A   1      47.130  33.565  27.585  1.00  0.00     0.135 A 
ATOM     90  C   UNL A   1      47.526  32.890  29.860  1.00  0.00     0.135 A 
ATOM     91  F   UNL A   1      46.712  33.306  26.335  1.00  0.00    -0.206 F 
ATOM     92  C   UNL A   1      47.640  34.830  27.863  1.00  0.00     0.059 A 
ATOM     93  C   UNL A   1      48.018  34.154  30.165  1.00  0.00     0.059 A 
ATOM     94  F   UNL A   1      47.479  31.974  30.841  1.00  0.00    -0.206 F 
ATOM     95  C   UNL A   1      48.077  35.116  29.158  1.00  0.00     0.060 A 
BRANCH  95  96
ATOM     96  S   UNL A   1      48.685  36.775  29.522  1.00  0.00     0.124 S 
ATOM     97  O   UNL A   1      49.638  36.984  28.437  1.00  0.00    -0.237 OA
ATOM     98  O   UNL A   1      47.467  37.578  29.459  1.00  0.00    -0.237 OA
ATOM     99  O   UNL A   1      49.269  36.638  30.854  1.00  0.00    -0.744 OA
ENDBRANCH  95  96
ENDBRANCH  63  88
ENDBRANCH  37  38
ENDBRANCH  29  32
ENDBRANCH  27  28
ENDBRANCH  26  27
ENDBRANCH   1  26
TORSDOF 18
ENDMDL
MODEL 3
REMARK VINA RESULT:     -11.2      1.480      3.747
REMARK SMILES CC1(C)CCC[C@@]1(NC(=O)OCc1ccccc1)C(=O)NCCCCNC(=O)c1ccc(-c2c3nc(c(-c4c(F)cc(S(=O)(=O)[O-])cc4F)c4ccc([nH]4)c(-c4c(F)cc(S(=O)(=O)[O-])cc4F)c4nc(c(-c5c(F)cc(S(=O)(=O)[O-])cc5F)c5ccc2[nH]5)C=C4)C=C3)cc1
REMARK SMILES IDX 23 1 22 2 21 3 19 4 20 5 7 7 1 8 2 9 3 10 4 11 5 12 6 13
REMARK SMILES IDX 8 14 9 15 10 17 11 18 12 19 13 20 14 21 18 22 15 23 17 24
REMARK SMILES IDX 16 25 24 26 25 27 26 28 27 29 28 31 29 32 30 33 94 34 31 35
REMARK SMILES IDX 93 36 32 37 33 38 34 39 87 40 35 41 92 42 86 43 88 44 36 45
REMARK SMILES IDX 91 46 85 47 84 48 37 50 71 51 50 52 70 53 51 54 54 55 69 56
REMARK SMILES IDX 89 57 52 58 53 59 68 61 90 62 55 63 38 64 39 65 48 66 40 67
REMARK SMILES IDX 41 68 47 69 49 70 42 71 43 72 44 73 45 74 46 75 72 76 73 77
REMARK SMILES IDX 82 78 74 79 75 80 81 81 83 82 76 83 77 84 78 85 79 86 80 87
REMARK SMILES IDX 56 88 57 89 66 90 58 91 59 92 65 93 67 94 60 95 61 96 62 97
REMARK SMILES IDX 63 98 64 99
REMARK H PARENT 21 6 8 16 26 30 88 49 54 60
REMARK Flexibility Score: inf
ROOT
ATOM      1  C   UNL A   1      36.563  24.232  26.069  1.00  0.00     0.023 C 
ENDROOT
BRANCH   1   2
ATOM      2  C   UNL A   1      35.517  23.176  25.722  1.00  0.00     0.116 C 
BRANCH   2   3
ATOM      3  N   UNL A   1      34.303  23.367  26.485  1.00  0.00    -0.354 N 
ATOM      4  C   UNL A   1      33.055  23.789  26.143  1.00  0.00     0.246 C 
ATOM      5  O   UNL A   1      32.190  23.486  26.976  1.00  0.00    -0.272 OA
ATOM      6  H   UNL A   1      34.398  23.150  27.441  1.00  0.00     0.163 HD
BRANCH   4   7
ATOM      7  C   UNL A   1      32.665  24.445  24.751  1.00  0.00     0.127 C 
ATOM      8  C   UNL A   1      30.760  25.744  26.134  1.00  0.00     0.014 C 
ATOM      9  C   UNL A   1      31.806  25.780  25.008  1.00  0.00    -0.003 C 
ATOM     10  C   UNL A   1      31.049  26.278  23.745  1.00  0.00     0.014 C 
ATOM     11  C   UNL A   1      32.916  26.790  25.354  1.00  0.00     0.009 C 
ATOM     12  C   UNL A   1      34.038  26.486  24.375  1.00  0.00     0.004 C 
ATOM     13  C   UNL A   1      33.817  25.046  23.906  1.00  0.00     0.039 C 
BRANCH   7  14
ATOM     14  N   UNL A   1      31.877  23.495  23.930  1.00  0.00    -0.306 N 
ATOM     15  C   UNL A   1      32.220  22.283  23.417  1.00  0.00     0.408 C 
ATOM     16  H   UNL A   1      30.960  23.789  23.724  1.00  0.00     0.168 HD
ATOM     17  O   UNL A   1      31.610  21.825  22.456  1.00  0.00    -0.225 OA
BRANCH  15  18
ATOM     18  O   UNL A   1      33.180  21.643  24.108  1.00  0.00    -0.445 OA
BRANCH  18  19
ATOM     19  C   UNL A   1      32.772  20.512  24.891  1.00  0.00     0.270 C 
BRANCH  19  20
ATOM     20  C   UNL A   1      33.197  19.181  24.305  1.00  0.00    -0.011 A 
ATOM     21  C   UNL A   1      34.369  18.568  24.777  1.00  0.00     0.007 A 
ATOM     22  C   UNL A   1      32.502  18.563  23.254  1.00  0.00     0.007 A 
ATOM     23  C   UNL A   1      34.829  17.374  24.215  1.00  0.00     0.000 A 
ATOM     24  C   UNL A   1      32.966  17.373  22.690  1.00  0.00     0.000 A 
ATOM     25  C   UNL A   1      34.130  16.780  23.168  1.00  0.00     0.000 A 
ENDBRANCH  19  20
ENDBRANCH  18  19
ENDBRANCH  15  18
ENDBRANCH   7  14
ENDBRANCH   4   7
ENDBRANCH   2   3
ENDBRANCH   1   2
BRANCH   1  26
ATOM     26  C   UNL A   1      37.958  23.664  26.338  1.00  0.00     0.023 C 
BRANCH  26  27
ATOM     27  C   UNL A   1      39.034  24.713  26.584  1.00  0.00     0.116 C 
BRANCH  27  28
ATOM     28  N   UNL A   1      40.299  24.410  25.928  1.00  0.00    -0.352 N 
ATOM     29  C   UNL A   1      41.535  24.937  26.227  1.00  0.00     0.251 C 
ATOM     30  H   UNL A   1      40.266  23.760  25.190  1.00  0.00     0.163 HD
ATOM     31  O   UNL A   1      42.517  24.678  25.542  1.00  0.00    -0.269 OA
BRANCH  29  32
ATOM     32  C   UNL A   1      41.629  25.861  27.371  1.00  0.00     0.039 A 
ATOM     33  C   UNL A   1      42.147  27.142  27.168  1.00  0.00     0.014 A 
ATOM     34  C   UNL A   1      41.094  25.490  28.607  1.00  0.00     0.014 A 
ATOM     35  C   UNL A   1      42.058  28.084  28.193  1.00  0.00     0.010 A 
ATOM     36  C   UNL A   1      40.953  26.447  29.603  1.00  0.00     0.010 A 
ATOM     37  C   UNL A   1      41.424  27.754  29.402  1.00  0.00    -0.014 A 
BRANCH  37  38
ATOM     38  C   UNL A   1      41.230  28.753  30.481  1.00  0.00     0.031 A 
ATOM     39  C   UNL A   1      42.087  28.687  31.712  1.00  0.00     0.074 A 
ATOM     40  C   UNL A   1      40.220  29.642  30.398  1.00  0.00     0.049 A 
ATOM     41  N   UNL A   1      41.978  29.352  32.831  1.00  0.00    -0.248 NA
ATOM     42  C   UNL A   1      43.192  27.715  31.693  1.00  0.00     0.031 C 
ATOM     43  C   UNL A   1      39.300  29.779  29.267  1.00  0.00     0.029 A 
ATOM     44  N   UNL A   1      39.787  30.587  31.294  1.00  0.00    -0.354 N 
ATOM     45  C   UNL A   1      42.977  28.857  33.662  1.00  0.00     0.074 A 
ATOM     46  C   UNL A   1      43.658  27.812  32.929  1.00  0.00     0.031 C 
ATOM     47  C   UNL A   1      38.420  30.760  29.531  1.00  0.00     0.029 A 
ATOM     48  C   UNL A   1      38.685  31.292  30.865  1.00  0.00     0.049 A 
ATOM     49  H   UNL A   1      40.221  30.746  32.162  1.00  0.00     0.167 HD
ATOM     50  C   UNL A   1      43.302  29.249  34.916  1.00  0.00     0.037 A 
ATOM     51  C   UNL A   1      37.965  32.247  31.483  1.00  0.00     0.037 A 
ATOM     52  C   UNL A   1      42.645  30.317  35.620  1.00  0.00     0.049 A 
ATOM     53  C   UNL A   1      38.357  32.677  32.872  1.00  0.00     0.074 A 
ATOM     54  C   UNL A   1      42.944  30.838  36.867  1.00  0.00     0.029 A 
ATOM     55  N   UNL A   1      41.559  31.033  35.137  1.00  0.00    -0.354 N 
ATOM     56  N   UNL A   1      39.333  32.232  33.626  1.00  0.00    -0.248 NA
ATOM     57  C   UNL A   1      37.551  33.736  33.493  1.00  0.00     0.031 C 
ATOM     58  C   UNL A   1      42.018  31.848  37.151  1.00  0.00     0.029 A 
ATOM     59  C   UNL A   1      41.168  31.982  36.064  1.00  0.00     0.049 A 
ATOM     60  H   UNL A   1      41.131  30.887  34.262  1.00  0.00     0.167 HD
ATOM     61  C   UNL A   1      39.281  32.980  34.796  1.00  0.00     0.074 A 
ATOM     62  C   UNL A   1      38.176  33.906  34.651  1.00  0.00     0.031 C 
ATOM     63  C   UNL A   1      40.078  32.910  35.890  1.00  0.00     0.037 A 
BRANCH  50  64
ATOM     64  C   UNL A   1      44.416  28.511  35.605  1.00  0.00     0.058 A 
ATOM     65  C   UNL A   1      44.169  27.396  36.420  1.00  0.00     0.135 A 
ATOM     66  C   UNL A   1      45.749  28.918  35.436  1.00  0.00     0.135 A 
ATOM     67  F   UNL A   1      42.912  26.976  36.629  1.00  0.00    -0.206 F 
ATOM     68  C   UNL A   1      45.202  26.730  37.073  1.00  0.00     0.059 A 
ATOM     69  C   UNL A   1      46.801  28.250  36.058  1.00  0.00     0.059 A 
ATOM     70  F   UNL A   1      46.041  29.980  34.668  1.00  0.00    -0.206 F 
ATOM     71  C   UNL A   1      46.514  27.169  36.889  1.00  0.00     0.060 A 
BRANCH  71  72
ATOM     72  S   UNL A   1      47.843  26.302  37.749  1.00  0.00     0.124 S 
ATOM     73  O   UNL A   1      48.130  27.225  38.843  1.00  0.00    -0.237 OA
ATOM     74  O   UNL A   1      47.204  25.047  38.132  1.00  0.00    -0.237 OA
ATOM     75  O   UNL A   1      48.885  26.186  36.734  1.00  0.00    -0.744 OA
ENDBRANCH  71  72
ENDBRANCH  50  64
BRANCH  51  76
ATOM     76  C   UNL A   1      36.821  32.887  30.783  1.00  0.00     0.058 A 
ATOM     77  C   UNL A   1      35.501  32.550  31.115  1.00  0.00     0.135 A 
ATOM     78  C   UNL A   1      37.018  33.856  29.787  1.00  0.00     0.135 A 
ATOM     79  F   UNL A   1      35.263  31.624  32.056  1.00  0.00    -0.206 F 
ATOM     80  C   UNL A   1      34.416  33.140  30.478  1.00  0.00     0.059 A 
ATOM     81  C   UNL A   1      35.948  34.477  29.149  1.00  0.00     0.059 A 
ATOM     82  F   UNL A   1      38.263  34.226  29.445  1.00  0.00    -0.206 F 
ATOM     83  C   UNL A   1      34.648  34.105  29.497  1.00  0.00     0.060 A 
BRANCH  83  84
ATOM     84  S   UNL A   1      33.230  34.906  28.716  1.00  0.00     0.124 S 
ATOM     85  O   UNL A   1      32.381  35.186  29.867  1.00  0.00    -0.237 OA
ATOM     86  O   UNL A   1      33.845  36.066  28.078  1.00  0.00    -0.237 OA
ATOM     87  O   UNL A   1      32.735  33.885  27.797  1.00  0.00    -0.744 OA
ENDBRANCH  83  84
ENDBRANCH  51  76
BRANCH  63  88
ATOM     88  C   UNL A   1      39.825  33.894  36.997  1.00  0.00     0.058 A 
ATOM     89  C   UNL A   1      39.022  33.572  38.101  1.00  0.00     0.135 A 
ATOM     90  C   UNL A   1      40.456  35.148  36.985  1.00  0.00     0.135 A 
ATOM     91  F   UNL A   1      38.390  32.388  38.156  1.00  0.00    -0.206 F 
ATOM     92  C   UNL A   1      38.841  34.467  39.152  1.00  0.00     0.059 A 
ATOM     93  C   UNL A   1      40.308  36.049  38.034  1.00  0.00     0.059 A 
ATOM     94  F   UNL A   1      41.242  35.499  35.954  1.00  0.00    -0.206 F 
ATOM     95  C   UNL A   1      39.494  35.702  39.110  1.00  0.00     0.060 A 
BRANCH  95  96
ATOM     96  S   UNL A   1      39.297  36.834  40.502  1.00  0.00     0.124 S 
ATOM     97  O   UNL A   1      38.662  37.981  39.861  1.00  0.00    -0.237 OA
ATOM     98  O   UNL A   1      38.451  36.068  41.413  1.00  0.00    -0.237 OA
ATOM     99  O   UNL A   1      40.667  37.048  40.961  1.00  0.00    -0.744 OA
ENDBRANCH  95  96
ENDBRANCH  63  88
ENDBRANCH  37  38
ENDBRANCH  29  32
ENDBRANCH  27  28
ENDBRANCH  26  27
ENDBRANCH   1  26
TORSDOF 18
ENDMDL
