MODEL 1
REMARK VINA RESULT:     -11.3      0.000      0.000
REMARK SMILES O=C(NCCCCNC(=O)[C@@H]1C[NH2+]CCN1C(=O)N[C@@H]1CCOC1)c1ccc(-c2c3nc(c(-c4c(F)cc(S(=O)(=O)[O-])cc4F)c4ccc([nH]4)c(-c4c(F)cc(S(=O)(=O)[O-])cc4F)c4nc(c(-c5c(F)cc(S(=O)(=O)[O-])cc5F)c5ccc2[nH]5)C=C4)C=C3)cc1
REMARK SMILES IDX 5 1 4 2 3 3 1 4 2 5 25 7 26 8 90 9 27 10 89 11 28 12 29 13
REMARK SMILES IDX 30 14 83 15 31 16 88 17 82 18 84 19 32 20 87 21 81 22 80 23
REMARK SMILES IDX 33 25 67 26 46 27 66 28 47 29 50 30 65 31 85 32 48 33 49 34
REMARK SMILES IDX 64 36 86 37 51 38 34 39 35 40 44 41 36 42 37 43 43 44 45 45
REMARK SMILES IDX 38 46 39 47 40 48 41 49 42 50 68 51 69 52 78 53 70 54 71 55
REMARK SMILES IDX 77 56 79 57 72 58 73 59 74 60 75 61 76 62 52 63 53 64 62 65
REMARK SMILES IDX 54 66 55 67 61 68 63 69 56 70 57 71 58 72 59 73 60 74 6 75
REMARK SMILES IDX 7 76 8 77 9 78 10 80 11 81 12 82 16 83 13 84 15 85 14 86
REMARK SMILES IDX 17 89 18 90 19 91 20 93 21 94 24 95 22 96 23 97
REMARK H PARENT 3 6 84 24 50 35 8 79 13 87 13 88 19 92
REMARK Flexibility Score: inf
ROOT
ATOM      1  C   UNL A   1      35.002  31.985  27.964  1.00  0.00     0.023 C 
ENDROOT
BRANCH   1   2
ATOM      2  C   UNL A   1      35.509  30.684  28.570  1.00  0.00     0.116 C 
BRANCH   2   3
ATOM      3  N   UNL A   1      35.561  30.731  30.023  1.00  0.00    -0.352 N 
ATOM      4  O   UNL A   1      36.385  30.320  32.079  1.00  0.00    -0.269 OA
ATOM      5  C   UNL A   1      36.580  30.364  30.866  1.00  0.00     0.251 C 
ATOM      6  H   UNL A   1      34.752  31.076  30.463  1.00  0.00     0.163 HD
BRANCH   5   7
ATOM      7  C   UNL A   1      37.896  30.005  30.303  1.00  0.00     0.039 A 
ATOM      8  C   UNL A   1      38.895  29.489  31.128  1.00  0.00     0.014 A 
ATOM      9  C   UNL A   1      38.135  30.196  28.939  1.00  0.00     0.014 A 
ATOM     10  C   UNL A   1      40.174  29.300  30.623  1.00  0.00     0.010 A 
ATOM     11  C   UNL A   1      39.397  29.910  28.410  1.00  0.00     0.010 A 
ATOM     12  C   UNL A   1      40.433  29.483  29.254  1.00  0.00    -0.014 A 
BRANCH  12  13
ATOM     13  C   UNL A   1      41.778  29.132  28.734  1.00  0.00     0.031 A 
ATOM     14  C   UNL A   1      42.895  30.135  28.701  1.00  0.00     0.074 A 
ATOM     15  C   UNL A   1      41.988  27.860  28.339  1.00  0.00     0.049 A 
ATOM     16  N   UNL A   1      44.138  29.965  28.326  1.00  0.00    -0.248 NA
ATOM     17  C   UNL A   1      42.584  31.507  29.134  1.00  0.00     0.031 C 
ATOM     18  C   UNL A   1      40.962  26.812  28.303  1.00  0.00     0.029 A 
ATOM     19  N   UNL A   1      43.126  27.221  27.923  1.00  0.00    -0.354 N 
ATOM     20  C   UNL A   1      44.756  31.201  28.472  1.00  0.00     0.074 A 
ATOM     21  C   UNL A   1      43.742  32.124  28.937  1.00  0.00     0.031 C 
ATOM     22  C   UNL A   1      41.527  25.652  27.942  1.00  0.00     0.029 A 
ATOM     23  C   UNL A   1      42.937  25.884  27.659  1.00  0.00     0.049 A 
ATOM     24  H   UNL A   1      43.994  27.674  27.823  1.00  0.00     0.167 HD
ATOM     25  C   UNL A   1      46.052  31.529  28.249  1.00  0.00     0.037 A 
ATOM     26  C   UNL A   1      43.800  24.950  27.220  1.00  0.00     0.037 A 
ATOM     27  C   UNL A   1      47.052  30.597  27.787  1.00  0.00     0.049 A 
ATOM     28  C   UNL A   1      45.228  25.342  26.981  1.00  0.00     0.074 A 
ATOM     29  C   UNL A   1      48.392  30.828  27.530  1.00  0.00     0.029 A 
ATOM     30  N   UNL A   1      46.821  29.254  27.516  1.00  0.00    -0.354 N 
ATOM     31  N   UNL A   1      45.795  26.515  27.138  1.00  0.00    -0.248 NA
ATOM     32  C   UNL A   1      46.134  24.290  26.507  1.00  0.00     0.031 C 
ATOM     33  C   UNL A   1      48.965  29.635  27.071  1.00  0.00     0.029 A 
ATOM     34  C   UNL A   1      47.991  28.648  27.087  1.00  0.00     0.049 A 
ATOM     35  H   UNL A   1      45.954  28.800  27.615  1.00  0.00     0.167 HD
ATOM     36  C   UNL A   1      47.127  26.340  26.786  1.00  0.00     0.074 A 
ATOM     37  C   UNL A   1      47.286  24.941  26.441  1.00  0.00     0.031 C 
ATOM     38  C   UNL A   1      48.126  27.256  26.740  1.00  0.00     0.037 A 
BRANCH  25  39
ATOM     39  C   UNL A   1      46.471  32.954  28.498  1.00  0.00     0.058 A 
ATOM     40  C   UNL A   1      46.396  33.927  27.488  1.00  0.00     0.135 A 
ATOM     41  C   UNL A   1      46.895  33.365  29.771  1.00  0.00     0.135 A 
ATOM     42  F   UNL A   1      46.013  33.586  26.248  1.00  0.00    -0.206 F 
ATOM     43  C   UNL A   1      46.742  35.253  27.729  1.00  0.00     0.059 A 
ATOM     44  C   UNL A   1      47.224  34.692  30.040  1.00  0.00     0.059 A 
ATOM     45  F   UNL A   1      46.987  32.477  30.773  1.00  0.00    -0.206 F 
ATOM     46  C   UNL A   1      47.154  35.627  29.009  1.00  0.00     0.060 A 
BRANCH  46  47
ATOM     47  S   UNL A   1      47.580  37.356  29.308  1.00  0.00     0.124 S 
ATOM     48  O   UNL A   1      49.040  37.297  29.319  1.00  0.00    -0.237 OA
ATOM     49  O   UNL A   1      46.983  38.028  28.158  1.00  0.00    -0.237 OA
ATOM     50  O   UNL A   1      46.954  37.644  30.593  1.00  0.00    -0.744 OA
ENDBRANCH  46  47
ENDBRANCH  25  39
BRANCH  26  51
ATOM     51  C   UNL A   1      43.321  23.567  26.962  1.00  0.00     0.058 A 
ATOM     52  C   UNL A   1      43.076  23.110  25.660  1.00  0.00     0.135 A 
ATOM     53  C   UNL A   1      43.120  22.666  28.021  1.00  0.00     0.135 A 
ATOM     54  F   UNL A   1      43.255  23.932  24.615  1.00  0.00    -0.206 F 
ATOM     55  C   UNL A   1      42.628  21.815  25.416  1.00  0.00     0.059 A 
ATOM     56  C   UNL A   1      42.704  21.359  27.801  1.00  0.00     0.059 A 
ATOM     57  F   UNL A   1      43.364  23.048  29.285  1.00  0.00    -0.206 F 
ATOM     58  C   UNL A   1      42.445  20.948  26.495  1.00  0.00     0.060 A 
BRANCH  58  59
ATOM     59  S   UNL A   1      41.900  19.258  26.171  1.00  0.00     0.124 S 
ATOM     60  O   UNL A   1      42.263  18.590  27.415  1.00  0.00    -0.237 OA
ATOM     61  O   UNL A   1      40.471  19.434  25.934  1.00  0.00    -0.237 OA
ATOM     62  O   UNL A   1      42.679  18.875  24.998  1.00  0.00    -0.744 OA
ENDBRANCH  58  59
ENDBRANCH  26  51
BRANCH  38  63
ATOM     63  C   UNL A   1      49.479  26.758  26.316  1.00  0.00     0.058 A 
ATOM     64  C   UNL A   1      50.377  26.199  27.239  1.00  0.00     0.135 A 
ATOM     65  C   UNL A   1      49.879  26.838  24.973  1.00  0.00     0.135 A 
ATOM     66  F   UNL A   1      50.044  26.108  28.537  1.00  0.00    -0.206 F 
ATOM     67  C   UNL A   1      51.641  25.771  26.852  1.00  0.00     0.059 A 
ATOM     68  C   UNL A   1      51.129  26.389  24.559  1.00  0.00     0.059 A 
ATOM     69  F   UNL A   1      49.054  27.355  24.050  1.00  0.00    -0.206 F 
ATOM     70  C   UNL A   1      52.010  25.875  25.510  1.00  0.00     0.060 A 
BRANCH  70  71
ATOM     71  S   UNL A   1      53.654  25.317  25.017  1.00  0.00     0.124 S 
ATOM     72  O   UNL A   1      53.788  25.927  23.699  1.00  0.00    -0.237 OA
ATOM     73  O   UNL A   1      54.503  25.877  26.064  1.00  0.00    -0.237 OA
ATOM     74  O   UNL A   1      53.536  23.862  25.027  1.00  0.00    -0.744 OA
ENDBRANCH  70  71
ENDBRANCH  38  63
ENDBRANCH  12  13
ENDBRANCH   5   7
ENDBRANCH   2   3
ENDBRANCH   1   2
BRANCH   1  75
ATOM     75  C   UNL A   1      36.002  33.146  28.001  1.00  0.00     0.023 C 
BRANCH  75  76
ATOM     76  C   UNL A   1      35.763  34.162  29.125  1.00  0.00     0.116 C 
BRANCH  76  77
ATOM     77  N   UNL A   1      34.646  35.032  28.817  1.00  0.00    -0.354 N 
ATOM     78  C   UNL A   1      33.449  34.827  29.465  1.00  0.00     0.248 C 
ATOM     79  H   UNL A   1      34.742  35.755  28.156  1.00  0.00     0.163 HD
ATOM     80  O   UNL A   1      32.551  34.198  28.912  1.00  0.00    -0.272 OA
BRANCH  78  81
ATOM     81  C   UNL A   1      33.322  35.516  30.824  1.00  0.00     0.231 C 
ATOM     82  C   UNL A   1      33.620  37.023  30.569  1.00  0.00     0.296 C 
ATOM     83  N   UNL A   1      34.154  35.073  31.982  1.00  0.00    -0.302 N 
ATOM     84  N   UNL A   1      33.323  37.889  31.730  1.00  0.00    -0.343 N 
ATOM     85  C   UNL A   1      33.857  35.890  33.168  1.00  0.00     0.183 C 
ATOM     86  C   UNL A   1      34.059  37.391  32.906  1.00  0.00     0.282 C 
ATOM     87  H   UNL A   1      32.322  37.871  31.921  1.00  0.00     0.346 HD
ATOM     88  H   UNL A   1      33.610  38.847  31.527  1.00  0.00     0.346 HD
BRANCH  83  89
ATOM     89  C   UNL A   1      34.453  33.764  32.276  1.00  0.00     0.318 C 
ATOM     90  O   UNL A   1      33.581  32.914  32.470  1.00  0.00    -0.249 OA
ATOM     91  N   UNL A   1      35.733  33.415  32.567  1.00  0.00    -0.333 N 
ATOM     92  H   UNL A   1      35.853  32.468  32.802  1.00  0.00     0.165 HD
BRANCH  91  93
ATOM     93  C   UNL A   1      36.949  34.194  32.593  1.00  0.00     0.112 C 
ATOM     94  C   UNL A   1      38.134  33.598  31.866  1.00  0.00     0.056 C 
ATOM     95  C   UNL A   1      37.555  34.522  33.947  1.00  0.00     0.185 C 
ATOM     96  C   UNL A   1      39.208  34.574  32.307  1.00  0.00     0.162 C 
ATOM     97  O   UNL A   1      38.941  34.840  33.696  1.00  0.00    -0.379 OA
ENDBRANCH  91  93
ENDBRANCH  83  89
ENDBRANCH  78  81
ENDBRANCH  76  77
ENDBRANCH  75  76
ENDBRANCH   1  75
TORSDOF 16
ENDMDL
MODEL 2
REMARK VINA RESULT:     -11.1      4.680     11.279
REMARK SMILES O=C(NCCCCNC(=O)[C@@H]1C[NH2+]CCN1C(=O)N[C@@H]1CCOC1)c1ccc(-c2c3nc(c(-c4c(F)cc(S(=O)(=O)[O-])cc4F)c4ccc([nH]4)c(-c4c(F)cc(S(=O)(=O)[O-])cc4F)c4nc(c(-c5c(F)cc(S(=O)(=O)[O-])cc5F)c5ccc2[nH]5)C=C4)C=C3)cc1
REMARK SMILES IDX 5 1 4 2 3 3 1 4 2 5 25 7 26 8 90 9 27 10 89 11 28 12 29 13
REMARK SMILES IDX 30 14 83 15 31 16 88 17 82 18 84 19 32 20 87 21 81 22 80 23
REMARK SMILES IDX 33 25 67 26 46 27 66 28 47 29 50 30 65 31 85 32 48 33 49 34
REMARK SMILES IDX 64 36 86 37 51 38 34 39 35 40 44 41 36 42 37 43 43 44 45 45
REMARK SMILES IDX 38 46 39 47 40 48 41 49 42 50 68 51 69 52 78 53 70 54 71 55
REMARK SMILES IDX 77 56 79 57 72 58 73 59 74 60 75 61 76 62 52 63 53 64 62 65
REMARK SMILES IDX 54 66 55 67 61 68 63 69 56 70 57 71 58 72 59 73 60 74 6 75
REMARK SMILES IDX 7 76 8 77 9 78 10 80 11 81 12 82 16 83 13 84 15 85 14 86
REMARK SMILES IDX 17 89 18 90 19 91 20 93 21 94 24 95 22 96 23 97
REMARK H PARENT 3 6 84 24 50 35 8 79 13 87 13 88 19 92
REMARK Flexibility Score: inf
ROOT
ATOM      1  C   UNL A   1      32.960  27.494  26.155  1.00  0.00     0.023 C 
ENDROOT
BRANCH   1   2
ATOM      2  C   UNL A   1      34.115  28.167  26.883  1.00  0.00     0.116 C 
BRANCH   2   3
ATOM      3  N   UNL A   1      33.789  29.516  27.315  1.00  0.00    -0.352 N 
ATOM      4  O   UNL A   1      34.043  31.443  28.454  1.00  0.00    -0.269 OA
ATOM      5  C   UNL A   1      34.547  30.401  28.039  1.00  0.00     0.251 C 
ATOM      6  H   UNL A   1      32.899  29.840  27.051  1.00  0.00     0.163 HD
BRANCH   5   7
ATOM      7  C   UNL A   1      35.959  30.083  28.330  1.00  0.00     0.039 A 
ATOM      8  C   UNL A   1      36.927  30.213  27.334  1.00  0.00     0.014 A 
ATOM      9  C   UNL A   1      36.314  29.642  29.608  1.00  0.00     0.014 A 
ATOM     10  C   UNL A   1      38.219  29.767  27.570  1.00  0.00     0.010 A 
ATOM     11  C   UNL A   1      37.639  29.286  29.874  1.00  0.00     0.010 A 
ATOM     12  C   UNL A   1      38.597  29.324  28.849  1.00  0.00    -0.014 A 
BRANCH  12  13
ATOM     13  C   UNL A   1      40.023  28.991  29.092  1.00  0.00     0.031 A 
ATOM     14  C   UNL A   1      40.593  27.651  28.722  1.00  0.00     0.074 A 
ATOM     15  C   UNL A   1      40.815  29.953  29.607  1.00  0.00     0.049 A 
ATOM     16  N   UNL A   1      41.828  27.231  28.823  1.00  0.00    -0.248 NA
ATOM     17  C   UNL A   1      39.662  26.648  28.180  1.00  0.00     0.031 C 
ATOM     18  C   UNL A   1      40.356  31.281  30.029  1.00  0.00     0.029 A 
ATOM     19  N   UNL A   1      42.164  29.983  29.839  1.00  0.00    -0.354 N 
ATOM     20  C   UNL A   1      41.826  25.919  28.363  1.00  0.00     0.074 A 
ATOM     21  C   UNL A   1      40.458  25.600  28.014  1.00  0.00     0.031 C 
ATOM     22  C   UNL A   1      41.411  32.012  30.413  1.00  0.00     0.029 A 
ATOM     23  C   UNL A   1      42.609  31.188  30.328  1.00  0.00     0.049 A 
ATOM     24  H   UNL A   1      42.758  29.216  29.670  1.00  0.00     0.167 HD
ATOM     25  C   UNL A   1      42.874  25.069  28.233  1.00  0.00     0.037 A 
ATOM     26  C   UNL A   1      43.844  31.584  30.688  1.00  0.00     0.037 A 
ATOM     27  C   UNL A   1      44.233  25.403  28.582  1.00  0.00     0.049 A 
ATOM     28  C   UNL A   1      44.983  30.620  30.534  1.00  0.00     0.074 A 
ATOM     29  C   UNL A   1      45.366  24.613  28.489  1.00  0.00     0.029 A 
ATOM     30  N   UNL A   1      44.644  26.629  29.090  1.00  0.00    -0.354 N 
ATOM     31  N   UNL A   1      44.962  29.388  30.083  1.00  0.00    -0.248 NA
ATOM     32  C   UNL A   1      46.312  31.096  30.934  1.00  0.00     0.031 C 
ATOM     33  C   UNL A   1      46.456  25.348  28.971  1.00  0.00     0.029 A 
ATOM     34  C   UNL A   1      46.010  26.613  29.321  1.00  0.00     0.049 A 
ATOM     35  H   UNL A   1      44.052  27.396  29.258  1.00  0.00     0.167 HD
ATOM     36  C   UNL A   1      46.276  28.942  30.143  1.00  0.00     0.074 A 
ATOM     37  C   UNL A   1      47.069  30.049  30.639  1.00  0.00     0.031 C 
ATOM     38  C   UNL A   1      46.779  27.723  29.825  1.00  0.00     0.037 A 
BRANCH  25  39
ATOM     39  C   UNL A   1      42.598  23.691  27.692  1.00  0.00     0.058 A 
ATOM     40  C   UNL A   1      42.568  23.437  26.311  1.00  0.00     0.135 A 
ATOM     41  C   UNL A   1      42.419  22.602  28.560  1.00  0.00     0.135 A 
ATOM     42  F   UNL A   1      42.717  24.443  25.436  1.00  0.00    -0.206 F 
ATOM     43  C   UNL A   1      42.357  22.156  25.811  1.00  0.00     0.059 A 
ATOM     44  C   UNL A   1      42.229  21.307  28.082  1.00  0.00     0.059 A 
ATOM     45  F   UNL A   1      42.436  22.786  29.889  1.00  0.00    -0.206 F 
ATOM     46  C   UNL A   1      42.189  21.096  26.704  1.00  0.00     0.060 A 
BRANCH  46  47
ATOM     47  S   UNL A   1      41.934  19.438  26.037  1.00  0.00     0.124 S 
ATOM     48  O   UNL A   1      40.497  19.447  25.778  1.00  0.00    -0.237 OA
ATOM     49  O   UNL A   1      42.790  19.441  24.854  1.00  0.00    -0.237 OA
ATOM     50  O   UNL A   1      42.372  18.564  27.121  1.00  0.00    -0.744 OA
ENDBRANCH  46  47
ENDBRANCH  25  39
BRANCH  26  51
ATOM     51  C   UNL A   1      44.049  32.946  31.245  1.00  0.00     0.058 A 
ATOM     52  C   UNL A   1      43.875  33.210  32.611  1.00  0.00     0.135 A 
ATOM     53  C   UNL A   1      44.448  34.009  30.419  1.00  0.00     0.135 A 
ATOM     54  F   UNL A   1      43.496  32.227  33.442  1.00  0.00    -0.206 F 
ATOM     55  C   UNL A   1      44.066  34.485  33.135  1.00  0.00     0.059 A 
ATOM     56  C   UNL A   1      44.677  35.283  30.924  1.00  0.00     0.059 A 
ATOM     57  F   UNL A   1      44.652  33.802  29.108  1.00  0.00    -0.206 F 
ATOM     58  C   UNL A   1      44.468  35.514  32.281  1.00  0.00     0.060 A 
BRANCH  58  59
ATOM     59  S   UNL A   1      44.752  37.157  32.973  1.00  0.00     0.124 S 
ATOM     60  O   UNL A   1      45.403  36.834  34.237  1.00  0.00    -0.237 OA
ATOM     61  O   UNL A   1      45.599  37.777  31.958  1.00  0.00    -0.237 OA
ATOM     62  O   UNL A   1      43.407  37.712  33.078  1.00  0.00    -0.744 OA
ENDBRANCH  58  59
ENDBRANCH  26  51
BRANCH  38  63
ATOM     63  C   UNL A   1      48.261  27.541  29.995  1.00  0.00     0.058 A 
ATOM     64  C   UNL A   1      48.810  27.079  31.202  1.00  0.00     0.135 A 
ATOM     65  C   UNL A   1      49.140  27.827  28.939  1.00  0.00     0.135 A 
ATOM     66  F   UNL A   1      48.011  26.800  32.245  1.00  0.00    -0.206 F 
ATOM     67  C   UNL A   1      50.183  26.943  31.370  1.00  0.00     0.059 A 
ATOM     68  C   UNL A   1      50.516  27.671  29.076  1.00  0.00     0.059 A 
ATOM     69  F   UNL A   1      48.665  28.261  27.762  1.00  0.00    -0.206 F 
ATOM     70  C   UNL A   1      51.029  27.247  30.302  1.00  0.00     0.060 A 
BRANCH  70  71
ATOM     71  S   UNL A   1      52.810  27.068  30.529  1.00  0.00     0.124 S 
ATOM     72  O   UNL A   1      52.877  25.927  31.436  1.00  0.00    -0.237 OA
ATOM     73  O   UNL A   1      53.277  26.825  29.168  1.00  0.00    -0.237 OA
ATOM     74  O   UNL A   1      53.209  28.350  31.102  1.00  0.00    -0.744 OA
ENDBRANCH  70  71
ENDBRANCH  38  63
ENDBRANCH  12  13
ENDBRANCH   5   7
ENDBRANCH   2   3
ENDBRANCH   1   2
BRANCH   1  75
ATOM     75  C   UNL A   1      33.227  26.048  25.719  1.00  0.00     0.023 C 
BRANCH  75  76
ATOM     76  C   UNL A   1      33.197  25.820  24.203  1.00  0.00     0.116 C 
BRANCH  76  77
ATOM     77  N   UNL A   1      32.961  24.427  23.886  1.00  0.00    -0.354 N 
ATOM     78  C   UNL A   1      33.977  23.697  23.311  1.00  0.00     0.248 C 
ATOM     79  H   UNL A   1      32.090  24.011  24.077  1.00  0.00     0.163 HD
ATOM     80  O   UNL A   1      33.995  23.522  22.096  1.00  0.00    -0.272 OA
BRANCH  78  81
ATOM     81  C   UNL A   1      34.965  23.073  24.297  1.00  0.00     0.231 C 
ATOM     82  C   UNL A   1      36.208  22.664  23.453  1.00  0.00     0.296 C 
ATOM     83  N   UNL A   1      34.567  21.899  25.129  1.00  0.00    -0.302 N 
ATOM     84  N   UNL A   1      37.366  22.246  24.273  1.00  0.00    -0.343 N 
ATOM     85  C   UNL A   1      35.686  21.479  25.987  1.00  0.00     0.183 C 
ATOM     86  C   UNL A   1      36.951  21.157  25.177  1.00  0.00     0.282 C 
ATOM     87  H   UNL A   1      37.698  23.038  24.823  1.00  0.00     0.346 HD
ATOM     88  H   UNL A   1      38.117  21.920  23.665  1.00  0.00     0.346 HD
BRANCH  83  89
ATOM     89  C   UNL A   1      33.334  21.734  25.713  1.00  0.00     0.318 C 
ATOM     90  O   UNL A   1      32.831  22.586  26.448  1.00  0.00    -0.249 OA
ATOM     91  N   UNL A   1      32.721  20.523  25.659  1.00  0.00    -0.333 N 
ATOM     92  H   UNL A   1      31.860  20.481  26.133  1.00  0.00     0.165 HD
BRANCH  91  93
ATOM     93  C   UNL A   1      33.114  19.285  25.027  1.00  0.00     0.112 C 
ATOM     94  C   UNL A   1      32.603  19.067  23.620  1.00  0.00     0.056 C 
ATOM     95  C   UNL A   1      32.713  17.984  25.702  1.00  0.00     0.185 C 
ATOM     96  C   UNL A   1      33.035  17.626  23.423  1.00  0.00     0.162 C 
ATOM     97  O   UNL A   1      32.772  16.969  24.676  1.00  0.00    -0.379 OA
ENDBRANCH  91  93
ENDBRANCH  83  89
ENDBRANCH  78  81
ENDBRANCH  76  77
ENDBRANCH  75  76
ENDBRANCH   1  75
TORSDOF 16
ENDMDL
MODEL 3
REMARK VINA RESULT:     -10.8      4.296     10.357
REMARK SMILES O=C(NCCCCNC(=O)[C@@H]1C[NH2+]CCN1C(=O)N[C@@H]1CCOC1)c1ccc(-c2c3nc(c(-c4c(F)cc(S(=O)(=O)[O-])cc4F)c4ccc([nH]4)c(-c4c(F)cc(S(=O)(=O)[O-])cc4F)c4nc(c(-c5c(F)cc(S(=O)(=O)[O-])cc5F)c5ccc2[nH]5)C=C4)C=C3)cc1
REMARK SMILES IDX 5 1 4 2 3 3 1 4 2 5 25 7 26 8 90 9 27 10 89 11 28 12 29 13
REMARK SMILES IDX 30 14 83 15 31 16 88 17 82 18 84 19 32 20 87 21 81 22 80 23
REMARK SMILES IDX 33 25 67 26 46 27 66 28 47 29 50 30 65 31 85 32 48 33 49 34
REMARK SMILES IDX 64 36 86 37 51 38 34 39 35 40 44 41 36 42 37 43 43 44 45 45
REMARK SMILES IDX 38 46 39 47 40 48 41 49 42 50 68 51 69 52 78 53 70 54 71 55
REMARK SMILES IDX 77 56 79 57 72 58 73 59 74 60 75 61 76 62 52 63 53 64 62 65
REMARK SMILES IDX 54 66 55 67 61 68 63 69 56 70 57 71 58 72 59 73 60 74 6 75
REMARK SMILES IDX 7 76 8 77 9 78 10 80 11 81 12 82 16 83 13 84 15 85 14 86
REMARK SMILES IDX 17 89 18 90 19 91 20 93 21 94 24 95 22 96 23 97
REMARK H PARENT 3 6 84 24 50 35 8 79 13 87 13 88 19 92
REMARK Flexibility Score: inf
ROOT
ATOM      1  C   UNL A   1      38.031  19.914  25.022  1.00  0.00     0.023 C 
ENDROOT
BRANCH   1   2
ATOM      2  C   UNL A   1      39.249  20.375  25.811  1.00  0.00     0.116 C 
BRANCH   2   3
ATOM      3  N   UNL A   1      40.256  19.334  25.938  1.00  0.00    -0.352 N 
ATOM      4  O   UNL A   1      42.331  18.461  26.032  1.00  0.00    -0.269 OA
ATOM      5  C   UNL A   1      41.612  19.455  26.110  1.00  0.00     0.251 C 
ATOM      6  H   UNL A   1      39.917  18.411  25.893  1.00  0.00     0.163 HD
BRANCH   5   7
ATOM      7  C   UNL A   1      42.196  20.786  26.368  1.00  0.00     0.039 A 
ATOM      8  C   UNL A   1      42.395  21.223  27.678  1.00  0.00     0.014 A 
ATOM      9  C   UNL A   1      42.539  21.606  25.289  1.00  0.00     0.014 A 
ATOM     10  C   UNL A   1      42.800  22.530  27.911  1.00  0.00     0.010 A 
ATOM     11  C   UNL A   1      43.041  22.888  25.527  1.00  0.00     0.010 A 
ATOM     12  C   UNL A   1      43.153  23.368  26.840  1.00  0.00    -0.014 A 
BRANCH  12  13
ATOM     13  C   UNL A   1      43.715  24.708  27.144  1.00  0.00     0.031 A 
ATOM     14  C   UNL A   1      45.171  25.015  26.940  1.00  0.00     0.074 A 
ATOM     15  C   UNL A   1      42.865  25.668  27.560  1.00  0.00     0.049 A 
ATOM     16  N   UNL A   1      45.800  26.150  27.110  1.00  0.00    -0.248 NA
ATOM     17  C   UNL A   1      46.039  23.911  26.498  1.00  0.00     0.031 C 
ATOM     18  C   UNL A   1      41.435  25.467  27.820  1.00  0.00     0.029 A 
ATOM     19  N   UNL A   1      43.061  27.000  27.811  1.00  0.00    -0.354 N 
ATOM     20  C   UNL A   1      47.132  25.901  26.802  1.00  0.00     0.074 A 
ATOM     21  C   UNL A   1      47.229  24.496  26.468  1.00  0.00     0.031 C 
ATOM     22  C   UNL A   1      40.874  26.642  28.137  1.00  0.00     0.029 A 
ATOM     23  C   UNL A   1      41.911  27.665  28.168  1.00  0.00     0.049 A 
ATOM     24  H   UNL A   1      43.939  27.439  27.741  1.00  0.00     0.167 HD
ATOM     25  C   UNL A   1      48.172  26.770  26.788  1.00  0.00     0.037 A 
ATOM     26  C   UNL A   1      41.714  28.953  28.502  1.00  0.00     0.037 A 
ATOM     27  C   UNL A   1      48.059  28.169  27.121  1.00  0.00     0.049 A 
ATOM     28  C   UNL A   1      42.884  29.891  28.479  1.00  0.00     0.074 A 
ATOM     29  C   UNL A   1      49.052  29.134  27.138  1.00  0.00     0.029 A 
ATOM     30  N   UNL A   1      46.882  28.805  27.493  1.00  0.00    -0.354 N 
ATOM     31  N   UNL A   1      44.135  29.637  28.171  1.00  0.00    -0.248 NA
ATOM     32  C   UNL A   1      42.622  31.287  28.845  1.00  0.00     0.031 C 
ATOM     33  C   UNL A   1      48.483  30.344  27.552  1.00  0.00     0.029 A 
ATOM     34  C   UNL A   1      47.125  30.144  27.749  1.00  0.00     0.049 A 
ATOM     35  H   UNL A   1      46.003  28.367  27.562  1.00  0.00     0.167 HD
ATOM     36  C   UNL A   1      44.808  30.845  28.304  1.00  0.00     0.074 A 
ATOM     37  C   UNL A   1      43.818  31.833  28.685  1.00  0.00     0.031 C 
ATOM     38  C   UNL A   1      46.127  31.110  28.136  1.00  0.00     0.037 A 
BRANCH  25  39
ATOM     39  C   UNL A   1      49.528  26.239  26.402  1.00  0.00     0.058 A 
ATOM     40  C   UNL A   1      50.036  26.399  25.103  1.00  0.00     0.135 A 
ATOM     41  C   UNL A   1      50.351  25.616  27.354  1.00  0.00     0.135 A 
ATOM     42  F   UNL A   1      49.286  26.972  24.150  1.00  0.00    -0.206 F 
ATOM     43  C   UNL A   1      51.306  25.947  24.757  1.00  0.00     0.059 A 
ATOM     44  C   UNL A   1      51.635  25.177  27.036  1.00  0.00     0.059 A 
ATOM     45  F   UNL A   1      49.917  25.436  28.610  1.00  0.00    -0.206 F 
ATOM     46  C   UNL A   1      52.100  25.338  25.731  1.00  0.00     0.060 A 
BRANCH  46  47
ATOM     47  S   UNL A   1      53.752  24.775  25.270  1.00  0.00     0.124 S 
ATOM     48  O   UNL A   1      53.513  23.357  25.011  1.00  0.00    -0.237 OA
ATOM     49  O   UNL A   1      54.044  25.592  24.096  1.00  0.00    -0.237 OA
ATOM     50  O   UNL A   1      54.555  25.070  26.452  1.00  0.00    -0.744 OA
ENDBRANCH  46  47
ENDBRANCH  25  39
BRANCH  26  51
ATOM     51  C   UNL A   1      40.359  29.411  28.904  1.00  0.00     0.058 A 
ATOM     52  C   UNL A   1      39.352  29.633  27.956  1.00  0.00     0.135 A 
ATOM     53  C   UNL A   1      40.041  29.615  30.257  1.00  0.00     0.135 A 
ATOM     54  F   UNL A   1      39.605  29.450  26.651  1.00  0.00    -0.206 F 
ATOM     55  C   UNL A   1      38.082  30.062  28.330  1.00  0.00     0.059 A 
ATOM     56  C   UNL A   1      38.772  30.013  30.659  1.00  0.00     0.059 A 
ATOM     57  F   UNL A   1      40.964  29.394  31.206  1.00  0.00    -0.206 F 
ATOM     58  C   UNL A   1      37.803  30.249  29.686  1.00  0.00     0.060 A 
BRANCH  58  59
ATOM     59  S   UNL A   1      36.144  30.769  30.170  1.00  0.00     0.124 S 
ATOM     60  O   UNL A   1      35.367  30.402  28.992  1.00  0.00    -0.237 OA
ATOM     61  O   UNL A   1      35.906  29.969  31.367  1.00  0.00    -0.237 OA
ATOM     62  O   UNL A   1      36.298  32.201  30.404  1.00  0.00    -0.744 OA
ENDBRANCH  58  59
ENDBRANCH  26  51
BRANCH  38  63
ATOM     63  C   UNL A   1      46.562  32.532  28.352  1.00  0.00     0.058 A 
ATOM     64  C   UNL A   1      47.084  32.961  29.583  1.00  0.00     0.135 A 
ATOM     65  C   UNL A   1      46.459  33.474  27.317  1.00  0.00     0.135 A 
ATOM     66  F   UNL A   1      47.195  32.100  30.607  1.00  0.00    -0.206 F 
ATOM     67  C   UNL A   1      47.454  34.284  29.792  1.00  0.00     0.059 A 
ATOM     68  C   UNL A   1      46.850  34.797  27.496  1.00  0.00     0.059 A 
ATOM     69  F   UNL A   1      45.976  33.112  26.118  1.00  0.00    -0.206 F 
ATOM     70  C   UNL A   1      47.328  35.197  28.743  1.00  0.00     0.060 A 
BRANCH  70  71
ATOM     71  S   UNL A   1      47.810  36.913  29.025  1.00  0.00     0.124 S 
ATOM     72  O   UNL A   1      47.771  37.454  27.670  1.00  0.00    -0.237 OA
ATOM     73  O   UNL A   1      46.767  37.388  29.928  1.00  0.00    -0.237 OA
ATOM     74  O   UNL A   1      49.140  36.799  29.617  1.00  0.00    -0.744 OA
ENDBRANCH  70  71
ENDBRANCH  38  63
ENDBRANCH  12  13
ENDBRANCH   5   7
ENDBRANCH   2   3
ENDBRANCH   1   2
BRANCH   1  75
ATOM     75  C   UNL A   1      36.793  20.805  25.170  1.00  0.00     0.023 C 
BRANCH  75  76
ATOM     76  C   UNL A   1      37.095  22.276  25.481  1.00  0.00     0.116 C 
BRANCH  76  77
ATOM     77  N   UNL A   1      36.048  22.868  26.288  1.00  0.00    -0.354 N 
ATOM     78  C   UNL A   1      35.124  23.686  25.677  1.00  0.00     0.248 C 
ATOM     79  H   UNL A   1      35.998  22.689  27.254  1.00  0.00     0.163 HD
ATOM     80  O   UNL A   1      35.255  24.906  25.728  1.00  0.00    -0.272 OA
BRANCH  78  81
ATOM     81  C   UNL A   1      33.928  22.963  25.056  1.00  0.00     0.231 C 
ATOM     82  C   UNL A   1      34.098  23.103  23.514  1.00  0.00     0.296 C 
ATOM     83  N   UNL A   1      32.533  23.367  25.403  1.00  0.00    -0.302 N 
ATOM     84  N   UNL A   1      33.153  22.271  22.739  1.00  0.00    -0.343 N 
ATOM     85  C   UNL A   1      31.564  22.532  24.676  1.00  0.00     0.183 C 
ATOM     86  C   UNL A   1      31.774  22.587  23.155  1.00  0.00     0.282 C 
ATOM     87  H   UNL A   1      33.345  21.284  22.913  1.00  0.00     0.346 HD
ATOM     88  H   UNL A   1      33.263  22.464  21.743  1.00  0.00     0.346 HD
BRANCH  83  89
ATOM     89  C   UNL A   1      32.112  23.730  26.661  1.00  0.00     0.318 C 
ATOM     90  O   UNL A   1      31.866  22.902  27.540  1.00  0.00    -0.249 OA
ATOM     91  N   UNL A   1      31.756  25.018  26.904  1.00  0.00    -0.333 N 
ATOM     92  H   UNL A   1      31.432  25.184  27.818  1.00  0.00     0.165 HD
BRANCH  91  93
ATOM     93  C   UNL A   1      31.768  26.185  26.055  1.00  0.00     0.112 C 
ATOM     94  C   UNL A   1      31.523  27.510  26.744  1.00  0.00     0.056 C 
ATOM     95  C   UNL A   1      30.767  26.246  24.914  1.00  0.00     0.185 C 
ATOM     96  C   UNL A   1      31.401  28.402  25.523  1.00  0.00     0.162 C 
ATOM     97  O   UNL A   1      30.647  27.641  24.562  1.00  0.00    -0.379 OA
ENDBRANCH  91  93
ENDBRANCH  83  89
ENDBRANCH  78  81
ENDBRANCH  76  77
ENDBRANCH  75  76
ENDBRANCH   1  75
TORSDOF 16
ENDMDL
