MODEL 1
REMARK VINA RESULT:      -9.9      0.000      0.000
REMARK SMILES Cc1ccc(-c2ncccc2C(=O)NCCCCNC(=O)c2ccc(-c3c4nc(c(-c5c(F)cc(S(=O)(=O)[O-])cc5F)c5ccc([nH]5)c(-c5c(F)cc(S(=O)(=O)[O-])cc5F)c5nc(c(-c6c(F)cc(S(=O)(=O)[O-])cc6F)c6ccc3[nH]6)C=C5)C=C4)cc2)c(C)c1
REMARK SMILES IDX 17 1 16 2 15 3 14 4 12 5 13 6 11 8 6 9 7 10 8 11 10 12 9 13
REMARK SMILES IDX 5 14 1 15 2 16 3 17 90 18 4 19 88 20 89 21 18 22 19 23 20 24
REMARK SMILES IDX 21 26 22 27 23 28 87 29 24 30 86 31 25 32 26 33 27 34 80 35
REMARK SMILES IDX 28 36 85 37 79 38 81 39 29 40 84 41 78 42 77 43 30 45 64 46
REMARK SMILES IDX 43 47 63 48 44 49 47 50 62 51 82 52 45 53 46 54 61 56 83 57
REMARK SMILES IDX 48 58 31 59 32 60 41 61 33 62 34 63 40 64 42 65 35 66 36 67
REMARK SMILES IDX 37 68 38 69 39 70 65 71 66 72 75 73 67 74 68 75 74 76 76 77
REMARK SMILES IDX 69 78 70 79 71 80 72 81 73 82 49 83 50 84 59 85 51 86 52 87
REMARK SMILES IDX 58 88 60 89 53 90 54 91 55 92 56 93 57 94
REMARK H PARENT 14 7 19 25 81 44 47 55
REMARK Flexibility Score: inf
ROOT
ATOM      1  C   UNL A   1      34.406  32.667  29.499  1.00  0.00     0.023 C 
ENDROOT
BRANCH   1   2
ATOM      2  C   UNL A   1      35.844  32.769  30.027  1.00  0.00     0.023 C 
BRANCH   2   3
ATOM      3  C   UNL A   1      36.690  33.843  29.342  1.00  0.00     0.116 C 
BRANCH   3   4
ATOM      4  N   UNL A   1      37.845  34.183  30.148  1.00  0.00    -0.352 N 
ATOM      5  C   UNL A   1      38.096  34.384  31.480  1.00  0.00     0.253 C 
ATOM      6  O   UNL A   1      39.274  34.649  31.713  1.00  0.00    -0.269 OA
ATOM      7  H   UNL A   1      38.654  34.300  29.599  1.00  0.00     0.163 HD
BRANCH   5   8
ATOM      8  C   UNL A   1      37.092  34.269  32.595  1.00  0.00     0.066 A 
ATOM      9  C   UNL A   1      37.076  33.139  33.444  1.00  0.00     0.083 A 
ATOM     10  N   UNL A   1      36.104  32.933  34.392  1.00  0.00    -0.255 NA
ATOM     11  C   UNL A   1      35.147  33.863  34.539  1.00  0.00     0.112 A 
ATOM     12  C   UNL A   1      36.115  35.238  32.855  1.00  0.00     0.018 A 
ATOM     13  C   UNL A   1      35.123  35.032  33.815  1.00  0.00     0.021 A 
BRANCH   9  14
ATOM     14  C   UNL A   1      38.113  32.087  33.494  1.00  0.00     0.004 A 
ATOM     15  C   UNL A   1      40.994  28.851  33.619  1.00  0.00     0.044 C 
ATOM     16  C   UNL A   1      40.002  29.974  33.547  1.00  0.00    -0.051 A 
ATOM     17  C   UNL A   1      38.796  29.819  32.866  1.00  0.00     0.004 A 
ATOM     18  C   UNL A   1      40.280  31.199  34.164  1.00  0.00     0.007 A 
ATOM     19  C   UNL A   1      37.874  30.865  32.830  1.00  0.00     0.011 A 
ATOM     20  C   UNL A   1      39.349  32.256  34.155  1.00  0.00    -0.041 A 
ATOM     21  C   UNL A   1      39.741  33.547  34.821  1.00  0.00     0.045 C 
ENDBRANCH   9  14
ENDBRANCH   5   8
ENDBRANCH   3   4
ENDBRANCH   2   3
ENDBRANCH   1   2
BRANCH   1  22
ATOM     22  C   UNL A   1      34.271  32.344  28.012  1.00  0.00     0.116 C 
BRANCH  22  23
ATOM     23  N   UNL A   1      33.665  31.047  27.757  1.00  0.00    -0.352 N 
ATOM     24  C   UNL A   1      34.261  29.808  27.742  1.00  0.00     0.251 C 
ATOM     25  H   UNL A   1      32.698  31.058  27.571  1.00  0.00     0.163 HD
ATOM     26  O   UNL A   1      33.617  28.822  27.412  1.00  0.00    -0.269 OA
BRANCH  24  27
ATOM     27  C   UNL A   1      35.693  29.690  28.087  1.00  0.00     0.039 A 
ATOM     28  C   UNL A   1      36.041  29.295  29.381  1.00  0.00     0.014 A 
ATOM     29  C   UNL A   1      36.683  29.938  27.133  1.00  0.00     0.014 A 
ATOM     30  C   UNL A   1      37.383  29.086  29.701  1.00  0.00     0.010 A 
ATOM     31  C   UNL A   1      38.015  29.670  27.435  1.00  0.00     0.010 A 
ATOM     32  C   UNL A   1      38.377  29.237  28.719  1.00  0.00    -0.014 A 
BRANCH  32  33
ATOM     33  C   UNL A   1      39.800  28.937  29.015  1.00  0.00     0.031 A 
ATOM     34  C   UNL A   1      40.674  29.979  29.654  1.00  0.00     0.074 A 
ATOM     35  C   UNL A   1      40.316  27.748  28.651  1.00  0.00     0.049 A 
ATOM     36  N   UNL A   1      41.950  29.925  29.938  1.00  0.00    -0.248 NA
ATOM     37  C   UNL A   1      40.034  31.260  29.993  1.00  0.00     0.031 C 
ATOM     38  C   UNL A   1      39.577  26.673  27.986  1.00  0.00     0.029 A 
ATOM     39  N   UNL A   1      41.586  27.245  28.783  1.00  0.00    -0.354 N 
ATOM     40  C   UNL A   1      42.268  31.165  30.478  1.00  0.00     0.074 A 
ATOM     41  C   UNL A   1      41.065  31.968  30.431  1.00  0.00     0.031 C 
ATOM     42  C   UNL A   1      40.398  25.627  27.796  1.00  0.00     0.029 A 
ATOM     43  C   UNL A   1      41.727  25.968  28.294  1.00  0.00     0.049 A 
ATOM     44  H   UNL A   1      42.326  27.751  29.190  1.00  0.00     0.167 HD
ATOM     45  C   UNL A   1      43.449  31.588  30.991  1.00  0.00     0.037 A 
ATOM     46  C   UNL A   1      42.806  25.164  28.253  1.00  0.00     0.037 A 
ATOM     47  C   UNL A   1      44.639  30.779  31.048  1.00  0.00     0.049 A 
ATOM     48  C   UNL A   1      44.110  25.656  28.819  1.00  0.00     0.074 A 
ATOM     49  C   UNL A   1      45.874  31.096  31.586  1.00  0.00     0.029 A 
ATOM     50  N   UNL A   1      44.742  29.488  30.548  1.00  0.00    -0.354 N 
ATOM     51  N   UNL A   1      44.382  26.813  29.373  1.00  0.00    -0.248 NA
ATOM     52  C   UNL A   1      45.250  24.733  28.755  1.00  0.00     0.031 C 
ATOM     53  C   UNL A   1      46.733  30.010  31.380  1.00  0.00     0.029 A 
ATOM     54  C   UNL A   1      46.022  29.001  30.751  1.00  0.00     0.049 A 
ATOM     55  H   UNL A   1      44.011  28.992  30.113  1.00  0.00     0.167 HD
ATOM     56  C   UNL A   1      45.718  26.748  29.750  1.00  0.00     0.074 A 
ATOM     57  C   UNL A   1      46.196  25.435  29.365  1.00  0.00     0.031 C 
ATOM     58  C   UNL A   1      46.480  27.689  30.363  1.00  0.00     0.037 A 
BRANCH  45  59
ATOM     59  C   UNL A   1      43.499  32.992  31.527  1.00  0.00     0.058 A 
ATOM     60  C   UNL A   1      43.726  34.092  30.685  1.00  0.00     0.135 A 
ATOM     61  C   UNL A   1      43.336  33.243  32.899  1.00  0.00     0.135 A 
ATOM     62  F   UNL A   1      43.903  33.909  29.366  1.00  0.00    -0.206 F 
ATOM     63  C   UNL A   1      43.841  35.384  31.187  1.00  0.00     0.059 A 
ATOM     64  C   UNL A   1      43.420  34.531  33.422  1.00  0.00     0.059 A 
ATOM     65  F   UNL A   1      43.114  32.229  33.751  1.00  0.00    -0.206 F 
ATOM     66  C   UNL A   1      43.697  35.592  32.560  1.00  0.00     0.060 A 
BRANCH  66  67
ATOM     67  S   UNL A   1      43.890  37.266  33.206  1.00  0.00     0.124 S 
ATOM     68  O   UNL A   1      42.682  37.405  34.014  1.00  0.00    -0.237 OA
ATOM     69  O   UNL A   1      45.142  37.174  33.951  1.00  0.00    -0.237 OA
ATOM     70  O   UNL A   1      43.941  38.090  32.003  1.00  0.00    -0.744 OA
ENDBRANCH  66  67
ENDBRANCH  45  59
BRANCH  46  71
ATOM     71  C   UNL A   1      42.681  23.789  27.701  1.00  0.00     0.058 A 
ATOM     72  C   UNL A   1      42.488  22.694  28.553  1.00  0.00     0.135 A 
ATOM     73  C   UNL A   1      42.713  23.548  26.319  1.00  0.00     0.135 A 
ATOM     74  F   UNL A   1      42.455  22.876  29.883  1.00  0.00    -0.206 F 
ATOM     75  C   UNL A   1      42.335  21.403  28.058  1.00  0.00     0.059 A 
ATOM     76  C   UNL A   1      42.541  22.269  25.798  1.00  0.00     0.059 A 
ATOM     77  F   UNL A   1      42.880  24.567  25.462  1.00  0.00    -0.206 F 
ATOM     78  C   UNL A   1      42.357  21.202  26.677  1.00  0.00     0.060 A 
BRANCH  78  79
ATOM     79  S   UNL A   1      42.086  19.533  26.043  1.00  0.00     0.124 S 
ATOM     80  O   UNL A   1      40.660  19.561  25.743  1.00  0.00    -0.237 OA
ATOM     81  O   UNL A   1      42.981  19.494  24.890  1.00  0.00    -0.237 OA
ATOM     82  O   UNL A   1      42.482  18.681  27.160  1.00  0.00    -0.744 OA
ENDBRANCH  78  79
ENDBRANCH  46  71
BRANCH  58  83
ATOM     83  C   UNL A   1      47.901  27.322  30.682  1.00  0.00     0.058 A 
ATOM     84  C   UNL A   1      48.240  26.647  31.865  1.00  0.00     0.135 A 
ATOM     85  C   UNL A   1      48.930  27.609  29.771  1.00  0.00     0.135 A 
ATOM     86  F   UNL A   1      47.293  26.356  32.772  1.00  0.00    -0.206 F 
ATOM     87  C   UNL A   1      49.553  26.286  32.144  1.00  0.00     0.059 A 
ATOM     88  C   UNL A   1      50.248  27.236  30.019  1.00  0.00     0.059 A 
ATOM     89  F   UNL A   1      48.657  28.246  28.621  1.00  0.00    -0.206 F 
ATOM     90  C   UNL A   1      50.552  26.585  31.214  1.00  0.00     0.060 A 
BRANCH  90  91
ATOM     91  S   UNL A   1      52.248  26.081  31.569  1.00  0.00     0.124 S 
ATOM     92  O   UNL A   1      52.858  26.152  30.246  1.00  0.00    -0.237 OA
ATOM     93  O   UNL A   1      52.684  27.095  32.524  1.00  0.00    -0.237 OA
ATOM     94  O   UNL A   1      52.094  24.737  32.120  1.00  0.00    -0.744 OA
ENDBRANCH  90  91
ENDBRANCH  58  83
ENDBRANCH  32  33
ENDBRANCH  24  27
ENDBRANCH  22  23
ENDBRANCH   1  22
TORSDOF 15
ENDMDL
MODEL 2
REMARK VINA RESULT:      -9.9      4.961     11.911
REMARK SMILES Cc1ccc(-c2ncccc2C(=O)NCCCCNC(=O)c2ccc(-c3c4nc(c(-c5c(F)cc(S(=O)(=O)[O-])cc5F)c5ccc([nH]5)c(-c5c(F)cc(S(=O)(=O)[O-])cc5F)c5nc(c(-c6c(F)cc(S(=O)(=O)[O-])cc6F)c6ccc3[nH]6)C=C5)C=C4)cc2)c(C)c1
REMARK SMILES IDX 17 1 16 2 15 3 14 4 12 5 13 6 11 8 6 9 7 10 8 11 10 12 9 13
REMARK SMILES IDX 5 14 1 15 2 16 3 17 90 18 4 19 88 20 89 21 18 22 19 23 20 24
REMARK SMILES IDX 21 26 22 27 23 28 87 29 24 30 86 31 25 32 26 33 27 34 80 35
REMARK SMILES IDX 28 36 85 37 79 38 81 39 29 40 84 41 78 42 77 43 30 45 64 46
REMARK SMILES IDX 43 47 63 48 44 49 47 50 62 51 82 52 45 53 46 54 61 56 83 57
REMARK SMILES IDX 48 58 31 59 32 60 41 61 33 62 34 63 40 64 42 65 35 66 36 67
REMARK SMILES IDX 37 68 38 69 39 70 65 71 66 72 75 73 67 74 68 75 74 76 76 77
REMARK SMILES IDX 69 78 70 79 71 80 72 81 73 82 49 83 50 84 59 85 51 86 52 87
REMARK SMILES IDX 58 88 60 89 53 90 54 91 55 92 56 93 57 94
REMARK H PARENT 14 7 19 25 81 44 47 55
REMARK Flexibility Score: inf
ROOT
ATOM      1  C   UNL A   1      40.164  22.354  27.463  1.00  0.00     0.023 C 
ENDROOT
BRANCH   1   2
ATOM      2  C   UNL A   1      39.372  22.149  26.163  1.00  0.00     0.023 C 
BRANCH   2   3
ATOM      3  C   UNL A   1      38.133  23.035  26.037  1.00  0.00     0.116 C 
BRANCH   3   4
ATOM      4  N   UNL A   1      37.700  23.126  24.658  1.00  0.00    -0.352 N 
ATOM      5  C   UNL A   1      36.580  22.777  23.948  1.00  0.00     0.253 C 
ATOM      6  O   UNL A   1      36.654  23.073  22.756  1.00  0.00    -0.269 OA
ATOM      7  H   UNL A   1      38.383  23.545  24.086  1.00  0.00     0.163 HD
BRANCH   5   8
ATOM      8  C   UNL A   1      35.343  22.134  24.512  1.00  0.00     0.066 A 
ATOM      9  C   UNL A   1      34.206  22.909  24.841  1.00  0.00     0.083 A 
ATOM     10  N   UNL A   1      33.105  22.385  25.471  1.00  0.00    -0.255 NA
ATOM     11  C   UNL A   1      33.094  21.074  25.756  1.00  0.00     0.112 A 
ATOM     12  C   UNL A   1      35.234  20.760  24.762  1.00  0.00     0.018 A 
ATOM     13  C   UNL A   1      34.117  20.224  25.406  1.00  0.00     0.021 A 
BRANCH   9  14
ATOM     14  C   UNL A   1      34.007  24.331  24.493  1.00  0.00     0.004 A 
ATOM     15  C   UNL A   1      33.390  28.545  23.689  1.00  0.00     0.044 C 
ATOM     16  C   UNL A   1      33.632  27.092  23.967  1.00  0.00    -0.051 A 
ATOM     17  C   UNL A   1      34.121  26.673  25.203  1.00  0.00     0.004 A 
ATOM     18  C   UNL A   1      33.372  26.133  22.981  1.00  0.00     0.007 A 
ATOM     19  C   UNL A   1      34.318  25.316  25.455  1.00  0.00     0.011 A 
ATOM     20  C   UNL A   1      33.545  24.757  23.229  1.00  0.00    -0.041 A 
ATOM     21  C   UNL A   1      33.266  23.798  22.103  1.00  0.00     0.045 C 
ENDBRANCH   9  14
ENDBRANCH   5   8
ENDBRANCH   3   4
ENDBRANCH   2   3
ENDBRANCH   1   2
BRANCH   1  22
ATOM     22  C   UNL A   1      41.521  23.037  27.306  1.00  0.00     0.116 C 
BRANCH  22  23
ATOM     23  N   UNL A   1      41.610  23.876  26.121  1.00  0.00    -0.352 N 
ATOM     24  C   UNL A   1      41.536  25.245  26.029  1.00  0.00     0.251 C 
ATOM     25  H   UNL A   1      41.741  23.397  25.270  1.00  0.00     0.163 HD
ATOM     26  O   UNL A   1      41.533  25.787  24.932  1.00  0.00    -0.269 OA
BRANCH  24  27
ATOM     27  C   UNL A   1      41.416  26.048  27.264  1.00  0.00     0.039 A 
ATOM     28  C   UNL A   1      42.464  26.905  27.611  1.00  0.00     0.014 A 
ATOM     29  C   UNL A   1      40.269  25.976  28.057  1.00  0.00     0.014 A 
ATOM     30  C   UNL A   1      42.333  27.741  28.720  1.00  0.00     0.010 A 
ATOM     31  C   UNL A   1      40.114  26.854  29.127  1.00  0.00     0.010 A 
ATOM     32  C   UNL A   1      41.142  27.746  29.465  1.00  0.00    -0.014 A 
BRANCH  32  33
ATOM     33  C   UNL A   1      40.949  28.688  30.596  1.00  0.00     0.031 A 
ATOM     34  C   UNL A   1      41.815  28.585  31.821  1.00  0.00     0.074 A 
ATOM     35  C   UNL A   1      39.953  29.593  30.543  1.00  0.00     0.049 A 
ATOM     36  N   UNL A   1      41.762  29.276  32.929  1.00  0.00    -0.248 NA
ATOM     37  C   UNL A   1      42.859  27.549  31.804  1.00  0.00     0.031 C 
ATOM     38  C   UNL A   1      39.021  29.761  29.426  1.00  0.00     0.029 A 
ATOM     39  N   UNL A   1      39.556  30.540  31.453  1.00  0.00    -0.354 N 
ATOM     40  C   UNL A   1      42.757  28.754  33.747  1.00  0.00     0.074 A 
ATOM     41  C   UNL A   1      43.359  27.652  33.027  1.00  0.00     0.031 C 
ATOM     42  C   UNL A   1      38.180  30.771  29.703  1.00  0.00     0.029 A 
ATOM     43  C   UNL A   1      38.490  31.299  31.028  1.00  0.00     0.049 A 
ATOM     44  H   UNL A   1      39.992  30.666  32.326  1.00  0.00     0.167 HD
ATOM     45  C   UNL A   1      43.151  29.170  34.975  1.00  0.00     0.037 A 
ATOM     46  C   UNL A   1      37.838  32.306  31.639  1.00  0.00     0.037 A 
ATOM     47  C   UNL A   1      42.557  30.277  35.678  1.00  0.00     0.049 A 
ATOM     48  C   UNL A   1      38.285  32.747  33.006  1.00  0.00     0.074 A 
ATOM     49  C   UNL A   1      42.909  30.807  36.907  1.00  0.00     0.029 A 
ATOM     50  N   UNL A   1      41.483  31.025  35.215  1.00  0.00    -0.354 N 
ATOM     51  N   UNL A   1      39.261  32.276  33.744  1.00  0.00    -0.248 NA
ATOM     52  C   UNL A   1      37.544  33.856  33.620  1.00  0.00     0.031 C 
ATOM     53  C   UNL A   1      42.026  31.854  37.202  1.00  0.00     0.029 A 
ATOM     54  C   UNL A   1      41.150  32.002  36.138  1.00  0.00     0.049 A 
ATOM     55  H   UNL A   1      41.026  30.881  34.355  1.00  0.00     0.167 HD
ATOM     56  C   UNL A   1      39.269  33.049  34.900  1.00  0.00     0.074 A 
ATOM     57  C   UNL A   1      38.204  34.022  34.758  1.00  0.00     0.031 C 
ATOM     58  C   UNL A   1      40.087  32.964  35.979  1.00  0.00     0.037 A 
BRANCH  45  59
ATOM     59  C   UNL A   1      44.278  28.416  35.625  1.00  0.00     0.058 A 
ATOM     60  C   UNL A   1      44.036  27.354  36.509  1.00  0.00     0.135 A 
ATOM     61  C   UNL A   1      45.614  28.769  35.377  1.00  0.00     0.135 A 
ATOM     62  F   UNL A   1      42.777  26.983  36.794  1.00  0.00    -0.206 F 
ATOM     63  C   UNL A   1      45.075  26.699  37.164  1.00  0.00     0.059 A 
ATOM     64  C   UNL A   1      46.671  28.111  35.999  1.00  0.00     0.059 A 
ATOM     65  F   UNL A   1      45.904  29.776  34.537  1.00  0.00    -0.206 F 
ATOM     66  C   UNL A   1      46.390  27.094  36.911  1.00  0.00     0.060 A 
BRANCH  66  67
ATOM     67  S   UNL A   1      47.726  26.267  37.798  1.00  0.00     0.124 S 
ATOM     68  O   UNL A   1      48.073  25.197  36.867  1.00  0.00    -0.237 OA
ATOM     69  O   UNL A   1      48.717  27.329  37.938  1.00  0.00    -0.237 OA
ATOM     70  O   UNL A   1      47.093  25.838  39.042  1.00  0.00    -0.744 OA
ENDBRANCH  66  67
ENDBRANCH  45  59
BRANCH  46  71
ATOM     71  C   UNL A   1      36.728  33.000  30.935  1.00  0.00     0.058 A 
ATOM     72  C   UNL A   1      35.396  32.776  31.312  1.00  0.00     0.135 A 
ATOM     73  C   UNL A   1      36.973  33.921  29.907  1.00  0.00     0.135 A 
ATOM     74  F   UNL A   1      35.113  31.899  32.288  1.00  0.00    -0.206 F 
ATOM     75  C   UNL A   1      34.342  33.438  30.691  1.00  0.00     0.059 A 
ATOM     76  C   UNL A   1      35.937  34.612  29.284  1.00  0.00     0.059 A 
ATOM     77  F   UNL A   1      38.232  34.181  29.521  1.00  0.00    -0.206 F 
ATOM     78  C   UNL A   1      34.624  34.359  29.681  1.00  0.00     0.060 A 
BRANCH  78  79
ATOM     79  S   UNL A   1      33.253  35.266  28.931  1.00  0.00     0.124 S 
ATOM     80  O   UNL A   1      32.488  35.666  30.105  1.00  0.00    -0.237 OA
ATOM     81  O   UNL A   1      33.946  36.338  28.224  1.00  0.00    -0.237 OA
ATOM     82  O   UNL A   1      32.621  34.268  28.073  1.00  0.00    -0.744 OA
ENDBRANCH  78  79
ENDBRANCH  46  71
BRANCH  58  83
ATOM     83  C   UNL A   1      39.883  33.968  37.078  1.00  0.00     0.058 A 
ATOM     84  C   UNL A   1      40.493  35.231  37.045  1.00  0.00     0.135 A 
ATOM     85  C   UNL A   1      39.028  33.678  38.153  1.00  0.00     0.135 A 
ATOM     86  F   UNL A   1      41.325  35.554  36.043  1.00  0.00    -0.206 F 
ATOM     87  C   UNL A   1      40.279  36.166  38.052  1.00  0.00     0.059 A 
ATOM     88  C   UNL A   1      38.781  34.607  39.159  1.00  0.00     0.059 A 
ATOM     89  F   UNL A   1      38.413  32.486  38.226  1.00  0.00    -0.206 F 
ATOM     90  C   UNL A   1      39.420  35.845  39.106  1.00  0.00     0.060 A 
BRANCH  90  91
ATOM     91  S   UNL A   1      39.122  37.079  40.389  1.00  0.00     0.124 S 
ATOM     92  O   UNL A   1      38.479  36.276  41.424  1.00  0.00    -0.237 OA
ATOM     93  O   UNL A   1      40.471  37.546  40.695  1.00  0.00    -0.237 OA
ATOM     94  O   UNL A   1      38.264  38.057  39.726  1.00  0.00    -0.744 OA
ENDBRANCH  90  91
ENDBRANCH  58  83
ENDBRANCH  32  33
ENDBRANCH  24  27
ENDBRANCH  22  23
ENDBRANCH   1  22
TORSDOF 15
ENDMDL
MODEL 3
REMARK VINA RESULT:      -9.7      3.791      6.936
REMARK SMILES Cc1ccc(-c2ncccc2C(=O)NCCCCNC(=O)c2ccc(-c3c4nc(c(-c5c(F)cc(S(=O)(=O)[O-])cc5F)c5ccc([nH]5)c(-c5c(F)cc(S(=O)(=O)[O-])cc5F)c5nc(c(-c6c(F)cc(S(=O)(=O)[O-])cc6F)c6ccc3[nH]6)C=C5)C=C4)cc2)c(C)c1
REMARK SMILES IDX 17 1 16 2 15 3 14 4 12 5 13 6 11 8 6 9 7 10 8 11 10 12 9 13
REMARK SMILES IDX 5 14 1 15 2 16 3 17 90 18 4 19 88 20 89 21 18 22 19 23 20 24
REMARK SMILES IDX 21 26 22 27 23 28 87 29 24 30 86 31 25 32 26 33 27 34 80 35
REMARK SMILES IDX 28 36 85 37 79 38 81 39 29 40 84 41 78 42 77 43 30 45 64 46
REMARK SMILES IDX 43 47 63 48 44 49 47 50 62 51 82 52 45 53 46 54 61 56 83 57
REMARK SMILES IDX 48 58 31 59 32 60 41 61 33 62 34 63 40 64 42 65 35 66 36 67
REMARK SMILES IDX 37 68 38 69 39 70 65 71 66 72 75 73 67 74 68 75 74 76 76 77
REMARK SMILES IDX 69 78 70 79 71 80 72 81 73 82 49 83 50 84 59 85 51 86 52 87
REMARK SMILES IDX 58 88 60 89 53 90 54 91 55 92 56 93 57 94
REMARK H PARENT 14 7 19 25 81 44 47 55
REMARK Flexibility Score: inf
ROOT
ATOM      1  C   UNL A   1      34.432  29.630  27.424  1.00  0.00     0.023 C 
ENDROOT
BRANCH   1   2
ATOM      2  C   UNL A   1      33.283  30.603  27.122  1.00  0.00     0.023 C 
BRANCH   2   3
ATOM      3  C   UNL A   1      32.244  30.063  26.138  1.00  0.00     0.116 C 
BRANCH   3   4
ATOM      4  N   UNL A   1      31.580  28.894  26.678  1.00  0.00    -0.352 N 
ATOM      5  C   UNL A   1      31.580  27.548  26.417  1.00  0.00     0.253 C 
ATOM      6  O   UNL A   1      30.844  26.912  27.169  1.00  0.00    -0.269 OA
ATOM      7  H   UNL A   1      30.975  29.125  27.419  1.00  0.00     0.163 HD
BRANCH   5   8
ATOM      8  C   UNL A   1      32.400  26.854  25.364  1.00  0.00     0.066 A 
ATOM      9  C   UNL A   1      32.012  26.881  24.004  1.00  0.00     0.083 A 
ATOM     10  N   UNL A   1      32.658  26.161  23.030  1.00  0.00    -0.255 NA
ATOM     11  C   UNL A   1      33.725  25.426  23.380  1.00  0.00     0.112 A 
ATOM     12  C   UNL A   1      33.567  26.134  25.648  1.00  0.00     0.018 A 
ATOM     13  C   UNL A   1      34.226  25.397  24.661  1.00  0.00     0.021 A 
BRANCH   9  14
ATOM     14  C   UNL A   1      30.941  27.725  23.434  1.00  0.00     0.004 A 
ATOM     15  C   UNL A   1      27.932  30.374  21.785  1.00  0.00     0.044 C 
ATOM     16  C   UNL A   1      28.981  29.450  22.328  1.00  0.00    -0.051 A 
ATOM     17  C   UNL A   1      30.335  29.755  22.204  1.00  0.00     0.004 A 
ATOM     18  C   UNL A   1      28.610  28.261  22.969  1.00  0.00     0.007 A 
ATOM     19  C   UNL A   1      31.297  28.898  22.737  1.00  0.00     0.011 A 
ATOM     20  C   UNL A   1      29.571  27.398  23.531  1.00  0.00    -0.041 A 
ATOM     21  C   UNL A   1      29.084  26.129  24.178  1.00  0.00     0.045 C 
ENDBRANCH   9  14
ENDBRANCH   5   8
ENDBRANCH   3   4
ENDBRANCH   2   3
ENDBRANCH   1   2
BRANCH   1  22
ATOM     22  C   UNL A   1      35.647  30.241  28.118  1.00  0.00     0.116 C 
BRANCH  22  23
ATOM     23  N   UNL A   1      35.485  30.367  29.558  1.00  0.00    -0.352 N 
ATOM     24  C   UNL A   1      36.432  30.235  30.545  1.00  0.00     0.251 C 
ATOM     25  H   UNL A   1      34.573  30.576  29.867  1.00  0.00     0.163 HD
ATOM     26  O   UNL A   1      36.102  30.279  31.722  1.00  0.00    -0.269 OA
BRANCH  24  27
ATOM     27  C   UNL A   1      37.841  29.999  30.168  1.00  0.00     0.039 A 
ATOM     28  C   UNL A   1      38.696  29.410  31.104  1.00  0.00     0.014 A 
ATOM     29  C   UNL A   1      38.308  30.328  28.893  1.00  0.00     0.014 A 
ATOM     30  C   UNL A   1      40.004  29.091  30.739  1.00  0.00     0.010 A 
ATOM     31  C   UNL A   1      39.593  29.954  28.512  1.00  0.00     0.010 A 
ATOM     32  C   UNL A   1      40.451  29.329  29.428  1.00  0.00    -0.014 A 
BRANCH  32  33
ATOM     33  C   UNL A   1      41.810  28.919  28.995  1.00  0.00     0.031 A 
ATOM     34  C   UNL A   1      42.934  29.917  28.990  1.00  0.00     0.074 A 
ATOM     35  C   UNL A   1      42.014  27.665  28.548  1.00  0.00     0.049 A 
ATOM     36  N   UNL A   1      44.171  29.765  28.595  1.00  0.00    -0.248 NA
ATOM     37  C   UNL A   1      42.615  31.272  29.468  1.00  0.00     0.031 C 
ATOM     38  C   UNL A   1      40.992  26.620  28.466  1.00  0.00     0.029 A 
ATOM     39  N   UNL A   1      43.149  27.058  28.074  1.00  0.00    -0.354 N 
ATOM     40  C   UNL A   1      44.777  31.005  28.766  1.00  0.00     0.074 A 
ATOM     41  C   UNL A   1      43.755  31.910  29.248  1.00  0.00     0.031 C 
ATOM     42  C   UNL A   1      41.553  25.492  28.000  1.00  0.00     0.029 A 
ATOM     43  C   UNL A   1      42.963  25.742  27.719  1.00  0.00     0.049 A 
ATOM     44  H   UNL A   1      44.015  27.519  27.995  1.00  0.00     0.167 HD
ATOM     45  C   UNL A   1      46.071  31.351  28.564  1.00  0.00     0.037 A 
ATOM     46  C   UNL A   1      43.832  24.841  27.224  1.00  0.00     0.037 A 
ATOM     47  C   UNL A   1      47.085  30.441  28.098  1.00  0.00     0.049 A 
ATOM     48  C   UNL A   1      45.262  25.248  26.998  1.00  0.00     0.074 A 
ATOM     49  C   UNL A   1      48.434  30.679  27.901  1.00  0.00     0.029 A 
ATOM     50  N   UNL A   1      46.860  29.115  27.754  1.00  0.00    -0.354 N 
ATOM     51  N   UNL A   1      45.831  26.410  27.213  1.00  0.00    -0.248 NA
ATOM     52  C   UNL A   1      46.168  24.222  26.466  1.00  0.00     0.031 C 
ATOM     53  C   UNL A   1      49.018  29.506  27.406  1.00  0.00     0.029 A 
ATOM     54  C   UNL A   1      48.040  28.526  27.333  1.00  0.00     0.049 A 
ATOM     55  H   UNL A   1      45.988  28.660  27.803  1.00  0.00     0.167 HD
ATOM     56  C   UNL A   1      47.167  26.248  26.868  1.00  0.00     0.074 A 
ATOM     57  C   UNL A   1      47.322  24.874  26.436  1.00  0.00     0.031 C 
ATOM     58  C   UNL A   1      48.176  27.154  26.909  1.00  0.00     0.037 A 
BRANCH  45  59
ATOM     59  C   UNL A   1      46.450  32.778  28.849  1.00  0.00     0.058 A 
ATOM     60  C   UNL A   1      46.408  33.763  27.849  1.00  0.00     0.135 A 
ATOM     61  C   UNL A   1      46.879  33.164  30.129  1.00  0.00     0.135 A 
ATOM     62  F   UNL A   1      46.019  33.445  26.603  1.00  0.00    -0.206 F 
ATOM     63  C   UNL A   1      46.823  35.067  28.093  1.00  0.00     0.059 A 
ATOM     64  C   UNL A   1      47.274  34.471  30.404  1.00  0.00     0.059 A 
ATOM     65  F   UNL A   1      46.937  32.264  31.124  1.00  0.00    -0.206 F 
ATOM     66  C   UNL A   1      47.266  35.409  29.372  1.00  0.00     0.060 A 
BRANCH  66  67
ATOM     67  S   UNL A   1      47.843  37.094  29.666  1.00  0.00     0.124 S 
ATOM     68  O   UNL A   1      48.987  37.169  28.762  1.00  0.00    -0.237 OA
ATOM     69  O   UNL A   1      46.684  37.895  29.285  1.00  0.00    -0.237 OA
ATOM     70  O   UNL A   1      48.163  37.100  31.089  1.00  0.00    -0.744 OA
ENDBRANCH  66  67
ENDBRANCH  45  59
BRANCH  46  71
ATOM     71  C   UNL A   1      43.381  23.450  26.960  1.00  0.00     0.058 A 
ATOM     72  C   UNL A   1      43.148  23.013  25.649  1.00  0.00     0.135 A 
ATOM     73  C   UNL A   1      43.212  22.523  28.000  1.00  0.00     0.135 A 
ATOM     74  F   UNL A   1      43.292  23.866  24.622  1.00  0.00    -0.206 F 
ATOM     75  C   UNL A   1      42.757  21.707  25.374  1.00  0.00     0.059 A 
ATOM     76  C   UNL A   1      42.842  21.205  27.750  1.00  0.00     0.059 A 
ATOM     77  F   UNL A   1      43.438  22.889  29.271  1.00  0.00    -0.206 F 
ATOM     78  C   UNL A   1      42.613  20.808  26.432  1.00  0.00     0.060 A 
BRANCH  78  79
ATOM     79  S   UNL A   1      42.175  19.096  26.058  1.00  0.00     0.124 S 
ATOM     80  O   UNL A   1      40.745  19.207  25.799  1.00  0.00    -0.237 OA
ATOM     81  O   UNL A   1      43.014  18.812  24.897  1.00  0.00    -0.237 OA
ATOM     82  O   UNL A   1      42.545  18.382  27.276  1.00  0.00    -0.744 OA
ENDBRANCH  78  79
ENDBRANCH  46  71
BRANCH  58  83
ATOM     83  C   UNL A   1      49.544  26.680  26.504  1.00  0.00     0.058 A 
ATOM     84  C   UNL A   1      50.381  25.997  27.398  1.00  0.00     0.135 A 
ATOM     85  C   UNL A   1      50.000  26.872  25.190  1.00  0.00     0.135 A 
ATOM     86  F   UNL A   1      49.994  25.795  28.668  1.00  0.00    -0.206 F 
ATOM     87  C   UNL A   1      51.635  25.537  27.011  1.00  0.00     0.059 A 
ATOM     88  C   UNL A   1      51.241  26.400  24.774  1.00  0.00     0.059 A 
ATOM     89  F   UNL A   1      49.233  27.512  24.294  1.00  0.00    -0.206 F 
ATOM     90  C   UNL A   1      52.057  25.743  25.695  1.00  0.00     0.060 A 
BRANCH  90  91
ATOM     91  S   UNL A   1      53.672  25.111  25.193  1.00  0.00     0.124 S 
ATOM     92  O   UNL A   1      53.481  23.672  25.336  1.00  0.00    -0.237 OA
ATOM     93  O   UNL A   1      53.789  25.603  23.824  1.00  0.00    -0.237 OA
ATOM     94  O   UNL A   1      54.588  25.723  26.152  1.00  0.00    -0.744 OA
ENDBRANCH  90  91
ENDBRANCH  58  83
ENDBRANCH  32  33
ENDBRANCH  24  27
ENDBRANCH  22  23
ENDBRANCH   1  22
TORSDOF 15
ENDMDL
