MODEL 1
REMARK VINA RESULT:     -12.5      0.000      0.000
REMARK SMILES O=C(NCCCCNC(=O)[C@@H](NC(=O)c1ccc(C[NH+]2CCCCC2)cc1)c1ccccc1F)c1ccc(-c2c3nc(c(-c4c(F)cc(S(=O)(=O)[O-])cc4F)c4ccc([nH]4)c(-c4c(F)cc(S(=O)(=O)[O-])cc4F)c4nc(c(-c5c(F)cc(S(=O)(=O)[O-])cc5F)c5ccc2[nH]5)C=C4)C=C3)cc1
REMARK SMILES IDX 6 1 5 2 4 3 3 4 1 5 2 6 35 8 36 9 100 10 37 11 99 12 38 13
REMARK SMILES IDX 39 14 40 15 93 16 41 17 98 18 92 19 94 20 42 21 97 22 91 23
REMARK SMILES IDX 90 24 43 26 77 27 56 28 76 29 57 30 60 31 75 32 95 33 58 34
REMARK SMILES IDX 59 35 74 37 96 38 61 39 44 40 45 41 54 42 46 43 47 44 53 45
REMARK SMILES IDX 55 46 48 47 49 48 50 49 51 50 52 51 78 52 79 53 88 54 80 55
REMARK SMILES IDX 81 56 87 57 89 58 82 59 83 60 84 61 85 62 86 63 62 64 63 65
REMARK SMILES IDX 72 66 64 67 65 68 71 69 73 70 66 71 67 72 68 73 69 74 70 75
REMARK SMILES IDX 7 76 8 77 9 78 10 80 11 81 12 82 13 83 14 85 15 86 16 87
REMARK SMILES IDX 27 88 17 89 26 90 18 91 19 92 20 93 21 94 25 95 22 97 24 98
REMARK SMILES IDX 23 99 28 100 29 101 33 102 30 103 32 104 34 105 31 106
REMARK H PARENT 3 7 94 25 60 36 8 79 12 84 20 96
REMARK Flexibility Score: inf
ROOT
ATOM      1  C   UNL A   1      34.937  29.059  27.239  1.00  0.00     0.023 C 
ENDROOT
BRANCH   1   2
ATOM      2  C   UNL A   1      34.858  30.579  27.345  1.00  0.00     0.023 C 
BRANCH   2   3
ATOM      3  C   UNL A   1      35.821  31.215  28.344  1.00  0.00     0.116 C 
BRANCH   3   4
ATOM      4  N   UNL A   1      35.561  30.824  29.724  1.00  0.00    -0.352 N 
ATOM      5  O   UNL A   1      36.003  29.851  31.716  1.00  0.00    -0.269 OA
ATOM      6  C   UNL A   1      36.413  30.228  30.623  1.00  0.00     0.251 C 
ATOM      7  H   UNL A   1      34.654  31.011  30.057  1.00  0.00     0.163 HD
BRANCH   6   8
ATOM      8  C   UNL A   1      37.823  30.022  30.236  1.00  0.00     0.039 A 
ATOM      9  C   UNL A   1      38.174  29.983  28.885  1.00  0.00     0.014 A 
ATOM     10  C   UNL A   1      38.779  29.797  31.229  1.00  0.00     0.014 A 
ATOM     11  C   UNL A   1      39.446  29.562  28.522  1.00  0.00     0.010 A 
ATOM     12  C   UNL A   1      40.083  29.461  30.859  1.00  0.00     0.010 A 
ATOM     13  C   UNL A   1      40.416  29.306  29.504  1.00  0.00    -0.014 A 
BRANCH  13  14
ATOM     14  C   UNL A   1      41.793  28.938  29.092  1.00  0.00     0.031 A 
ATOM     15  C   UNL A   1      42.902  29.951  29.083  1.00  0.00     0.074 A 
ATOM     16  C   UNL A   1      42.029  27.667  28.714  1.00  0.00     0.049 A 
ATOM     17  N   UNL A   1      44.147  29.804  28.707  1.00  0.00    -0.248 NA
ATOM     18  C   UNL A   1      42.572  31.308  29.546  1.00  0.00     0.031 C 
ATOM     19  C   UNL A   1      41.020  26.605  28.670  1.00  0.00     0.029 A 
ATOM     20  N   UNL A   1      43.178  27.053  28.294  1.00  0.00    -0.354 N 
ATOM     21  C   UNL A   1      44.743  31.051  28.859  1.00  0.00     0.074 A 
ATOM     22  C   UNL A   1      43.717  31.949  29.349  1.00  0.00     0.031 C 
ATOM     23  C   UNL A   1      41.598  25.467  28.262  1.00  0.00     0.029 A 
ATOM     24  C   UNL A   1      42.998  25.733  27.953  1.00  0.00     0.049 A 
ATOM     25  H   UNL A   1      44.048  27.511  28.240  1.00  0.00     0.167 HD
ATOM     26  C   UNL A   1      46.027  31.408  28.614  1.00  0.00     0.037 A 
ATOM     27  C   UNL A   1      43.850  24.843  27.416  1.00  0.00     0.037 A 
ATOM     28  C   UNL A   1      47.039  30.497  28.140  1.00  0.00     0.049 A 
ATOM     29  C   UNL A   1      45.263  25.261  27.142  1.00  0.00     0.074 A 
ATOM     30  C   UNL A   1      48.382  30.745  27.910  1.00  0.00     0.029 A 
ATOM     31  N   UNL A   1      46.818  29.167  27.809  1.00  0.00    -0.354 N 
ATOM     32  N   UNL A   1      45.822  26.432  27.335  1.00  0.00    -0.248 NA
ATOM     33  C   UNL A   1      46.161  24.245  26.579  1.00  0.00     0.031 C 
ATOM     34  C   UNL A   1      48.961  29.579  27.396  1.00  0.00     0.029 A 
ATOM     35  C   UNL A   1      47.992  28.589  27.351  1.00  0.00     0.049 A 
ATOM     36  H   UNL A   1      45.954  28.702  27.888  1.00  0.00     0.167 HD
ATOM     37  C   UNL A   1      47.142  26.293  26.925  1.00  0.00     0.074 A 
ATOM     38  C   UNL A   1      47.301  24.920  26.488  1.00  0.00     0.031 C 
ATOM     39  C   UNL A   1      48.131  27.220  26.916  1.00  0.00     0.037 A 
BRANCH  26  40
ATOM     40  C   UNL A   1      46.403  32.850  28.823  1.00  0.00     0.058 A 
ATOM     41  C   UNL A   1      46.303  33.802  27.795  1.00  0.00     0.135 A 
ATOM     42  C   UNL A   1      46.859  33.290  30.077  1.00  0.00     0.135 A 
ATOM     43  F   UNL A   1      45.883  33.437  26.574  1.00  0.00    -0.206 F 
ATOM     44  C   UNL A   1      46.681  35.127  27.992  1.00  0.00     0.059 A 
ATOM     45  C   UNL A   1      47.218  34.616  30.303  1.00  0.00     0.059 A 
ATOM     46  F   UNL A   1      46.968  32.425  31.097  1.00  0.00    -0.206 F 
ATOM     47  C   UNL A   1      47.147  35.523  29.247  1.00  0.00     0.060 A 
BRANCH  47  48
ATOM     48  S   UNL A   1      47.670  37.236  29.477  1.00  0.00     0.124 S 
ATOM     49  O   UNL A   1      46.465  37.960  29.086  1.00  0.00    -0.237 OA
ATOM     50  O   UNL A   1      47.998  37.276  30.899  1.00  0.00    -0.237 OA
ATOM     51  O   UNL A   1      48.805  37.369  28.571  1.00  0.00    -0.744 OA
ENDBRANCH  47  48
ENDBRANCH  26  40
BRANCH  27  52
ATOM     52  C   UNL A   1      43.354  23.482  27.092  1.00  0.00     0.058 A 
ATOM     53  C   UNL A   1      43.145  23.082  25.766  1.00  0.00     0.135 A 
ATOM     54  C   UNL A   1      43.176  22.524  28.105  1.00  0.00     0.135 A 
ATOM     55  F   UNL A   1      43.303  23.962  24.766  1.00  0.00    -0.206 F 
ATOM     56  C   UNL A   1      42.786  21.775  25.452  1.00  0.00     0.059 A 
ATOM     57  C   UNL A   1      42.842  21.207  27.813  1.00  0.00     0.059 A 
ATOM     58  F   UNL A   1      43.387  22.856  29.389  1.00  0.00    -0.206 F 
ATOM     59  C   UNL A   1      42.649  20.841  26.482  1.00  0.00     0.060 A 
BRANCH  59  60
ATOM     60  S   UNL A   1      42.285  19.125  26.057  1.00  0.00     0.124 S 
ATOM     61  O   UNL A   1      42.659  18.433  27.285  1.00  0.00    -0.237 OA
ATOM     62  O   UNL A   1      40.856  19.178  25.763  1.00  0.00    -0.237 OA
ATOM     63  O   UNL A   1      43.143  18.875  24.903  1.00  0.00    -0.744 OA
ENDBRANCH  59  60
ENDBRANCH  27  52
BRANCH  39  64
ATOM     64  C   UNL A   1      49.483  26.780  26.430  1.00  0.00     0.058 A 
ATOM     65  C   UNL A   1      50.404  26.159  27.286  1.00  0.00     0.135 A 
ATOM     66  C   UNL A   1      49.830  26.920  25.077  1.00  0.00     0.135 A 
ATOM     67  F   UNL A   1      50.124  26.013  28.590  1.00  0.00    -0.206 F 
ATOM     68  C   UNL A   1      51.630  25.696  26.818  1.00  0.00     0.059 A 
ATOM     69  C   UNL A   1      51.040  26.445  24.583  1.00  0.00     0.059 A 
ATOM     70  F   UNL A   1      48.980  27.505  24.217  1.00  0.00    -0.206 F 
ATOM     71  C   UNL A   1      51.935  25.839  25.463  1.00  0.00     0.060 A 
BRANCH  71  72
ATOM     72  S   UNL A   1      53.503  25.180  24.856  1.00  0.00     0.124 S 
ATOM     73  O   UNL A   1      54.467  25.939  25.646  1.00  0.00    -0.237 OA
ATOM     74  O   UNL A   1      53.394  23.761  25.181  1.00  0.00    -0.237 OA
ATOM     75  O   UNL A   1      53.474  25.494  23.430  1.00  0.00    -0.744 OA
ENDBRANCH  71  72
ENDBRANCH  39  64
ENDBRANCH  13  14
ENDBRANCH   6   8
ENDBRANCH   3   4
ENDBRANCH   2   3
ENDBRANCH   1   2
BRANCH   1  76
ATOM     76  C   UNL A   1      33.904  28.444  26.310  1.00  0.00     0.116 C 
BRANCH  76  77
ATOM     77  N   UNL A   1      32.550  28.477  26.821  1.00  0.00    -0.354 N 
ATOM     78  C   UNL A   1      31.634  27.460  26.906  1.00  0.00     0.247 C 
ATOM     79  H   UNL A   1      32.244  29.353  27.154  1.00  0.00     0.163 HD
ATOM     80  O   UNL A   1      30.675  27.627  27.666  1.00  0.00    -0.272 OA
BRANCH  78  81
ATOM     81  C   UNL A   1      31.836  26.108  26.159  1.00  0.00     0.205 C 
BRANCH  81  82
ATOM     82  N   UNL A   1      30.900  25.096  26.695  1.00  0.00    -0.336 N 
ATOM     83  C   UNL A   1      30.920  23.763  26.974  1.00  0.00     0.252 C 
ATOM     84  H   UNL A   1      30.025  25.495  26.908  1.00  0.00     0.165 HD
ATOM     85  O   UNL A   1      29.917  23.206  27.411  1.00  0.00    -0.269 OA
BRANCH  83  86
ATOM     86  C   UNL A   1      32.100  22.964  26.661  1.00  0.00     0.039 A 
ATOM     87  C   UNL A   1      32.329  22.631  25.325  1.00  0.00     0.014 A 
ATOM     88  C   UNL A   1      33.004  22.627  27.665  1.00  0.00     0.014 A 
ATOM     89  C   UNL A   1      33.557  22.083  24.969  1.00  0.00     0.010 A 
ATOM     90  C   UNL A   1      34.221  22.056  27.303  1.00  0.00     0.010 A 
ATOM     91  C   UNL A   1      34.528  21.822  25.949  1.00  0.00     0.006 A 
BRANCH  91  92
ATOM     92  C   UNL A   1      35.912  21.346  25.561  1.00  0.00     0.299 C 
BRANCH  92  93
ATOM     93  N   UNL A   1      37.043  22.081  26.140  1.00  0.00    -0.331 N 
ATOM     94  C   UNL A   1      38.338  21.504  25.764  1.00  0.00     0.262 C 
ATOM     95  C   UNL A   1      36.969  23.523  25.882  1.00  0.00     0.262 C 
ATOM     96  H   UNL A   1      36.968  21.973  27.151  1.00  0.00     0.348 HD
ATOM     97  C   UNL A   1      39.493  22.218  26.464  1.00  0.00     0.062 C 
ATOM     98  C   UNL A   1      38.089  24.277  26.596  1.00  0.00     0.062 C 
ATOM     99  C   UNL A   1      39.449  23.718  26.197  1.00  0.00     0.012 C 
ENDBRANCH  92  93
ENDBRANCH  91  92
ENDBRANCH  83  86
ENDBRANCH  81  82
BRANCH  81 100
ATOM    100  C   UNL A   1      32.034  26.327  24.670  1.00  0.00     0.020 A 
ATOM    101  C   UNL A   1      31.096  26.951  23.834  1.00  0.00     0.009 A 
ATOM    102  C   UNL A   1      33.259  25.978  24.083  1.00  0.00     0.129 A 
ATOM    103  C   UNL A   1      31.362  27.204  22.482  1.00  0.00     0.001 A 
ATOM    104  C   UNL A   1      33.536  26.223  22.736  1.00  0.00     0.039 A 
ATOM    105  F   UNL A   1      34.209  25.385  24.820  1.00  0.00    -0.207 F 
ATOM    106  C   UNL A   1      32.584  26.838  21.931  1.00  0.00     0.003 A 
ENDBRANCH  81 100
ENDBRANCH  78  81
ENDBRANCH  76  77
ENDBRANCH   1  76
TORSDOF 19
ENDMDL
MODEL 2
REMARK VINA RESULT:     -12.5      1.843      2.856
REMARK SMILES O=C(NCCCCNC(=O)[C@@H](NC(=O)c1ccc(C[NH+]2CCCCC2)cc1)c1ccccc1F)c1ccc(-c2c3nc(c(-c4c(F)cc(S(=O)(=O)[O-])cc4F)c4ccc([nH]4)c(-c4c(F)cc(S(=O)(=O)[O-])cc4F)c4nc(c(-c5c(F)cc(S(=O)(=O)[O-])cc5F)c5ccc2[nH]5)C=C4)C=C3)cc1
REMARK SMILES IDX 6 1 5 2 4 3 3 4 1 5 2 6 35 8 36 9 100 10 37 11 99 12 38 13
REMARK SMILES IDX 39 14 40 15 93 16 41 17 98 18 92 19 94 20 42 21 97 22 91 23
REMARK SMILES IDX 90 24 43 26 77 27 56 28 76 29 57 30 60 31 75 32 95 33 58 34
REMARK SMILES IDX 59 35 74 37 96 38 61 39 44 40 45 41 54 42 46 43 47 44 53 45
REMARK SMILES IDX 55 46 48 47 49 48 50 49 51 50 52 51 78 52 79 53 88 54 80 55
REMARK SMILES IDX 81 56 87 57 89 58 82 59 83 60 84 61 85 62 86 63 62 64 63 65
REMARK SMILES IDX 72 66 64 67 65 68 71 69 73 70 66 71 67 72 68 73 69 74 70 75
REMARK SMILES IDX 7 76 8 77 9 78 10 80 11 81 12 82 13 83 14 85 15 86 16 87
REMARK SMILES IDX 27 88 17 89 26 90 18 91 19 92 20 93 21 94 25 95 22 97 24 98
REMARK SMILES IDX 23 99 28 100 29 101 33 102 30 103 32 104 34 105 31 106
REMARK H PARENT 3 7 94 25 60 36 8 79 12 84 20 96
REMARK Flexibility Score: inf
ROOT
ATOM      1  C   UNL A   1      33.082  29.734  26.712  1.00  0.00     0.023 C 
ENDROOT
BRANCH   1   2
ATOM      2  C   UNL A   1      34.321  28.929  27.096  1.00  0.00     0.023 C 
BRANCH   2   3
ATOM      3  C   UNL A   1      35.491  29.748  27.632  1.00  0.00     0.116 C 
BRANCH   3   4
ATOM      4  N   UNL A   1      35.290  30.214  28.999  1.00  0.00    -0.352 N 
ATOM      5  O   UNL A   1      35.868  30.658  31.139  1.00  0.00    -0.269 OA
ATOM      6  C   UNL A   1      36.220  30.367  30.000  1.00  0.00     0.251 C 
ATOM      7  H   UNL A   1      34.365  30.450  29.237  1.00  0.00     0.163 HD
BRANCH   6   8
ATOM      8  C   UNL A   1      37.645  30.145  29.686  1.00  0.00     0.039 A 
ATOM      9  C   UNL A   1      38.074  30.157  28.357  1.00  0.00     0.014 A 
ATOM     10  C   UNL A   1      38.536  29.854  30.721  1.00  0.00     0.014 A 
ATOM     11  C   UNL A   1      39.356  29.722  28.049  1.00  0.00     0.010 A 
ATOM     12  C   UNL A   1      39.852  29.504  30.412  1.00  0.00     0.010 A 
ATOM     13  C   UNL A   1      40.261  29.400  29.073  1.00  0.00    -0.014 A 
BRANCH  13  14
ATOM     14  C   UNL A   1      41.652  29.018  28.724  1.00  0.00     0.031 A 
ATOM     15  C   UNL A   1      42.762  30.030  28.722  1.00  0.00     0.074 A 
ATOM     16  C   UNL A   1      41.899  27.735  28.400  1.00  0.00     0.049 A 
ATOM     17  N   UNL A   1      44.019  29.870  28.397  1.00  0.00    -0.248 NA
ATOM     18  C   UNL A   1      42.417  31.402  29.126  1.00  0.00     0.031 C 
ATOM     19  C   UNL A   1      40.891  26.672  28.354  1.00  0.00     0.029 A 
ATOM     20  N   UNL A   1      43.062  27.106  28.043  1.00  0.00    -0.354 N 
ATOM     21  C   UNL A   1      44.612  31.120  28.529  1.00  0.00     0.074 A 
ATOM     22  C   UNL A   1      43.570  32.035  28.949  1.00  0.00     0.031 C 
ATOM     23  C   UNL A   1      41.482  25.521  28.008  1.00  0.00     0.029 A 
ATOM     24  C   UNL A   1      42.893  25.776  27.742  1.00  0.00     0.049 A 
ATOM     25  H   UNL A   1      43.934  27.561  28.006  1.00  0.00     0.167 HD
ATOM     26  C   UNL A   1      45.904  31.468  28.319  1.00  0.00     0.037 A 
ATOM     27  C   UNL A   1      43.762  24.867  27.266  1.00  0.00     0.037 A 
ATOM     28  C   UNL A   1      46.931  30.542  27.913  1.00  0.00     0.049 A 
ATOM     29  C   UNL A   1      45.185  25.275  27.030  1.00  0.00     0.074 A 
ATOM     30  C   UNL A   1      48.283  30.781  27.725  1.00  0.00     0.029 A 
ATOM     31  N   UNL A   1      46.721  29.201  27.621  1.00  0.00    -0.354 N 
ATOM     32  N   UNL A   1      45.738  26.451  27.204  1.00  0.00    -0.248 NA
ATOM     33  C   UNL A   1      46.101  24.240  26.537  1.00  0.00     0.031 C 
ATOM     34  C   UNL A   1      48.878  29.598  27.273  1.00  0.00     0.029 A 
ATOM     35  C   UNL A   1      47.910  28.607  27.226  1.00  0.00     0.049 A 
ATOM     36  H   UNL A   1      45.854  28.739  27.683  1.00  0.00     0.167 HD
ATOM     37  C   UNL A   1      47.072  26.299  26.848  1.00  0.00     0.074 A 
ATOM     38  C   UNL A   1      47.245  24.911  26.464  1.00  0.00     0.031 C 
ATOM     39  C   UNL A   1      48.062  27.225  26.843  1.00  0.00     0.037 A 
BRANCH  26  40
ATOM     40  C   UNL A   1      46.274  32.917  28.492  1.00  0.00     0.058 A 
ATOM     41  C   UNL A   1      46.220  33.832  27.428  1.00  0.00     0.135 A 
ATOM     42  C   UNL A   1      46.680  33.401  29.748  1.00  0.00     0.135 A 
ATOM     43  F   UNL A   1      45.849  33.424  26.204  1.00  0.00    -0.206 F 
ATOM     44  C   UNL A   1      46.592  35.163  27.593  1.00  0.00     0.059 A 
ATOM     45  C   UNL A   1      47.032  34.733  29.941  1.00  0.00     0.059 A 
ATOM     46  F   UNL A   1      46.745  32.572  30.802  1.00  0.00    -0.206 F 
ATOM     47  C   UNL A   1      47.006  35.602  28.852  1.00  0.00     0.060 A 
BRANCH  47  48
ATOM     48  S   UNL A   1      47.524  37.322  29.043  1.00  0.00     0.124 S 
ATOM     49  O   UNL A   1      47.720  37.405  30.487  1.00  0.00    -0.237 OA
ATOM     50  O   UNL A   1      48.739  37.376  28.236  1.00  0.00    -0.237 OA
ATOM     51  O   UNL A   1      46.393  38.078  28.518  1.00  0.00    -0.744 OA
ENDBRANCH  47  48
ENDBRANCH  26  40
BRANCH  27  52
ATOM     52  C   UNL A   1      43.276  23.496  26.972  1.00  0.00     0.058 A 
ATOM     53  C   UNL A   1      43.151  23.038  25.654  1.00  0.00     0.135 A 
ATOM     54  C   UNL A   1      43.024  22.586  28.012  1.00  0.00     0.135 A 
ATOM     55  F   UNL A   1      43.381  23.871  24.628  1.00  0.00    -0.206 F 
ATOM     56  C   UNL A   1      42.801  21.721  25.375  1.00  0.00     0.059 A 
ATOM     57  C   UNL A   1      42.698  21.258  27.758  1.00  0.00     0.059 A 
ATOM     58  F   UNL A   1      43.154  22.973  29.291  1.00  0.00    -0.206 F 
ATOM     59  C   UNL A   1      42.589  20.835  26.434  1.00  0.00     0.060 A 
BRANCH  59  60
ATOM     60  S   UNL A   1      42.238  19.104  26.062  1.00  0.00     0.124 S 
ATOM     61  O   UNL A   1      42.636  18.451  27.304  1.00  0.00    -0.237 OA
ATOM     62  O   UNL A   1      40.805  19.133  25.787  1.00  0.00    -0.237 OA
ATOM     63  O   UNL A   1      43.084  18.831  24.904  1.00  0.00    -0.744 OA
ENDBRANCH  59  60
ENDBRANCH  27  52
BRANCH  39  64
ATOM     64  C   UNL A   1      49.431  26.767  26.423  1.00  0.00     0.058 A 
ATOM     65  C   UNL A   1      50.277  26.078  27.303  1.00  0.00     0.135 A 
ATOM     66  C   UNL A   1      49.869  26.962  25.103  1.00  0.00     0.135 A 
ATOM     67  F   UNL A   1      49.908  25.878  28.578  1.00  0.00    -0.206 F 
ATOM     68  C   UNL A   1      51.518  25.601  26.892  1.00  0.00     0.059 A 
ATOM     69  C   UNL A   1      51.095  26.474  24.664  1.00  0.00     0.059 A 
ATOM     70  F   UNL A   1      49.093  27.613  24.222  1.00  0.00    -0.206 F 
ATOM     71  C   UNL A   1      51.914  25.799  25.568  1.00  0.00     0.060 A 
BRANCH  71  72
ATOM     72  S   UNL A   1      53.500  25.123  25.030  1.00  0.00     0.124 S 
ATOM     73  O   UNL A   1      53.328  23.704  25.321  1.00  0.00    -0.237 OA
ATOM     74  O   UNL A   1      53.530  25.483  23.615  1.00  0.00    -0.237 OA
ATOM     75  O   UNL A   1      54.469  25.824  25.868  1.00  0.00    -0.744 OA
ENDBRANCH  71  72
ENDBRANCH  39  64
ENDBRANCH  13  14
ENDBRANCH   6   8
ENDBRANCH   3   4
ENDBRANCH   2   3
ENDBRANCH   1   2
BRANCH   1  76
ATOM     76  C   UNL A   1      32.663  29.579  25.259  1.00  0.00     0.116 C 
BRANCH  76  77
ATOM     77  N   UNL A   1      33.756  29.298  24.352  1.00  0.00    -0.354 N 
ATOM     78  C   UNL A   1      33.800  28.421  23.299  1.00  0.00     0.247 C 
ATOM     79  H   UNL A   1      34.584  29.808  24.514  1.00  0.00     0.163 HD
ATOM     80  O   UNL A   1      34.702  28.579  22.470  1.00  0.00    -0.272 OA
BRANCH  78  81
ATOM     81  C   UNL A   1      32.706  27.331  23.091  1.00  0.00     0.205 C 
BRANCH  81  82
ATOM     82  N   UNL A   1      32.781  26.804  21.711  1.00  0.00    -0.336 N 
ATOM     83  C   UNL A   1      32.811  25.584  21.106  1.00  0.00     0.252 C 
ATOM     84  H   UNL A   1      32.820  27.533  21.051  1.00  0.00     0.165 HD
ATOM     85  O   UNL A   1      32.903  25.498  19.885  1.00  0.00    -0.269 OA
BRANCH  83  86
ATOM     86  C   UNL A   1      32.839  24.365  21.909  1.00  0.00     0.039 A 
ATOM     87  C   UNL A   1      34.083  23.795  22.191  1.00  0.00     0.014 A 
ATOM     88  C   UNL A   1      31.661  23.851  22.444  1.00  0.00     0.014 A 
ATOM     89  C   UNL A   1      34.160  22.784  23.142  1.00  0.00     0.010 A 
ATOM     90  C   UNL A   1      31.744  22.822  23.377  1.00  0.00     0.010 A 
ATOM     91  C   UNL A   1      32.996  22.311  23.770  1.00  0.00     0.006 A 
BRANCH  91  92
ATOM     92  C   UNL A   1      33.078  21.302  24.897  1.00  0.00     0.299 C 
BRANCH  92  93
ATOM     93  N   UNL A   1      33.044  19.886  24.512  1.00  0.00    -0.331 N 
ATOM     94  C   UNL A   1      32.423  19.677  23.200  1.00  0.00     0.262 C 
ATOM     95  C   UNL A   1      34.356  19.239  24.627  1.00  0.00     0.262 C 
ATOM     96  H   UNL A   1      32.442  19.419  25.189  1.00  0.00     0.348 HD
ATOM     97  C   UNL A   1      32.300  18.190  22.869  1.00  0.00     0.062 C 
ATOM     98  C   UNL A   1      34.268  17.743  24.338  1.00  0.00     0.062 C 
ATOM     99  C   UNL A   1      33.655  17.498  22.965  1.00  0.00     0.012 C 
ENDBRANCH  92  93
ENDBRANCH  91  92
ENDBRANCH  83  86
ENDBRANCH  81  82
BRANCH  81 100
ATOM    100  C   UNL A   1      32.595  26.425  24.305  1.00  0.00     0.020 A 
ATOM    101  C   UNL A   1      33.693  25.856  24.965  1.00  0.00     0.009 A 
ATOM    102  C   UNL A   1      31.335  26.201  24.879  1.00  0.00     0.129 A 
ATOM    103  C   UNL A   1      33.542  25.095  26.132  1.00  0.00     0.001 A 
ATOM    104  C   UNL A   1      31.170  25.443  26.041  1.00  0.00     0.039 A 
ATOM    105  F   UNL A   1      30.238  26.720  24.310  1.00  0.00    -0.207 F 
ATOM    106  C   UNL A   1      32.278  24.886  26.670  1.00  0.00     0.003 A 
ENDBRANCH  81 100
ENDBRANCH  78  81
ENDBRANCH  76  77
ENDBRANCH   1  76
TORSDOF 19
ENDMDL
MODEL 3
REMARK VINA RESULT:     -12.4      6.291     11.866
REMARK SMILES O=C(NCCCCNC(=O)[C@@H](NC(=O)c1ccc(C[NH+]2CCCCC2)cc1)c1ccccc1F)c1ccc(-c2c3nc(c(-c4c(F)cc(S(=O)(=O)[O-])cc4F)c4ccc([nH]4)c(-c4c(F)cc(S(=O)(=O)[O-])cc4F)c4nc(c(-c5c(F)cc(S(=O)(=O)[O-])cc5F)c5ccc2[nH]5)C=C4)C=C3)cc1
REMARK SMILES IDX 6 1 5 2 4 3 3 4 1 5 2 6 35 8 36 9 100 10 37 11 99 12 38 13
REMARK SMILES IDX 39 14 40 15 93 16 41 17 98 18 92 19 94 20 42 21 97 22 91 23
REMARK SMILES IDX 90 24 43 26 77 27 56 28 76 29 57 30 60 31 75 32 95 33 58 34
REMARK SMILES IDX 59 35 74 37 96 38 61 39 44 40 45 41 54 42 46 43 47 44 53 45
REMARK SMILES IDX 55 46 48 47 49 48 50 49 51 50 52 51 78 52 79 53 88 54 80 55
REMARK SMILES IDX 81 56 87 57 89 58 82 59 83 60 84 61 85 62 86 63 62 64 63 65
REMARK SMILES IDX 72 66 64 67 65 68 71 69 73 70 66 71 67 72 68 73 69 74 70 75
REMARK SMILES IDX 7 76 8 77 9 78 10 80 11 81 12 82 13 83 14 85 15 86 16 87
REMARK SMILES IDX 27 88 17 89 26 90 18 91 19 92 20 93 21 94 25 95 22 97 24 98
REMARK SMILES IDX 23 99 28 100 29 101 33 102 30 103 32 104 34 105 31 106
REMARK H PARENT 3 7 94 25 60 36 8 79 12 84 20 96
REMARK Flexibility Score: inf
ROOT
ATOM      1  C   UNL A   1      36.727  22.594  25.858  1.00  0.00     0.023 C 
ENDROOT
BRANCH   1   2
ATOM      2  C   UNL A   1      37.455  23.924  25.688  1.00  0.00     0.023 C 
BRANCH   2   3
ATOM      3  C   UNL A   1      38.566  24.195  26.699  1.00  0.00     0.116 C 
BRANCH   3   4
ATOM      4  N   UNL A   1      39.904  24.028  26.144  1.00  0.00    -0.352 N 
ATOM      5  O   UNL A   1      42.095  24.499  25.851  1.00  0.00    -0.269 OA
ATOM      6  C   UNL A   1      41.068  24.667  26.501  1.00  0.00     0.251 C 
ATOM      7  H   UNL A   1      39.984  23.371  25.416  1.00  0.00     0.163 HD
BRANCH   6   8
ATOM      8  C   UNL A   1      41.050  25.580  27.660  1.00  0.00     0.039 A 
ATOM      9  C   UNL A   1      39.944  25.600  28.512  1.00  0.00     0.014 A 
ATOM     10  C   UNL A   1      42.114  26.463  27.852  1.00  0.00     0.014 A 
ATOM     11  C   UNL A   1      39.827  26.611  29.456  1.00  0.00     0.010 A 
ATOM     12  C   UNL A   1      42.033  27.423  28.862  1.00  0.00     0.010 A 
ATOM     13  C   UNL A   1      40.874  27.526  29.648  1.00  0.00    -0.014 A 
BRANCH  13  14
ATOM     14  C   UNL A   1      40.764  28.547  30.720  1.00  0.00     0.031 A 
ATOM     15  C   UNL A   1      41.653  28.506  31.931  1.00  0.00     0.074 A 
ATOM     16  C   UNL A   1      39.839  29.516  30.587  1.00  0.00     0.049 A 
ATOM     17  N   UNL A   1      41.653  29.292  32.976  1.00  0.00    -0.248 NA
ATOM     18  C   UNL A   1      42.664  27.439  31.982  1.00  0.00     0.031 C 
ATOM     19  C   UNL A   1      38.912  29.641  29.457  1.00  0.00     0.029 A 
ATOM     20  N   UNL A   1      39.517  30.570  31.400  1.00  0.00    -0.354 N 
ATOM     21  C   UNL A   1      42.641  28.803  33.823  1.00  0.00     0.074 A 
ATOM     22  C   UNL A   1      43.209  27.639  33.175  1.00  0.00     0.031 C 
ATOM     23  C   UNL A   1      38.140  30.720  29.641  1.00  0.00     0.029 A 
ATOM     24  C   UNL A   1      38.468  31.323  30.928  1.00  0.00     0.049 A 
ATOM     25  H   UNL A   1      39.991  30.770  32.239  1.00  0.00     0.167 HD
ATOM     26  C   UNL A   1      43.034  29.284  35.027  1.00  0.00     0.037 A 
ATOM     27  C   UNL A   1      37.814  32.359  31.482  1.00  0.00     0.037 A 
ATOM     28  C   UNL A   1      42.466  30.452  35.652  1.00  0.00     0.049 A 
ATOM     29  C   UNL A   1      38.257  32.868  32.820  1.00  0.00     0.074 A 
ATOM     30  C   UNL A   1      42.829  31.054  36.846  1.00  0.00     0.029 A 
ATOM     31  N   UNL A   1      41.406  31.190  35.141  1.00  0.00    -0.354 N 
ATOM     32  N   UNL A   1      39.224  32.422  33.586  1.00  0.00    -0.248 NA
ATOM     33  C   UNL A   1      37.528  34.017  33.370  1.00  0.00     0.031 C 
ATOM     34  C   UNL A   1      41.958  32.125  37.079  1.00  0.00     0.029 A 
ATOM     35  C   UNL A   1      41.084  32.223  36.008  1.00  0.00     0.049 A 
ATOM     36  H   UNL A   1      40.950  31.006  34.289  1.00  0.00     0.167 HD
ATOM     37  C   UNL A   1      39.226  33.240  34.708  1.00  0.00     0.074 A 
ATOM     38  C   UNL A   1      38.174  34.219  34.512  1.00  0.00     0.031 C 
ATOM     39  C   UNL A   1      40.029  33.186  35.799  1.00  0.00     0.037 A 
BRANCH  26  40
ATOM     40  C   UNL A   1      44.108  28.529  35.764  1.00  0.00     0.058 A 
ATOM     41  C   UNL A   1      45.473  28.805  35.579  1.00  0.00     0.135 A 
ATOM     42  C   UNL A   1      43.765  27.520  36.679  1.00  0.00     0.135 A 
ATOM     43  F   UNL A   1      45.860  29.752  34.710  1.00  0.00    -0.206 F 
ATOM     44  C   UNL A   1      46.458  28.081  36.244  1.00  0.00     0.059 A 
ATOM     45  C   UNL A   1      44.733  26.800  37.374  1.00  0.00     0.059 A 
ATOM     46  F   UNL A   1      42.475  27.218  36.900  1.00  0.00    -0.206 F 
ATOM     47  C   UNL A   1      46.078  27.072  37.133  1.00  0.00     0.060 A 
BRANCH  47  48
ATOM     48  S   UNL A   1      47.367  26.114  37.959  1.00  0.00     0.124 S 
ATOM     49  O   UNL A   1      46.588  25.022  38.535  1.00  0.00    -0.237 OA
ATOM     50  O   UNL A   1      48.245  25.749  36.851  1.00  0.00    -0.237 OA
ATOM     51  O   UNL A   1      47.931  27.058  38.917  1.00  0.00    -0.744 OA
ENDBRANCH  47  48
ENDBRANCH  26  40
BRANCH  27  52
ATOM     52  C   UNL A   1      36.660  32.947  30.757  1.00  0.00     0.058 A 
ATOM     53  C   UNL A   1      35.343  32.693  31.162  1.00  0.00     0.135 A 
ATOM     54  C   UNL A   1      36.862  33.856  29.705  1.00  0.00     0.135 A 
ATOM     55  F   UNL A   1      35.102  31.832  32.161  1.00  0.00    -0.206 F 
ATOM     56  C   UNL A   1      34.264  33.329  30.556  1.00  0.00     0.059 A 
ATOM     57  C   UNL A   1      35.802  34.522  29.102  1.00  0.00     0.059 A 
ATOM     58  F   UNL A   1      38.108  34.148  29.299  1.00  0.00    -0.206 F 
ATOM     59  C   UNL A   1      34.505  34.251  29.534  1.00  0.00     0.060 A 
BRANCH  59  60
ATOM     60  S   UNL A   1      33.107  35.147  28.825  1.00  0.00     0.124 S 
ATOM     61  O   UNL A   1      32.626  34.197  27.828  1.00  0.00    -0.237 OA
ATOM     62  O   UNL A   1      32.246  35.342  29.989  1.00  0.00    -0.237 OA
ATOM     63  O   UNL A   1      33.719  36.363  28.299  1.00  0.00    -0.744 OA
ENDBRANCH  59  60
ENDBRANCH  27  52
BRANCH  39  64
ATOM     64  C   UNL A   1      39.815  34.223  36.864  1.00  0.00     0.058 A 
ATOM     65  C   UNL A   1      39.052  33.951  38.010  1.00  0.00     0.135 A 
ATOM     66  C   UNL A   1      40.436  35.478  36.767  1.00  0.00     0.135 A 
ATOM     67  F   UNL A   1      38.428  32.771  38.143  1.00  0.00    -0.206 F 
ATOM     68  C   UNL A   1      38.907  34.894  39.023  1.00  0.00     0.059 A 
ATOM     69  C   UNL A   1      40.324  36.426  37.779  1.00  0.00     0.059 A 
ATOM     70  F   UNL A   1      41.179  35.784  35.691  1.00  0.00    -0.206 F 
ATOM     71  C   UNL A   1      39.553  36.126  38.901  1.00  0.00     0.060 A 
BRANCH  71  72
ATOM     72  S   UNL A   1      39.407  37.317  40.250  1.00  0.00     0.124 S 
ATOM     73  O   UNL A   1      38.662  38.396  39.611  1.00  0.00    -0.237 OA
ATOM     74  O   UNL A   1      38.679  36.556  41.262  1.00  0.00    -0.237 OA
ATOM     75  O   UNL A   1      40.795  37.623  40.584  1.00  0.00    -0.744 OA
ENDBRANCH  71  72
ENDBRANCH  39  64
ENDBRANCH  13  14
ENDBRANCH   6   8
ENDBRANCH   3   4
ENDBRANCH   2   3
ENDBRANCH   1   2
BRANCH   1  76
ATOM     76  C   UNL A   1      35.327  22.719  26.435  1.00  0.00     0.116 C 
BRANCH  76  77
ATOM     77  N   UNL A   1      34.312  21.999  25.695  1.00  0.00    -0.354 N 
ATOM     78  C   UNL A   1      33.629  22.383  24.569  1.00  0.00     0.247 C 
ATOM     79  H   UNL A   1      34.080  21.108  26.049  1.00  0.00     0.163 HD
ATOM     80  O   UNL A   1      33.060  21.496  23.925  1.00  0.00    -0.272 OA
BRANCH  78  81
ATOM     81  C   UNL A   1      33.646  23.855  24.060  1.00  0.00     0.205 C 
BRANCH  81  82
ATOM     82  N   UNL A   1      33.566  23.874  22.583  1.00  0.00    -0.336 N 
ATOM     83  C   UNL A   1      33.161  24.741  21.614  1.00  0.00     0.252 C 
ATOM     84  H   UNL A   1      33.895  23.031  22.196  1.00  0.00     0.165 HD
ATOM     85  O   UNL A   1      33.211  24.417  20.432  1.00  0.00    -0.269 OA
BRANCH  83  86
ATOM     86  C   UNL A   1      32.566  26.024  21.977  1.00  0.00     0.039 A 
ATOM     87  C   UNL A   1      31.174  26.104  22.047  1.00  0.00     0.014 A 
ATOM     88  C   UNL A   1      33.379  27.099  22.326  1.00  0.00     0.014 A 
ATOM     89  C   UNL A   1      30.592  27.231  22.616  1.00  0.00     0.010 A 
ATOM     90  C   UNL A   1      32.787  28.234  22.872  1.00  0.00     0.010 A 
ATOM     91  C   UNL A   1      31.394  28.292  23.067  1.00  0.00     0.006 A 
BRANCH  91  92
ATOM     92  C   UNL A   1      30.784  29.466  23.804  1.00  0.00     0.299 C 
BRANCH  92  93
ATOM     93  N   UNL A   1      29.558  30.035  23.228  1.00  0.00    -0.331 N 
ATOM     94  C   UNL A   1      29.122  31.248  23.926  1.00  0.00     0.262 C 
ATOM     95  C   UNL A   1      29.651  30.219  21.776  1.00  0.00     0.262 C 
ATOM     96  H   UNL A   1      28.825  29.342  23.376  1.00  0.00     0.348 HD
ATOM     97  C   UNL A   1      27.789  31.759  23.381  1.00  0.00     0.062 C 
ATOM     98  C   UNL A   1      28.325  30.696  21.187  1.00  0.00     0.062 C 
ATOM     99  C   UNL A   1      27.865  31.975  21.874  1.00  0.00     0.012 C 
ENDBRANCH  92  93
ENDBRANCH  91  92
ENDBRANCH  83  86
ENDBRANCH  81  82
BRANCH  81 100
ATOM    100  C   UNL A   1      32.786  24.750  24.935  1.00  0.00     0.020 A 
ATOM    101  C   UNL A   1      33.270  25.859  25.643  1.00  0.00     0.009 A 
ATOM    102  C   UNL A   1      31.401  24.534  24.981  1.00  0.00     0.129 A 
ATOM    103  C   UNL A   1      32.419  26.702  26.369  1.00  0.00     0.001 A 
ATOM    104  C   UNL A   1      30.541  25.366  25.703  1.00  0.00     0.039 A 
ATOM    105  F   UNL A   1      30.862  23.498  24.322  1.00  0.00    -0.207 F 
ATOM    106  C   UNL A   1      31.052  26.455  26.401  1.00  0.00     0.003 A 
ENDBRANCH  81 100
ENDBRANCH  78  81
ENDBRANCH  76  77
ENDBRANCH   1  76
TORSDOF 19
ENDMDL
