MODEL 1
REMARK VINA RESULT:     -12.2      0.000      0.000
REMARK SMILES Cc1cc(Nc2ccc(C(=O)NCCCCNC(=O)c3ccc(-c4c5nc(c(-c6c(F)cc(S(=O)(=O)[O-])cc6F)c6ccc([nH]6)c(-c6c(F)cc(S(=O)(=O)[O-])cc6F)c6nc(c(-c7c(F)cc(S(=O)(=O)[O-])cc7F)c7ccc4[nH]7)C=C6)C=C5)cc3)cc2)nc(-n2nc(C)cc2C)n1
REMARK SMILES IDX 14 1 13 2 12 3 10 4 11 5 9 7 6 8 7 9 87 10 8 11 86 12 5 13
REMARK SMILES IDX 4 15 1 16 2 17 3 18 97 19 89 20 88 21 90 22 91 23 95 24
REMARK SMILES IDX 92 25 94 26 96 27 93 28 15 29 16 30 17 31 18 32 19 34 20 35
REMARK SMILES IDX 21 36 85 37 22 38 84 39 23 40 24 41 25 42 78 43 26 44 83 45
REMARK SMILES IDX 77 46 79 47 27 48 82 49 76 50 75 51 28 53 62 54 41 55 61 56
REMARK SMILES IDX 42 57 45 58 60 59 80 60 43 61 44 62 59 64 81 65 46 66 29 67
REMARK SMILES IDX 30 68 39 69 31 70 32 71 38 72 40 73 33 74 34 75 35 76 36 77
REMARK SMILES IDX 37 78 63 79 64 80 73 81 65 82 66 83 72 84 74 85 67 86 68 87
REMARK SMILES IDX 69 88 70 89 71 90 47 91 48 92 57 93 49 94 50 95 56 96 58 97
REMARK SMILES IDX 51 98 52 99 53 100 54 101 55 102
REMARK H PARENT 12 6 5 14 17 33 79 52 45 63
REMARK Flexibility Score: inf
ROOT
ATOM      1  C   UNL A   1      35.464  21.771  26.121  1.00  0.00     0.023 C 
ENDROOT
BRANCH   1   2
ATOM      2  C   UNL A   1      35.162  21.168  24.746  1.00  0.00     0.116 C 
BRANCH   2   3
ATOM      3  N   UNL A   1      34.090  20.194  24.842  1.00  0.00    -0.352 N 
ATOM      4  C   UNL A   1      32.725  20.321  24.805  1.00  0.00     0.251 C 
ATOM      5  O   UNL A   1      32.047  19.296  24.890  1.00  0.00    -0.269 OA
ATOM      6  H   UNL A   1      34.402  19.267  24.955  1.00  0.00     0.163 HD
BRANCH   4   7
ATOM      7  C   UNL A   1      32.030  21.626  24.615  1.00  0.00     0.039 A 
ATOM      8  C   UNL A   1      30.580  24.043  24.409  1.00  0.00     0.040 A 
ATOM      9  C   UNL A   1      30.731  23.415  25.647  1.00  0.00     0.027 A 
ATOM     10  C   UNL A   1      31.193  23.472  23.291  1.00  0.00     0.027 A 
ATOM     11  C   UNL A   1      31.442  22.213  25.748  1.00  0.00     0.016 A 
ATOM     12  C   UNL A   1      31.950  22.303  23.400  1.00  0.00     0.016 A 
BRANCH   8  13
ATOM     13  N   UNL A   1      29.790  25.191  24.270  1.00  0.00    -0.340 N 
ATOM     14  H   UNL A   1      28.814  25.067  24.271  1.00  0.00     0.168 HD
BRANCH  13  15
ATOM     15  C   UNL A   1      30.268  26.506  24.127  1.00  0.00     0.136 A 
ATOM     16  C   UNL A   1      29.382  29.685  22.351  1.00  0.00     0.067 C 
ATOM     17  C   UNL A   1      29.989  28.696  23.299  1.00  0.00     0.045 A 
ATOM     18  C   UNL A   1      29.600  27.371  23.283  1.00  0.00     0.070 A 
ATOM     19  N   UNL A   1      30.963  29.152  24.108  1.00  0.00    -0.216 NA
ATOM     20  C   UNL A   1      31.623  28.229  24.845  1.00  0.00     0.252 A 
ATOM     21  N   UNL A   1      31.308  26.919  24.868  1.00  0.00    -0.194 NA
BRANCH  20  22
ATOM     22  N   UNL A   1      32.752  28.672  25.621  1.00  0.00    -0.203 N 
ATOM     23  N   UNL A   1      32.883  29.977  26.007  1.00  0.00    -0.170 NA
ATOM     24  C   UNL A   1      33.790  27.896  26.125  1.00  0.00     0.045 A 
ATOM     25  C   UNL A   1      33.888  29.976  26.888  1.00  0.00     0.060 A 
ATOM     26  C   UNL A   1      34.508  28.713  26.973  1.00  0.00     0.049 A 
ATOM     27  C   UNL A   1      34.043  26.495  25.711  1.00  0.00     0.067 C 
ATOM     28  C   UNL A   1      34.233  31.211  27.632  1.00  0.00     0.069 C 
ENDBRANCH  20  22
ENDBRANCH  13  15
ENDBRANCH   8  13
ENDBRANCH   4   7
ENDBRANCH   2   3
ENDBRANCH   1   2
BRANCH   1  29
ATOM     29  C   UNL A   1      35.596  23.297  26.120  1.00  0.00     0.023 C 
BRANCH  29  30
ATOM     30  C   UNL A   1      36.870  23.833  25.476  1.00  0.00     0.116 C 
BRANCH  30  31
ATOM     31  N   UNL A   1      37.987  22.906  25.565  1.00  0.00    -0.352 N 
ATOM     32  C   UNL A   1      39.224  23.102  26.136  1.00  0.00     0.251 C 
ATOM     33  H   UNL A   1      37.839  22.019  25.163  1.00  0.00     0.163 HD
ATOM     34  O   UNL A   1      40.095  22.252  26.025  1.00  0.00    -0.269 OA
BRANCH  32  35
ATOM     35  C   UNL A   1      39.498  24.370  26.847  1.00  0.00     0.039 A 
ATOM     36  C   UNL A   1      39.022  24.523  28.152  1.00  0.00     0.014 A 
ATOM     37  C   UNL A   1      40.238  25.389  26.242  1.00  0.00     0.014 A 
ATOM     38  C   UNL A   1      39.347  25.673  28.874  1.00  0.00     0.010 A 
ATOM     39  C   UNL A   1      40.613  26.505  26.984  1.00  0.00     0.010 A 
ATOM     40  C   UNL A   1      40.174  26.656  28.308  1.00  0.00    -0.014 A 
BRANCH  40  41
ATOM     41  C   UNL A   1      40.601  27.845  29.089  1.00  0.00     0.031 A 
ATOM     42  C   UNL A   1      41.924  27.844  29.801  1.00  0.00     0.074 A 
ATOM     43  C   UNL A   1      39.765  28.895  29.211  1.00  0.00     0.049 A 
ATOM     44  N   UNL A   1      42.435  28.751  30.593  1.00  0.00    -0.248 NA
ATOM     45  C   UNL A   1      42.773  26.655  29.621  1.00  0.00     0.031 C 
ATOM     46  C   UNL A   1      38.431  28.989  28.611  1.00  0.00     0.029 A 
ATOM     47  N   UNL A   1      39.904  30.077  29.893  1.00  0.00    -0.354 N 
ATOM     48  C   UNL A   1      43.659  28.241  31.012  1.00  0.00     0.074 A 
ATOM     49  C   UNL A   1      43.788  26.923  30.430  1.00  0.00     0.031 C 
ATOM     50  C   UNL A   1      37.882  30.169  28.943  1.00  0.00     0.029 A 
ATOM     51  C   UNL A   1      38.807  30.901  29.802  1.00  0.00     0.049 A 
ATOM     52  H   UNL A   1      40.715  30.314  30.399  1.00  0.00     0.167 HD
ATOM     53  C   UNL A   1      44.598  28.827  31.792  1.00  0.00     0.037 A 
ATOM     54  C   UNL A   1      38.570  32.106  30.355  1.00  0.00     0.037 A 
ATOM     55  C   UNL A   1      44.472  30.148  32.351  1.00  0.00     0.049 A 
ATOM     56  C   UNL A   1      39.634  32.744  31.206  1.00  0.00     0.074 A 
ATOM     57  C   UNL A   1      45.386  30.849  33.118  1.00  0.00     0.029 A 
ATOM     58  N   UNL A   1      43.363  30.968  32.204  1.00  0.00    -0.354 N 
ATOM     59  N   UNL A   1      40.809  32.270  31.547  1.00  0.00    -0.248 NA
ATOM     60  C   UNL A   1      39.345  34.081  31.741  1.00  0.00     0.031 C 
ATOM     61  C   UNL A   1      44.817  32.082  33.460  1.00  0.00     0.029 A 
ATOM     62  C   UNL A   1      43.565  32.164  32.872  1.00  0.00     0.049 A 
ATOM     63  H   UNL A   1      42.551  30.734  31.698  1.00  0.00     0.167 HD
ATOM     64  C   UNL A   1      41.409  33.260  32.317  1.00  0.00     0.074 A 
ATOM     65  C   UNL A   1      40.473  34.364  32.380  1.00  0.00     0.031 C 
ATOM     66  C   UNL A   1      42.625  33.255  32.917  1.00  0.00     0.037 A 
BRANCH  53  67
ATOM     67  C   UNL A   1      45.852  28.046  32.072  1.00  0.00     0.058 A 
ATOM     68  C   UNL A   1      46.976  28.140  31.236  1.00  0.00     0.135 A 
ATOM     69  C   UNL A   1      45.943  27.213  33.198  1.00  0.00     0.135 A 
ATOM     70  F   UNL A   1      46.937  28.910  30.136  1.00  0.00    -0.206 F 
ATOM     71  C   UNL A   1      48.134  27.413  31.488  1.00  0.00     0.059 A 
ATOM     72  C   UNL A   1      47.102  26.496  33.485  1.00  0.00     0.059 A 
ATOM     73  F   UNL A   1      44.898  27.085  34.032  1.00  0.00    -0.206 F 
ATOM     74  C   UNL A   1      48.186  26.591  32.614  1.00  0.00     0.060 A 
BRANCH  74  75
ATOM     75  S   UNL A   1      49.697  25.653  32.926  1.00  0.00     0.124 S 
ATOM     76  O   UNL A   1      50.631  26.717  33.279  1.00  0.00    -0.237 OA
ATOM     77  O   UNL A   1      49.300  24.772  34.020  1.00  0.00    -0.237 OA
ATOM     78  O   UNL A   1      49.954  24.989  31.652  1.00  0.00    -0.744 OA
ENDBRANCH  74  75
ENDBRANCH  53  67
BRANCH  54  79
ATOM     79  C   UNL A   1      37.278  32.796  30.103  1.00  0.00     0.058 A 
ATOM     80  C   UNL A   1      36.162  32.561  30.920  1.00  0.00     0.135 A 
ATOM     81  C   UNL A   1      37.137  33.716  29.052  1.00  0.00     0.135 A 
ATOM     82  F   UNL A   1      36.247  31.687  31.935  1.00  0.00    -0.206 F 
ATOM     83  C   UNL A   1      34.947  33.199  30.696  1.00  0.00     0.059 A 
ATOM     84  C   UNL A   1      35.939  34.384  28.821  1.00  0.00     0.059 A 
ATOM     85  F   UNL A   1      38.180  33.989  28.253  1.00  0.00    -0.206 F 
ATOM     86  C   UNL A   1      34.845  34.110  29.643  1.00  0.00     0.060 A 
BRANCH  86  87
ATOM     87  S   UNL A   1      33.278  34.971  29.389  1.00  0.00     0.124 S 
ATOM     88  O   UNL A   1      32.700  34.927  30.727  1.00  0.00    -0.237 OA
ATOM     89  O   UNL A   1      33.718  36.284  28.925  1.00  0.00    -0.237 OA
ATOM     90  O   UNL A   1      32.606  34.153  28.382  1.00  0.00    -0.744 OA
ENDBRANCH  86  87
ENDBRANCH  54  79
BRANCH  66  91
ATOM     91  C   UNL A   1      43.027  34.493  33.670  1.00  0.00     0.058 A 
ATOM     92  C   UNL A   1      42.766  34.638  35.041  1.00  0.00     0.135 A 
ATOM     93  C   UNL A   1      43.730  35.521  33.022  1.00  0.00     0.135 A 
ATOM     94  F   UNL A   1      42.090  33.686  35.704  1.00  0.00    -0.206 F 
ATOM     95  C   UNL A   1      43.169  35.771  35.741  1.00  0.00     0.059 A 
ATOM     96  C   UNL A   1      44.165  36.651  33.707  1.00  0.00     0.059 A 
ATOM     97  F   UNL A   1      44.014  35.426  31.713  1.00  0.00    -0.206 F 
ATOM     98  C   UNL A   1      43.870  36.772  35.064  1.00  0.00     0.060 A 
BRANCH  98  99
ATOM     99  S   UNL A   1      44.421  38.220  35.989  1.00  0.00     0.124 S 
ATOM    100  O   UNL A   1      43.958  39.308  35.134  1.00  0.00    -0.237 OA
ATOM    101  O   UNL A   1      43.716  38.069  37.259  1.00  0.00    -0.237 OA
ATOM    102  O   UNL A   1      45.868  38.048  36.060  1.00  0.00    -0.744 OA
ENDBRANCH  98  99
ENDBRANCH  66  91
ENDBRANCH  40  41
ENDBRANCH  32  35
ENDBRANCH  30  31
ENDBRANCH  29  30
ENDBRANCH   1  29
TORSDOF 17
ENDMDL
MODEL 2
REMARK VINA RESULT:     -12.0      2.695      3.488
REMARK SMILES Cc1cc(Nc2ccc(C(=O)NCCCCNC(=O)c3ccc(-c4c5nc(c(-c6c(F)cc(S(=O)(=O)[O-])cc6F)c6ccc([nH]6)c(-c6c(F)cc(S(=O)(=O)[O-])cc6F)c6nc(c(-c7c(F)cc(S(=O)(=O)[O-])cc7F)c7ccc4[nH]7)C=C6)C=C5)cc3)cc2)nc(-n2nc(C)cc2C)n1
REMARK SMILES IDX 14 1 13 2 12 3 10 4 11 5 9 7 6 8 7 9 87 10 8 11 86 12 5 13
REMARK SMILES IDX 4 15 1 16 2 17 3 18 97 19 89 20 88 21 90 22 91 23 95 24
REMARK SMILES IDX 92 25 94 26 96 27 93 28 15 29 16 30 17 31 18 32 19 34 20 35
REMARK SMILES IDX 21 36 85 37 22 38 84 39 23 40 24 41 25 42 78 43 26 44 83 45
REMARK SMILES IDX 77 46 79 47 27 48 82 49 76 50 75 51 28 53 62 54 41 55 61 56
REMARK SMILES IDX 42 57 45 58 60 59 80 60 43 61 44 62 59 64 81 65 46 66 29 67
REMARK SMILES IDX 30 68 39 69 31 70 32 71 38 72 40 73 33 74 34 75 35 76 36 77
REMARK SMILES IDX 37 78 63 79 64 80 73 81 65 82 66 83 72 84 74 85 67 86 68 87
REMARK SMILES IDX 69 88 70 89 71 90 47 91 48 92 57 93 49 94 50 95 56 96 58 97
REMARK SMILES IDX 51 98 52 99 53 100 54 101 55 102
REMARK H PARENT 12 6 5 14 17 33 79 52 45 63
REMARK Flexibility Score: inf
ROOT
ATOM      1  C   UNL A   1      36.087  23.673  25.674  1.00  0.00     0.023 C 
ENDROOT
BRANCH   1   2
ATOM      2  C   UNL A   1      35.198  22.764  26.526  1.00  0.00     0.116 C 
BRANCH   2   3
ATOM      3  N   UNL A   1      34.854  21.558  25.795  1.00  0.00    -0.352 N 
ATOM      4  C   UNL A   1      33.979  21.324  24.766  1.00  0.00     0.251 C 
ATOM      5  O   UNL A   1      33.909  20.179  24.316  1.00  0.00    -0.269 OA
ATOM      6  H   UNL A   1      35.342  20.756  26.095  1.00  0.00     0.163 HD
BRANCH   4   7
ATOM      7  C   UNL A   1      33.155  22.393  24.134  1.00  0.00     0.039 A 
ATOM      8  C   UNL A   1      31.772  24.527  22.902  1.00  0.00     0.040 A 
ATOM      9  C   UNL A   1      33.055  24.181  22.476  1.00  0.00     0.027 A 
ATOM     10  C   UNL A   1      31.177  23.773  23.917  1.00  0.00     0.027 A 
ATOM     11  C   UNL A   1      33.744  23.129  23.092  1.00  0.00     0.016 A 
ATOM     12  C   UNL A   1      31.841  22.688  24.494  1.00  0.00     0.016 A 
BRANCH   8  13
ATOM     13  N   UNL A   1      31.106  25.638  22.368  1.00  0.00    -0.340 N 
ATOM     14  H   UNL A   1      30.614  25.505  21.526  1.00  0.00     0.168 HD
BRANCH  13  15
ATOM     15  C   UNL A   1      31.078  26.928  22.928  1.00  0.00     0.136 A 
ATOM     16  C   UNL A   1      28.990  30.038  22.822  1.00  0.00     0.067 C 
ATOM     17  C   UNL A   1      29.980  28.992  23.233  1.00  0.00     0.045 A 
ATOM     18  C   UNL A   1      30.083  27.802  22.540  1.00  0.00     0.070 A 
ATOM     19  N   UNL A   1      30.794  29.300  24.261  1.00  0.00    -0.216 NA
ATOM     20  C   UNL A   1      31.794  28.428  24.527  1.00  0.00     0.252 A 
ATOM     21  N   UNL A   1      31.963  27.257  23.883  1.00  0.00    -0.194 NA
BRANCH  20  22
ATOM     22  N   UNL A   1      32.754  28.796  25.535  1.00  0.00    -0.203 N 
ATOM     23  N   UNL A   1      32.968  30.103  25.872  1.00  0.00    -0.170 NA
ATOM     24  C   UNL A   1      33.522  27.945  26.324  1.00  0.00     0.045 A 
ATOM     25  C   UNL A   1      33.722  30.055  26.975  1.00  0.00     0.060 A 
ATOM     26  C   UNL A   1      34.121  28.739  27.279  1.00  0.00     0.049 A 
ATOM     27  C   UNL A   1      33.670  26.494  26.060  1.00  0.00     0.067 C 
ATOM     28  C   UNL A   1      34.046  31.298  27.715  1.00  0.00     0.069 C 
ENDBRANCH  20  22
ENDBRANCH  13  15
ENDBRANCH   8  13
ENDBRANCH   4   7
ENDBRANCH   2   3
ENDBRANCH   1   2
BRANCH   1  29
ATOM     29  C   UNL A   1      37.563  23.261  25.647  1.00  0.00     0.023 C 
BRANCH  29  30
ATOM     30  C   UNL A   1      38.493  24.143  26.473  1.00  0.00     0.116 C 
BRANCH  30  31
ATOM     31  N   UNL A   1      39.898  23.941  26.158  1.00  0.00    -0.352 N 
ATOM     32  C   UNL A   1      40.988  24.665  26.585  1.00  0.00     0.251 C 
ATOM     33  H   UNL A   1      40.097  23.186  25.559  1.00  0.00     0.163 HD
ATOM     34  O   UNL A   1      42.098  24.430  26.134  1.00  0.00    -0.269 OA
BRANCH  32  35
ATOM     35  C   UNL A   1      40.791  25.757  27.564  1.00  0.00     0.039 A 
ATOM     36  C   UNL A   1      39.778  25.628  28.517  1.00  0.00     0.014 A 
ATOM     37  C   UNL A   1      41.613  26.887  27.555  1.00  0.00     0.014 A 
ATOM     38  C   UNL A   1      39.633  26.602  29.507  1.00  0.00     0.010 A 
ATOM     39  C   UNL A   1      41.507  27.826  28.578  1.00  0.00     0.010 A 
ATOM     40  C   UNL A   1      40.519  27.690  29.566  1.00  0.00    -0.014 A 
BRANCH  40  41
ATOM     41  C   UNL A   1      40.436  28.691  30.659  1.00  0.00     0.031 A 
ATOM     42  C   UNL A   1      41.300  28.548  31.881  1.00  0.00     0.074 A 
ATOM     43  C   UNL A   1      39.533  29.688  30.580  1.00  0.00     0.049 A 
ATOM     44  N   UNL A   1      41.315  29.272  32.970  1.00  0.00    -0.248 NA
ATOM     45  C   UNL A   1      42.254  27.427  31.890  1.00  0.00     0.031 C 
ATOM     46  C   UNL A   1      38.600  29.900  29.469  1.00  0.00     0.029 A 
ATOM     47  N   UNL A   1      39.238  30.702  31.456  1.00  0.00    -0.354 N 
ATOM     48  C   UNL A   1      42.270  28.691  33.797  1.00  0.00     0.074 A 
ATOM     49  C   UNL A   1      42.774  27.525  33.105  1.00  0.00     0.031 C 
ATOM     50  C   UNL A   1      37.847  30.981  29.727  1.00  0.00     0.029 A 
ATOM     51  C   UNL A   1      38.219  31.522  31.030  1.00  0.00     0.049 A 
ATOM     52  H   UNL A   1      39.713  30.832  32.308  1.00  0.00     0.167 HD
ATOM     53  C   UNL A   1      42.704  29.106  35.011  1.00  0.00     0.037 A 
ATOM     54  C   UNL A   1      37.643  32.583  31.627  1.00  0.00     0.037 A 
ATOM     55  C   UNL A   1      42.213  30.279  35.685  1.00  0.00     0.049 A 
ATOM     56  C   UNL A   1      38.151  33.034  32.969  1.00  0.00     0.074 A 
ATOM     57  C   UNL A   1      42.618  30.809  36.897  1.00  0.00     0.029 A 
ATOM     58  N   UNL A   1      41.209  31.107  35.204  1.00  0.00    -0.354 N 
ATOM     59  N   UNL A   1      39.095  32.505  33.712  1.00  0.00    -0.248 NA
ATOM     60  C   UNL A   1      37.525  34.229  33.551  1.00  0.00     0.031 C 
ATOM     61  C   UNL A   1      41.838  31.940  37.164  1.00  0.00     0.029 A 
ATOM     62  C   UNL A   1      40.975  32.138  36.098  1.00  0.00     0.049 A 
ATOM     63  H   UNL A   1      40.732  30.980  34.351  1.00  0.00     0.167 HD
ATOM     64  C   UNL A   1      39.190  33.315  34.838  1.00  0.00     0.074 A 
ATOM     65  C   UNL A   1      38.219  34.378  34.672  1.00  0.00     0.031 C 
ATOM     66  C   UNL A   1      40.008  33.191  35.912  1.00  0.00     0.037 A 
BRANCH  53  67
ATOM     67  C   UNL A   1      43.774  28.289  35.680  1.00  0.00     0.058 A 
ATOM     68  C   UNL A   1      45.133  28.479  35.382  1.00  0.00     0.135 A 
ATOM     69  C   UNL A   1      43.444  27.324  36.644  1.00  0.00     0.135 A 
ATOM     70  F   UNL A   1      45.503  29.378  34.456  1.00  0.00    -0.206 F 
ATOM     71  C   UNL A   1      46.125  27.720  35.994  1.00  0.00     0.059 A 
ATOM     72  C   UNL A   1      44.423  26.571  37.289  1.00  0.00     0.059 A 
ATOM     73  F   UNL A   1      42.160  27.101  36.967  1.00  0.00    -0.206 F 
ATOM     74  C   UNL A   1      45.760  26.766  36.944  1.00  0.00     0.060 A 
BRANCH  74  75
ATOM     75  S   UNL A   1      47.060  25.788  37.728  1.00  0.00     0.124 S 
ATOM     76  O   UNL A   1      47.969  26.833  38.188  1.00  0.00    -0.237 OA
ATOM     77  O   UNL A   1      46.332  25.078  38.774  1.00  0.00    -0.237 OA
ATOM     78  O   UNL A   1      47.560  24.954  36.640  1.00  0.00    -0.744 OA
ENDBRANCH  74  75
ENDBRANCH  53  67
BRANCH  54  79
ATOM     79  C   UNL A   1      36.535  33.304  30.948  1.00  0.00     0.058 A 
ATOM     80  C   UNL A   1      36.784  34.149  29.856  1.00  0.00     0.135 A 
ATOM     81  C   UNL A   1      35.204  33.152  31.366  1.00  0.00     0.135 A 
ATOM     82  F   UNL A   1      38.041  34.330  29.422  1.00  0.00    -0.206 F 
ATOM     83  C   UNL A   1      35.757  34.830  29.212  1.00  0.00     0.059 A 
ATOM     84  C   UNL A   1      34.156  33.805  30.724  1.00  0.00     0.059 A 
ATOM     85  F   UNL A   1      34.911  32.341  32.396  1.00  0.00    -0.206 F 
ATOM     86  C   UNL A   1      34.445  34.651  29.654  1.00  0.00     0.060 A 
BRANCH  86  87
ATOM     87  S   UNL A   1      33.112  35.501  28.780  1.00  0.00     0.124 S 
ATOM     88  O   UNL A   1      33.858  36.434  27.944  1.00  0.00    -0.237 OA
ATOM     89  O   UNL A   1      32.451  34.403  28.081  1.00  0.00    -0.237 OA
ATOM     90  O   UNL A   1      32.334  36.102  29.861  1.00  0.00    -0.744 OA
ENDBRANCH  86  87
ENDBRANCH  54  79
BRANCH  66  91
ATOM     91  C   UNL A   1      39.911  34.245  36.979  1.00  0.00     0.058 A 
ATOM     92  C   UNL A   1      40.549  35.488  36.846  1.00  0.00     0.135 A 
ATOM     93  C   UNL A   1      39.127  34.028  38.123  1.00  0.00     0.135 A 
ATOM     94  F   UNL A   1      41.316  35.742  35.773  1.00  0.00    -0.206 F 
ATOM     95  C   UNL A   1      40.430  36.474  37.820  1.00  0.00     0.059 A 
ATOM     96  C   UNL A   1      38.974  35.008  39.099  1.00  0.00     0.059 A 
ATOM     97  F   UNL A   1      38.489  32.860  38.294  1.00  0.00    -0.206 F 
ATOM     98  C   UNL A   1      39.638  36.224  38.944  1.00  0.00     0.060 A 
BRANCH  98  99
ATOM     99  S   UNL A   1      39.460  37.522  40.185  1.00  0.00     0.124 S 
ATOM    100  O   UNL A   1      40.834  37.996  40.313  1.00  0.00    -0.237 OA
ATOM    101  O   UNL A   1      38.529  38.446  39.542  1.00  0.00    -0.237 OA
ATOM    102  O   UNL A   1      38.928  36.813  41.344  1.00  0.00    -0.744 OA
ENDBRANCH  98  99
ENDBRANCH  66  91
ENDBRANCH  40  41
ENDBRANCH  32  35
ENDBRANCH  30  31
ENDBRANCH  29  30
ENDBRANCH   1  29
TORSDOF 17
ENDMDL
MODEL 3
REMARK VINA RESULT:     -11.4      4.558     11.590
REMARK SMILES Cc1cc(Nc2ccc(C(=O)NCCCCNC(=O)c3ccc(-c4c5nc(c(-c6c(F)cc(S(=O)(=O)[O-])cc6F)c6ccc([nH]6)c(-c6c(F)cc(S(=O)(=O)[O-])cc6F)c6nc(c(-c7c(F)cc(S(=O)(=O)[O-])cc7F)c7ccc4[nH]7)C=C6)C=C5)cc3)cc2)nc(-n2nc(C)cc2C)n1
REMARK SMILES IDX 14 1 13 2 12 3 10 4 11 5 9 7 6 8 7 9 87 10 8 11 86 12 5 13
REMARK SMILES IDX 4 15 1 16 2 17 3 18 97 19 89 20 88 21 90 22 91 23 95 24
REMARK SMILES IDX 92 25 94 26 96 27 93 28 15 29 16 30 17 31 18 32 19 34 20 35
REMARK SMILES IDX 21 36 85 37 22 38 84 39 23 40 24 41 25 42 78 43 26 44 83 45
REMARK SMILES IDX 77 46 79 47 27 48 82 49 76 50 75 51 28 53 62 54 41 55 61 56
REMARK SMILES IDX 42 57 45 58 60 59 80 60 43 61 44 62 59 64 81 65 46 66 29 67
REMARK SMILES IDX 30 68 39 69 31 70 32 71 38 72 40 73 33 74 34 75 35 76 36 77
REMARK SMILES IDX 37 78 63 79 64 80 73 81 65 82 66 83 72 84 74 85 67 86 68 87
REMARK SMILES IDX 69 88 70 89 71 90 47 91 48 92 57 93 49 94 50 95 56 96 58 97
REMARK SMILES IDX 51 98 52 99 53 100 54 101 55 102
REMARK H PARENT 12 6 5 14 17 33 79 52 45 63
REMARK Flexibility Score: inf
ROOT
ATOM      1  C   UNL A   1      33.671  34.735  29.130  1.00  0.00     0.023 C 
ENDROOT
BRANCH   1   2
ATOM      2  C   UNL A   1      34.247  35.096  30.501  1.00  0.00     0.116 C 
BRANCH   2   3
ATOM      3  N   UNL A   1      33.544  34.383  31.552  1.00  0.00    -0.352 N 
ATOM      4  C   UNL A   1      33.977  33.528  32.533  1.00  0.00     0.251 C 
ATOM      5  O   UNL A   1      33.141  33.080  33.319  1.00  0.00    -0.269 OA
ATOM      6  H   UNL A   1      32.572  34.543  31.562  1.00  0.00     0.163 HD
BRANCH   4   7
ATOM      7  C   UNL A   1      35.409  33.163  32.725  1.00  0.00     0.039 A 
ATOM      8  C   UNL A   1      38.168  32.677  33.099  1.00  0.00     0.040 A 
ATOM      9  C   UNL A   1      37.560  33.782  33.697  1.00  0.00     0.027 A 
ATOM     10  C   UNL A   1      37.376  31.801  32.350  1.00  0.00     0.027 A 
ATOM     11  C   UNL A   1      36.195  34.028  33.505  1.00  0.00     0.016 A 
ATOM     12  C   UNL A   1      36.004  32.015  32.205  1.00  0.00     0.016 A 
BRANCH   8  13
ATOM     13  N   UNL A   1      39.550  32.468  33.195  1.00  0.00    -0.340 N 
ATOM     14  H   UNL A   1      40.095  32.705  32.412  1.00  0.00     0.168 HD
BRANCH  13  15
ATOM     15  C   UNL A   1      40.227  31.948  34.314  1.00  0.00     0.136 A 
ATOM     16  C   UNL A   1      41.268  32.999  37.757  1.00  0.00     0.067 C 
ATOM     17  C   UNL A   1      40.935  32.175  36.551  1.00  0.00     0.045 A 
ATOM     18  C   UNL A   1      40.425  32.763  35.411  1.00  0.00     0.070 A 
ATOM     19  N   UNL A   1      41.214  30.860  36.620  1.00  0.00    -0.216 NA
ATOM     20  C   UNL A   1      41.069  30.146  35.480  1.00  0.00     0.252 A 
ATOM     21  N   UNL A   1      40.592  30.657  34.329  1.00  0.00    -0.194 NA
BRANCH  20  22
ATOM     22  N   UNL A   1      41.484  28.767  35.494  1.00  0.00    -0.203 N 
ATOM     23  N   UNL A   1      41.216  27.954  36.559  1.00  0.00    -0.170 NA
ATOM     24  C   UNL A   1      42.124  28.065  34.478  1.00  0.00     0.045 A 
ATOM     25  C   UNL A   1      41.521  26.722  36.136  1.00  0.00     0.060 A 
ATOM     26  C   UNL A   1      42.121  26.741  34.861  1.00  0.00     0.049 A 
ATOM     27  C   UNL A   1      42.730  28.713  33.290  1.00  0.00     0.067 C 
ATOM     28  C   UNL A   1      41.228  25.544  36.987  1.00  0.00     0.069 C 
ENDBRANCH  20  22
ENDBRANCH  13  15
ENDBRANCH   8  13
ENDBRANCH   4   7
ENDBRANCH   2   3
ENDBRANCH   1   2
BRANCH   1  29
ATOM     29  C   UNL A   1      34.670  34.048  28.192  1.00  0.00     0.023 C 
BRANCH  29  30
ATOM     30  C   UNL A   1      35.149  32.676  28.655  1.00  0.00     0.116 C 
BRANCH  30  31
ATOM     31  N   UNL A   1      34.245  31.601  28.281  1.00  0.00    -0.352 N 
ATOM     32  C   UNL A   1      34.535  30.274  28.052  1.00  0.00     0.251 C 
ATOM     33  H   UNL A   1      33.300  31.855  28.177  1.00  0.00     0.163 HD
ATOM     34  O   UNL A   1      33.671  29.520  27.633  1.00  0.00    -0.269 OA
BRANCH  32  35
ATOM     35  C   UNL A   1      35.913  29.786  28.280  1.00  0.00     0.039 A 
ATOM     36  C   UNL A   1      36.829  29.850  27.228  1.00  0.00     0.014 A 
ATOM     37  C   UNL A   1      36.303  29.293  29.528  1.00  0.00     0.014 A 
ATOM     38  C   UNL A   1      38.158  29.481  27.446  1.00  0.00     0.010 A 
ATOM     39  C   UNL A   1      37.641  28.984  29.760  1.00  0.00     0.010 A 
ATOM     40  C   UNL A   1      38.581  29.079  28.723  1.00  0.00    -0.014 A 
BRANCH  40  41
ATOM     41  C   UNL A   1      40.006  28.765  28.997  1.00  0.00     0.031 A 
ATOM     42  C   UNL A   1      40.914  29.817  29.570  1.00  0.00     0.074 A 
ATOM     43  C   UNL A   1      40.495  27.554  28.665  1.00  0.00     0.049 A 
ATOM     44  N   UNL A   1      42.200  29.759  29.803  1.00  0.00    -0.248 NA
ATOM     45  C   UNL A   1      40.302  31.115  29.897  1.00  0.00     0.031 C 
ATOM     46  C   UNL A   1      39.724  26.468  28.051  1.00  0.00     0.029 A 
ATOM     47  N   UNL A   1      41.760  27.036  28.780  1.00  0.00    -0.354 N 
ATOM     48  C   UNL A   1      42.552  31.010  30.296  1.00  0.00     0.074 A 
ATOM     49  C   UNL A   1      41.355  31.823  30.277  1.00  0.00     0.031 C 
ATOM     50  C   UNL A   1      40.530  25.413  27.856  1.00  0.00     0.029 A 
ATOM     51  C   UNL A   1      41.879  25.753  28.299  1.00  0.00     0.049 A 
ATOM     52  H   UNL A   1      42.513  27.536  29.171  1.00  0.00     0.167 HD
ATOM     53  C   UNL A   1      43.757  31.435  30.745  1.00  0.00     0.037 A 
ATOM     54  C   UNL A   1      42.953  24.945  28.216  1.00  0.00     0.037 A 
ATOM     55  C   UNL A   1      44.939  30.614  30.781  1.00  0.00     0.049 A 
ATOM     56  C   UNL A   1      44.279  25.434  28.735  1.00  0.00     0.074 A 
ATOM     57  C   UNL A   1      46.198  30.937  31.258  1.00  0.00     0.029 A 
ATOM     58  N   UNL A   1      45.010  29.307  30.323  1.00  0.00    -0.354 N 
ATOM     59  N   UNL A   1      44.581  26.602  29.249  1.00  0.00    -0.248 NA
ATOM     60  C   UNL A   1      45.406  24.494  28.670  1.00  0.00     0.031 C 
ATOM     61  C   UNL A   1      47.037  29.835  31.061  1.00  0.00     0.029 A 
ATOM     62  C   UNL A   1      46.291  28.811  30.497  1.00  0.00     0.049 A 
ATOM     63  H   UNL A   1      44.259  28.805  29.931  1.00  0.00     0.167 HD
ATOM     64  C   UNL A   1      45.927  26.530  29.590  1.00  0.00     0.074 A 
ATOM     65  C   UNL A   1      46.376  25.199  29.237  1.00  0.00     0.031 C 
ATOM     66  C   UNL A   1      46.719  27.481  30.146  1.00  0.00     0.037 A 
BRANCH  53  67
ATOM     67  C   UNL A   1      43.849  32.849  31.248  1.00  0.00     0.058 A 
ATOM     68  C   UNL A   1      44.093  33.922  30.375  1.00  0.00     0.135 A 
ATOM     69  C   UNL A   1      43.669  33.141  32.608  1.00  0.00     0.135 A 
ATOM     70  F   UNL A   1      44.289  33.697  29.066  1.00  0.00    -0.206 F 
ATOM     71  C   UNL A   1      44.185  35.230  30.838  1.00  0.00     0.059 A 
ATOM     72  C   UNL A   1      43.731  34.446  33.091  1.00  0.00     0.059 A 
ATOM     73  F   UNL A   1      43.433  32.153  33.487  1.00  0.00    -0.206 F 
ATOM     74  C   UNL A   1      44.006  35.482  32.199  1.00  0.00     0.060 A 
BRANCH  74  75
ATOM     75  S   UNL A   1      44.131  37.185  32.783  1.00  0.00     0.124 S 
ATOM     76  O   UNL A   1      43.964  37.931  31.540  1.00  0.00    -0.237 OA
ATOM     77  O   UNL A   1      43.023  37.276  33.728  1.00  0.00    -0.237 OA
ATOM     78  O   UNL A   1      45.464  37.244  33.377  1.00  0.00    -0.744 OA
ENDBRANCH  74  75
ENDBRANCH  53  67
BRANCH  54  79
ATOM     79  C   UNL A   1      42.815  23.584  27.638  1.00  0.00     0.058 A 
ATOM     80  C   UNL A   1      43.044  23.351  26.274  1.00  0.00     0.135 A 
ATOM     81  C   UNL A   1      42.466  22.484  28.439  1.00  0.00     0.135 A 
ATOM     82  F   UNL A   1      43.376  24.371  25.467  1.00  0.00    -0.206 F 
ATOM     83  C   UNL A   1      42.918  22.082  25.719  1.00  0.00     0.059 A 
ATOM     84  C   UNL A   1      42.356  21.202  27.912  1.00  0.00     0.059 A 
ATOM     85  F   UNL A   1      42.254  22.651  29.754  1.00  0.00    -0.206 F 
ATOM     86  C   UNL A   1      42.573  21.013  26.547  1.00  0.00     0.060 A 
BRANCH  86  87
ATOM     87  S   UNL A   1      42.459  19.360  25.828  1.00  0.00     0.124 S 
ATOM     88  O   UNL A   1      41.022  19.231  25.617  1.00  0.00    -0.237 OA
ATOM     89  O   UNL A   1      43.273  19.491  24.623  1.00  0.00    -0.237 OA
ATOM     90  O   UNL A   1      43.025  18.503  26.867  1.00  0.00    -0.744 OA
ENDBRANCH  86  87
ENDBRANCH  54  79
BRANCH  66  91
ATOM     91  C   UNL A   1      48.146  27.107  30.435  1.00  0.00     0.058 A 
ATOM     92  C   UNL A   1      49.178  27.385  29.526  1.00  0.00     0.135 A 
ATOM     93  C   UNL A   1      48.490  26.511  31.659  1.00  0.00     0.135 A 
ATOM     94  F   UNL A   1      48.899  27.948  28.338  1.00  0.00    -0.206 F 
ATOM     95  C   UNL A   1      50.502  27.067  29.811  1.00  0.00     0.059 A 
ATOM     96  C   UNL A   1      49.810  26.207  31.975  1.00  0.00     0.059 A 
ATOM     97  F   UNL A   1      47.541  26.233  32.566  1.00  0.00    -0.206 F 
ATOM     98  C   UNL A   1      50.808  26.479  31.040  1.00  0.00     0.060 A 
BRANCH  98  99
ATOM     99  S   UNL A   1      52.533  26.104  31.416  1.00  0.00     0.124 S 
ATOM    100  O   UNL A   1      52.901  27.232  32.265  1.00  0.00    -0.237 OA
ATOM    101  O   UNL A   1      52.435  24.811  32.087  1.00  0.00    -0.237 OA
ATOM    102  O   UNL A   1      53.167  26.073  30.102  1.00  0.00    -0.744 OA
ENDBRANCH  98  99
ENDBRANCH  66  91
ENDBRANCH  40  41
ENDBRANCH  32  35
ENDBRANCH  30  31
ENDBRANCH  29  30
ENDBRANCH   1  29
TORSDOF 17
ENDMDL
