MODEL 1
REMARK VINA RESULT:     -12.1      0.000      0.000
REMARK SMILES COc1ccc(CCN2C(=O)C[C@@H](C(=O)NCCCCNC(=O)c3ccc(-c4c5nc(c(-c6c(F)cc(S(=O)(=O)[O-])cc6F)c6ccc([nH]6)c(-c6c(F)cc(S(=O)(=O)[O-])cc6F)c6nc(c(-c7c(F)cc(S(=O)(=O)[O-])cc7F)c7ccc4[nH]7)C=C6)C=C5)cc3)S/C2=[NH+]\c2ccc(F)cc2)cc1OC
REMARK SMILES IDX 18 1 17 2 16 3 14 4 15 5 13 7 9 8 10 9 91 10 11 11 12 12
REMARK SMILES IDX 90 13 92 14 8 16 7 17 6 18 3 19 4 20 101 21 5 22 100 23 2 24
REMARK SMILES IDX 1 25 102 26 103 27 93 28 94 29 99 30 95 31 98 32 96 33 97 34
REMARK SMILES IDX 19 35 20 36 21 37 22 38 23 40 24 41 25 42 89 43 26 44 88 45
REMARK SMILES IDX 27 46 28 47 29 48 82 49 30 50 87 51 81 52 83 53 31 54 86 55
REMARK SMILES IDX 80 56 79 57 32 59 66 60 45 61 65 62 46 63 49 64 64 65 84 66
REMARK SMILES IDX 47 67 48 68 63 70 85 71 50 72 33 73 34 74 43 75 35 76 36 77
REMARK SMILES IDX 42 78 44 79 37 80 38 81 39 82 40 83 41 84 67 85 68 86 77 87
REMARK SMILES IDX 69 88 70 89 76 90 78 91 71 92 72 93 73 94 74 95 75 96 51 97
REMARK SMILES IDX 52 98 61 99 53 100 54 101 60 102 62 103 55 104 56 105 57 106
REMARK SMILES IDX 58 107 59 108
REMARK H PARENT 16 6 92 15 21 39 83 58 49 69
REMARK Flexibility Score: inf
ROOT
ATOM      1  C   UNL A   1      40.179  20.901  26.673  1.00  0.00     0.023 C 
ENDROOT
BRANCH   1   2
ATOM      2  C   UNL A   1      39.100  21.432  25.735  1.00  0.00     0.116 C 
BRANCH   2   3
ATOM      3  N   UNL A   1      38.108  22.245  26.416  1.00  0.00    -0.355 N 
ATOM      4  C   UNL A   1      36.852  22.621  26.039  1.00  0.00     0.234 C 
ATOM      5  O   UNL A   1      36.194  23.302  26.830  1.00  0.00    -0.274 OA
ATOM      6  H   UNL A   1      38.389  22.580  27.299  1.00  0.00     0.163 HD
BRANCH   4   7
ATOM      7  C   UNL A   1      36.253  22.207  24.691  1.00  0.00     0.160 C 
ATOM      8  N   UNL A   1      33.664  22.609  23.209  1.00  0.00    -0.191 N 
ATOM      9  C   UNL A   1      34.553  23.664  23.405  1.00  0.00     0.311 C 
ATOM     10  C   UNL A   1      33.761  21.322  23.757  1.00  0.00     0.319 C 
ATOM     11  O   UNL A   1      34.233  24.842  23.214  1.00  0.00    -0.247 OA
ATOM     12  C   UNL A   1      35.976  23.385  23.800  1.00  0.00     0.153 C 
ATOM     13  S   UNL A   1      34.956  21.028  24.988  1.00  0.00    -0.024 SA
ATOM     14  N   UNL A   1      32.896  20.409  23.421  1.00  0.00    -0.235 N 
ATOM     15  H   UNL A   1      32.219  20.611  22.736  1.00  0.00     0.313 HD
BRANCH   8  16
ATOM     16  C   UNL A   1      32.351  22.988  22.644  1.00  0.00     0.251 C 
BRANCH  16  17
ATOM     17  C   UNL A   1      31.277  23.538  23.606  1.00  0.00     0.082 C 
BRANCH  17  18
ATOM     18  C   UNL A   1      31.053  25.032  23.595  1.00  0.00    -0.040 A 
ATOM     19  C   UNL A   1      30.775  27.836  23.650  1.00  0.00     0.160 A 
ATOM     20  C   UNL A   1      30.671  27.128  22.444  1.00  0.00     0.051 A 
ATOM     21  C   UNL A   1      31.016  27.149  24.843  1.00  0.00     0.160 A 
ATOM     22  C   UNL A   1      30.825  25.739  22.414  1.00  0.00     0.008 A 
ATOM     23  C   UNL A   1      31.155  25.754  24.797  1.00  0.00     0.054 A 
BRANCH  19  24
ATOM     24  O   UNL A   1      30.549  29.187  23.645  1.00  0.00    -0.493 OA
ATOM     25  C   UNL A   1      30.282  29.685  22.334  1.00  0.00     0.278 C 
ENDBRANCH  19  24
BRANCH  21  26
ATOM     26  O   UNL A   1      31.141  27.653  26.110  1.00  0.00    -0.493 OA
ATOM     27  C   UNL A   1      32.340  27.395  26.823  1.00  0.00     0.278 C 
ENDBRANCH  21  26
ENDBRANCH  17  18
ENDBRANCH  16  17
ENDBRANCH   8  16
BRANCH  14  28
ATOM     28  C   UNL A   1      32.920  19.139  24.024  1.00  0.00     0.125 A 
ATOM     29  C   UNL A   1      33.332  18.025  23.283  1.00  0.00     0.055 A 
ATOM     30  C   UNL A   1      32.573  18.977  25.374  1.00  0.00     0.055 A 
ATOM     31  C   UNL A   1      33.461  16.780  23.899  1.00  0.00     0.043 A 
ATOM     32  C   UNL A   1      32.713  17.732  25.994  1.00  0.00     0.043 A 
ATOM     33  C   UNL A   1      33.164  16.648  25.252  1.00  0.00     0.123 A 
ATOM     34  F   UNL A   1      33.320  15.459  25.848  1.00  0.00    -0.207 F 
ENDBRANCH  14  28
ENDBRANCH   4   7
ENDBRANCH   2   3
ENDBRANCH   1   2
BRANCH   1  35
ATOM     35  C   UNL A   1      41.534  21.598  26.558  1.00  0.00     0.023 C 
BRANCH  35  36
ATOM     36  C   UNL A   1      41.538  23.078  26.924  1.00  0.00     0.116 C 
BRANCH  36  37
ATOM     37  N   UNL A   1      41.845  23.945  25.798  1.00  0.00    -0.352 N 
ATOM     38  C   UNL A   1      41.954  25.320  25.777  1.00  0.00     0.251 C 
ATOM     39  H   UNL A   1      41.996  23.491  24.937  1.00  0.00     0.163 HD
ATOM     40  O   UNL A   1      42.100  25.912  24.720  1.00  0.00    -0.269 OA
BRANCH  38  41
ATOM     41  C   UNL A   1      41.848  26.065  27.051  1.00  0.00     0.039 A 
ATOM     42  C   UNL A   1      42.875  26.941  27.409  1.00  0.00     0.014 A 
ATOM     43  C   UNL A   1      40.713  25.939  27.857  1.00  0.00     0.014 A 
ATOM     44  C   UNL A   1      42.729  27.749  28.537  1.00  0.00     0.010 A 
ATOM     45  C   UNL A   1      40.537  26.798  28.937  1.00  0.00     0.010 A 
ATOM     46  C   UNL A   1      41.540  27.715  29.287  1.00  0.00    -0.014 A 
BRANCH  46  47
ATOM     47  C   UNL A   1      41.319  28.637  30.432  1.00  0.00     0.031 A 
ATOM     48  C   UNL A   1      42.151  28.501  31.678  1.00  0.00     0.074 A 
ATOM     49  C   UNL A   1      40.322  29.542  30.379  1.00  0.00     0.049 A 
ATOM     50  N   UNL A   1      42.052  29.147  32.811  1.00  0.00    -0.248 NA
ATOM     51  C   UNL A   1      43.215  27.484  31.657  1.00  0.00     0.031 C 
ATOM     52  C   UNL A   1      39.412  29.736  29.248  1.00  0.00     0.029 A 
ATOM     53  N   UNL A   1      39.896  30.462  31.305  1.00  0.00    -0.354 N 
ATOM     54  C   UNL A   1      43.027  28.605  33.642  1.00  0.00     0.074 A 
ATOM     55  C   UNL A   1      43.670  27.542  32.901  1.00  0.00     0.031 C 
ATOM     56  C   UNL A   1      38.550  30.724  29.539  1.00  0.00     0.029 A 
ATOM     57  C   UNL A   1      38.818  31.208  30.889  1.00  0.00     0.049 A 
ATOM     58  H   UNL A   1      40.323  30.576  32.185  1.00  0.00     0.167 HD
ATOM     59  C   UNL A   1      43.372  28.977  34.897  1.00  0.00     0.037 A 
ATOM     60  C   UNL A   1      38.118  32.168  31.527  1.00  0.00     0.037 A 
ATOM     61  C   UNL A   1      42.747  30.055  35.618  1.00  0.00     0.049 A 
ATOM     62  C   UNL A   1      38.522  32.566  32.920  1.00  0.00     0.074 A 
ATOM     63  C   UNL A   1      43.065  30.548  36.871  1.00  0.00     0.029 A 
ATOM     64  N   UNL A   1      41.679  30.807  35.151  1.00  0.00    -0.354 N 
ATOM     65  N   UNL A   1      39.489  32.086  33.667  1.00  0.00    -0.248 NA
ATOM     66  C   UNL A   1      37.747  33.640  33.557  1.00  0.00     0.031 C 
ATOM     67  C   UNL A   1      42.161  31.571  37.180  1.00  0.00     0.029 A 
ATOM     68  C   UNL A   1      41.311  31.748  36.099  1.00  0.00     0.049 A 
ATOM     69  H   UNL A   1      41.244  30.688  34.275  1.00  0.00     0.167 HD
ATOM     70  C   UNL A   1      39.455  32.819  34.848  1.00  0.00     0.074 A 
ATOM     71  C   UNL A   1      38.380  33.779  34.715  1.00  0.00     0.031 C 
ATOM     72  C   UNL A   1      40.244  32.704  35.946  1.00  0.00     0.037 A 
BRANCH  59  73
ATOM     73  C   UNL A   1      44.481  28.215  35.569  1.00  0.00     0.058 A 
ATOM     74  C   UNL A   1      45.824  28.607  35.444  1.00  0.00     0.135 A 
ATOM     75  C   UNL A   1      44.199  27.099  36.372  1.00  0.00     0.135 A 
ATOM     76  F   UNL A   1      46.153  29.657  34.675  1.00  0.00    -0.206 F 
ATOM     77  C   UNL A   1      46.850  27.900  36.063  1.00  0.00     0.059 A 
ATOM     78  C   UNL A   1      45.206  26.394  37.026  1.00  0.00     0.059 A 
ATOM     79  F   UNL A   1      42.933  26.680  36.527  1.00  0.00    -0.206 F 
ATOM     80  C   UNL A   1      46.530  26.794  36.852  1.00  0.00     0.060 A 
BRANCH  80  81
ATOM     81  S   UNL A   1      47.873  25.890  37.651  1.00  0.00     0.124 S 
ATOM     82  O   UNL A   1      47.215  24.631  37.987  1.00  0.00    -0.237 OA
ATOM     83  O   UNL A   1      48.874  25.819  36.592  1.00  0.00    -0.237 OA
ATOM     84  O   UNL A   1      48.224  26.736  38.787  1.00  0.00    -0.744 OA
ENDBRANCH  80  81
ENDBRANCH  59  73
BRANCH  60  85
ATOM     85  C   UNL A   1      36.975  32.831  30.844  1.00  0.00     0.058 A 
ATOM     86  C   UNL A   1      35.651  32.550  31.215  1.00  0.00     0.135 A 
ATOM     87  C   UNL A   1      37.180  33.768  29.820  1.00  0.00     0.135 A 
ATOM     88  F   UNL A   1      35.403  31.656  32.185  1.00  0.00    -0.206 F 
ATOM     89  C   UNL A   1      34.572  33.159  30.585  1.00  0.00     0.059 A 
ATOM     90  C   UNL A   1      36.117  34.410  29.191  1.00  0.00     0.059 A 
ATOM     91  F   UNL A   1      38.427  34.085  29.438  1.00  0.00    -0.206 F 
ATOM     92  C   UNL A   1      34.815  34.091  29.574  1.00  0.00     0.060 A 
BRANCH  92  93
ATOM     93  S   UNL A   1      33.408  34.913  28.797  1.00  0.00     0.124 S 
ATOM     94  O   UNL A   1      34.006  36.170  28.361  1.00  0.00    -0.237 OA
ATOM     95  O   UNL A   1      33.050  33.975  27.738  1.00  0.00    -0.237 OA
ATOM     96  O   UNL A   1      32.440  35.018  29.885  1.00  0.00    -0.744 OA
ENDBRANCH  92  93
ENDBRANCH  60  85
BRANCH  72  97
ATOM     97  C   UNL A   1      40.002  33.665  37.077  1.00  0.00     0.058 A 
ATOM     98  C   UNL A   1      40.660  34.902  37.149  1.00  0.00     0.135 A 
ATOM     99  C   UNL A   1      39.051  33.368  38.068  1.00  0.00     0.135 A 
ATOM    100  F   UNL A   1      41.582  35.231  36.230  1.00  0.00    -0.206 F 
ATOM    101  C   UNL A   1      40.400  35.804  38.176  1.00  0.00     0.059 A 
ATOM    102  C   UNL A   1      38.755  34.266  39.089  1.00  0.00     0.059 A 
ATOM    103  F   UNL A   1      38.386  32.202  38.040  1.00  0.00    -0.206 F 
ATOM    104  C   UNL A   1      39.443  35.477  39.140  1.00  0.00     0.060 A 
BRANCH 104 105
ATOM    105  S   UNL A   1      39.084  36.674  40.443  1.00  0.00     0.124 S 
ATOM    106  O   UNL A   1      38.173  35.917  41.295  1.00  0.00    -0.237 OA
ATOM    107  O   UNL A   1      40.407  36.934  41.003  1.00  0.00    -0.237 OA
ATOM    108  O   UNL A   1      38.486  37.793  39.722  1.00  0.00    -0.744 OA
ENDBRANCH 104 105
ENDBRANCH  72  97
ENDBRANCH  46  47
ENDBRANCH  38  41
ENDBRANCH  36  37
ENDBRANCH  35  36
ENDBRANCH   1  35
TORSDOF 20
ENDMDL
MODEL 2
REMARK VINA RESULT:     -11.4      2.365      8.581
REMARK SMILES COc1ccc(CCN2C(=O)C[C@@H](C(=O)NCCCCNC(=O)c3ccc(-c4c5nc(c(-c6c(F)cc(S(=O)(=O)[O-])cc6F)c6ccc([nH]6)c(-c6c(F)cc(S(=O)(=O)[O-])cc6F)c6nc(c(-c7c(F)cc(S(=O)(=O)[O-])cc7F)c7ccc4[nH]7)C=C6)C=C5)cc3)S/C2=[NH+]\c2ccc(F)cc2)cc1OC
REMARK SMILES IDX 18 1 17 2 16 3 14 4 15 5 13 7 9 8 10 9 91 10 11 11 12 12
REMARK SMILES IDX 90 13 92 14 8 16 7 17 6 18 3 19 4 20 101 21 5 22 100 23 2 24
REMARK SMILES IDX 1 25 102 26 103 27 93 28 94 29 99 30 95 31 98 32 96 33 97 34
REMARK SMILES IDX 19 35 20 36 21 37 22 38 23 40 24 41 25 42 89 43 26 44 88 45
REMARK SMILES IDX 27 46 28 47 29 48 82 49 30 50 87 51 81 52 83 53 31 54 86 55
REMARK SMILES IDX 80 56 79 57 32 59 66 60 45 61 65 62 46 63 49 64 64 65 84 66
REMARK SMILES IDX 47 67 48 68 63 70 85 71 50 72 33 73 34 74 43 75 35 76 36 77
REMARK SMILES IDX 42 78 44 79 37 80 38 81 39 82 40 83 41 84 67 85 68 86 77 87
REMARK SMILES IDX 69 88 70 89 76 90 78 91 71 92 72 93 73 94 74 95 75 96 51 97
REMARK SMILES IDX 52 98 61 99 53 100 54 101 60 102 62 103 55 104 56 105 57 106
REMARK SMILES IDX 58 107 59 108
REMARK H PARENT 16 6 92 15 21 39 83 58 49 69
REMARK Flexibility Score: inf
ROOT
ATOM      1  C   UNL A   1      39.041  22.985  26.381  1.00  0.00     0.023 C 
ENDROOT
BRANCH   1   2
ATOM      2  C   UNL A   1      37.649  23.439  25.952  1.00  0.00     0.116 C 
BRANCH   2   3
ATOM      3  N   UNL A   1      37.396  23.226  24.538  1.00  0.00    -0.355 N 
ATOM      4  C   UNL A   1      36.223  23.157  23.843  1.00  0.00     0.234 C 
ATOM      5  O   UNL A   1      36.288  22.994  22.622  1.00  0.00    -0.274 OA
ATOM      6  H   UNL A   1      38.205  23.112  23.989  1.00  0.00     0.163 HD
BRANCH   4   7
ATOM      7  C   UNL A   1      34.863  23.295  24.534  1.00  0.00     0.160 C 
ATOM      8  N   UNL A   1      32.081  24.163  23.778  1.00  0.00    -0.191 N 
ATOM      9  C   UNL A   1      32.621  22.973  23.294  1.00  0.00     0.311 C 
ATOM     10  C   UNL A   1      32.753  25.143  24.524  1.00  0.00     0.319 C 
ATOM     11  O   UNL A   1      32.111  22.350  22.357  1.00  0.00    -0.247 OA
ATOM     12  C   UNL A   1      33.829  22.371  23.954  1.00  0.00     0.153 C 
ATOM     13  S   UNL A   1      34.482  25.024  24.690  1.00  0.00    -0.024 SA
ATOM     14  N   UNL A   1      32.097  26.170  24.981  1.00  0.00    -0.235 N 
ATOM     15  H   UNL A   1      31.122  26.220  24.854  1.00  0.00     0.313 HD
BRANCH   8  16
ATOM     16  C   UNL A   1      30.793  24.563  23.174  1.00  0.00     0.251 C 
BRANCH  16  17
ATOM     17  C   UNL A   1      29.718  25.180  24.093  1.00  0.00     0.082 C 
BRANCH  17  18
ATOM     18  C   UNL A   1      29.161  26.523  23.684  1.00  0.00    -0.040 A 
ATOM     19  C   UNL A   1      28.164  28.996  22.771  1.00  0.00     0.160 A 
ATOM     20  C   UNL A   1      27.352  28.125  23.511  1.00  0.00     0.051 A 
ATOM     21  C   UNL A   1      29.485  28.642  22.482  1.00  0.00     0.160 A 
ATOM     22  C   UNL A   1      27.842  26.891  23.950  1.00  0.00     0.008 A 
ATOM     23  C   UNL A   1      29.964  27.406  22.941  1.00  0.00     0.054 A 
BRANCH  19  24
ATOM     24  O   UNL A   1      27.667  30.224  22.420  1.00  0.00    -0.493 OA
ATOM     25  C   UNL A   1      27.456  31.065  23.554  1.00  0.00     0.278 C 
ENDBRANCH  19  24
BRANCH  21  26
ATOM     26  O   UNL A   1      30.428  29.352  21.788  1.00  0.00    -0.493 OA
ATOM     27  C   UNL A   1      31.687  29.579  22.401  1.00  0.00     0.278 C 
ENDBRANCH  21  26
ENDBRANCH  17  18
ENDBRANCH  16  17
ENDBRANCH   8  16
BRANCH  14  28
ATOM     28  C   UNL A   1      32.766  27.208  25.654  1.00  0.00     0.125 A 
ATOM     29  C   UNL A   1      33.715  27.979  24.974  1.00  0.00     0.055 A 
ATOM     30  C   UNL A   1      32.467  27.509  26.991  1.00  0.00     0.055 A 
ATOM     31  C   UNL A   1      34.308  29.077  25.599  1.00  0.00     0.043 A 
ATOM     32  C   UNL A   1      33.051  28.614  27.614  1.00  0.00     0.043 A 
ATOM     33  C   UNL A   1      33.959  29.393  26.908  1.00  0.00     0.123 A 
ATOM     34  F   UNL A   1      34.505  30.467  27.493  1.00  0.00    -0.207 F 
ENDBRANCH  14  28
ENDBRANCH   4   7
ENDBRANCH   2   3
ENDBRANCH   1   2
BRANCH   1  35
ATOM     35  C   UNL A   1      39.884  24.056  27.072  1.00  0.00     0.023 C 
BRANCH  35  36
ATOM     36  C   UNL A   1      40.257  25.252  26.205  1.00  0.00     0.116 C 
BRANCH  36  37
ATOM     37  N   UNL A   1      41.623  25.197  25.710  1.00  0.00    -0.352 N 
ATOM     38  C   UNL A   1      42.743  25.832  26.205  1.00  0.00     0.251 C 
ATOM     39  H   UNL A   1      41.768  24.632  24.916  1.00  0.00     0.163 HD
ATOM     40  O   UNL A   1      43.801  25.778  25.600  1.00  0.00    -0.269 OA
BRANCH  38  41
ATOM     41  C   UNL A   1      42.627  26.612  27.457  1.00  0.00     0.039 A 
ATOM     42  C   UNL A   1      42.774  28.000  27.405  1.00  0.00     0.014 A 
ATOM     43  C   UNL A   1      42.322  25.978  28.665  1.00  0.00     0.014 A 
ATOM     44  C   UNL A   1      42.535  28.761  28.550  1.00  0.00     0.010 A 
ATOM     45  C   UNL A   1      42.013  26.743  29.785  1.00  0.00     0.010 A 
ATOM     46  C   UNL A   1      42.111  28.142  29.740  1.00  0.00    -0.014 A 
BRANCH  46  47
ATOM     47  C   UNL A   1      41.755  28.939  30.943  1.00  0.00     0.031 A 
ATOM     48  C   UNL A   1      40.561  29.853  30.913  1.00  0.00     0.074 A 
ATOM     49  C   UNL A   1      42.549  28.897  32.031  1.00  0.00     0.049 A 
ATOM     50  N   UNL A   1      40.142  30.692  31.825  1.00  0.00    -0.248 NA
ATOM     51  C   UNL A   1      39.750  29.846  29.685  1.00  0.00     0.031 C 
ATOM     52  C   UNL A   1      43.765  28.090  32.163  1.00  0.00     0.029 A 
ATOM     53  N   UNL A   1      42.462  29.558  33.231  1.00  0.00    -0.354 N 
ATOM     54  C   UNL A   1      39.030  31.323  31.277  1.00  0.00     0.074 A 
ATOM     55  C   UNL A   1      38.874  30.809  29.933  1.00  0.00     0.031 C 
ATOM     56  C   UNL A   1      44.297  28.289  33.380  1.00  0.00     0.029 A 
ATOM     57  C   UNL A   1      43.487  29.266  34.101  1.00  0.00     0.049 A 
ATOM     58  H   UNL A   1      41.734  30.185  33.448  1.00  0.00     0.167 HD
ATOM     59  C   UNL A   1      38.201  32.227  31.849  1.00  0.00     0.037 A 
ATOM     60  C   UNL A   1      43.750  29.738  35.336  1.00  0.00     0.037 A 
ATOM     61  C   UNL A   1      38.346  32.713  33.196  1.00  0.00     0.049 A 
ATOM     62  C   UNL A   1      42.812  30.740  35.952  1.00  0.00     0.074 A 
ATOM     63  C   UNL A   1      37.524  33.585  33.889  1.00  0.00     0.029 A 
ATOM     64  N   UNL A   1      39.379  32.370  34.056  1.00  0.00    -0.354 N 
ATOM     65  N   UNL A   1      41.728  31.277  35.442  1.00  0.00    -0.248 NA
ATOM     66  C   UNL A   1      43.126  31.197  37.313  1.00  0.00     0.031 C 
ATOM     67  C   UNL A   1      38.083  33.802  35.153  1.00  0.00     0.029 A 
ATOM     68  C   UNL A   1      39.227  33.027  35.266  1.00  0.00     0.049 A 
ATOM     69  H   UNL A   1      40.114  31.751  33.838  1.00  0.00     0.167 HD
ATOM     70  C   UNL A   1      41.218  32.112  36.430  1.00  0.00     0.074 A 
ATOM     71  C   UNL A   1      42.104  32.003  37.570  1.00  0.00     0.031 C 
ATOM     72  C   UNL A   1      40.114  32.899  36.395  1.00  0.00     0.037 A 
BRANCH  59  73
ATOM     73  C   UNL A   1      37.058  32.746  31.020  1.00  0.00     0.058 A 
ATOM     74  C   UNL A   1      35.763  32.215  31.139  1.00  0.00     0.135 A 
ATOM     75  C   UNL A   1      37.250  33.805  30.119  1.00  0.00     0.135 A 
ATOM     76  F   UNL A   1      35.526  31.191  31.974  1.00  0.00    -0.206 F 
ATOM     77  C   UNL A   1      34.707  32.693  30.371  1.00  0.00     0.059 A 
ATOM     78  C   UNL A   1      36.201  34.320  29.361  1.00  0.00     0.059 A 
ATOM     79  F   UNL A   1      38.467  34.350  29.965  1.00  0.00    -0.206 F 
ATOM     80  C   UNL A   1      34.936  33.746  29.483  1.00  0.00     0.060 A 
BRANCH  80  81
ATOM     81  S   UNL A   1      33.554  34.356  28.496  1.00  0.00     0.124 S 
ATOM     82  O   UNL A   1      34.204  35.388  27.693  1.00  0.00    -0.237 OA
ATOM     83  O   UNL A   1      33.135  33.160  27.773  1.00  0.00    -0.237 OA
ATOM     84  O   UNL A   1      32.610  34.844  29.497  1.00  0.00    -0.744 OA
ENDBRANCH  80  81
ENDBRANCH  59  73
BRANCH  60  85
ATOM     85  C   UNL A   1      44.943  29.251  36.079  1.00  0.00     0.058 A 
ATOM     86  C   UNL A   1      46.176  29.913  35.974  1.00  0.00     0.135 A 
ATOM     87  C   UNL A   1      44.874  28.128  36.916  1.00  0.00     0.135 A 
ATOM     88  F   UNL A   1      46.295  30.988  35.180  1.00  0.00    -0.206 F 
ATOM     89  C   UNL A   1      47.303  29.469  36.659  1.00  0.00     0.059 A 
ATOM     90  C   UNL A   1      45.981  27.680  37.632  1.00  0.00     0.059 A 
ATOM     91  F   UNL A   1      43.714  27.470  37.065  1.00  0.00    -0.206 F 
ATOM     92  C   UNL A   1      47.194  28.351  37.489  1.00  0.00     0.060 A 
BRANCH  92  93
ATOM     93  S   UNL A   1      48.649  27.814  38.413  1.00  0.00     0.124 S 
ATOM     94  O   UNL A   1      49.304  26.939  37.447  1.00  0.00    -0.237 OA
ATOM     95  O   UNL A   1      49.323  29.079  38.687  1.00  0.00    -0.237 OA
ATOM     96  O   UNL A   1      48.078  27.150  39.581  1.00  0.00    -0.744 OA
ENDBRANCH  92  93
ENDBRANCH  60  85
BRANCH  72  97
ATOM     97  C   UNL A   1      39.777  33.677  37.637  1.00  0.00     0.058 A 
ATOM     98  C   UNL A   1      38.860  33.197  38.583  1.00  0.00     0.135 A 
ATOM     99  C   UNL A   1      40.430  34.891  37.912  1.00  0.00     0.135 A 
ATOM    100  F   UNL A   1      38.204  32.046  38.365  1.00  0.00    -0.206 F 
ATOM    101  C   UNL A   1      38.584  33.902  39.751  1.00  0.00     0.059 A 
ATOM    102  C   UNL A   1      40.191  35.599  39.085  1.00  0.00     0.059 A 
ATOM    103  F   UNL A   1      41.325  35.390  37.044  1.00  0.00    -0.206 F 
ATOM    104  C   UNL A   1      39.258  35.101  39.993  1.00  0.00     0.060 A 
BRANCH 104 105
ATOM    105  S   UNL A   1      38.923  35.986  41.532  1.00  0.00     0.124 S 
ATOM    106  O   UNL A   1      40.090  35.633  42.333  1.00  0.00    -0.237 OA
ATOM    107  O   UNL A   1      38.856  37.374  41.086  1.00  0.00    -0.237 OA
ATOM    108  O   UNL A   1      37.656  35.418  41.982  1.00  0.00    -0.744 OA
ENDBRANCH 104 105
ENDBRANCH  72  97
ENDBRANCH  46  47
ENDBRANCH  38  41
ENDBRANCH  36  37
ENDBRANCH  35  36
ENDBRANCH   1  35
TORSDOF 20
ENDMDL
MODEL 3
REMARK VINA RESULT:     -11.4      2.359      3.634
REMARK SMILES COc1ccc(CCN2C(=O)C[C@@H](C(=O)NCCCCNC(=O)c3ccc(-c4c5nc(c(-c6c(F)cc(S(=O)(=O)[O-])cc6F)c6ccc([nH]6)c(-c6c(F)cc(S(=O)(=O)[O-])cc6F)c6nc(c(-c7c(F)cc(S(=O)(=O)[O-])cc7F)c7ccc4[nH]7)C=C6)C=C5)cc3)S/C2=[NH+]\c2ccc(F)cc2)cc1OC
REMARK SMILES IDX 18 1 17 2 16 3 14 4 15 5 13 7 9 8 10 9 91 10 11 11 12 12
REMARK SMILES IDX 90 13 92 14 8 16 7 17 6 18 3 19 4 20 101 21 5 22 100 23 2 24
REMARK SMILES IDX 1 25 102 26 103 27 93 28 94 29 99 30 95 31 98 32 96 33 97 34
REMARK SMILES IDX 19 35 20 36 21 37 22 38 23 40 24 41 25 42 89 43 26 44 88 45
REMARK SMILES IDX 27 46 28 47 29 48 82 49 30 50 87 51 81 52 83 53 31 54 86 55
REMARK SMILES IDX 80 56 79 57 32 59 66 60 45 61 65 62 46 63 49 64 64 65 84 66
REMARK SMILES IDX 47 67 48 68 63 70 85 71 50 72 33 73 34 74 43 75 35 76 36 77
REMARK SMILES IDX 42 78 44 79 37 80 38 81 39 82 40 83 41 84 67 85 68 86 77 87
REMARK SMILES IDX 69 88 70 89 76 90 78 91 71 92 72 93 73 94 74 95 75 96 51 97
REMARK SMILES IDX 52 98 61 99 53 100 54 101 60 102 62 103 55 104 56 105 57 106
REMARK SMILES IDX 58 107 59 108
REMARK H PARENT 16 6 92 15 21 39 83 58 49 69
REMARK Flexibility Score: inf
ROOT
ATOM      1  C   UNL A   1      39.090  23.285  26.574  1.00  0.00     0.023 C 
ENDROOT
BRANCH   1   2
ATOM      2  C   UNL A   1      37.688  23.633  26.085  1.00  0.00     0.116 C 
BRANCH   2   3
ATOM      3  N   UNL A   1      37.492  23.340  24.676  1.00  0.00    -0.355 N 
ATOM      4  C   UNL A   1      36.348  23.181  23.949  1.00  0.00     0.234 C 
ATOM      5  O   UNL A   1      36.461  22.963  22.740  1.00  0.00    -0.274 OA
ATOM      6  H   UNL A   1      38.324  23.239  24.158  1.00  0.00     0.163 HD
BRANCH   4   7
ATOM      7  C   UNL A   1      34.961  23.287  24.590  1.00  0.00     0.160 C 
ATOM      8  N   UNL A   1      32.202  24.154  23.751  1.00  0.00    -0.191 N 
ATOM      9  C   UNL A   1      32.772  22.984  23.253  1.00  0.00     0.311 C 
ATOM     10  C   UNL A   1      32.834  25.117  24.551  1.00  0.00     0.319 C 
ATOM     11  O   UNL A   1      32.305  22.385  22.279  1.00  0.00    -0.247 OA
ATOM     12  C   UNL A   1      33.958  22.372  23.942  1.00  0.00     0.153 C 
ATOM     13  S   UNL A   1      34.557  25.008  24.781  1.00  0.00    -0.024 SA
ATOM     14  N   UNL A   1      32.152  26.124  25.012  1.00  0.00    -0.235 N 
ATOM     15  H   UNL A   1      31.182  26.169  24.848  1.00  0.00     0.313 HD
BRANCH   8  16
ATOM     16  C   UNL A   1      30.935  24.561  23.108  1.00  0.00     0.251 C 
BRANCH  16  17
ATOM     17  C   UNL A   1      29.809  25.115  24.006  1.00  0.00     0.082 C 
BRANCH  17  18
ATOM     18  C   UNL A   1      29.251  26.471  23.641  1.00  0.00    -0.040 A 
ATOM     19  C   UNL A   1      28.256  28.974  22.810  1.00  0.00     0.160 A 
ATOM     20  C   UNL A   1      27.437  28.070  23.501  1.00  0.00     0.051 A 
ATOM     21  C   UNL A   1      29.584  28.638  22.530  1.00  0.00     0.160 A 
ATOM     22  C   UNL A   1      27.926  26.822  23.899  1.00  0.00     0.008 A 
ATOM     23  C   UNL A   1      30.062  27.387  22.948  1.00  0.00     0.054 A 
BRANCH  19  24
ATOM     24  O   UNL A   1      27.759  30.212  22.501  1.00  0.00    -0.493 OA
ATOM     25  C   UNL A   1      27.967  30.550  21.129  1.00  0.00     0.278 C 
ENDBRANCH  19  24
BRANCH  21  26
ATOM     26  O   UNL A   1      30.535  29.379  21.882  1.00  0.00    -0.493 OA
ATOM     27  C   UNL A   1      31.856  29.382  22.399  1.00  0.00     0.278 C 
ENDBRANCH  21  26
ENDBRANCH  17  18
ENDBRANCH  16  17
ENDBRANCH   8  16
BRANCH  14  28
ATOM     28  C   UNL A   1      32.783  27.147  25.741  1.00  0.00     0.125 A 
ATOM     29  C   UNL A   1      33.791  27.910  25.140  1.00  0.00     0.055 A 
ATOM     30  C   UNL A   1      32.392  27.441  27.056  1.00  0.00     0.055 A 
ATOM     31  C   UNL A   1      34.351  28.994  25.815  1.00  0.00     0.043 A 
ATOM     32  C   UNL A   1      32.944  28.533  27.729  1.00  0.00     0.043 A 
ATOM     33  C   UNL A   1      33.912  29.305  27.099  1.00  0.00     0.123 A 
ATOM     34  F   UNL A   1      34.428  30.365  27.732  1.00  0.00    -0.207 F 
ENDBRANCH  14  28
ENDBRANCH   4   7
ENDBRANCH   2   3
ENDBRANCH   1   2
BRANCH   1  35
ATOM     35  C   UNL A   1      39.910  24.472  27.078  1.00  0.00     0.023 C 
BRANCH  35  36
ATOM     36  C   UNL A   1      40.585  25.304  25.995  1.00  0.00     0.116 C 
BRANCH  36  37
ATOM     37  N   UNL A   1      41.963  24.912  25.747  1.00  0.00    -0.352 N 
ATOM     38  C   UNL A   1      43.109  25.353  26.375  1.00  0.00     0.251 C 
ATOM     39  H   UNL A   1      42.096  24.243  25.037  1.00  0.00     0.163 HD
ATOM     40  O   UNL A   1      44.207  25.013  25.966  1.00  0.00    -0.269 OA
BRANCH  38  41
ATOM     41  C   UNL A   1      42.984  26.276  27.525  1.00  0.00     0.039 A 
ATOM     42  C   UNL A   1      43.236  27.636  27.330  1.00  0.00     0.014 A 
ATOM     43  C   UNL A   1      42.568  25.806  28.774  1.00  0.00     0.014 A 
ATOM     44  C   UNL A   1      42.992  28.537  28.368  1.00  0.00     0.010 A 
ATOM     45  C   UNL A   1      42.255  26.713  29.781  1.00  0.00     0.010 A 
ATOM     46  C   UNL A   1      42.459  28.087  29.589  1.00  0.00    -0.014 A 
BRANCH  46  47
ATOM     47  C   UNL A   1      42.099  29.038  30.673  1.00  0.00     0.031 A 
ATOM     48  C   UNL A   1      42.902  29.069  31.944  1.00  0.00     0.074 A 
ATOM     49  C   UNL A   1      41.006  29.817  30.543  1.00  0.00     0.049 A 
ATOM     50  N   UNL A   1      42.693  29.761  33.035  1.00  0.00    -0.248 NA
ATOM     51  C   UNL A   1      44.076  28.184  32.009  1.00  0.00     0.031 C 
ATOM     52  C   UNL A   1      40.115  29.840  29.380  1.00  0.00     0.029 A 
ATOM     53  N   UNL A   1      40.448  30.729  31.403  1.00  0.00    -0.354 N 
ATOM     54  C   UNL A   1      43.698  29.383  33.920  1.00  0.00     0.074 A 
ATOM     55  C   UNL A   1      44.482  28.363  33.258  1.00  0.00     0.031 C 
ATOM     56  C   UNL A   1      39.136  30.735  29.592  1.00  0.00     0.029 A 
ATOM     57  C   UNL A   1      39.304  31.320  30.919  1.00  0.00     0.049 A 
ATOM     58  H   UNL A   1      40.831  30.941  32.286  1.00  0.00     0.167 HD
ATOM     59  C   UNL A   1      43.958  29.861  35.160  1.00  0.00     0.037 A 
ATOM     60  C   UNL A   1      38.478  32.225  31.482  1.00  0.00     0.037 A 
ATOM     61  C   UNL A   1      43.191  30.896  35.801  1.00  0.00     0.049 A 
ATOM     62  C   UNL A   1      38.790  32.744  32.859  1.00  0.00     0.074 A 
ATOM     63  C   UNL A   1      43.410  31.492  37.031  1.00  0.00     0.029 A 
ATOM     64  N   UNL A   1      42.058  31.491  35.265  1.00  0.00    -0.354 N 
ATOM     65  N   UNL A   1      39.783  32.422  33.656  1.00  0.00    -0.248 NA
ATOM     66  C   UNL A   1      37.877  33.753  33.413  1.00  0.00     0.031 C 
ATOM     67  C   UNL A   1      42.385  32.417  37.258  1.00  0.00     0.029 A 
ATOM     68  C   UNL A   1      41.555  32.433  36.148  1.00  0.00     0.049 A 
ATOM     69  H   UNL A   1      41.668  31.275  34.388  1.00  0.00     0.167 HD
ATOM     70  C   UNL A   1      39.628  33.209  34.792  1.00  0.00     0.074 A 
ATOM     71  C   UNL A   1      38.453  34.028  34.576  1.00  0.00     0.031 C 
ATOM     72  C   UNL A   1      40.390  33.248  35.913  1.00  0.00     0.037 A 
BRANCH  59  73
ATOM     73  C   UNL A   1      45.127  29.272  35.901  1.00  0.00     0.058 A 
ATOM     74  C   UNL A   1      46.421  29.801  35.774  1.00  0.00     0.135 A 
ATOM     75  C   UNL A   1      44.947  28.187  36.774  1.00  0.00     0.135 A 
ATOM     76  F   UNL A   1      46.654  30.828  34.941  1.00  0.00    -0.206 F 
ATOM     77  C   UNL A   1      47.502  29.254  36.458  1.00  0.00     0.059 A 
ATOM     78  C   UNL A   1      46.009  27.643  37.492  1.00  0.00     0.059 A 
ATOM     79  F   UNL A   1      43.731  27.642  36.935  1.00  0.00    -0.206 F 
ATOM     80  C   UNL A   1      47.285  28.174  37.315  1.00  0.00     0.060 A 
BRANCH  80  81
ATOM     81  S   UNL A   1      48.698  27.478  38.197  1.00  0.00     0.124 S 
ATOM     82  O   UNL A   1      48.614  28.177  39.476  1.00  0.00    -0.237 OA
ATOM     83  O   UNL A   1      48.376  26.056  38.231  1.00  0.00    -0.237 OA
ATOM     84  O   UNL A   1      49.836  27.842  37.358  1.00  0.00    -0.744 OA
ENDBRANCH  80  81
ENDBRANCH  59  73
BRANCH  60  85
ATOM     85  C   UNL A   1      37.288  32.711  30.734  1.00  0.00     0.058 A 
ATOM     86  C   UNL A   1      36.015  32.172  30.975  1.00  0.00     0.135 A 
ATOM     87  C   UNL A   1      37.394  33.731  29.777  1.00  0.00     0.135 A 
ATOM     88  F   UNL A   1      35.863  31.190  31.876  1.00  0.00    -0.206 F 
ATOM     89  C   UNL A   1      34.893  32.614  30.282  1.00  0.00     0.059 A 
ATOM     90  C   UNL A   1      36.282  34.208  29.088  1.00  0.00     0.059 A 
ATOM     91  F   UNL A   1      38.587  34.292  29.520  1.00  0.00    -0.206 F 
ATOM     92  C   UNL A   1      35.037  33.636  29.341  1.00  0.00     0.060 A 
BRANCH  92  93
ATOM     93  S   UNL A   1      33.565  34.236  28.484  1.00  0.00     0.124 S 
ATOM     94  O   UNL A   1      32.728  34.659  29.600  1.00  0.00    -0.237 OA
ATOM     95  O   UNL A   1      34.109  35.306  27.652  1.00  0.00    -0.237 OA
ATOM     96  O   UNL A   1      33.100  33.061  27.754  1.00  0.00    -0.744 OA
ENDBRANCH  92  93
ENDBRANCH  60  85
BRANCH  72  97
ATOM     97  C   UNL A   1      40.003  34.235  36.980  1.00  0.00     0.058 A 
ATOM     98  C   UNL A   1      39.317  33.839  38.138  1.00  0.00     0.135 A 
ATOM     99  C   UNL A   1      40.380  35.584  36.869  1.00  0.00     0.135 A 
ATOM    100  F   UNL A   1      38.929  32.562  38.290  1.00  0.00    -0.206 F 
ATOM    101  C   UNL A   1      38.999  34.749  39.141  1.00  0.00     0.059 A 
ATOM    102  C   UNL A   1      40.096  36.506  37.871  1.00  0.00     0.059 A 
ATOM    103  F   UNL A   1      41.047  36.013  35.786  1.00  0.00    -0.206 F 
ATOM    104  C   UNL A   1      39.396  36.081  38.999  1.00  0.00     0.060 A 
BRANCH 104 105
ATOM    105  S   UNL A   1      39.015  37.244  40.327  1.00  0.00     0.124 S 
ATOM    106  O   UNL A   1      38.107  36.457  41.155  1.00  0.00    -0.237 OA
ATOM    107  O   UNL A   1      40.331  37.505  40.901  1.00  0.00    -0.237 OA
ATOM    108  O   UNL A   1      38.409  38.372  39.627  1.00  0.00    -0.744 OA
ENDBRANCH 104 105
ENDBRANCH  72  97
ENDBRANCH  46  47
ENDBRANCH  38  41
ENDBRANCH  36  37
ENDBRANCH  35  36
ENDBRANCH   1  35
TORSDOF 20
ENDMDL
