MODEL 1
REMARK VINA RESULT:     -11.8      0.000      0.000
REMARK SMILES CCCCc1cc(S(F)(F)(F)(F)F)cc2c1O[C@@H](C(F)(F)F)C(C(=O)NCCCCNC(=O)c1ccc(-c3c4nc(c(-c5c(F)cc(S(=O)(=O)[O-])cc5F)c5ccc([nH]5)c(-c5c(F)cc(S(=O)(=O)[O-])cc5F)c5nc(c(-c6c(F)cc(S(=O)(=O)[O-])cc6F)c6ccc3[nH]6)C=C5)C=C4)cc1)=C2
REMARK SMILES IDX 28 1 27 2 26 3 24 4 25 5 23 7 5 8 6 9 16 10 7 11 15 12 17 13
REMARK SMILES IDX 14 14 100 15 18 16 4 17 3 18 2 19 1 20 8 21 9 22 10 23 11 24
REMARK SMILES IDX 12 25 13 26 19 27 20 28 21 29 22 30 29 31 30 32 31 33 32 34
REMARK SMILES IDX 33 36 34 37 35 38 99 39 36 40 98 41 37 42 38 43 39 44 92 45
REMARK SMILES IDX 40 46 97 47 91 48 93 49 41 50 96 51 90 52 89 53 42 55 76 56
REMARK SMILES IDX 55 57 75 58 56 59 59 60 74 61 94 62 57 63 58 64 73 66 95 67
REMARK SMILES IDX 60 68 43 69 44 70 53 71 45 72 46 73 52 74 54 75 47 76 48 77
REMARK SMILES IDX 49 78 50 79 51 80 77 81 78 82 87 83 79 84 80 85 86 86 88 87
REMARK SMILES IDX 81 88 82 89 83 90 84 91 85 92 61 93 62 94 71 95 63 96 64 97
REMARK SMILES IDX 70 98 72 99 65 100 66 101 67 102 68 103 69 104
REMARK H PARENT 26 6 31 35 93 54 59 65
REMARK Flexibility Score: inf
ROOT
ATOM      1  C   UNL A   1      31.973  28.269  26.063  1.00  0.00     0.023 C 
ENDROOT
BRANCH   1   2
ATOM      2  C   UNL A   1      30.815  27.358  25.689  1.00  0.00     0.116 C 
BRANCH   2   3
ATOM      3  N   UNL A   1      30.353  27.683  24.333  1.00  0.00    -0.352 N 
ATOM      4  C   UNL A   1      30.864  26.926  23.181  1.00  0.00     0.251 C 
ATOM      5  O   UNL A   1      30.465  27.206  22.008  1.00  0.00    -0.270 OA
ATOM      6  H   UNL A   1      29.702  28.408  24.195  1.00  0.00     0.163 HD
BRANCH   4   7
ATOM      7  C   UNL A   1      31.869  25.806  23.394  1.00  0.00     0.067 C 
ATOM      8  C   UNL A   1      34.689  22.725  23.473  1.00  0.00    -0.004 A 
ATOM      9  C   UNL A   1      34.311  21.453  23.864  1.00  0.00     0.032 A 
ATOM     10  C   UNL A   1      33.731  23.707  23.405  1.00  0.00     0.131 A 
ATOM     11  C   UNL A   1      33.006  21.170  24.172  1.00  0.00     0.108 A 
ATOM     12  C   UNL A   1      32.408  23.463  23.728  1.00  0.00     0.019 A 
ATOM     13  O   UNL A   1      34.100  24.933  22.908  1.00  0.00    -0.475 OA
ATOM     14  C   UNL A   1      32.060  22.172  24.111  1.00  0.00     0.036 A 
ATOM     15  C   UNL A   1      31.463  24.557  23.586  1.00  0.00     0.025 C 
ATOM     16  C   UNL A   1      33.365  26.093  23.393  1.00  0.00     0.314 C 
BRANCH   8  17
ATOM     17  C   UNL A   1      36.137  23.031  23.126  1.00  0.00     0.039 C 
BRANCH  17  18
ATOM     18  C   UNL A   1      37.030  22.651  24.297  1.00  0.00     0.005 C 
BRANCH  18  19
ATOM     19  C   UNL A   1      36.882  23.685  25.401  1.00  0.00    -0.003 C 
ATOM     20  C   UNL A   1      38.167  23.747  26.213  1.00  0.00     0.004 C 
ENDBRANCH  18  19
ENDBRANCH  17  18
ENDBRANCH   8  17
BRANCH  11  21
ATOM     21  S   UNL A   1      32.528  19.494  24.658  1.00  0.00     0.310 S 
ATOM     22  F   UNL A   1      33.972  18.913  24.355  1.00  0.00    -0.094 F 
ATOM     23  F   UNL A   1      32.158  19.165  23.161  1.00  0.00    -0.094 F 
ATOM     24  F   UNL A   1      32.114  18.062  25.103  1.00  0.00    -0.094 F 
ATOM     25  F   UNL A   1      33.035  19.793  26.123  1.00  0.00    -0.094 F 
ATOM     26  F   UNL A   1      33.057  20.910  24.199  1.00  0.00    -0.094 F 
ENDBRANCH  11  21
BRANCH  16  27
ATOM     27  C   UNL A   1      33.643  27.274  22.478  1.00  0.00     0.429 C 
ATOM     28  F   UNL A   1      33.260  26.976  21.241  1.00  0.00    -0.167 F 
ATOM     29  F   UNL A   1      32.968  28.337  22.908  1.00  0.00    -0.167 F 
ATOM     30  F   UNL A   1      34.946  27.544  22.486  1.00  0.00    -0.167 F 
ENDBRANCH  16  27
ENDBRANCH   4   7
ENDBRANCH   2   3
ENDBRANCH   1   2
BRANCH   1  31
ATOM     31  C   UNL A   1      33.160  27.427  26.500  1.00  0.00     0.023 C 
BRANCH  31  32
ATOM     32  C   UNL A   1      34.337  28.336  26.815  1.00  0.00     0.116 C 
BRANCH  32  33
ATOM     33  N   UNL A   1      33.850  29.561  27.464  1.00  0.00    -0.352 N 
ATOM     34  C   UNL A   1      34.760  30.365  28.292  1.00  0.00     0.251 C 
ATOM     35  H   UNL A   1      32.915  29.842  27.345  1.00  0.00     0.163 HD
ATOM     36  O   UNL A   1      34.339  31.425  28.854  1.00  0.00    -0.269 OA
BRANCH  34  37
ATOM     37  C   UNL A   1      36.205  29.929  28.477  1.00  0.00     0.039 A 
ATOM     38  C   UNL A   1      36.639  29.384  29.675  1.00  0.00     0.014 A 
ATOM     39  C   UNL A   1      37.042  30.123  27.464  1.00  0.00     0.014 A 
ATOM     40  C   UNL A   1      38.047  29.342  29.807  1.00  0.00     0.010 A 
ATOM     41  C   UNL A   1      38.392  29.930  27.627  1.00  0.00     0.010 A 
ATOM     42  C   UNL A   1      38.898  29.450  28.803  1.00  0.00    -0.014 A 
BRANCH  42  43
ATOM     43  C   UNL A   1      40.360  29.061  28.946  1.00  0.00     0.031 A 
ATOM     44  C   UNL A   1      41.189  30.051  29.476  1.00  0.00     0.074 A 
ATOM     45  C   UNL A   1      40.790  27.788  28.615  1.00  0.00     0.049 A 
ATOM     46  N   UNL A   1      42.484  29.951  29.779  1.00  0.00    -0.248 NA
ATOM     47  C   UNL A   1      40.743  31.414  29.797  1.00  0.00     0.031 C 
ATOM     48  C   UNL A   1      39.958  26.780  28.088  1.00  0.00     0.029 A 
ATOM     49  N   UNL A   1      42.062  27.268  28.724  1.00  0.00    -0.354 N 
ATOM     50  C   UNL A   1      42.929  31.105  30.282  1.00  0.00     0.074 A 
ATOM     51  C   UNL A   1      41.818  32.063  30.296  1.00  0.00     0.031 C 
ATOM     52  C   UNL A   1      40.718  25.675  27.873  1.00  0.00     0.029 A 
ATOM     53  C   UNL A   1      42.038  25.972  28.262  1.00  0.00     0.049 A 
ATOM     54  H   UNL A   1      42.850  27.744  29.073  1.00  0.00     0.167 HD
ATOM     55  C   UNL A   1      44.219  31.392  30.732  1.00  0.00     0.037 A 
ATOM     56  C   UNL A   1      43.099  25.083  28.175  1.00  0.00     0.037 A 
ATOM     57  C   UNL A   1      45.269  30.489  30.685  1.00  0.00     0.049 A 
ATOM     58  C   UNL A   1      44.402  25.391  28.571  1.00  0.00     0.074 A 
ATOM     59  C   UNL A   1      46.573  30.761  31.142  1.00  0.00     0.029 A 
ATOM     60  N   UNL A   1      45.252  29.200  30.200  1.00  0.00    -0.354 N 
ATOM     61  N   UNL A   1      44.839  26.529  29.111  1.00  0.00    -0.248 NA
ATOM     62  C   UNL A   1      45.539  24.468  28.453  1.00  0.00     0.031 C 
ATOM     63  C   UNL A   1      47.334  29.656  30.927  1.00  0.00     0.029 A 
ATOM     64  C   UNL A   1      46.518  28.674  30.332  1.00  0.00     0.049 A 
ATOM     65  H   UNL A   1      44.470  28.735  29.825  1.00  0.00     0.167 HD
ATOM     66  C   UNL A   1      46.143  26.443  29.375  1.00  0.00     0.074 A 
ATOM     67  C   UNL A   1      46.615  25.118  28.949  1.00  0.00     0.031 C 
ATOM     68  C   UNL A   1      46.959  27.414  29.958  1.00  0.00     0.037 A 
BRANCH  55  69
ATOM     69  C   UNL A   1      44.486  32.774  31.307  1.00  0.00     0.058 A 
ATOM     70  C   UNL A   1      44.927  33.769  30.451  1.00  0.00     0.135 A 
ATOM     71  C   UNL A   1      44.367  32.991  32.612  1.00  0.00     0.135 A 
ATOM     72  F   UNL A   1      44.824  33.687  29.128  1.00  0.00    -0.206 F 
ATOM     73  C   UNL A   1      45.495  34.884  31.112  1.00  0.00     0.059 A 
ATOM     74  C   UNL A   1      44.822  34.160  33.171  1.00  0.00     0.059 A 
ATOM     75  F   UNL A   1      43.801  32.067  33.385  1.00  0.00    -0.206 F 
ATOM     76  C   UNL A   1      45.323  35.164  32.391  1.00  0.00     0.060 A 
BRANCH  76  77
ATOM     77  S   UNL A   1      45.730  36.790  33.074  1.00  0.00     0.124 S 
ATOM     78  O   UNL A   1      44.542  37.317  33.882  1.00  0.00    -0.237 OA
ATOM     79  O   UNL A   1      46.954  36.670  33.984  1.00  0.00    -0.237 OA
ATOM     80  O   UNL A   1      46.076  37.874  31.797  1.00  0.00    -0.744 OA
ENDBRANCH  76  77
ENDBRANCH  55  69
BRANCH  56  81
ATOM     81  C   UNL A   1      42.827  23.696  27.616  1.00  0.00     0.058 A 
ATOM     82  C   UNL A   1      42.927  23.447  26.258  1.00  0.00     0.135 A 
ATOM     83  C   UNL A   1      42.562  22.720  28.477  1.00  0.00     0.135 A 
ATOM     84  F   UNL A   1      43.433  24.325  25.395  1.00  0.00    -0.206 F 
ATOM     85  C   UNL A   1      42.445  22.175  25.870  1.00  0.00     0.059 A 
ATOM     86  C   UNL A   1      42.230  21.464  28.031  1.00  0.00     0.059 A 
ATOM     87  F   UNL A   1      42.621  22.960  29.784  1.00  0.00    -0.206 F 
ATOM     88  C   UNL A   1      42.252  21.164  26.697  1.00  0.00     0.060 A 
BRANCH  88  89
ATOM     89  S   UNL A   1      42.028  19.470  26.097  1.00  0.00     0.124 S 
ATOM     90  O   UNL A   1      42.854  19.267  24.825  1.00  0.00    -0.237 OA
ATOM     91  O   UNL A   1      42.490  18.484  27.171  1.00  0.00    -0.237 OA
ATOM     92  O   UNL A   1      40.374  19.202  25.751  1.00  0.00    -0.744 OA
ENDBRANCH  88  89
ENDBRANCH  56  81
BRANCH  68  93
ATOM     93  C   UNL A   1      48.419  27.069  30.199  1.00  0.00     0.058 A 
ATOM     94  C   UNL A   1      48.838  26.445  31.363  1.00  0.00     0.135 A 
ATOM     95  C   UNL A   1      49.290  27.449  29.271  1.00  0.00     0.135 A 
ATOM     96  F   UNL A   1      48.004  25.826  32.194  1.00  0.00    -0.206 F 
ATOM     97  C   UNL A   1      50.233  26.525  31.587  1.00  0.00     0.059 A 
ATOM     98  C   UNL A   1      50.642  27.373  29.506  1.00  0.00     0.059 A 
ATOM     99  F   UNL A   1      48.849  27.907  28.103  1.00  0.00    -0.206 F 
ATOM    100  C   UNL A   1      51.124  26.822  30.659  1.00  0.00     0.060 A 
BRANCH 100 101
ATOM    101  S   UNL A   1      52.892  26.515  30.903  1.00  0.00     0.124 S 
ATOM    102  O   UNL A   1      53.569  26.327  29.543  1.00  0.00    -0.237 OA
ATOM    103  O   UNL A   1      53.522  27.707  31.625  1.00  0.00    -0.237 OA
ATOM    104  O   UNL A   1      53.101  25.103  31.843  1.00  0.00    -0.744 OA
ENDBRANCH 100 101
ENDBRANCH  68  93
ENDBRANCH  42  43
ENDBRANCH  34  37
ENDBRANCH  32  33
ENDBRANCH  31  32
ENDBRANCH   1  31
TORSDOF 19
ENDMDL
MODEL 2
REMARK VINA RESULT:     -11.5      2.984      8.672
REMARK SMILES CCCCc1cc(S(F)(F)(F)(F)F)cc2c1O[C@@H](C(F)(F)F)C(C(=O)NCCCCNC(=O)c1ccc(-c3c4nc(c(-c5c(F)cc(S(=O)(=O)[O-])cc5F)c5ccc([nH]5)c(-c5c(F)cc(S(=O)(=O)[O-])cc5F)c5nc(c(-c6c(F)cc(S(=O)(=O)[O-])cc6F)c6ccc3[nH]6)C=C5)C=C4)cc1)=C2
REMARK SMILES IDX 28 1 27 2 26 3 24 4 25 5 23 7 5 8 6 9 16 10 7 11 15 12 17 13
REMARK SMILES IDX 14 14 100 15 18 16 4 17 3 18 2 19 1 20 8 21 9 22 10 23 11 24
REMARK SMILES IDX 12 25 13 26 19 27 20 28 21 29 22 30 29 31 30 32 31 33 32 34
REMARK SMILES IDX 33 36 34 37 35 38 99 39 36 40 98 41 37 42 38 43 39 44 92 45
REMARK SMILES IDX 40 46 97 47 91 48 93 49 41 50 96 51 90 52 89 53 42 55 76 56
REMARK SMILES IDX 55 57 75 58 56 59 59 60 74 61 94 62 57 63 58 64 73 66 95 67
REMARK SMILES IDX 60 68 43 69 44 70 53 71 45 72 46 73 52 74 54 75 47 76 48 77
REMARK SMILES IDX 49 78 50 79 51 80 77 81 78 82 87 83 79 84 80 85 86 86 88 87
REMARK SMILES IDX 81 88 82 89 83 90 84 91 85 92 61 93 62 94 71 95 63 96 64 97
REMARK SMILES IDX 70 98 72 99 65 100 66 101 67 102 68 103 69 104
REMARK H PARENT 26 6 31 35 93 54 59 65
REMARK Flexibility Score: inf
ROOT
ATOM      1  C   UNL A   1      33.425  29.375  27.473  1.00  0.00     0.023 C 
ENDROOT
BRANCH   1   2
ATOM      2  C   UNL A   1      32.475  28.255  27.080  1.00  0.00     0.116 C 
BRANCH   2   3
ATOM      3  N   UNL A   1      31.941  28.514  25.735  1.00  0.00    -0.352 N 
ATOM      4  C   UNL A   1      32.023  27.474  24.700  1.00  0.00     0.251 C 
ATOM      5  O   UNL A   1      31.562  27.696  23.537  1.00  0.00    -0.270 OA
ATOM      6  H   UNL A   1      31.530  29.383  25.528  1.00  0.00     0.163 HD
BRANCH   4   7
ATOM      7  C   UNL A   1      32.658  26.130  25.021  1.00  0.00     0.067 C 
ATOM      8  C   UNL A   1      34.236  22.510  26.381  1.00  0.00    -0.004 A 
ATOM      9  C   UNL A   1      35.606  22.329  26.430  1.00  0.00     0.032 A 
ATOM     10  C   UNL A   1      33.744  23.728  25.980  1.00  0.00     0.131 A 
ATOM     11  C   UNL A   1      36.463  23.344  26.093  1.00  0.00     0.108 A 
ATOM     12  C   UNL A   1      34.578  24.769  25.614  1.00  0.00     0.019 A 
ATOM     13  O   UNL A   1      32.387  23.927  26.043  1.00  0.00    -0.475 OA
ATOM     14  C   UNL A   1      35.951  24.556  25.680  1.00  0.00     0.036 A 
ATOM     15  C   UNL A   1      33.963  26.032  25.243  1.00  0.00     0.025 C 
ATOM     16  C   UNL A   1      31.809  24.867  25.093  1.00  0.00     0.314 C 
BRANCH   8  17
ATOM     17  C   UNL A   1      33.291  21.381  26.761  1.00  0.00     0.039 C 
BRANCH  17  18
ATOM     18  C   UNL A   1      33.389  20.268  25.729  1.00  0.00     0.005 C 
BRANCH  18  19
ATOM     19  C   UNL A   1      32.160  20.298  24.836  1.00  0.00    -0.003 C 
ATOM     20  C   UNL A   1      32.468  21.093  23.576  1.00  0.00     0.004 C 
ENDBRANCH  18  19
ENDBRANCH  17  18
ENDBRANCH   8  17
BRANCH  11  21
ATOM     21  S   UNL A   1      38.253  23.095  26.189  1.00  0.00     0.310 S 
ATOM     22  F   UNL A   1      38.550  24.328  25.237  1.00  0.00    -0.094 F 
ATOM     23  F   UNL A   1      38.198  22.197  24.894  1.00  0.00    -0.094 F 
ATOM     24  F   UNL A   1      39.790  22.888  26.300  1.00  0.00    -0.094 F 
ATOM     25  F   UNL A   1      38.310  24.108  27.398  1.00  0.00    -0.094 F 
ATOM     26  F   UNL A   1      36.712  23.404  26.021  1.00  0.00    -0.094 F 
ENDBRANCH  11  21
BRANCH  16  27
ATOM     27  C   UNL A   1      30.408  25.236  25.550  1.00  0.00     0.429 C 
ATOM     28  F   UNL A   1      30.477  26.222  26.439  1.00  0.00    -0.167 F 
ATOM     29  F   UNL A   1      29.690  25.633  24.503  1.00  0.00    -0.167 F 
ATOM     30  F   UNL A   1      29.829  24.175  26.108  1.00  0.00    -0.167 F 
ENDBRANCH  16  27
ENDBRANCH   4   7
ENDBRANCH   2   3
ENDBRANCH   1   2
BRANCH   1  31
ATOM     31  C   UNL A   1      34.811  29.080  26.923  1.00  0.00     0.023 C 
BRANCH  31  32
ATOM     32  C   UNL A   1      35.845  29.879  27.701  1.00  0.00     0.116 C 
BRANCH  32  33
ATOM     33  N   UNL A   1      35.425  29.985  29.105  1.00  0.00    -0.352 N 
ATOM     34  C   UNL A   1      36.402  29.773  30.182  1.00  0.00     0.251 C 
ATOM     35  H   UNL A   1      34.490  30.199  29.325  1.00  0.00     0.163 HD
ATOM     36  O   UNL A   1      36.041  29.865  31.397  1.00  0.00    -0.269 OA
BRANCH  34  37
ATOM     37  C   UNL A   1      37.847  29.442  29.842  1.00  0.00     0.039 A 
ATOM     38  C   UNL A   1      38.765  29.145  30.838  1.00  0.00     0.014 A 
ATOM     39  C   UNL A   1      38.207  29.485  28.565  1.00  0.00     0.014 A 
ATOM     40  C   UNL A   1      40.112  29.189  30.407  1.00  0.00     0.010 A 
ATOM     41  C   UNL A   1      39.529  29.386  28.207  1.00  0.00     0.010 A 
ATOM     42  C   UNL A   1      40.497  29.150  29.144  1.00  0.00    -0.014 A 
BRANCH  42  43
ATOM     43  C   UNL A   1      41.936  28.860  28.754  1.00  0.00     0.031 A 
ATOM     44  C   UNL A   1      42.200  27.535  28.400  1.00  0.00     0.074 A 
ATOM     45  C   UNL A   1      42.877  29.874  28.713  1.00  0.00     0.049 A 
ATOM     46  N   UNL A   1      43.346  27.028  27.944  1.00  0.00    -0.248 NA
ATOM     47  C   UNL A   1      41.211  26.450  28.475  1.00  0.00     0.031 C 
ATOM     48  C   UNL A   1      42.617  31.214  29.060  1.00  0.00     0.029 A 
ATOM     49  N   UNL A   1      44.202  29.785  28.343  1.00  0.00    -0.354 N 
ATOM     50  C   UNL A   1      43.206  25.724  27.697  1.00  0.00     0.074 A 
ATOM     51  C   UNL A   1      41.834  25.332  28.040  1.00  0.00     0.031 C 
ATOM     52  C   UNL A   1      43.769  31.920  28.913  1.00  0.00     0.029 A 
ATOM     53  C   UNL A   1      44.768  31.033  28.470  1.00  0.00     0.049 A 
ATOM     54  H   UNL A   1      44.662  28.969  28.040  1.00  0.00     0.167 HD
ATOM     55  C   UNL A   1      44.171  24.847  27.197  1.00  0.00     0.037 A 
ATOM     56  C   UNL A   1      46.083  31.396  28.221  1.00  0.00     0.037 A 
ATOM     57  C   UNL A   1      45.473  25.221  26.907  1.00  0.00     0.049 A 
ATOM     58  C   UNL A   1      47.062  30.506  27.776  1.00  0.00     0.074 A 
ATOM     59  C   UNL A   1      46.455  24.351  26.394  1.00  0.00     0.029 A 
ATOM     60  N   UNL A   1      46.048  26.464  27.057  1.00  0.00    -0.354 N 
ATOM     61  N   UNL A   1      46.913  29.212  27.491  1.00  0.00    -0.248 NA
ATOM     62  C   UNL A   1      48.465  30.874  27.540  1.00  0.00     0.031 C 
ATOM     63  C   UNL A   1      47.607  25.056  26.246  1.00  0.00     0.029 A 
ATOM     64  C   UNL A   1      47.365  26.379  26.665  1.00  0.00     0.049 A 
ATOM     65  H   UNL A   1      45.594  27.272  27.387  1.00  0.00     0.167 HD
ATOM     66  C   UNL A   1      48.071  28.696  27.075  1.00  0.00     0.074 A 
ATOM     67  C   UNL A   1      49.088  29.756  27.107  1.00  0.00     0.031 C 
ATOM     68  C   UNL A   1      48.319  27.385  26.666  1.00  0.00     0.037 A 
BRANCH  55  69
ATOM     69  C   UNL A   1      43.768  23.401  26.956  1.00  0.00     0.058 A 
ATOM     70  C   UNL A   1      43.455  23.011  25.664  1.00  0.00     0.135 A 
ATOM     71  C   UNL A   1      43.654  22.559  27.977  1.00  0.00     0.135 A 
ATOM     72  F   UNL A   1      43.787  23.721  24.591  1.00  0.00    -0.206 F 
ATOM     73  C   UNL A   1      42.749  21.787  25.591  1.00  0.00     0.059 A 
ATOM     74  C   UNL A   1      43.076  21.325  27.804  1.00  0.00     0.059 A 
ATOM     75  F   UNL A   1      44.104  22.914  29.177  1.00  0.00    -0.206 F 
ATOM     76  C   UNL A   1      42.688  20.897  26.565  1.00  0.00     0.060 A 
BRANCH  76  77
ATOM     77  S   UNL A   1      42.123  19.202  26.275  1.00  0.00     0.124 S 
ATOM     78  O   UNL A   1      42.172  18.416  27.586  1.00  0.00    -0.237 OA
ATOM     79  O   UNL A   1      40.686  19.227  25.748  1.00  0.00    -0.237 OA
ATOM     80  O   UNL A   1      43.139  18.452  25.122  1.00  0.00    -0.744 OA
ENDBRANCH  76  77
ENDBRANCH  55  69
BRANCH  56  81
ATOM     81  C   UNL A   1      46.480  32.846  28.445  1.00  0.00     0.058 A 
ATOM     82  C   UNL A   1      46.997  33.259  29.661  1.00  0.00     0.135 A 
ATOM     83  C   UNL A   1      46.381  33.684  27.419  1.00  0.00     0.135 A 
ATOM     84  F   UNL A   1      47.348  32.412  30.625  1.00  0.00    -0.206 F 
ATOM     85  C   UNL A   1      47.121  34.663  29.786  1.00  0.00     0.059 A 
ATOM     86  C   UNL A   1      46.648  35.022  27.579  1.00  0.00     0.059 A 
ATOM     87  F   UNL A   1      46.022  33.223  26.225  1.00  0.00    -0.206 F 
ATOM     88  C   UNL A   1      47.108  35.509  28.772  1.00  0.00     0.060 A 
BRANCH  88  89
ATOM     89  S   UNL A   1      47.669  37.221  28.950  1.00  0.00     0.124 S 
ATOM     90  O   UNL A   1      47.679  37.899  27.579  1.00  0.00    -0.237 OA
ATOM     91  O   UNL A   1      46.720  37.973  29.885  1.00  0.00    -0.237 OA
ATOM     92  O   UNL A   1      49.248  37.238  29.607  1.00  0.00    -0.744 OA
ENDBRANCH  88  89
ENDBRANCH  56  81
BRANCH  68  93
ATOM     93  C   UNL A   1      49.721  27.038  26.192  1.00  0.00     0.058 A 
ATOM     94  C   UNL A   1      50.075  27.103  24.854  1.00  0.00     0.135 A 
ATOM     95  C   UNL A   1      50.578  26.607  27.111  1.00  0.00     0.135 A 
ATOM     96  F   UNL A   1      49.355  27.755  23.945  1.00  0.00    -0.206 F 
ATOM     97  C   UNL A   1      51.271  26.415  24.543  1.00  0.00     0.059 A 
ATOM     98  C   UNL A   1      51.788  26.069  26.742  1.00  0.00     0.059 A 
ATOM     99  F   UNL A   1      50.264  26.696  28.399  1.00  0.00    -0.206 F 
ATOM    100  C   UNL A   1      52.177  26.049  25.432  1.00  0.00     0.060 A 
BRANCH 100 101
ATOM    101  S   UNL A   1      53.845  25.545  24.940  1.00  0.00     0.124 S 
ATOM    102  O   UNL A   1      53.868  24.036  24.683  1.00  0.00    -0.237 OA
ATOM    103  O   UNL A   1      54.246  26.285  23.662  1.00  0.00    -0.237 OA
ATOM    104  O   UNL A   1      54.947  25.927  26.190  1.00  0.00    -0.744 OA
ENDBRANCH 100 101
ENDBRANCH  68  93
ENDBRANCH  42  43
ENDBRANCH  34  37
ENDBRANCH  32  33
ENDBRANCH  31  32
ENDBRANCH   1  31
TORSDOF 19
ENDMDL
MODEL 3
REMARK VINA RESULT:     -11.5      5.220     10.155
REMARK SMILES CCCCc1cc(S(F)(F)(F)(F)F)cc2c1O[C@@H](C(F)(F)F)C(C(=O)NCCCCNC(=O)c1ccc(-c3c4nc(c(-c5c(F)cc(S(=O)(=O)[O-])cc5F)c5ccc([nH]5)c(-c5c(F)cc(S(=O)(=O)[O-])cc5F)c5nc(c(-c6c(F)cc(S(=O)(=O)[O-])cc6F)c6ccc3[nH]6)C=C5)C=C4)cc1)=C2
REMARK SMILES IDX 28 1 27 2 26 3 24 4 25 5 23 7 5 8 6 9 16 10 7 11 15 12 17 13
REMARK SMILES IDX 14 14 100 15 18 16 4 17 3 18 2 19 1 20 8 21 9 22 10 23 11 24
REMARK SMILES IDX 12 25 13 26 19 27 20 28 21 29 22 30 29 31 30 32 31 33 32 34
REMARK SMILES IDX 33 36 34 37 35 38 99 39 36 40 98 41 37 42 38 43 39 44 92 45
REMARK SMILES IDX 40 46 97 47 91 48 93 49 41 50 96 51 90 52 89 53 42 55 76 56
REMARK SMILES IDX 55 57 75 58 56 59 59 60 74 61 94 62 57 63 58 64 73 66 95 67
REMARK SMILES IDX 60 68 43 69 44 70 53 71 45 72 46 73 52 74 54 75 47 76 48 77
REMARK SMILES IDX 49 78 50 79 51 80 77 81 78 82 87 83 79 84 80 85 86 86 88 87
REMARK SMILES IDX 81 88 82 89 83 90 84 91 85 92 61 93 62 94 71 95 63 96 64 97
REMARK SMILES IDX 70 98 72 99 65 100 66 101 67 102 68 103 69 104
REMARK H PARENT 26 6 31 35 93 54 59 65
REMARK Flexibility Score: inf
ROOT
ATOM      1  C   UNL A   1      37.721  23.809  25.414  1.00  0.00     0.023 C 
ENDROOT
BRANCH   1   2
ATOM      2  C   UNL A   1      36.457  23.283  24.754  1.00  0.00     0.116 C 
BRANCH   2   3
ATOM      3  N   UNL A   1      35.934  22.150  25.529  1.00  0.00    -0.352 N 
ATOM      4  C   UNL A   1      34.547  22.172  26.017  1.00  0.00     0.251 C 
ATOM      5  O   UNL A   1      34.093  21.192  26.687  1.00  0.00    -0.270 OA
ATOM      6  H   UNL A   1      36.511  21.377  25.722  1.00  0.00     0.163 HD
BRANCH   4   7
ATOM      7  C   UNL A   1      33.655  23.366  25.717  1.00  0.00     0.067 C 
ATOM      8  C   UNL A   1      31.439  26.669  24.442  1.00  0.00    -0.004 A 
ATOM      9  C   UNL A   1      31.601  27.892  25.067  1.00  0.00     0.032 A 
ATOM     10  C   UNL A   1      32.218  25.612  24.846  1.00  0.00     0.131 A 
ATOM     11  C   UNL A   1      32.525  28.055  26.066  1.00  0.00     0.108 A 
ATOM     12  C   UNL A   1      33.147  25.735  25.864  1.00  0.00     0.019 A 
ATOM     13  O   UNL A   1      32.124  24.437  24.142  1.00  0.00    -0.475 OA
ATOM     14  C   UNL A   1      33.290  26.980  26.467  1.00  0.00     0.036 A 
ATOM     15  C   UNL A   1      33.951  24.570  26.191  1.00  0.00     0.025 C 
ATOM     16  C   UNL A   1      32.401  23.205  24.868  1.00  0.00     0.314 C 
BRANCH   8  17
ATOM     17  C   UNL A   1      30.416  26.496  23.331  1.00  0.00     0.039 C 
BRANCH  17  18
ATOM     18  C   UNL A   1      30.384  27.751  22.473  1.00  0.00     0.005 C 
BRANCH  18  19
ATOM     19  C   UNL A   1      29.106  28.525  22.756  1.00  0.00    -0.003 C 
ATOM     20  C   UNL A   1      29.369  30.014  22.593  1.00  0.00     0.004 C 
ENDBRANCH  18  19
ENDBRANCH  17  18
ENDBRANCH   8  17
BRANCH  11  21
ATOM     21  S   UNL A   1      32.740  29.671  26.853  1.00  0.00     0.310 S 
ATOM     22  F   UNL A   1      31.876  30.408  25.747  1.00  0.00    -0.094 F 
ATOM     23  F   UNL A   1      34.002  29.944  25.950  1.00  0.00    -0.094 F 
ATOM     24  F   UNL A   1      32.908  31.049  27.553  1.00  0.00    -0.094 F 
ATOM     25  F   UNL A   1      31.395  29.441  27.648  1.00  0.00    -0.094 F 
ATOM     26  F   UNL A   1      32.493  28.320  26.072  1.00  0.00    -0.094 F 
ENDBRANCH  11  21
BRANCH  16  27
ATOM     27  C   UNL A   1      32.618  22.079  23.870  1.00  0.00     0.429 C 
ATOM     28  F   UNL A   1      32.414  20.911  24.470  1.00  0.00    -0.167 F 
ATOM     29  F   UNL A   1      31.766  22.214  22.858  1.00  0.00    -0.167 F 
ATOM     30  F   UNL A   1      33.865  22.130  23.410  1.00  0.00    -0.167 F 
ENDBRANCH  16  27
ENDBRANCH   4   7
ENDBRANCH   2   3
ENDBRANCH   1   2
BRANCH   1  31
ATOM     31  C   UNL A   1      38.299  22.740  26.327  1.00  0.00     0.023 C 
BRANCH  31  32
ATOM     32  C   UNL A   1      39.492  23.307  27.080  1.00  0.00     0.116 C 
BRANCH  32  33
ATOM     33  N   UNL A   1      40.606  23.519  26.145  1.00  0.00    -0.352 N 
ATOM     34  C   UNL A   1      41.548  24.625  26.363  1.00  0.00     0.251 C 
ATOM     35  H   UNL A   1      40.721  22.919  25.373  1.00  0.00     0.163 HD
ATOM     36  O   UNL A   1      42.512  24.809  25.555  1.00  0.00    -0.269 OA
BRANCH  34  37
ATOM     37  C   UNL A   1      41.370  25.551  27.556  1.00  0.00     0.039 A 
ATOM     38  C   UNL A   1      40.248  25.464  28.366  1.00  0.00     0.014 A 
ATOM     39  C   UNL A   1      42.306  26.467  27.772  1.00  0.00     0.014 A 
ATOM     40  C   UNL A   1      40.064  26.584  29.212  1.00  0.00     0.010 A 
ATOM     41  C   UNL A   1      42.117  27.453  28.710  1.00  0.00     0.010 A 
ATOM     42  C   UNL A   1      41.005  27.463  29.506  1.00  0.00    -0.014 A 
BRANCH  42  43
ATOM     43  C   UNL A   1      40.859  28.433  30.666  1.00  0.00     0.031 A 
ATOM     44  C   UNL A   1      39.869  29.405  30.507  1.00  0.00     0.074 A 
ATOM     45  C   UNL A   1      41.634  28.298  31.805  1.00  0.00     0.049 A 
ATOM     46  N   UNL A   1      39.480  30.322  31.395  1.00  0.00    -0.248 NA
ATOM     47  C   UNL A   1      39.068  29.573  29.287  1.00  0.00     0.031 C 
ATOM     48  C   UNL A   1      42.629  27.315  31.976  1.00  0.00     0.029 A 
ATOM     49  N   UNL A   1      41.596  29.062  32.951  1.00  0.00    -0.354 N 
ATOM     50  C   UNL A   1      38.493  31.064  30.887  1.00  0.00     0.074 A 
ATOM     51  C   UNL A   1      38.218  30.596  29.523  1.00  0.00     0.031 C 
ATOM     52  C   UNL A   1      43.190  27.490  33.201  1.00  0.00     0.029 A 
ATOM     53  C   UNL A   1      42.555  28.585  33.817  1.00  0.00     0.049 A 
ATOM     54  H   UNL A   1      40.989  29.818  33.120  1.00  0.00     0.167 HD
ATOM     55  C   UNL A   1      37.811  32.110  31.511  1.00  0.00     0.037 A 
ATOM     56  C   UNL A   1      42.873  29.067  35.077  1.00  0.00     0.037 A 
ATOM     57  C   UNL A   1      38.101  32.563  32.788  1.00  0.00     0.049 A 
ATOM     58  C   UNL A   1      42.230  30.152  35.678  1.00  0.00     0.074 A 
ATOM     59  C   UNL A   1      37.417  33.611  33.434  1.00  0.00     0.029 A 
ATOM     60  N   UNL A   1      39.076  32.103  33.646  1.00  0.00    -0.354 N 
ATOM     61  N   UNL A   1      41.217  30.867  35.187  1.00  0.00    -0.248 NA
ATOM     62  C   UNL A   1      42.581  30.691  36.999  1.00  0.00     0.031 C 
ATOM     63  C   UNL A   1      37.978  33.788  34.660  1.00  0.00     0.029 A 
ATOM     64  C   UNL A   1      39.022  32.853  34.800  1.00  0.00     0.049 A 
ATOM     65  H   UNL A   1      39.702  31.366  33.465  1.00  0.00     0.167 HD
ATOM     66  C   UNL A   1      40.856  31.811  36.058  1.00  0.00     0.074 A 
ATOM     67  C   UNL A   1      41.733  31.716  37.233  1.00  0.00     0.031 C 
ATOM     68  C   UNL A   1      39.828  32.745  35.922  1.00  0.00     0.037 A 
BRANCH  55  69
ATOM     69  C   UNL A   1      36.686  32.789  30.746  1.00  0.00     0.058 A 
ATOM     70  C   UNL A   1      37.011  33.810  29.868  1.00  0.00     0.135 A 
ATOM     71  C   UNL A   1      35.422  32.453  30.976  1.00  0.00     0.135 A 
ATOM     72  F   UNL A   1      38.244  34.014  29.416  1.00  0.00    -0.206 F 
ATOM     73  C   UNL A   1      35.909  34.616  29.495  1.00  0.00     0.059 A 
ATOM     74  C   UNL A   1      34.395  33.209  30.467  1.00  0.00     0.059 A 
ATOM     75  F   UNL A   1      35.149  31.375  31.705  1.00  0.00    -0.206 F 
ATOM     76  C   UNL A   1      34.643  34.268  29.639  1.00  0.00     0.060 A 
BRANCH  76  77
ATOM     77  S   UNL A   1      33.310  35.147  28.787  1.00  0.00     0.124 S 
ATOM     78  O   UNL A   1      32.627  34.201  27.796  1.00  0.00    -0.237 OA
ATOM     79  O   UNL A   1      32.286  35.638  29.812  1.00  0.00    -0.237 OA
ATOM     80  O   UNL A   1      33.958  36.485  27.943  1.00  0.00    -0.744 OA
ENDBRANCH  76  77
ENDBRANCH  55  69
BRANCH  56  81
ATOM     81  C   UNL A   1      43.986  28.376  35.848  1.00  0.00     0.058 A 
ATOM     82  C   UNL A   1      45.296  28.811  35.743  1.00  0.00     0.135 A 
ATOM     83  C   UNL A   1      43.650  27.394  36.678  1.00  0.00     0.135 A 
ATOM     84  F   UNL A   1      45.639  29.940  35.129  1.00  0.00    -0.206 F 
ATOM     85  C   UNL A   1      46.238  27.946  36.348  1.00  0.00     0.059 A 
ATOM     86  C   UNL A   1      44.617  26.678  37.342  1.00  0.00     0.059 A 
ATOM     87  F   UNL A   1      42.367  27.102  36.868  1.00  0.00    -0.206 F 
ATOM     88  C   UNL A   1      45.938  27.016  37.237  1.00  0.00     0.060 A 
BRANCH  88  89
ATOM     89  S   UNL A   1      47.207  26.231  38.262  1.00  0.00     0.124 S 
ATOM     90  O   UNL A   1      48.469  26.003  37.426  1.00  0.00    -0.237 OA
ATOM     91  O   UNL A   1      47.537  27.138  39.449  1.00  0.00    -0.237 OA
ATOM     92  O   UNL A   1      46.626  24.729  38.837  1.00  0.00    -0.744 OA
ENDBRANCH  88  89
ENDBRANCH  56  81
BRANCH  68  93
ATOM     93  C   UNL A   1      39.576  33.703  37.075  1.00  0.00     0.058 A 
ATOM     94  C   UNL A   1      40.228  34.923  37.164  1.00  0.00     0.135 A 
ATOM     95  C   UNL A   1      38.749  33.293  38.030  1.00  0.00     0.135 A 
ATOM     96  F   UNL A   1      40.857  35.485  36.137  1.00  0.00    -0.206 F 
ATOM     97  C   UNL A   1      40.163  35.515  38.448  1.00  0.00     0.059 A 
ATOM     98  C   UNL A   1      38.634  33.996  39.206  1.00  0.00     0.059 A 
ATOM     99  F   UNL A   1      38.025  32.193  37.847  1.00  0.00    -0.206 F 
ATOM    100  C   UNL A   1      39.295  35.179  39.385  1.00  0.00     0.060 A 
BRANCH 100 101
ATOM    101  S   UNL A   1      38.997  36.228  40.830  1.00  0.00     0.124 S 
ATOM    102  O   UNL A   1      40.292  36.368  41.634  1.00  0.00    -0.237 OA
ATOM    103  O   UNL A   1      38.531  37.611  40.368  1.00  0.00    -0.237 OA
ATOM    104  O   UNL A   1      37.791  35.518  41.811  1.00  0.00    -0.744 OA
ENDBRANCH 100 101
ENDBRANCH  68  93
ENDBRANCH  42  43
ENDBRANCH  34  37
ENDBRANCH  32  33
ENDBRANCH  31  32
ENDBRANCH   1  31
TORSDOF 19
ENDMDL
