MODEL 1
REMARK VINA RESULT:     -12.5      0.000      0.000
REMARK SMILES C[C@H]1CC[C@H](C(=O)NCCCCNC(=O)c2ccc(-c3c4nc(c(-c5c(F)cc(S(=O)(=O)[O-])cc5F)c5ccc([nH]5)c(-c5c(F)cc(S(=O)(=O)[O-])cc5F)c5nc(c(-c6c(F)cc(S(=O)(=O)[O-])cc6F)c6ccc3[nH]6)C=C5)C=C4)cc2)[C@H]([N@@H+]2CC[N@H+]3CCC[C@@H]3C2)C1
REMARK SMILES IDX 11 1 10 2 9 3 8 4 6 5 7 6 5 8 1 9 2 10 3 11 92 12 4 13 82 14
REMARK SMILES IDX 83 15 84 16 91 17 85 19 90 20 86 21 89 22 87 23 88 25 12 26
REMARK SMILES IDX 13 27 14 28 15 30 16 31 17 32 81 33 18 34 80 35 19 36 20 37
REMARK SMILES IDX 21 38 74 39 22 40 79 41 73 42 75 43 23 44 78 45 72 46 71 47
REMARK SMILES IDX 24 49 58 50 37 51 57 52 38 53 41 54 56 55 76 56 39 57 40 58
REMARK SMILES IDX 55 60 77 61 42 62 25 63 26 64 35 65 27 66 28 67 34 68 36 69
REMARK SMILES IDX 29 70 30 71 31 72 32 73 33 74 59 75 60 76 69 77 61 78 62 79
REMARK SMILES IDX 68 80 70 81 63 82 64 83 65 84 66 85 67 86 43 87 44 88 53 89
REMARK SMILES IDX 45 90 46 91 52 92 54 93 47 94 48 95 49 96 50 97 51 98
REMARK H PARENT 8 7 83 18 86 24 13 29 75 48 41 59
REMARK Flexibility Score: inf
ROOT
ATOM      1  C   UNL A   1      32.204  28.586  26.390  1.00  0.00     0.023 C 
ENDROOT
BRANCH   1   2
ATOM      2  C   UNL A   1      31.497  27.217  26.486  1.00  0.00     0.023 C 
BRANCH   2   3
ATOM      3  C   UNL A   1      30.812  26.585  25.269  1.00  0.00     0.116 C 
BRANCH   3   4
ATOM      4  N   UNL A   1      30.319  25.233  25.401  1.00  0.00    -0.356 N 
ATOM      5  C   UNL A   1      31.022  24.063  25.444  1.00  0.00     0.229 C 
ATOM      6  O   UNL A   1      30.418  23.092  25.926  1.00  0.00    -0.275 OA
ATOM      7  H   UNL A   1      29.341  25.144  25.470  1.00  0.00     0.163 HD
BRANCH   5   8
ATOM      8  C   UNL A   1      32.460  23.843  24.912  1.00  0.00     0.136 C 
ATOM      9  C   UNL A   1      36.615  23.251  23.531  1.00  0.00     0.008 C 
ATOM     10  C   UNL A   1      35.266  23.096  24.226  1.00  0.00    -0.008 C 
ATOM     11  C   UNL A   1      34.967  24.198  25.247  1.00  0.00     0.004 C 
ATOM     12  C   UNL A   1      34.108  22.956  23.210  1.00  0.00     0.069 C 
ATOM     13  C   UNL A   1      33.596  24.019  25.930  1.00  0.00     0.020 C 
ATOM     14  C   UNL A   1      32.695  22.725  23.849  1.00  0.00     0.197 C 
BRANCH  14  15
ATOM     15  N   UNL A   1      32.546  21.331  24.261  1.00  0.00    -0.322 N 
ATOM     16  C   UNL A   1      32.803  20.936  25.640  1.00  0.00     0.324 C 
ATOM     17  C   UNL A   1      32.272  20.298  23.283  1.00  0.00     0.328 C 
ATOM     18  H   UNL A   1      31.585  21.655  24.377  1.00  0.00     0.348 HD
ATOM     19  C   UNL A   1      33.241  19.436  25.859  1.00  0.00     0.324 C 
ATOM     20  C   UNL A   1      32.467  18.857  23.712  1.00  0.00     0.240 C 
ATOM     21  N   UNL A   1      33.631  18.782  24.589  1.00  0.00    -0.323 N 
ATOM     22  C   UNL A   1      32.841  17.957  22.547  1.00  0.00     0.077 C 
ATOM     23  C   UNL A   1      34.046  17.385  24.545  1.00  0.00     0.263 C 
ATOM     24  H   UNL A   1      34.479  19.290  24.340  1.00  0.00     0.348 HD
ATOM     25  C   UNL A   1      33.576  16.818  23.213  1.00  0.00     0.068 C 
ENDBRANCH  14  15
ENDBRANCH   5   8
ENDBRANCH   3   4
ENDBRANCH   2   3
ENDBRANCH   1   2
BRANCH   1  26
ATOM     26  C   UNL A   1      33.560  28.866  27.050  1.00  0.00     0.116 C 
BRANCH  26  27
ATOM     27  N   UNL A   1      33.664  30.134  27.747  1.00  0.00    -0.352 N 
ATOM     28  C   UNL A   1      34.704  30.808  28.355  1.00  0.00     0.251 C 
ATOM     29  H   UNL A   1      32.809  30.619  27.797  1.00  0.00     0.163 HD
ATOM     30  O   UNL A   1      34.596  31.931  28.803  1.00  0.00    -0.269 OA
BRANCH  28  31
ATOM     31  C   UNL A   1      35.988  30.142  28.507  1.00  0.00     0.039 A 
ATOM     32  C   UNL A   1      36.889  30.182  27.436  1.00  0.00     0.014 A 
ATOM     33  C   UNL A   1      36.291  29.531  29.716  1.00  0.00     0.014 A 
ATOM     34  C   UNL A   1      38.175  29.709  27.632  1.00  0.00     0.010 A 
ATOM     35  C   UNL A   1      37.592  29.148  29.938  1.00  0.00     0.010 A 
ATOM     36  C   UNL A   1      38.538  29.253  28.904  1.00  0.00    -0.014 A 
BRANCH  36  37
ATOM     37  C   UNL A   1      39.923  28.883  29.225  1.00  0.00     0.031 A 
ATOM     38  C   UNL A   1      40.826  29.944  29.764  1.00  0.00     0.074 A 
ATOM     39  C   UNL A   1      40.357  27.664  28.857  1.00  0.00     0.049 A 
ATOM     40  N   UNL A   1      42.121  29.930  29.894  1.00  0.00    -0.248 NA
ATOM     41  C   UNL A   1      40.189  31.220  30.141  1.00  0.00     0.031 C 
ATOM     42  C   UNL A   1      39.531  26.610  28.256  1.00  0.00     0.029 A 
ATOM     43  N   UNL A   1      41.608  27.117  28.903  1.00  0.00    -0.354 N 
ATOM     44  C   UNL A   1      42.459  31.204  30.329  1.00  0.00     0.074 A 
ATOM     45  C   UNL A   1      41.243  31.983  30.379  1.00  0.00     0.031 C 
ATOM     46  C   UNL A   1      40.297  25.537  28.006  1.00  0.00     0.029 A 
ATOM     47  C   UNL A   1      41.669  25.845  28.386  1.00  0.00     0.049 A 
ATOM     48  H   UNL A   1      42.391  27.587  29.272  1.00  0.00     0.167 HD
ATOM     49  C   UNL A   1      43.682  31.663  30.676  1.00  0.00     0.037 A 
ATOM     50  C   UNL A   1      42.730  25.033  28.232  1.00  0.00     0.037 A 
ATOM     51  C   UNL A   1      44.854  30.832  30.649  1.00  0.00     0.049 A 
ATOM     52  C   UNL A   1      44.069  25.549  28.679  1.00  0.00     0.074 A 
ATOM     53  C   UNL A   1      46.139  31.138  31.052  1.00  0.00     0.029 A 
ATOM     54  N   UNL A   1      44.873  29.518  30.197  1.00  0.00    -0.354 N 
ATOM     55  N   UNL A   1      44.376  26.733  29.157  1.00  0.00    -0.248 NA
ATOM     56  C   UNL A   1      45.203  24.624  28.578  1.00  0.00     0.031 C 
ATOM     57  C   UNL A   1      46.942  30.018  30.810  1.00  0.00     0.029 A 
ATOM     58  C   UNL A   1      46.150  28.999  30.301  1.00  0.00     0.049 A 
ATOM     59  H   UNL A   1      44.091  29.028  29.852  1.00  0.00     0.167 HD
ATOM     60  C   UNL A   1      45.734  26.689  29.442  1.00  0.00     0.074 A 
ATOM     61  C   UNL A   1      46.183  25.354  29.092  1.00  0.00     0.031 C 
ATOM     62  C   UNL A   1      46.541  27.656  29.946  1.00  0.00     0.037 A 
BRANCH  49  63
ATOM     63  C   UNL A   1      43.792  33.097  31.113  1.00  0.00     0.058 A 
ATOM     64  C   UNL A   1      43.625  33.476  32.456  1.00  0.00     0.135 A 
ATOM     65  C   UNL A   1      44.065  34.110  30.179  1.00  0.00     0.135 A 
ATOM     66  F   UNL A   1      43.337  32.554  33.388  1.00  0.00    -0.206 F 
ATOM     67  C   UNL A   1      43.692  34.807  32.851  1.00  0.00     0.059 A 
ATOM     68  C   UNL A   1      44.169  35.445  30.559  1.00  0.00     0.059 A 
ATOM     69  F   UNL A   1      44.222  33.808  28.881  1.00  0.00    -0.206 F 
ATOM     70  C   UNL A   1      43.967  35.785  31.896  1.00  0.00     0.060 A 
BRANCH  70  71
ATOM     71  S   UNL A   1      44.067  37.506  32.431  1.00  0.00     0.124 S 
ATOM     72  O   UNL A   1      43.825  38.215  31.178  1.00  0.00    -0.237 OA
ATOM     73  O   UNL A   1      42.998  37.586  33.421  1.00  0.00    -0.237 OA
ATOM     74  O   UNL A   1      45.421  37.618  32.964  1.00  0.00    -0.744 OA
ENDBRANCH  70  71
ENDBRANCH  49  63
BRANCH  50  75
ATOM     75  C   UNL A   1      42.551  23.661  27.691  1.00  0.00     0.058 A 
ATOM     76  C   UNL A   1      42.610  23.426  26.310  1.00  0.00     0.135 A 
ATOM     77  C   UNL A   1      42.365  22.553  28.533  1.00  0.00     0.135 A 
ATOM     78  F   UNL A   1      42.795  24.451  25.464  1.00  0.00    -0.206 F 
ATOM     79  C   UNL A   1      42.468  22.148  25.779  1.00  0.00     0.059 A 
ATOM     80  C   UNL A   1      42.244  21.261  28.026  1.00  0.00     0.059 A 
ATOM     81  F   UNL A   1      42.332  22.717  29.865  1.00  0.00    -0.206 F 
ATOM     82  C   UNL A   1      42.286  21.070  26.646  1.00  0.00     0.060 A 
BRANCH  82  83
ATOM     83  S   UNL A   1      42.144  19.412  25.945  1.00  0.00     0.124 S 
ATOM     84  O   UNL A   1      40.713  19.329  25.676  1.00  0.00    -0.237 OA
ATOM     85  O   UNL A   1      43.009  19.501  24.773  1.00  0.00    -0.237 OA
ATOM     86  O   UNL A   1      42.638  18.552  27.016  1.00  0.00    -0.744 OA
ENDBRANCH  82  83
ENDBRANCH  50  75
BRANCH  62  87
ATOM     87  C   UNL A   1      47.975  27.284  30.180  1.00  0.00     0.058 A 
ATOM     88  C   UNL A   1      48.928  27.356  29.153  1.00  0.00     0.135 A 
ATOM     89  C   UNL A   1      48.406  26.911  31.462  1.00  0.00     0.135 A 
ATOM     90  F   UNL A   1      48.559  27.701  27.909  1.00  0.00    -0.206 F 
ATOM     91  C   UNL A   1      50.261  27.046  29.386  1.00  0.00     0.059 A 
ATOM     92  C   UNL A   1      49.740  26.627  31.724  1.00  0.00     0.059 A 
ATOM     93  F   UNL A   1      47.531  26.841  32.477  1.00  0.00    -0.206 F 
ATOM     94  C   UNL A   1      50.658  26.687  30.676  1.00  0.00     0.060 A 
BRANCH  94  95
ATOM     95  S   UNL A   1      52.400  26.326  30.973  1.00  0.00     0.124 S 
ATOM     96  O   UNL A   1      52.927  26.293  29.613  1.00  0.00    -0.237 OA
ATOM     97  O   UNL A   1      52.818  27.462  31.788  1.00  0.00    -0.237 OA
ATOM     98  O   UNL A   1      52.367  25.042  31.666  1.00  0.00    -0.744 OA
ENDBRANCH  94  95
ENDBRANCH  62  87
ENDBRANCH  36  37
ENDBRANCH  28  31
ENDBRANCH  26  27
ENDBRANCH   1  26
TORSDOF 15
ENDMDL
MODEL 2
REMARK VINA RESULT:     -12.3      3.264      9.769
REMARK SMILES C[C@H]1CC[C@H](C(=O)NCCCCNC(=O)c2ccc(-c3c4nc(c(-c5c(F)cc(S(=O)(=O)[O-])cc5F)c5ccc([nH]5)c(-c5c(F)cc(S(=O)(=O)[O-])cc5F)c5nc(c(-c6c(F)cc(S(=O)(=O)[O-])cc6F)c6ccc3[nH]6)C=C5)C=C4)cc2)[C@H]([N@@H+]2CC[N@H+]3CCC[C@@H]3C2)C1
REMARK SMILES IDX 11 1 10 2 9 3 8 4 6 5 7 6 5 8 1 9 2 10 3 11 92 12 4 13 82 14
REMARK SMILES IDX 83 15 84 16 91 17 85 19 90 20 86 21 89 22 87 23 88 25 12 26
REMARK SMILES IDX 13 27 14 28 15 30 16 31 17 32 81 33 18 34 80 35 19 36 20 37
REMARK SMILES IDX 21 38 74 39 22 40 79 41 73 42 75 43 23 44 78 45 72 46 71 47
REMARK SMILES IDX 24 49 58 50 37 51 57 52 38 53 41 54 56 55 76 56 39 57 40 58
REMARK SMILES IDX 55 60 77 61 42 62 25 63 26 64 35 65 27 66 28 67 34 68 36 69
REMARK SMILES IDX 29 70 30 71 31 72 32 73 33 74 59 75 60 76 69 77 61 78 62 79
REMARK SMILES IDX 68 80 70 81 63 82 64 83 65 84 66 85 67 86 43 87 44 88 53 89
REMARK SMILES IDX 45 90 46 91 52 92 54 93 47 94 48 95 49 96 50 97 51 98
REMARK H PARENT 8 7 83 18 86 24 13 29 75 48 41 59
REMARK Flexibility Score: inf
ROOT
ATOM      1  C   UNL A   1      36.026  22.670  24.324  1.00  0.00     0.023 C 
ENDROOT
BRANCH   1   2
ATOM      2  C   UNL A   1      34.541  22.642  24.743  1.00  0.00     0.023 C 
BRANCH   2   3
ATOM      3  C   UNL A   1      33.416  22.737  23.706  1.00  0.00     0.116 C 
BRANCH   3   4
ATOM      4  N   UNL A   1      33.485  23.805  22.735  1.00  0.00    -0.356 N 
ATOM      5  C   UNL A   1      33.499  25.155  22.943  1.00  0.00     0.229 C 
ATOM      6  O   UNL A   1      33.929  25.838  22.001  1.00  0.00    -0.275 OA
ATOM      7  H   UNL A   1      33.529  23.520  21.794  1.00  0.00     0.163 HD
BRANCH   5   8
ATOM      8  C   UNL A   1      32.991  25.888  24.210  1.00  0.00     0.136 C 
ATOM      9  C   UNL A   1      31.668  28.059  27.823  1.00  0.00     0.008 C 
ATOM     10  C   UNL A   1      32.053  27.691  26.393  1.00  0.00    -0.008 C 
ATOM     11  C   UNL A   1      33.540  27.368  26.218  1.00  0.00     0.004 C 
ATOM     12  C   UNL A   1      31.170  26.550  25.836  1.00  0.00     0.069 C 
ATOM     13  C   UNL A   1      33.898  26.995  24.765  1.00  0.00     0.020 C 
ATOM     14  C   UNL A   1      31.460  26.160  24.346  1.00  0.00     0.197 C 
BRANCH  14  15
ATOM     15  N   UNL A   1      30.842  27.125  23.439  1.00  0.00    -0.322 N 
ATOM     16  C   UNL A   1      31.664  28.065  22.686  1.00  0.00     0.324 C 
ATOM     17  C   UNL A   1      29.401  27.257  23.373  1.00  0.00     0.328 C 
ATOM     18  H   UNL A   1      30.926  26.322  22.815  1.00  0.00     0.348 HD
ATOM     19  C   UNL A   1      30.964  29.414  22.268  1.00  0.00     0.324 C 
ATOM     20  C   UNL A   1      28.840  28.486  22.684  1.00  0.00     0.240 C 
ATOM     21  N   UNL A   1      29.693  29.628  22.997  1.00  0.00    -0.323 N 
ATOM     22  C   UNL A   1      27.487  28.889  23.243  1.00  0.00     0.077 C 
ATOM     23  C   UNL A   1      28.859  30.799  22.752  1.00  0.00     0.263 C 
ATOM     24  H   UNL A   1      30.018  29.764  23.954  1.00  0.00     0.348 HD
ATOM     25  C   UNL A   1      27.411  30.365  22.934  1.00  0.00     0.068 C 
ENDBRANCH  14  15
ENDBRANCH   5   8
ENDBRANCH   3   4
ENDBRANCH   2   3
ENDBRANCH   1   2
BRANCH   1  26
ATOM     26  C   UNL A   1      37.089  23.467  25.090  1.00  0.00     0.116 C 
BRANCH  26  27
ATOM     27  N   UNL A   1      38.324  22.758  25.364  1.00  0.00    -0.352 N 
ATOM     28  C   UNL A   1      39.424  23.021  26.157  1.00  0.00     0.251 C 
ATOM     29  H   UNL A   1      38.394  21.903  24.880  1.00  0.00     0.163 HD
ATOM     30  O   UNL A   1      40.327  22.228  26.324  1.00  0.00    -0.269 OA
BRANCH  28  31
ATOM     31  C   UNL A   1      39.537  24.321  26.800  1.00  0.00     0.039 A 
ATOM     32  C   UNL A   1      38.969  24.487  28.069  1.00  0.00     0.014 A 
ATOM     33  C   UNL A   1      40.239  25.331  26.157  1.00  0.00     0.014 A 
ATOM     34  C   UNL A   1      39.225  25.657  28.763  1.00  0.00     0.010 A 
ATOM     35  C   UNL A   1      40.569  26.451  26.883  1.00  0.00     0.010 A 
ATOM     36  C   UNL A   1      40.078  26.607  28.190  1.00  0.00    -0.014 A 
BRANCH  36  37
ATOM     37  C   UNL A   1      40.516  27.797  28.931  1.00  0.00     0.031 A 
ATOM     38  C   UNL A   1      41.809  27.723  29.676  1.00  0.00     0.074 A 
ATOM     39  C   UNL A   1      39.657  28.825  29.049  1.00  0.00     0.049 A 
ATOM     40  N   UNL A   1      42.284  28.533  30.578  1.00  0.00    -0.248 NA
ATOM     41  C   UNL A   1      42.648  26.537  29.421  1.00  0.00     0.031 C 
ATOM     42  C   UNL A   1      38.344  28.918  28.398  1.00  0.00     0.029 A 
ATOM     43  N   UNL A   1      39.745  29.976  29.781  1.00  0.00    -0.354 N 
ATOM     44  C   UNL A   1      43.454  27.937  31.027  1.00  0.00     0.074 A 
ATOM     45  C   UNL A   1      43.585  26.669  30.346  1.00  0.00     0.031 C 
ATOM     46  C   UNL A   1      37.758  30.072  28.750  1.00  0.00     0.029 A 
ATOM     47  C   UNL A   1      38.631  30.775  29.680  1.00  0.00     0.049 A 
ATOM     48  H   UNL A   1      40.529  30.210  30.328  1.00  0.00     0.167 HD
ATOM     49  C   UNL A   1      44.345  28.430  31.915  1.00  0.00     0.037 A 
ATOM     50  C   UNL A   1      38.356  31.942  30.291  1.00  0.00     0.037 A 
ATOM     51  C   UNL A   1      44.190  29.718  32.531  1.00  0.00     0.049 A 
ATOM     52  C   UNL A   1      39.392  32.494  31.230  1.00  0.00     0.074 A 
ATOM     53  C   UNL A   1      45.053  30.379  33.382  1.00  0.00     0.029 A 
ATOM     54  N   UNL A   1      43.088  30.546  32.349  1.00  0.00    -0.354 N 
ATOM     55  N   UNL A   1      40.534  31.960  31.600  1.00  0.00    -0.248 NA
ATOM     56  C   UNL A   1      39.113  33.803  31.827  1.00  0.00     0.031 C 
ATOM     57  C   UNL A   1      44.457  31.593  33.741  1.00  0.00     0.029 A 
ATOM     58  C   UNL A   1      43.243  31.710  33.078  1.00  0.00     0.049 A 
ATOM     59  H   UNL A   1      42.311  30.335  31.782  1.00  0.00     0.167 HD
ATOM     60  C   UNL A   1      41.126  32.882  32.452  1.00  0.00     0.074 A 
ATOM     61  C   UNL A   1      40.218  34.011  32.531  1.00  0.00     0.031 C 
ATOM     62  C   UNL A   1      42.310  32.810  33.112  1.00  0.00     0.037 A 
BRANCH  49  63
ATOM     63  C   UNL A   1      45.543  27.583  32.244  1.00  0.00     0.058 A 
ATOM     64  C   UNL A   1      45.505  26.610  33.257  1.00  0.00     0.135 A 
ATOM     65  C   UNL A   1      46.748  27.746  31.542  1.00  0.00     0.135 A 
ATOM     66  F   UNL A   1      44.388  26.428  33.978  1.00  0.00    -0.206 F 
ATOM     67  C   UNL A   1      46.624  25.853  33.583  1.00  0.00     0.059 A 
ATOM     68  C   UNL A   1      47.872  26.975  31.830  1.00  0.00     0.059 A 
ATOM     69  F   UNL A   1      46.847  28.669  30.572  1.00  0.00    -0.206 F 
ATOM     70  C   UNL A   1      47.804  26.041  32.862  1.00  0.00     0.060 A 
BRANCH  70  71
ATOM     71  S   UNL A   1      49.242  25.038  33.288  1.00  0.00     0.124 S 
ATOM     72  O   UNL A   1      48.619  23.916  33.984  1.00  0.00    -0.237 OA
ATOM     73  O   UNL A   1      49.809  24.734  31.978  1.00  0.00    -0.237 OA
ATOM     74  O   UNL A   1      50.042  25.928  34.124  1.00  0.00    -0.744 OA
ENDBRANCH  70  71
ENDBRANCH  49  63
BRANCH  50  75
ATOM     75  C   UNL A   1      37.096  32.667  29.988  1.00  0.00     0.058 A 
ATOM     76  C   UNL A   1      35.928  32.400  30.716  1.00  0.00     0.135 A 
ATOM     77  C   UNL A   1      37.037  33.667  29.005  1.00  0.00     0.135 A 
ATOM     78  F   UNL A   1      35.935  31.459  31.672  1.00  0.00    -0.206 F 
ATOM     79  C   UNL A   1      34.740  33.080  30.468  1.00  0.00     0.059 A 
ATOM     80  C   UNL A   1      35.866  34.379  28.754  1.00  0.00     0.059 A 
ATOM     81  F   UNL A   1      38.134  33.984  28.300  1.00  0.00    -0.206 F 
ATOM     82  C   UNL A   1      34.719  34.070  29.484  1.00  0.00     0.060 A 
BRANCH  82  83
ATOM     83  S   UNL A   1      33.181  34.973  29.201  1.00  0.00     0.124 S 
ATOM     84  O   UNL A   1      33.679  36.272  28.764  1.00  0.00    -0.237 OA
ATOM     85  O   UNL A   1      32.532  34.160  28.178  1.00  0.00    -0.237 OA
ATOM     86  O   UNL A   1      32.534  34.951  30.510  1.00  0.00    -0.744 OA
ENDBRANCH  82  83
ENDBRANCH  50  75
BRANCH  62  87
ATOM     87  C   UNL A   1      42.695  34.000  33.939  1.00  0.00     0.058 A 
ATOM     88  C   UNL A   1      42.309  34.117  35.282  1.00  0.00     0.135 A 
ATOM     89  C   UNL A   1      43.510  35.003  33.392  1.00  0.00     0.135 A 
ATOM     90  F   UNL A   1      41.523  33.185  35.844  1.00  0.00    -0.206 F 
ATOM     91  C   UNL A   1      42.702  35.203  36.052  1.00  0.00     0.059 A 
ATOM     92  C   UNL A   1      43.940  36.082  34.153  1.00  0.00     0.059 A 
ATOM     93  F   UNL A   1      43.913  34.926  32.114  1.00  0.00    -0.206 F 
ATOM     94  C   UNL A   1      43.520  36.179  35.479  1.00  0.00     0.060 A 
BRANCH  94  95
ATOM     95  S   UNL A   1      44.055  37.565  36.502  1.00  0.00     0.124 S 
ATOM     96  O   UNL A   1      43.075  37.525  37.582  1.00  0.00    -0.237 OA
ATOM     97  O   UNL A   1      45.415  37.178  36.865  1.00  0.00    -0.237 OA
ATOM     98  O   UNL A   1      43.954  38.709  35.603  1.00  0.00    -0.744 OA
ENDBRANCH  94  95
ENDBRANCH  62  87
ENDBRANCH  36  37
ENDBRANCH  28  31
ENDBRANCH  26  27
ENDBRANCH   1  26
TORSDOF 15
ENDMDL
MODEL 3
REMARK VINA RESULT:     -11.9      3.131      9.568
REMARK SMILES C[C@H]1CC[C@H](C(=O)NCCCCNC(=O)c2ccc(-c3c4nc(c(-c5c(F)cc(S(=O)(=O)[O-])cc5F)c5ccc([nH]5)c(-c5c(F)cc(S(=O)(=O)[O-])cc5F)c5nc(c(-c6c(F)cc(S(=O)(=O)[O-])cc6F)c6ccc3[nH]6)C=C5)C=C4)cc2)[C@H]([N@@H+]2CC[N@H+]3CCC[C@@H]3C2)C1
REMARK SMILES IDX 11 1 10 2 9 3 8 4 6 5 7 6 5 8 1 9 2 10 3 11 92 12 4 13 82 14
REMARK SMILES IDX 83 15 84 16 91 17 85 19 90 20 86 21 89 22 87 23 88 25 12 26
REMARK SMILES IDX 13 27 14 28 15 30 16 31 17 32 81 33 18 34 80 35 19 36 20 37
REMARK SMILES IDX 21 38 74 39 22 40 79 41 73 42 75 43 23 44 78 45 72 46 71 47
REMARK SMILES IDX 24 49 58 50 37 51 57 52 38 53 41 54 56 55 76 56 39 57 40 58
REMARK SMILES IDX 55 60 77 61 42 62 25 63 26 64 35 65 27 66 28 67 34 68 36 69
REMARK SMILES IDX 29 70 30 71 31 72 32 73 33 74 59 75 60 76 69 77 61 78 62 79
REMARK SMILES IDX 68 80 70 81 63 82 64 83 65 84 66 85 67 86 43 87 44 88 53 89
REMARK SMILES IDX 45 90 46 91 52 92 54 93 47 94 48 95 49 96 50 97 51 98
REMARK H PARENT 8 7 83 18 86 24 13 29 75 48 41 59
REMARK Flexibility Score: inf
ROOT
ATOM      1  C   UNL A   1      36.381  23.706  24.662  1.00  0.00     0.023 C 
ENDROOT
BRANCH   1   2
ATOM      2  C   UNL A   1      35.578  23.048  23.520  1.00  0.00     0.023 C 
BRANCH   2   3
ATOM      3  C   UNL A   1      34.054  22.898  23.599  1.00  0.00     0.116 C 
BRANCH   3   4
ATOM      4  N   UNL A   1      33.257  23.606  22.624  1.00  0.00    -0.356 N 
ATOM      5  C   UNL A   1      32.741  24.869  22.690  1.00  0.00     0.229 C 
ATOM      6  O   UNL A   1      32.419  25.374  21.603  1.00  0.00    -0.275 OA
ATOM      7  H   UNL A   1      33.060  23.110  21.797  1.00  0.00     0.163 HD
BRANCH   5   8
ATOM      8  C   UNL A   1      32.487  25.684  23.983  1.00  0.00     0.136 C 
ATOM      9  C   UNL A   1      31.904  28.060  27.661  1.00  0.00     0.008 C 
ATOM     10  C   UNL A   1      32.102  27.629  26.212  1.00  0.00    -0.008 C 
ATOM     11  C   UNL A   1      33.472  27.004  25.935  1.00  0.00     0.004 C 
ATOM     12  C   UNL A   1      30.963  26.702  25.727  1.00  0.00     0.069 C 
ATOM     13  C   UNL A   1      33.642  26.573  24.464  1.00  0.00     0.020 C 
ATOM     14  C   UNL A   1      31.060  26.269  24.223  1.00  0.00     0.197 C 
BRANCH  14  15
ATOM     15  N   UNL A   1      30.596  27.347  23.354  1.00  0.00    -0.322 N 
ATOM     16  C   UNL A   1      31.551  28.224  22.687  1.00  0.00     0.324 C 
ATOM     17  C   UNL A   1      29.183  27.651  23.245  1.00  0.00     0.328 C 
ATOM     18  H   UNL A   1      30.613  26.575  22.687  1.00  0.00     0.348 HD
ATOM     19  C   UNL A   1      31.029  29.667  22.324  1.00  0.00     0.324 C 
ATOM     20  C   UNL A   1      28.797  28.974  22.611  1.00  0.00     0.240 C 
ATOM     21  N   UNL A   1      29.762  29.989  23.020  1.00  0.00    -0.323 N 
ATOM     22  C   UNL A   1      27.477  29.502  23.145  1.00  0.00     0.077 C 
ATOM     23  C   UNL A   1      29.079  31.261  22.815  1.00  0.00     0.263 C 
ATOM     24  H   UNL A   1      30.060  30.033  23.994  1.00  0.00     0.348 HD
ATOM     25  C   UNL A   1      27.585  30.991  22.920  1.00  0.00     0.068 C 
ENDBRANCH  14  15
ENDBRANCH   5   8
ENDBRANCH   3   4
ENDBRANCH   2   3
ENDBRANCH   1   2
BRANCH   1  26
ATOM     26  C   UNL A   1      36.625  23.015  26.009  1.00  0.00     0.116 C 
BRANCH  26  27
ATOM     27  N   UNL A   1      37.875  22.288  26.120  1.00  0.00    -0.352 N 
ATOM     28  C   UNL A   1      39.139  22.621  26.565  1.00  0.00     0.251 C 
ATOM     29  H   UNL A   1      37.809  21.356  25.811  1.00  0.00     0.163 HD
ATOM     30  O   UNL A   1      40.040  21.815  26.669  1.00  0.00    -0.269 OA
BRANCH  28  31
ATOM     31  C   UNL A   1      39.432  24.007  26.896  1.00  0.00     0.039 A 
ATOM     32  C   UNL A   1      39.282  24.420  28.224  1.00  0.00     0.014 A 
ATOM     33  C   UNL A   1      39.889  24.855  25.896  1.00  0.00     0.014 A 
ATOM     34  C   UNL A   1      39.726  25.681  28.582  1.00  0.00     0.010 A 
ATOM     35  C   UNL A   1      40.414  26.069  26.269  1.00  0.00     0.010 A 
ATOM     36  C   UNL A   1      40.350  26.475  27.613  1.00  0.00    -0.014 A 
BRANCH  36  37
ATOM     37  C   UNL A   1      40.982  27.756  27.955  1.00  0.00     0.031 A 
ATOM     38  C   UNL A   1      42.469  27.854  27.851  1.00  0.00     0.074 A 
ATOM     39  C   UNL A   1      40.219  28.715  28.510  1.00  0.00     0.049 A 
ATOM     40  N   UNL A   1      43.265  28.775  28.315  1.00  0.00    -0.248 NA
ATOM     41  C   UNL A   1      43.159  26.726  27.197  1.00  0.00     0.031 C 
ATOM     42  C   UNL A   1      38.765  28.641  28.703  1.00  0.00     0.029 A 
ATOM     43  N   UNL A   1      40.562  29.926  29.042  1.00  0.00    -0.354 N 
ATOM     44  C   UNL A   1      44.548  28.319  28.045  1.00  0.00     0.074 A 
ATOM     45  C   UNL A   1      44.428  27.014  27.437  1.00  0.00     0.031 C 
ATOM     46  C   UNL A   1      38.341  29.768  29.296  1.00  0.00     0.029 A 
ATOM     47  C   UNL A   1      39.494  30.617  29.563  1.00  0.00     0.049 A 
ATOM     48  H   UNL A   1      41.484  30.270  29.050  1.00  0.00     0.167 HD
ATOM     49  C   UNL A   1      45.717  28.958  28.271  1.00  0.00     0.037 A 
ATOM     50  C   UNL A   1      39.469  31.803  30.196  1.00  0.00     0.037 A 
ATOM     51  C   UNL A   1      45.780  30.276  28.840  1.00  0.00     0.049 A 
ATOM     52  C   UNL A   1      40.778  32.518  30.383  1.00  0.00     0.074 A 
ATOM     53  C   UNL A   1      46.885  31.077  29.048  1.00  0.00     0.029 A 
ATOM     54  N   UNL A   1      44.673  30.990  29.286  1.00  0.00    -0.354 N 
ATOM     55  N   UNL A   1      41.988  32.116  30.063  1.00  0.00    -0.248 NA
ATOM     56  C   UNL A   1      40.726  33.845  31.003  1.00  0.00     0.031 C 
ATOM     57  C   UNL A   1      46.451  32.261  29.651  1.00  0.00     0.029 A 
ATOM     58  C   UNL A   1      45.068  32.220  29.777  1.00  0.00     0.049 A 
ATOM     59  H   UNL A   1      43.743  30.667  29.256  1.00  0.00     0.167 HD
ATOM     60  C   UNL A   1      42.840  33.152  30.417  1.00  0.00     0.074 A 
ATOM     61  C   UNL A   1      42.002  34.204  30.964  1.00  0.00     0.031 C 
ATOM     62  C   UNL A   1      44.189  33.236  30.303  1.00  0.00     0.037 A 
BRANCH  49  63
ATOM     63  C   UNL A   1      46.986  28.247  27.894  1.00  0.00     0.058 A 
ATOM     64  C   UNL A   1      47.519  28.321  26.595  1.00  0.00     0.135 A 
ATOM     65  C   UNL A   1      47.682  27.475  28.840  1.00  0.00     0.135 A 
ATOM     66  F   UNL A   1      46.883  29.023  25.643  1.00  0.00    -0.206 F 
ATOM     67  C   UNL A   1      48.673  27.633  26.240  1.00  0.00     0.059 A 
ATOM     68  C   UNL A   1      48.858  26.805  28.514  1.00  0.00     0.059 A 
ATOM     69  F   UNL A   1      47.214  27.359  30.092  1.00  0.00    -0.206 F 
ATOM     70  C   UNL A   1      49.337  26.879  27.207  1.00  0.00     0.060 A 
BRANCH  70  71
ATOM     71  S   UNL A   1      50.844  26.006  26.731  1.00  0.00     0.124 S 
ATOM     72  O   UNL A   1      50.753  26.040  25.275  1.00  0.00    -0.237 OA
ATOM     73  O   UNL A   1      51.886  26.841  27.320  1.00  0.00    -0.237 OA
ATOM     74  O   UNL A   1      50.680  24.690  27.340  1.00  0.00    -0.744 OA
ENDBRANCH  70  71
ENDBRANCH  49  63
BRANCH  50  75
ATOM     75  C   UNL A   1      38.178  32.392  30.633  1.00  0.00     0.058 A 
ATOM     76  C   UNL A   1      37.719  32.208  31.946  1.00  0.00     0.135 A 
ATOM     77  C   UNL A   1      37.397  33.183  29.776  1.00  0.00     0.135 A 
ATOM     78  F   UNL A   1      38.433  31.467  32.807  1.00  0.00    -0.206 F 
ATOM     79  C   UNL A   1      36.524  32.767  32.388  1.00  0.00     0.059 A 
ATOM     80  C   UNL A   1      36.209  33.773  30.202  1.00  0.00     0.059 A 
ATOM     81  F   UNL A   1      37.805  33.417  28.518  1.00  0.00    -0.206 F 
ATOM     82  C   UNL A   1      35.775  33.549  31.507  1.00  0.00     0.060 A 
BRANCH  82  83
ATOM     83  S   UNL A   1      34.247  34.301  32.107  1.00  0.00     0.124 S 
ATOM     84  O   UNL A   1      33.715  33.245  32.960  1.00  0.00    -0.237 OA
ATOM     85  O   UNL A   1      34.740  35.490  32.795  1.00  0.00    -0.237 OA
ATOM     86  O   UNL A   1      33.498  34.562  30.881  1.00  0.00    -0.744 OA
ENDBRANCH  82  83
ENDBRANCH  50  75
BRANCH  62  87
ATOM     87  C   UNL A   1      44.826  34.520  30.746  1.00  0.00     0.058 A 
ATOM     88  C   UNL A   1      45.316  34.685  32.049  1.00  0.00     0.135 A 
ATOM     89  C   UNL A   1      44.998  35.572  29.833  1.00  0.00     0.135 A 
ATOM     90  F   UNL A   1      45.166  33.708  32.957  1.00  0.00    -0.206 F 
ATOM     91  C   UNL A   1      45.938  35.863  32.441  1.00  0.00     0.059 A 
ATOM     92  C   UNL A   1      45.644  36.746  30.194  1.00  0.00     0.059 A 
ATOM     93  F   UNL A   1      44.555  35.453  28.571  1.00  0.00    -0.206 F 
ATOM     94  C   UNL A   1      46.101  36.886  31.505  1.00  0.00     0.060 A 
BRANCH  94  95
ATOM     95  S   UNL A   1      46.945  38.395  32.016  1.00  0.00     0.124 S 
ATOM     96  O   UNL A   1      46.568  39.316  30.948  1.00  0.00    -0.237 OA
ATOM     97  O   UNL A   1      46.349  38.659  33.321  1.00  0.00    -0.237 OA
ATOM     98  O   UNL A   1      48.351  38.006  32.042  1.00  0.00    -0.744 OA
ENDBRANCH  94  95
ENDBRANCH  62  87
ENDBRANCH  36  37
ENDBRANCH  28  31
ENDBRANCH  26  27
ENDBRANCH   1  26
TORSDOF 15
ENDMDL
