MODEL 1
REMARK VINA RESULT:     -11.5      0.000      0.000
REMARK SMILES Nc1ccc(O)c(C(=O)NCCCCNC(=O)c2ccc(-c3c4nc(c(-c5c(F)cc(S(=O)(=O)[O-])cc5F)c5ccc([nH]5)c(-c5c(F)cc(S(=O)(=O)[O-])cc5F)c5nc(c(-c6c(F)cc(S(=O)(=O)[O-])cc6F)c6ccc3[nH]6)C=C5)C=C4)cc2)c1
REMARK SMILES IDX 13 1 12 2 11 3 10 4 8 5 9 6 7 8 2 9 3 10 84 11 4 12 5 13
REMARK SMILES IDX 1 14 6 17 14 19 15 20 16 21 17 23 18 24 19 25 83 26 20 27
REMARK SMILES IDX 82 28 21 29 22 30 23 31 76 32 24 33 81 34 75 35 77 36 25 37
REMARK SMILES IDX 80 38 74 39 73 40 26 42 60 43 39 44 59 45 40 46 43 47 58 48
REMARK SMILES IDX 78 49 41 50 42 51 57 53 79 54 44 55 27 56 28 57 37 58 29 59
REMARK SMILES IDX 30 60 36 61 38 62 31 63 32 64 33 65 34 66 35 67 61 68 62 69
REMARK SMILES IDX 71 70 63 71 64 72 70 73 72 74 65 75 66 76 67 77 68 78 69 79
REMARK SMILES IDX 45 80 46 81 55 82 47 83 48 84 54 85 56 86 49 87 50 88 51 89
REMARK SMILES IDX 52 90 53 91
REMARK H PARENT 10 7 1 15 1 16 6 18 15 22 77 41 43 52
REMARK Flexibility Score: inf
ROOT
ATOM      1  C   UNL A   1      35.163  31.602  27.643  1.00  0.00     0.023 C 
ENDROOT
BRANCH   1   2
ATOM      2  C   UNL A   1      34.306  32.662  28.349  1.00  0.00     0.023 C 
BRANCH   2   3
ATOM      3  C   UNL A   1      34.783  34.100  28.132  1.00  0.00     0.116 C 
BRANCH   3   4
ATOM      4  N   UNL A   1      33.664  35.021  28.178  1.00  0.00    -0.352 N 
ATOM      5  C   UNL A   1      33.073  35.725  29.194  1.00  0.00     0.255 C 
ATOM      6  O   UNL A   1      32.139  36.472  28.887  1.00  0.00    -0.269 OA
ATOM      7  H   UNL A   1      33.243  35.170  27.300  1.00  0.00     0.163 HD
BRANCH   5   8
ATOM      8  C   UNL A   1      33.507  35.705  30.622  1.00  0.00     0.083 A 
ATOM      9  C   UNL A   1      34.363  34.598  32.631  1.00  0.00     0.032 A 
ATOM     10  C   UNL A   1      34.340  35.815  33.309  1.00  0.00     0.029 A 
ATOM     11  C   UNL A   1      33.882  34.546  31.314  1.00  0.00     0.043 A 
ATOM     12  C   UNL A   1      33.911  36.973  32.667  1.00  0.00     0.049 A 
ATOM     13  C   UNL A   1      33.503  36.918  31.336  1.00  0.00     0.128 A 
BRANCH   9  14
ATOM     14  N   UNL A   1      34.727  33.434  33.292  1.00  0.00    -0.399 N 
ATOM     15  H   UNL A   1      34.134  33.053  33.979  1.00  0.00     0.156 HD
ATOM     16  H   UNL A   1      35.578  32.990  33.074  1.00  0.00     0.156 HD
ENDBRANCH   9  14
BRANCH  13  17
ATOM     17  O   UNL A   1      33.093  38.113  30.799  1.00  0.00    -0.507 OA
ATOM     18  H   UNL A   1      33.471  38.421  30.000  1.00  0.00     0.293 HD
ENDBRANCH  13  17
ENDBRANCH   5   8
ENDBRANCH   3   4
ENDBRANCH   2   3
ENDBRANCH   1   2
BRANCH   1  19
ATOM     19  C   UNL A   1      35.606  30.437  28.523  1.00  0.00     0.116 C 
BRANCH  19  20
ATOM     20  N   UNL A   1      35.526  30.729  29.946  1.00  0.00    -0.352 N 
ATOM     21  C   UNL A   1      36.538  30.732  30.879  1.00  0.00     0.251 C 
ATOM     22  H   UNL A   1      34.630  30.954  30.286  1.00  0.00     0.163 HD
ATOM     23  O   UNL A   1      36.280  30.902  32.061  1.00  0.00    -0.269 OA
BRANCH  21  24
ATOM     24  C   UNL A   1      37.927  30.482  30.440  1.00  0.00     0.039 A 
ATOM     25  C   UNL A   1      38.881  30.137  31.400  1.00  0.00     0.014 A 
ATOM     26  C   UNL A   1      38.277  30.558  29.090  1.00  0.00     0.014 A 
ATOM     27  C   UNL A   1      40.174  29.799  30.997  1.00  0.00     0.010 A 
ATOM     28  C   UNL A   1      39.549  30.163  28.684  1.00  0.00     0.010 A 
ATOM     29  C   UNL A   1      40.507  29.773  29.633  1.00  0.00    -0.014 A 
BRANCH  29  30
ATOM     30  C   UNL A   1      41.847  29.328  29.177  1.00  0.00     0.031 A 
ATOM     31  C   UNL A   1      42.981  30.310  29.091  1.00  0.00     0.074 A 
ATOM     32  C   UNL A   1      42.019  28.057  28.766  1.00  0.00     0.049 A 
ATOM     33  N   UNL A   1      44.197  30.131  28.644  1.00  0.00    -0.248 NA
ATOM     34  C   UNL A   1      42.704  31.684  29.542  1.00  0.00     0.031 C 
ATOM     35  C   UNL A   1      40.979  27.025  28.749  1.00  0.00     0.029 A 
ATOM     36  N   UNL A   1      43.127  27.418  28.269  1.00  0.00    -0.354 N 
ATOM     37  C   UNL A   1      44.823  31.368  28.741  1.00  0.00     0.074 A 
ATOM     38  C   UNL A   1      43.838  32.300  29.248  1.00  0.00     0.031 C 
ATOM     39  C   UNL A   1      41.502  25.880  28.283  1.00  0.00     0.029 A 
ATOM     40  C   UNL A   1      42.904  26.102  27.939  1.00  0.00     0.049 A 
ATOM     41  H   UNL A   1      44.000  27.860  28.159  1.00  0.00     0.167 HD
ATOM     42  C   UNL A   1      46.106  31.692  28.454  1.00  0.00     0.037 A 
ATOM     43  C   UNL A   1      43.733  25.180  27.413  1.00  0.00     0.037 A 
ATOM     44  C   UNL A   1      47.088  30.753  27.977  1.00  0.00     0.049 A 
ATOM     45  C   UNL A   1      45.160  25.555  27.126  1.00  0.00     0.074 A 
ATOM     46  C   UNL A   1      48.430  30.968  27.717  1.00  0.00     0.029 A 
ATOM     47  N   UNL A   1      46.834  29.419  27.693  1.00  0.00    -0.354 N 
ATOM     48  N   UNL A   1      45.754  26.715  27.284  1.00  0.00    -0.248 NA
ATOM     49  C   UNL A   1      46.033  24.499  26.597  1.00  0.00     0.031 C 
ATOM     50  C   UNL A   1      48.981  29.772  27.245  1.00  0.00     0.029 A 
ATOM     51  C   UNL A   1      47.992  28.802  27.247  1.00  0.00     0.049 A 
ATOM     52  H   UNL A   1      45.960  28.977  27.792  1.00  0.00     0.167 HD
ATOM     53  C   UNL A   1      47.074  26.521  26.897  1.00  0.00     0.074 A 
ATOM     54  C   UNL A   1      47.196  25.131  26.507  1.00  0.00     0.031 C 
ATOM     55  C   UNL A   1      48.095  27.414  26.870  1.00  0.00     0.037 A 
BRANCH  42  56
ATOM     56  C   UNL A   1      46.518  33.124  28.654  1.00  0.00     0.058 A 
ATOM     57  C   UNL A   1      46.432  34.066  27.616  1.00  0.00     0.135 A 
ATOM     58  C   UNL A   1      46.992  33.564  29.900  1.00  0.00     0.135 A 
ATOM     59  F   UNL A   1      46.000  33.694  26.401  1.00  0.00    -0.206 F 
ATOM     60  C   UNL A   1      46.837  35.385  27.795  1.00  0.00     0.059 A 
ATOM     61  C   UNL A   1      47.378  34.886  30.109  1.00  0.00     0.059 A 
ATOM     62  F   UNL A   1      47.094  32.705  30.927  1.00  0.00    -0.206 F 
ATOM     63  C   UNL A   1      47.313  35.783  29.045  1.00  0.00     0.060 A 
BRANCH  63  64
ATOM     64  S   UNL A   1      47.849  37.494  29.259  1.00  0.00     0.124 S 
ATOM     65  O   UNL A   1      47.104  37.883  30.453  1.00  0.00    -0.237 OA
ATOM     66  O   UNL A   1      49.290  37.353  29.431  1.00  0.00    -0.237 OA
ATOM     67  O   UNL A   1      47.428  38.138  28.020  1.00  0.00    -0.744 OA
ENDBRANCH  63  64
ENDBRANCH  42  56
BRANCH  43  68
ATOM     68  C   UNL A   1      43.239  23.802  27.161  1.00  0.00     0.058 A 
ATOM     69  C   UNL A   1      42.923  23.379  25.862  1.00  0.00     0.135 A 
ATOM     70  C   UNL A   1      43.101  22.872  28.204  1.00  0.00     0.135 A 
ATOM     71  F   UNL A   1      43.034  24.234  24.833  1.00  0.00    -0.206 F 
ATOM     72  C   UNL A   1      42.477  22.088  25.604  1.00  0.00     0.059 A 
ATOM     73  C   UNL A   1      42.678  21.569  27.968  1.00  0.00     0.059 A 
ATOM     74  F   UNL A   1      43.409  23.224  29.461  1.00  0.00    -0.206 F 
ATOM     75  C   UNL A   1      42.361  21.187  26.665  1.00  0.00     0.060 A 
BRANCH  75  76
ATOM     76  S   UNL A   1      41.843  19.493  26.311  1.00  0.00     0.124 S 
ATOM     77  O   UNL A   1      42.571  19.216  25.078  1.00  0.00    -0.237 OA
ATOM     78  O   UNL A   1      42.301  18.777  27.498  1.00  0.00    -0.237 OA
ATOM     79  O   UNL A   1      40.394  19.608  26.179  1.00  0.00    -0.744 OA
ENDBRANCH  75  76
ENDBRANCH  43  68
BRANCH  55  80
ATOM     80  C   UNL A   1      49.441  26.910  26.432  1.00  0.00     0.058 A 
ATOM     81  C   UNL A   1      50.293  26.228  27.312  1.00  0.00     0.135 A 
ATOM     82  C   UNL A   1      49.858  27.066  25.100  1.00  0.00     0.135 A 
ATOM     83  F   UNL A   1      49.943  26.059  28.598  1.00  0.00    -0.206 F 
ATOM     84  C   UNL A   1      51.522  25.729  26.892  1.00  0.00     0.059 A 
ATOM     85  C   UNL A   1      51.072  26.558  24.653  1.00  0.00     0.059 A 
ATOM     86  F   UNL A   1      49.075  27.706  24.217  1.00  0.00    -0.206 F 
ATOM     87  C   UNL A   1      51.902  25.899  25.559  1.00  0.00     0.060 A 
BRANCH  87  88
ATOM     88  S   UNL A   1      53.482  25.213  25.013  1.00  0.00     0.124 S 
ATOM     89  O   UNL A   1      53.296  23.792  25.292  1.00  0.00    -0.237 OA
ATOM     90  O   UNL A   1      53.514  25.584  23.602  1.00  0.00    -0.237 OA
ATOM     91  O   UNL A   1      54.456  25.897  25.856  1.00  0.00    -0.744 OA
ENDBRANCH  87  88
ENDBRANCH  55  80
ENDBRANCH  29  30
ENDBRANCH  21  24
ENDBRANCH  19  20
ENDBRANCH   1  19
TORSDOF 16
ENDMDL
MODEL 2
REMARK VINA RESULT:     -11.4      4.331      5.961
REMARK SMILES Nc1ccc(O)c(C(=O)NCCCCNC(=O)c2ccc(-c3c4nc(c(-c5c(F)cc(S(=O)(=O)[O-])cc5F)c5ccc([nH]5)c(-c5c(F)cc(S(=O)(=O)[O-])cc5F)c5nc(c(-c6c(F)cc(S(=O)(=O)[O-])cc6F)c6ccc3[nH]6)C=C5)C=C4)cc2)c1
REMARK SMILES IDX 13 1 12 2 11 3 10 4 8 5 9 6 7 8 2 9 3 10 84 11 4 12 5 13
REMARK SMILES IDX 1 14 6 17 14 19 15 20 16 21 17 23 18 24 19 25 83 26 20 27
REMARK SMILES IDX 82 28 21 29 22 30 23 31 76 32 24 33 81 34 75 35 77 36 25 37
REMARK SMILES IDX 80 38 74 39 73 40 26 42 60 43 39 44 59 45 40 46 43 47 58 48
REMARK SMILES IDX 78 49 41 50 42 51 57 53 79 54 44 55 27 56 28 57 37 58 29 59
REMARK SMILES IDX 30 60 36 61 38 62 31 63 32 64 33 65 34 66 35 67 61 68 62 69
REMARK SMILES IDX 71 70 63 71 64 72 70 73 72 74 65 75 66 76 67 77 68 78 69 79
REMARK SMILES IDX 45 80 46 81 55 82 47 83 48 84 54 85 56 86 49 87 50 88 51 89
REMARK SMILES IDX 52 90 53 91
REMARK H PARENT 10 7 1 15 1 16 6 18 15 22 77 41 43 52
REMARK Flexibility Score: inf
ROOT
ATOM      1  C   UNL A   1      32.216  27.878  26.857  1.00  0.00     0.023 C 
ENDROOT
BRANCH   1   2
ATOM      2  C   UNL A   1      32.270  26.393  26.473  1.00  0.00     0.023 C 
BRANCH   2   3
ATOM      3  C   UNL A   1      32.717  26.134  25.032  1.00  0.00     0.116 C 
BRANCH   3   4
ATOM      4  N   UNL A   1      31.801  25.228  24.369  1.00  0.00    -0.352 N 
ATOM      5  C   UNL A   1      30.675  25.423  23.612  1.00  0.00     0.255 C 
ATOM      6  O   UNL A   1      30.132  24.417  23.147  1.00  0.00    -0.269 OA
ATOM      7  H   UNL A   1      32.034  24.278  24.487  1.00  0.00     0.163 HD
BRANCH   5   8
ATOM      8  C   UNL A   1      30.096  26.753  23.257  1.00  0.00     0.083 A 
ATOM      9  C   UNL A   1      30.204  28.993  22.276  1.00  0.00     0.032 A 
ATOM     10  C   UNL A   1      28.867  29.202  22.609  1.00  0.00     0.029 A 
ATOM     11  C   UNL A   1      30.821  27.795  22.664  1.00  0.00     0.043 A 
ATOM     12  C   UNL A   1      28.138  28.209  23.257  1.00  0.00     0.049 A 
ATOM     13  C   UNL A   1      28.746  26.996  23.573  1.00  0.00     0.128 A 
BRANCH   9  14
ATOM     14  N   UNL A   1      30.947  30.007  21.690  1.00  0.00    -0.399 N 
ATOM     15  H   UNL A   1      31.551  29.805  20.940  1.00  0.00     0.156 HD
ATOM     16  H   UNL A   1      30.871  30.929  22.026  1.00  0.00     0.156 HD
ENDBRANCH   9  14
BRANCH  13  17
ATOM     17  O   UNL A   1      27.942  26.089  24.216  1.00  0.00    -0.507 OA
ATOM     18  H   UNL A   1      27.067  26.323  24.454  1.00  0.00     0.293 HD
ENDBRANCH  13  17
ENDBRANCH   5   8
ENDBRANCH   3   4
ENDBRANCH   2   3
ENDBRANCH   1   2
BRANCH   1  19
ATOM     19  C   UNL A   1      33.554  28.492  27.259  1.00  0.00     0.116 C 
BRANCH  19  20
ATOM     20  N   UNL A   1      33.451  29.891  27.645  1.00  0.00    -0.352 N 
ATOM     21  C   UNL A   1      34.413  30.698  28.208  1.00  0.00     0.251 C 
ATOM     22  H   UNL A   1      32.578  30.315  27.482  1.00  0.00     0.163 HD
ATOM     23  O   UNL A   1      34.129  31.831  28.567  1.00  0.00    -0.269 OA
BRANCH  21  24
ATOM     24  C   UNL A   1      35.775  30.163  28.415  1.00  0.00     0.039 A 
ATOM     25  C   UNL A   1      36.655  30.136  27.331  1.00  0.00     0.014 A 
ATOM     26  C   UNL A   1      36.190  29.721  29.674  1.00  0.00     0.014 A 
ATOM     27  C   UNL A   1      37.977  29.729  27.525  1.00  0.00     0.010 A 
ATOM     28  C   UNL A   1      37.522  29.373  29.878  1.00  0.00     0.010 A 
ATOM     29  C   UNL A   1      38.430  29.380  28.808  1.00  0.00    -0.014 A 
BRANCH  29  30
ATOM     30  C   UNL A   1      39.852  29.034  29.054  1.00  0.00     0.031 A 
ATOM     31  C   UNL A   1      40.800  30.068  29.591  1.00  0.00     0.074 A 
ATOM     32  C   UNL A   1      40.302  27.810  28.717  1.00  0.00     0.049 A 
ATOM     33  N   UNL A   1      42.088  29.980  29.796  1.00  0.00    -0.248 NA
ATOM     34  C   UNL A   1      40.228  31.385  29.915  1.00  0.00     0.031 C 
ATOM     35  C   UNL A   1      39.490  26.739  28.134  1.00  0.00     0.029 A 
ATOM     36  N   UNL A   1      41.558  27.263  28.803  1.00  0.00    -0.354 N 
ATOM     37  C   UNL A   1      42.485  31.230  30.253  1.00  0.00     0.074 A 
ATOM     38  C   UNL A   1      41.309  32.073  30.253  1.00  0.00     0.031 C 
ATOM     39  C   UNL A   1      40.264  25.660  27.931  1.00  0.00     0.029 A 
ATOM     40  C   UNL A   1      41.631  25.971  28.338  1.00  0.00     0.049 A 
ATOM     41  H   UNL A   1      42.334  27.750  29.162  1.00  0.00     0.167 HD
ATOM     42  C   UNL A   1      43.714  31.633  30.657  1.00  0.00     0.037 A 
ATOM     43  C   UNL A   1      42.682  25.133  28.247  1.00  0.00     0.037 A 
ATOM     44  C   UNL A   1      44.874  30.780  30.682  1.00  0.00     0.049 A 
ATOM     45  C   UNL A   1      44.031  25.593  28.724  1.00  0.00     0.074 A 
ATOM     46  C   UNL A   1      46.150  31.075  31.132  1.00  0.00     0.029 A 
ATOM     47  N   UNL A   1      44.900  29.465  30.241  1.00  0.00    -0.354 N 
ATOM     48  N   UNL A   1      44.377  26.760  29.213  1.00  0.00    -0.248 NA
ATOM     49  C   UNL A   1      45.132  24.623  28.644  1.00  0.00     0.031 C 
ATOM     50  C   UNL A   1      46.954  29.947  30.934  1.00  0.00     0.029 A 
ATOM     51  C   UNL A   1      46.171  28.938  30.397  1.00  0.00     0.049 A 
ATOM     52  H   UNL A   1      44.127  28.978  29.872  1.00  0.00     0.167 HD
ATOM     53  C   UNL A   1      45.728  26.657  29.522  1.00  0.00     0.074 A 
ATOM     54  C   UNL A   1      46.135  25.311  29.173  1.00  0.00     0.031 C 
ATOM     55  C   UNL A   1      46.556  27.593  30.050  1.00  0.00     0.037 A 
BRANCH  42  56
ATOM     56  C   UNL A   1      43.860  33.060  31.108  1.00  0.00     0.058 A 
ATOM     57  C   UNL A   1      43.664  33.430  32.448  1.00  0.00     0.135 A 
ATOM     58  C   UNL A   1      44.214  34.065  30.194  1.00  0.00     0.135 A 
ATOM     59  F   UNL A   1      43.310  32.511  33.358  1.00  0.00    -0.206 F 
ATOM     60  C   UNL A   1      43.775  34.754  32.859  1.00  0.00     0.059 A 
ATOM     61  C   UNL A   1      44.356  35.393  30.590  1.00  0.00     0.059 A 
ATOM     62  F   UNL A   1      44.414  33.766  28.901  1.00  0.00    -0.206 F 
ATOM     63  C   UNL A   1      44.117  35.730  31.921  1.00  0.00     0.060 A 
BRANCH  63  64
ATOM     64  S   UNL A   1      44.243  37.446  32.467  1.00  0.00     0.124 S 
ATOM     65  O   UNL A   1      43.219  37.495  33.506  1.00  0.00    -0.237 OA
ATOM     66  O   UNL A   1      45.623  37.526  32.934  1.00  0.00    -0.237 OA
ATOM     67  O   UNL A   1      43.948  38.208  31.258  1.00  0.00    -0.744 OA
ENDBRANCH  63  64
ENDBRANCH  42  56
BRANCH  43  68
ATOM     68  C   UNL A   1      42.486  23.761  27.712  1.00  0.00     0.058 A 
ATOM     69  C   UNL A   1      42.469  23.524  26.330  1.00  0.00     0.135 A 
ATOM     70  C   UNL A   1      42.343  22.657  28.568  1.00  0.00     0.135 A 
ATOM     71  F   UNL A   1      42.597  24.548  25.473  1.00  0.00    -0.206 F 
ATOM     72  C   UNL A   1      42.306  22.243  25.812  1.00  0.00     0.059 A 
ATOM     73  C   UNL A   1      42.200  21.364  28.075  1.00  0.00     0.059 A 
ATOM     74  F   UNL A   1      42.371  22.831  29.898  1.00  0.00    -0.206 F 
ATOM     75  C   UNL A   1      42.175  21.168  26.694  1.00  0.00     0.060 A 
BRANCH  75  76
ATOM     76  S   UNL A   1      42.029  19.502  26.012  1.00  0.00     0.124 S 
ATOM     77  O   UNL A   1      42.538  18.690  27.113  1.00  0.00    -0.237 OA
ATOM     78  O   UNL A   1      40.596  19.401  25.752  1.00  0.00    -0.237 OA
ATOM     79  O   UNL A   1      42.872  19.553  24.822  1.00  0.00    -0.744 OA
ENDBRANCH  75  76
ENDBRANCH  43  68
BRANCH  55  80
ATOM     80  C   UNL A   1      47.979  27.186  30.311  1.00  0.00     0.058 A 
ATOM     81  C   UNL A   1      49.003  27.461  29.393  1.00  0.00     0.135 A 
ATOM     82  C   UNL A   1      48.328  26.564  31.520  1.00  0.00     0.135 A 
ATOM     83  F   UNL A   1      48.718  28.048  28.219  1.00  0.00    -0.206 F 
ATOM     84  C   UNL A   1      50.324  27.117  29.657  1.00  0.00     0.059 A 
ATOM     85  C   UNL A   1      49.646  26.231  31.815  1.00  0.00     0.059 A 
ATOM     86  F   UNL A   1      47.385  26.287  32.435  1.00  0.00    -0.206 F 
ATOM     87  C   UNL A   1      50.636  26.503  30.872  1.00  0.00     0.060 A 
BRANCH  87  88
ATOM     88  S   UNL A   1      52.361  26.098  31.222  1.00  0.00     0.124 S 
ATOM     89  O   UNL A   1      52.760  27.219  32.067  1.00  0.00    -0.237 OA
ATOM     90  O   UNL A   1      52.250  24.806  31.893  1.00  0.00    -0.237 OA
ATOM     91  O   UNL A   1      52.974  26.059  29.899  1.00  0.00    -0.744 OA
ENDBRANCH  87  88
ENDBRANCH  55  80
ENDBRANCH  29  30
ENDBRANCH  21  24
ENDBRANCH  19  20
ENDBRANCH   1  19
TORSDOF 16
ENDMDL
MODEL 3
REMARK VINA RESULT:     -11.4      6.425     14.318
REMARK SMILES Nc1ccc(O)c(C(=O)NCCCCNC(=O)c2ccc(-c3c4nc(c(-c5c(F)cc(S(=O)(=O)[O-])cc5F)c5ccc([nH]5)c(-c5c(F)cc(S(=O)(=O)[O-])cc5F)c5nc(c(-c6c(F)cc(S(=O)(=O)[O-])cc6F)c6ccc3[nH]6)C=C5)C=C4)cc2)c1
REMARK SMILES IDX 13 1 12 2 11 3 10 4 8 5 9 6 7 8 2 9 3 10 84 11 4 12 5 13
REMARK SMILES IDX 1 14 6 17 14 19 15 20 16 21 17 23 18 24 19 25 83 26 20 27
REMARK SMILES IDX 82 28 21 29 22 30 23 31 76 32 24 33 81 34 75 35 77 36 25 37
REMARK SMILES IDX 80 38 74 39 73 40 26 42 60 43 39 44 59 45 40 46 43 47 58 48
REMARK SMILES IDX 78 49 41 50 42 51 57 53 79 54 44 55 27 56 28 57 37 58 29 59
REMARK SMILES IDX 30 60 36 61 38 62 31 63 32 64 33 65 34 66 35 67 61 68 62 69
REMARK SMILES IDX 71 70 63 71 64 72 70 73 72 74 65 75 66 76 67 77 68 78 69 79
REMARK SMILES IDX 45 80 46 81 55 82 47 83 48 84 54 85 56 86 49 87 50 88 51 89
REMARK SMILES IDX 52 90 53 91
REMARK H PARENT 10 7 1 15 1 16 6 18 15 22 77 41 43 52
REMARK Flexibility Score: inf
ROOT
ATOM      1  C   UNL A   1      39.791  22.449  26.689  1.00  0.00     0.023 C 
ENDROOT
BRANCH   1   2
ATOM      2  C   UNL A   1      40.014  20.931  26.692  1.00  0.00     0.023 C 
BRANCH   2   3
ATOM      3  C   UNL A   1      41.372  20.497  27.250  1.00  0.00     0.116 C 
BRANCH   3   4
ATOM      4  N   UNL A   1      41.740  19.191  26.740  1.00  0.00    -0.352 N 
ATOM      5  C   UNL A   1      42.797  18.742  25.991  1.00  0.00     0.255 C 
ATOM      6  O   UNL A   1      42.839  17.531  25.752  1.00  0.00    -0.269 OA
ATOM      7  H   UNL A   1      41.100  18.482  26.979  1.00  0.00     0.163 HD
BRANCH   5   8
ATOM      8  C   UNL A   1      43.924  19.588  25.499  1.00  0.00     0.083 A 
ATOM      9  C   UNL A   1      44.891  21.688  24.694  1.00  0.00     0.032 A 
ATOM     10  C   UNL A   1      46.145  21.083  24.627  1.00  0.00     0.029 A 
ATOM     11  C   UNL A   1      43.783  20.914  25.067  1.00  0.00     0.043 A 
ATOM     12  C   UNL A   1      46.304  19.748  24.988  1.00  0.00     0.049 A 
ATOM     13  C   UNL A   1      45.206  19.011  25.424  1.00  0.00     0.128 A 
BRANCH   9  14
ATOM     14  N   UNL A   1      44.722  22.998  24.270  1.00  0.00    -0.399 N 
ATOM     15  H   UNL A   1      44.545  23.709  24.927  1.00  0.00     0.156 HD
ATOM     16  H   UNL A   1      44.777  23.215  23.312  1.00  0.00     0.156 HD
ENDBRANCH   9  14
BRANCH  13  17
ATOM     17  O   UNL A   1      45.470  17.704  25.750  1.00  0.00    -0.507 OA
ATOM     18  H   UNL A   1      45.924  17.502  26.544  1.00  0.00     0.293 HD
ENDBRANCH  13  17
ENDBRANCH   5   8
ENDBRANCH   3   4
ENDBRANCH   2   3
ENDBRANCH   1   2
BRANCH   1  19
ATOM     19  C   UNL A   1      41.004  23.282  27.095  1.00  0.00     0.116 C 
BRANCH  19  20
ATOM     20  N   UNL A   1      41.546  24.076  26.004  1.00  0.00    -0.352 N 
ATOM     21  C   UNL A   1      41.856  25.417  25.991  1.00  0.00     0.251 C 
ATOM     22  H   UNL A   1      41.713  23.590  25.164  1.00  0.00     0.163 HD
ATOM     23  O   UNL A   1      42.211  25.954  24.952  1.00  0.00    -0.269 OA
BRANCH  21  24
ATOM     24  C   UNL A   1      41.709  26.205  27.233  1.00  0.00     0.039 A 
ATOM     25  C   UNL A   1      42.713  27.115  27.571  1.00  0.00     0.014 A 
ATOM     26  C   UNL A   1      40.577  26.069  28.040  1.00  0.00     0.014 A 
ATOM     27  C   UNL A   1      42.549  27.941  28.685  1.00  0.00     0.010 A 
ATOM     28  C   UNL A   1      40.387  26.934  29.114  1.00  0.00     0.010 A 
ATOM     29  C   UNL A   1      41.368  27.882  29.443  1.00  0.00    -0.014 A 
BRANCH  29  30
ATOM     30  C   UNL A   1      41.133  28.813  30.574  1.00  0.00     0.031 A 
ATOM     31  C   UNL A   1      41.945  28.694  31.833  1.00  0.00     0.074 A 
ATOM     32  C   UNL A   1      40.135  29.714  30.494  1.00  0.00     0.049 A 
ATOM     33  N   UNL A   1      41.835  29.359  32.953  1.00  0.00    -0.248 NA
ATOM     34  C   UNL A   1      43.003  27.670  31.844  1.00  0.00     0.031 C 
ATOM     35  C   UNL A   1      39.242  29.888  29.346  1.00  0.00     0.029 A 
ATOM     36  N   UNL A   1      39.694  30.645  31.400  1.00  0.00    -0.354 N 
ATOM     37  C   UNL A   1      42.792  28.825  33.807  1.00  0.00     0.074 A 
ATOM     38  C   UNL A   1      43.444  27.750  33.090  1.00  0.00     0.031 C 
ATOM     39  C   UNL A   1      38.372  30.876  29.611  1.00  0.00     0.029 A 
ATOM     40  C   UNL A   1      38.622  31.384  30.956  1.00  0.00     0.049 A 
ATOM     41  H   UNL A   1      40.104  30.771  32.286  1.00  0.00     0.167 HD
ATOM     42  C   UNL A   1      43.113  29.210  35.066  1.00  0.00     0.037 A 
ATOM     43  C   UNL A   1      37.919  32.357  31.566  1.00  0.00     0.037 A 
ATOM     44  C   UNL A   1      42.480  30.300  35.762  1.00  0.00     0.049 A 
ATOM     45  C   UNL A   1      38.309  32.785  32.954  1.00  0.00     0.074 A 
ATOM     46  C   UNL A   1      42.774  30.809  37.015  1.00  0.00     0.029 A 
ATOM     47  N   UNL A   1      41.425  31.051  35.263  1.00  0.00    -0.354 N 
ATOM     48  N   UNL A   1      39.259  32.312  33.724  1.00  0.00    -0.248 NA
ATOM     49  C   UNL A   1      37.538  33.883  33.553  1.00  0.00     0.031 C 
ATOM     50  C   UNL A   1      41.877  31.847  37.286  1.00  0.00     0.029 A 
ATOM     51  C   UNL A   1      41.049  32.011  36.188  1.00  0.00     0.049 A 
ATOM     52  H   UNL A   1      41.006  30.921  34.382  1.00  0.00     0.167 HD
ATOM     53  C   UNL A   1      39.217  33.069  34.888  1.00  0.00     0.074 A 
ATOM     54  C   UNL A   1      38.153  34.038  34.718  1.00  0.00     0.031 C 
ATOM     55  C   UNL A   1      39.991  32.972  35.998  1.00  0.00     0.037 A 
BRANCH  42  56
ATOM     56  C   UNL A   1      44.202  28.446  35.765  1.00  0.00     0.058 A 
ATOM     57  C   UNL A   1      45.554  28.799  35.624  1.00  0.00     0.135 A 
ATOM     58  C   UNL A   1      43.892  27.359  36.597  1.00  0.00     0.135 A 
ATOM     59  F   UNL A   1      45.906  29.821  34.829  1.00  0.00    -0.206 F 
ATOM     60  C   UNL A   1      46.563  28.076  36.252  1.00  0.00     0.059 A 
ATOM     61  C   UNL A   1      44.885  26.637  37.256  1.00  0.00     0.059 A 
ATOM     62  F   UNL A   1      42.616  26.979  36.768  1.00  0.00    -0.206 F 
ATOM     63  C   UNL A   1      46.218  26.993  37.062  1.00  0.00     0.060 A 
BRANCH  63  64
ATOM     64  S   UNL A   1      47.539  26.056  37.859  1.00  0.00     0.124 S 
ATOM     65  O   UNL A   1      47.050  24.688  37.715  1.00  0.00    -0.237 OA
ATOM     66  O   UNL A   1      48.702  26.401  37.049  1.00  0.00    -0.237 OA
ATOM     67  O   UNL A   1      47.550  26.578  39.221  1.00  0.00    -0.744 OA
ENDBRANCH  63  64
ENDBRANCH  42  56
BRANCH  43  68
ATOM     68  C   UNL A   1      36.797  33.016  30.849  1.00  0.00     0.058 A 
ATOM     69  C   UNL A   1      35.467  32.768  31.215  1.00  0.00     0.135 A 
ATOM     70  C   UNL A   1      37.031  33.927  29.806  1.00  0.00     0.135 A 
ATOM     71  F   UNL A   1      35.193  31.902  32.203  1.00  0.00    -0.206 F 
ATOM     72  C   UNL A   1      34.404  33.391  30.568  1.00  0.00     0.059 A 
ATOM     73  C   UNL A   1      35.987  34.578  29.158  1.00  0.00     0.059 A 
ATOM     74  F   UNL A   1      38.288  34.210  29.432  1.00  0.00    -0.206 F 
ATOM     75  C   UNL A   1      34.675  34.298  29.542  1.00  0.00     0.060 A 
BRANCH  75  76
ATOM     76  S   UNL A   1      33.293  35.149  28.750  1.00  0.00     0.124 S 
ATOM     77  O   UNL A   1      33.982  36.192  28.000  1.00  0.00    -0.237 OA
ATOM     78  O   UNL A   1      32.688  34.084  27.957  1.00  0.00    -0.237 OA
ATOM     79  O   UNL A   1      32.492  35.608  29.881  1.00  0.00    -0.744 OA
ENDBRANCH  75  76
ENDBRANCH  43  68
BRANCH  55  80
ATOM     80  C   UNL A   1      39.738  33.957  37.104  1.00  0.00     0.058 A 
ATOM     81  C   UNL A   1      38.882  33.657  38.174  1.00  0.00     0.135 A 
ATOM     82  C   UNL A   1      40.403  35.193  37.119  1.00  0.00     0.135 A 
ATOM     83  F   UNL A   1      38.218  32.491  38.202  1.00  0.00    -0.206 F 
ATOM     84  C   UNL A   1      38.682  34.557  39.216  1.00  0.00     0.059 A 
ATOM     85  C   UNL A   1      40.235  36.099  38.161  1.00  0.00     0.059 A 
ATOM     86  F   UNL A   1      41.238  35.524  36.121  1.00  0.00    -0.206 F 
ATOM     87  C   UNL A   1      39.364  35.776  39.200  1.00  0.00     0.060 A 
BRANCH  87  88
ATOM     88  S   UNL A   1      39.128  36.921  40.577  1.00  0.00     0.124 S 
ATOM     89  O   UNL A   1      40.498  37.348  40.842  1.00  0.00    -0.237 OA
ATOM     90  O   UNL A   1      38.248  37.931  39.999  1.00  0.00    -0.237 OA
ATOM     91  O   UNL A   1      38.519  36.087  41.609  1.00  0.00    -0.744 OA
ENDBRANCH  87  88
ENDBRANCH  55  80
ENDBRANCH  29  30
ENDBRANCH  21  24
ENDBRANCH  19  20
ENDBRANCH   1  19
TORSDOF 16
ENDMDL
