MODEL 1
REMARK VINA RESULT:     -12.2      0.000      0.000
REMARK SMILES C[C@@H](C(=O)NCCCCNC(=O)c1ccc(-c2c3nc(c(-c4c(F)cc(S(=O)(=O)[O-])cc4F)c4ccc([nH]4)c(-c4c(F)cc(S(=O)(=O)[O-])cc4F)c4nc(c(-c5c(F)cc(S(=O)(=O)[O-])cc5F)c5ccc2[nH]5)C=C4)C=C3)cc1)c1ccc(N[C@H]2CCC[C@@H]2O)cc1F
REMARK SMILES IDX 7 1 6 2 5 3 3 4 4 5 2 7 1 8 79 9 80 10 91 11 81 12 90 13
REMARK SMILES IDX 92 14 82 15 83 16 84 18 85 19 88 20 86 21 87 22 89 23 8 25
REMARK SMILES IDX 9 26 10 27 11 28 12 30 13 31 14 32 78 33 15 34 77 35 16 36
REMARK SMILES IDX 17 37 18 38 71 39 19 40 76 41 70 42 72 43 20 44 75 45 69 46
REMARK SMILES IDX 68 47 21 49 55 50 34 51 54 52 35 53 38 54 53 55 73 56 36 57
REMARK SMILES IDX 37 58 52 60 74 61 39 62 22 63 23 64 32 65 24 66 25 67 31 68
REMARK SMILES IDX 33 69 26 70 27 71 28 72 29 73 30 74 56 75 57 76 66 77 58 78
REMARK SMILES IDX 59 79 65 80 67 81 60 82 61 83 62 84 63 85 64 86 40 87 41 88
REMARK SMILES IDX 50 89 42 90 43 91 49 92 51 93 44 94 45 95 46 96 47 97 48 98
REMARK H PARENT 5 6 83 17 89 24 10 29 72 48 38 59
REMARK Flexibility Score: inf
ROOT
ATOM      1  C   UNL A   1      39.527  22.062  26.168  1.00  0.00     0.023 C 
ENDROOT
BRANCH   1   2
ATOM      2  C   UNL A   1      38.123  22.633  25.964  1.00  0.00     0.116 C 
BRANCH   2   3
ATOM      3  N   UNL A   1      37.834  22.784  24.558  1.00  0.00    -0.356 N 
ATOM      4  C   UNL A   1      36.641  22.872  23.913  1.00  0.00     0.227 C 
ATOM      5  O   UNL A   1      36.699  22.907  22.681  1.00  0.00    -0.274 OA
ATOM      6  H   UNL A   1      38.626  22.828  23.974  1.00  0.00     0.163 HD
BRANCH   4   7
ATOM      7  C   UNL A   1      35.321  22.975  24.707  1.00  0.00     0.108 C 
ATOM      8  C   UNL A   1      34.403  21.756  24.550  1.00  0.00     0.023 C 
BRANCH   7   9
ATOM      9  C   UNL A   1      34.522  24.202  24.305  1.00  0.00     0.000 A 
ATOM     10  C   UNL A   1      34.434  25.298  25.167  1.00  0.00     0.009 A 
ATOM     11  C   UNL A   1      33.885  24.293  23.071  1.00  0.00     0.129 A 
ATOM     12  C   UNL A   1      33.708  26.430  24.808  1.00  0.00     0.026 A 
ATOM     13  C   UNL A   1      33.185  25.444  22.702  1.00  0.00     0.065 A 
ATOM     14  F   UNL A   1      33.955  23.274  22.202  1.00  0.00    -0.207 F 
ATOM     15  C   UNL A   1      33.080  26.541  23.568  1.00  0.00     0.037 A 
BRANCH  15  16
ATOM     16  N   UNL A   1      32.425  27.678  23.142  1.00  0.00    -0.380 N 
ATOM     17  H   UNL A   1      32.933  28.519  23.210  1.00  0.00     0.160 HD
BRANCH  16  18
ATOM     18  C   UNL A   1      31.071  27.788  22.606  1.00  0.00     0.107 C 
ATOM     19  C   UNL A   1      30.040  26.896  23.307  1.00  0.00     0.027 C 
ATOM     20  C   UNL A   1      30.487  29.212  22.617  1.00  0.00     0.136 C 
ATOM     21  C   UNL A   1      28.788  27.762  23.473  1.00  0.00     0.005 C 
ATOM     22  C   UNL A   1      28.989  28.957  22.550  1.00  0.00     0.034 C 
BRANCH  20  23
ATOM     23  O   UNL A   1      30.940  29.977  21.508  1.00  0.00    -0.391 OA
ATOM     24  H   UNL A   1      31.428  29.404  20.897  1.00  0.00     0.211 HD
ENDBRANCH  20  23
ENDBRANCH  16  18
ENDBRANCH  15  16
ENDBRANCH   7   9
ENDBRANCH   4   7
ENDBRANCH   2   3
ENDBRANCH   1   2
BRANCH   1  25
ATOM     25  C   UNL A   1      40.138  22.353  27.542  1.00  0.00     0.023 C 
BRANCH  25  26
ATOM     26  C   UNL A   1      41.397  23.207  27.516  1.00  0.00     0.116 C 
BRANCH  26  27
ATOM     27  N   UNL A   1      41.514  23.986  26.295  1.00  0.00    -0.352 N 
ATOM     28  C   UNL A   1      41.322  25.329  26.107  1.00  0.00     0.251 C 
ATOM     29  H   UNL A   1      41.767  23.477  25.491  1.00  0.00     0.163 HD
ATOM     30  O   UNL A   1      41.307  25.784  24.965  1.00  0.00    -0.269 OA
BRANCH  28  31
ATOM     31  C   UNL A   1      41.109  26.217  27.269  1.00  0.00     0.039 A 
ATOM     32  C   UNL A   1      42.026  27.244  27.506  1.00  0.00     0.014 A 
ATOM     33  C   UNL A   1      40.026  26.031  28.132  1.00  0.00     0.014 A 
ATOM     34  C   UNL A   1      41.839  28.099  28.592  1.00  0.00     0.010 A 
ATOM     35  C   UNL A   1      39.794  26.938  29.162  1.00  0.00     0.010 A 
ATOM     36  C   UNL A   1      40.713  27.964  29.421  1.00  0.00    -0.014 A 
BRANCH  36  37
ATOM     37  C   UNL A   1      40.516  28.857  30.590  1.00  0.00     0.031 A 
ATOM     38  C   UNL A   1      41.383  28.702  31.812  1.00  0.00     0.074 A 
ATOM     39  C   UNL A   1      39.544  29.790  30.561  1.00  0.00     0.049 A 
ATOM     40  N   UNL A   1      41.372  29.386  32.926  1.00  0.00    -0.248 NA
ATOM     41  C   UNL A   1      42.377  27.614  31.792  1.00  0.00     0.031 C 
ATOM     42  C   UNL A   1      38.606  30.003  29.456  1.00  0.00     0.029 A 
ATOM     43  N   UNL A   1      39.185  30.738  31.487  1.00  0.00    -0.354 N 
ATOM     44  C   UNL A   1      42.338  28.806  33.740  1.00  0.00     0.074 A 
ATOM     45  C   UNL A   1      42.874  27.675  33.017  1.00  0.00     0.031 C 
ATOM     46  C   UNL A   1      37.808  31.042  29.751  1.00  0.00     0.029 A 
ATOM     47  C   UNL A   1      38.151  31.546  31.077  1.00  0.00     0.049 A 
ATOM     48  H   UNL A   1      39.626  30.831  32.362  1.00  0.00     0.167 HD
ATOM     49  C   UNL A   1      42.762  29.197  34.965  1.00  0.00     0.037 A 
ATOM     50  C   UNL A   1      37.553  32.582  31.698  1.00  0.00     0.037 A 
ATOM     51  C   UNL A   1      42.244  30.344  35.664  1.00  0.00     0.049 A 
ATOM     52  C   UNL A   1      38.050  33.005  33.054  1.00  0.00     0.074 A 
ATOM     53  C   UNL A   1      42.647  30.865  36.881  1.00  0.00     0.029 A 
ATOM     54  N   UNL A   1      41.207  31.146  35.210  1.00  0.00    -0.354 N 
ATOM     55  N   UNL A   1      39.017  32.490  33.778  1.00  0.00    -0.248 NA
ATOM     56  C   UNL A   1      37.385  34.159  33.672  1.00  0.00     0.031 C 
ATOM     57  C   UNL A   1      41.819  31.949  37.188  1.00  0.00     0.029 A 
ATOM     58  C   UNL A   1      40.941  32.144  36.133  1.00  0.00     0.049 A 
ATOM     59  H   UNL A   1      40.729  31.023  34.359  1.00  0.00     0.167 HD
ATOM     60  C   UNL A   1      39.102  33.283  34.918  1.00  0.00     0.074 A 
ATOM     61  C   UNL A   1      38.094  34.315  34.781  1.00  0.00     0.031 C 
ATOM     62  C   UNL A   1      39.941  33.172  35.978  1.00  0.00     0.037 A 
BRANCH  49  63
ATOM     63  C   UNL A   1      43.838  28.377  35.629  1.00  0.00     0.058 A 
ATOM     64  C   UNL A   1      43.534  27.326  36.509  1.00  0.00     0.135 A 
ATOM     65  C   UNL A   1      45.193  28.629  35.359  1.00  0.00     0.135 A 
ATOM     66  F   UNL A   1      42.257  27.049  36.818  1.00  0.00    -0.206 F 
ATOM     67  C   UNL A   1      44.533  26.577  37.123  1.00  0.00     0.059 A 
ATOM     68  C   UNL A   1      46.208  27.871  35.935  1.00  0.00     0.059 A 
ATOM     69  F   UNL A   1      45.543  29.621  34.526  1.00  0.00    -0.206 F 
ATOM     70  C   UNL A   1      45.868  26.857  36.829  1.00  0.00     0.060 A 
BRANCH  70  71
ATOM     71  S   UNL A   1      47.151  25.873  37.631  1.00  0.00     0.124 S 
ATOM     72  O   UNL A   1      46.961  26.233  39.032  1.00  0.00    -0.237 OA
ATOM     73  O   UNL A   1      46.771  24.511  37.270  1.00  0.00    -0.237 OA
ATOM     74  O   UNL A   1      48.384  26.360  37.020  1.00  0.00    -0.744 OA
ENDBRANCH  70  71
ENDBRANCH  49  63
BRANCH  50  75
ATOM     75  C   UNL A   1      36.449  33.319  31.025  1.00  0.00     0.058 A 
ATOM     76  C   UNL A   1      35.129  33.228  31.493  1.00  0.00     0.135 A 
ATOM     77  C   UNL A   1      36.689  34.131  29.906  1.00  0.00     0.135 A 
ATOM     78  F   UNL A   1      34.847  32.461  32.557  1.00  0.00    -0.206 F 
ATOM     79  C   UNL A   1      34.083  33.895  30.864  1.00  0.00     0.059 A 
ATOM     80  C   UNL A   1      35.664  34.832  29.277  1.00  0.00     0.059 A 
ATOM     81  F   UNL A   1      37.936  34.269  29.429  1.00  0.00    -0.206 F 
ATOM     82  C   UNL A   1      34.362  34.698  29.757  1.00  0.00     0.060 A 
BRANCH  82  83
ATOM     83  S   UNL A   1      33.003  35.592  28.973  1.00  0.00     0.124 S 
ATOM     84  O   UNL A   1      32.424  34.560  28.121  1.00  0.00    -0.237 OA
ATOM     85  O   UNL A   1      32.199  35.996  30.123  1.00  0.00    -0.237 OA
ATOM     86  O   UNL A   1      33.676  36.683  28.275  1.00  0.00    -0.744 OA
ENDBRANCH  82  83
ENDBRANCH  50  75
BRANCH  62  87
ATOM     87  C   UNL A   1      39.845  34.224  37.050  1.00  0.00     0.058 A 
ATOM     88  C   UNL A   1      40.547  35.437  36.970  1.00  0.00     0.135 A 
ATOM     89  C   UNL A   1      39.010  34.023  38.162  1.00  0.00     0.135 A 
ATOM     90  F   UNL A   1      41.361  35.680  35.930  1.00  0.00    -0.206 F 
ATOM     91  C   UNL A   1      40.457  36.396  37.975  1.00  0.00     0.059 A 
ATOM     92  C   UNL A   1      38.878  34.983  39.161  1.00  0.00     0.059 A 
ATOM     93  F   UNL A   1      38.302  32.889  38.281  1.00  0.00    -0.206 F 
ATOM     94  C   UNL A   1      39.622  36.157  39.068  1.00  0.00     0.060 A 
BRANCH  94  95
ATOM     95  S   UNL A   1      39.511  37.411  40.362  1.00  0.00     0.124 S 
ATOM     96  O   UNL A   1      38.697  36.728  41.362  1.00  0.00    -0.237 OA
ATOM     97  O   UNL A   1      40.911  37.618  40.718  1.00  0.00    -0.237 OA
ATOM     98  O   UNL A   1      38.867  38.536  39.690  1.00  0.00    -0.744 OA
ENDBRANCH  94  95
ENDBRANCH  62  87
ENDBRANCH  36  37
ENDBRANCH  28  31
ENDBRANCH  26  27
ENDBRANCH  25  26
ENDBRANCH   1  25
TORSDOF 18
ENDMDL
MODEL 2
REMARK VINA RESULT:     -12.1      1.448      2.448
REMARK SMILES C[C@@H](C(=O)NCCCCNC(=O)c1ccc(-c2c3nc(c(-c4c(F)cc(S(=O)(=O)[O-])cc4F)c4ccc([nH]4)c(-c4c(F)cc(S(=O)(=O)[O-])cc4F)c4nc(c(-c5c(F)cc(S(=O)(=O)[O-])cc5F)c5ccc2[nH]5)C=C4)C=C3)cc1)c1ccc(N[C@H]2CCC[C@@H]2O)cc1F
REMARK SMILES IDX 7 1 6 2 5 3 3 4 4 5 2 7 1 8 79 9 80 10 91 11 81 12 90 13
REMARK SMILES IDX 92 14 82 15 83 16 84 18 85 19 88 20 86 21 87 22 89 23 8 25
REMARK SMILES IDX 9 26 10 27 11 28 12 30 13 31 14 32 78 33 15 34 77 35 16 36
REMARK SMILES IDX 17 37 18 38 71 39 19 40 76 41 70 42 72 43 20 44 75 45 69 46
REMARK SMILES IDX 68 47 21 49 55 50 34 51 54 52 35 53 38 54 53 55 73 56 36 57
REMARK SMILES IDX 37 58 52 60 74 61 39 62 22 63 23 64 32 65 24 66 25 67 31 68
REMARK SMILES IDX 33 69 26 70 27 71 28 72 29 73 30 74 56 75 57 76 66 77 58 78
REMARK SMILES IDX 59 79 65 80 67 81 60 82 61 83 62 84 63 85 64 86 40 87 41 88
REMARK SMILES IDX 50 89 42 90 43 91 49 92 51 93 44 94 45 95 46 96 47 97 48 98
REMARK H PARENT 5 6 83 17 89 24 10 29 72 48 38 59
REMARK Flexibility Score: inf
ROOT
ATOM      1  C   UNL A   1      36.905  23.325  24.643  1.00  0.00     0.023 C 
ENDROOT
BRANCH   1   2
ATOM      2  C   UNL A   1      35.609  22.533  24.465  1.00  0.00     0.116 C 
BRANCH   2   3
ATOM      3  N   UNL A   1      35.066  22.739  23.143  1.00  0.00    -0.356 N 
ATOM      4  C   UNL A   1      33.843  23.192  22.760  1.00  0.00     0.227 C 
ATOM      5  O   UNL A   1      33.625  23.182  21.546  1.00  0.00    -0.274 OA
ATOM      6  H   UNL A   1      35.677  22.515  22.404  1.00  0.00     0.163 HD
BRANCH   4   7
ATOM      7  C   UNL A   1      32.838  23.729  23.802  1.00  0.00     0.108 C 
ATOM      8  C   UNL A   1      31.377  23.680  23.341  1.00  0.00     0.023 C 
BRANCH   7   9
ATOM      9  C   UNL A   1      33.148  25.165  24.186  1.00  0.00     0.000 A 
ATOM     10  C   UNL A   1      33.089  26.180  23.227  1.00  0.00     0.009 A 
ATOM     11  C   UNL A   1      33.465  25.525  25.493  1.00  0.00     0.129 A 
ATOM     12  C   UNL A   1      33.367  27.500  23.568  1.00  0.00     0.026 A 
ATOM     13  C   UNL A   1      33.711  26.856  25.838  1.00  0.00     0.065 A 
ATOM     14  F   UNL A   1      33.517  24.589  26.453  1.00  0.00    -0.207 F 
ATOM     15  C   UNL A   1      33.668  27.875  24.877  1.00  0.00     0.037 A 
BRANCH  15  16
ATOM     16  N   UNL A   1      33.865  29.184  25.270  1.00  0.00    -0.380 N 
ATOM     17  H   UNL A   1      34.048  29.828  24.549  1.00  0.00     0.160 HD
BRANCH  16  18
ATOM     18  C   UNL A   1      33.835  29.729  26.625  1.00  0.00     0.107 C 
ATOM     19  C   UNL A   1      35.219  29.958  27.244  1.00  0.00     0.027 C 
ATOM     20  C   UNL A   1      33.074  31.059  26.767  1.00  0.00     0.136 C 
ATOM     21  C   UNL A   1      35.136  31.313  27.952  1.00  0.00     0.005 C 
ATOM     22  C   UNL A   1      33.651  31.636  28.051  1.00  0.00     0.034 C 
BRANCH  20  23
ATOM     23  O   UNL A   1      31.671  30.857  26.867  1.00  0.00    -0.391 OA
ATOM     24  H   UNL A   1      31.422  30.063  26.368  1.00  0.00     0.211 HD
ENDBRANCH  20  23
ENDBRANCH  16  18
ENDBRANCH  15  16
ENDBRANCH   7   9
ENDBRANCH   4   7
ENDBRANCH   2   3
ENDBRANCH   1   2
BRANCH   1  25
ATOM     25  C   UNL A   1      37.646  23.043  25.954  1.00  0.00     0.023 C 
BRANCH  25  26
ATOM     26  C   UNL A   1      38.455  24.211  26.499  1.00  0.00     0.116 C 
BRANCH  26  27
ATOM     27  N   UNL A   1      39.814  24.233  25.985  1.00  0.00    -0.352 N 
ATOM     28  C   UNL A   1      40.847  25.070  26.313  1.00  0.00     0.251 C 
ATOM     29  H   UNL A   1      40.021  23.550  25.305  1.00  0.00     0.163 HD
ATOM     30  O   UNL A   1      41.884  25.041  25.653  1.00  0.00    -0.269 OA
BRANCH  28  31
ATOM     31  C   UNL A   1      40.704  26.017  27.440  1.00  0.00     0.039 A 
ATOM     32  C   UNL A   1      39.771  25.734  28.440  1.00  0.00     0.014 A 
ATOM     33  C   UNL A   1      41.470  27.185  27.504  1.00  0.00     0.014 A 
ATOM     34  C   UNL A   1      39.626  26.610  29.516  1.00  0.00     0.010 A 
ATOM     35  C   UNL A   1      41.386  28.009  28.621  1.00  0.00     0.010 A 
ATOM     36  C   UNL A   1      40.443  27.747  29.625  1.00  0.00    -0.014 A 
BRANCH  36  37
ATOM     37  C   UNL A   1      40.283  28.694  30.757  1.00  0.00     0.031 A 
ATOM     38  C   UNL A   1      41.145  28.554  31.985  1.00  0.00     0.074 A 
ATOM     39  C   UNL A   1      39.349  29.663  30.690  1.00  0.00     0.049 A 
ATOM     40  N   UNL A   1      41.162  29.283  33.070  1.00  0.00    -0.248 NA
ATOM     41  C   UNL A   1      42.095  27.428  32.009  1.00  0.00     0.031 C 
ATOM     42  C   UNL A   1      38.419  29.868  29.577  1.00  0.00     0.029 A 
ATOM     43  N   UNL A   1      39.029  30.661  31.576  1.00  0.00    -0.354 N 
ATOM     44  C   UNL A   1      42.106  28.699  33.907  1.00  0.00     0.074 A 
ATOM     45  C   UNL A   1      42.596  27.519  33.231  1.00  0.00     0.031 C 
ATOM     46  C   UNL A   1      37.662  30.948  29.829  1.00  0.00     0.029 A 
ATOM     47  C   UNL A   1      38.027  31.492  31.134  1.00  0.00     0.049 A 
ATOM     48  H   UNL A   1      39.475  30.771  32.447  1.00  0.00     0.167 HD
ATOM     49  C   UNL A   1      42.547  29.122  35.115  1.00  0.00     0.037 A 
ATOM     50  C   UNL A   1      37.471  32.574  31.712  1.00  0.00     0.037 A 
ATOM     51  C   UNL A   1      42.075  30.316  35.768  1.00  0.00     0.049 A 
ATOM     52  C   UNL A   1      37.986  33.032  33.050  1.00  0.00     0.074 A 
ATOM     53  C   UNL A   1      42.500  30.870  36.962  1.00  0.00     0.029 A 
ATOM     54  N   UNL A   1      41.070  31.139  35.281  1.00  0.00    -0.354 N 
ATOM     55  N   UNL A   1      38.933  32.510  33.794  1.00  0.00    -0.248 NA
ATOM     56  C   UNL A   1      37.368  34.236  33.621  1.00  0.00     0.031 C 
ATOM     57  C   UNL A   1      41.716  31.997  37.225  1.00  0.00     0.029 A 
ATOM     58  C   UNL A   1      40.845  32.184  36.162  1.00  0.00     0.049 A 
ATOM     59  H   UNL A   1      40.586  31.001  34.435  1.00  0.00     0.167 HD
ATOM     60  C   UNL A   1      39.050  33.344  34.901  1.00  0.00     0.074 A 
ATOM     61  C   UNL A   1      38.084  34.409  34.723  1.00  0.00     0.031 C 
ATOM     62  C   UNL A   1      39.886  33.243  35.965  1.00  0.00     0.037 A 
BRANCH  49  63
ATOM     63  C   UNL A   1      43.591  28.288  35.812  1.00  0.00     0.058 A 
ATOM     64  C   UNL A   1      44.965  28.502  35.616  1.00  0.00     0.135 A 
ATOM     65  C   UNL A   1      43.210  27.278  36.710  1.00  0.00     0.135 A 
ATOM     66  F   UNL A   1      45.388  29.444  34.757  1.00  0.00    -0.206 F 
ATOM     67  C   UNL A   1      45.923  27.724  36.260  1.00  0.00     0.059 A 
ATOM     68  C   UNL A   1      44.151  26.510  37.390  1.00  0.00     0.059 A 
ATOM     69  F   UNL A   1      41.911  27.028  36.937  1.00  0.00    -0.206 F 
ATOM     70  C   UNL A   1      45.506  26.730  37.145  1.00  0.00     0.060 A 
BRANCH  70  71
ATOM     71  S   UNL A   1      46.762  25.733  37.973  1.00  0.00     0.124 S 
ATOM     72  O   UNL A   1      45.964  25.033  38.974  1.00  0.00    -0.237 OA
ATOM     73  O   UNL A   1      47.275  24.910  36.883  1.00  0.00    -0.237 OA
ATOM     74  O   UNL A   1      47.694  26.726  38.497  1.00  0.00    -0.744 OA
ENDBRANCH  70  71
ENDBRANCH  49  63
BRANCH  50  75
ATOM     75  C   UNL A   1      36.396  33.327  31.009  1.00  0.00     0.058 A 
ATOM     76  C   UNL A   1      35.061  33.244  31.433  1.00  0.00     0.135 A 
ATOM     77  C   UNL A   1      36.680  34.146  29.906  1.00  0.00     0.135 A 
ATOM     78  F   UNL A   1      34.737  32.471  32.481  1.00  0.00    -0.206 F 
ATOM     79  C   UNL A   1      34.042  33.926  30.776  1.00  0.00     0.059 A 
ATOM     80  C   UNL A   1      35.682  34.861  29.249  1.00  0.00     0.059 A 
ATOM     81  F   UNL A   1      37.943  34.277  29.471  1.00  0.00    -0.206 F 
ATOM     82  C   UNL A   1      34.364  34.735  29.685  1.00  0.00     0.060 A 
BRANCH  82  83
ATOM     83  S   UNL A   1      33.039  35.647  28.865  1.00  0.00     0.124 S 
ATOM     84  O   UNL A   1      32.306  36.188  30.003  1.00  0.00    -0.237 OA
ATOM     85  O   UNL A   1      33.783  36.615  28.065  1.00  0.00    -0.237 OA
ATOM     86  O   UNL A   1      32.345  34.616  28.099  1.00  0.00    -0.744 OA
ENDBRANCH  82  83
ENDBRANCH  50  75
BRANCH  62  87
ATOM     87  C   UNL A   1      39.833  34.341  36.994  1.00  0.00     0.058 A 
ATOM     88  C   UNL A   1      40.571  35.527  36.858  1.00  0.00     0.135 A 
ATOM     89  C   UNL A   1      39.003  34.212  38.120  1.00  0.00     0.135 A 
ATOM     90  F   UNL A   1      41.382  35.702  35.802  1.00  0.00    -0.206 F 
ATOM     91  C   UNL A   1      40.521  36.528  37.823  1.00  0.00     0.059 A 
ATOM     92  C   UNL A   1      38.911  35.215  39.080  1.00  0.00     0.059 A 
ATOM     93  F   UNL A   1      38.262  33.106  38.292  1.00  0.00    -0.206 F 
ATOM     94  C   UNL A   1      39.690  36.361  38.932  1.00  0.00     0.060 A 
BRANCH  94  95
ATOM     95  S   UNL A   1      39.629  37.669  40.174  1.00  0.00     0.124 S 
ATOM     96  O   UNL A   1      39.272  36.919  41.374  1.00  0.00    -0.237 OA
ATOM     97  O   UNL A   1      40.990  38.197  40.138  1.00  0.00    -0.237 OA
ATOM     98  O   UNL A   1      38.600  38.572  39.667  1.00  0.00    -0.744 OA
ENDBRANCH  94  95
ENDBRANCH  62  87
ENDBRANCH  36  37
ENDBRANCH  28  31
ENDBRANCH  26  27
ENDBRANCH  25  26
ENDBRANCH   1  25
TORSDOF 18
ENDMDL
MODEL 3
REMARK VINA RESULT:     -12.0      4.852     10.700
REMARK SMILES C[C@@H](C(=O)NCCCCNC(=O)c1ccc(-c2c3nc(c(-c4c(F)cc(S(=O)(=O)[O-])cc4F)c4ccc([nH]4)c(-c4c(F)cc(S(=O)(=O)[O-])cc4F)c4nc(c(-c5c(F)cc(S(=O)(=O)[O-])cc5F)c5ccc2[nH]5)C=C4)C=C3)cc1)c1ccc(N[C@H]2CCC[C@@H]2O)cc1F
REMARK SMILES IDX 7 1 6 2 5 3 3 4 4 5 2 7 1 8 79 9 80 10 91 11 81 12 90 13
REMARK SMILES IDX 92 14 82 15 83 16 84 18 85 19 88 20 86 21 87 22 89 23 8 25
REMARK SMILES IDX 9 26 10 27 11 28 12 30 13 31 14 32 78 33 15 34 77 35 16 36
REMARK SMILES IDX 17 37 18 38 71 39 19 40 76 41 70 42 72 43 20 44 75 45 69 46
REMARK SMILES IDX 68 47 21 49 55 50 34 51 54 52 35 53 38 54 53 55 73 56 36 57
REMARK SMILES IDX 37 58 52 60 74 61 39 62 22 63 23 64 32 65 24 66 25 67 31 68
REMARK SMILES IDX 33 69 26 70 27 71 28 72 29 73 30 74 56 75 57 76 66 77 58 78
REMARK SMILES IDX 59 79 65 80 67 81 60 82 61 83 62 84 63 85 64 86 40 87 41 88
REMARK SMILES IDX 50 89 42 90 43 91 49 92 51 93 44 94 45 95 46 96 47 97 48 98
REMARK H PARENT 5 6 83 17 89 24 10 29 72 48 38 59
REMARK Flexibility Score: inf
ROOT
ATOM      1  C   UNL A   1      32.656  28.051  24.767  1.00  0.00     0.023 C 
ENDROOT
BRANCH   1   2
ATOM      2  C   UNL A   1      32.071  26.652  24.572  1.00  0.00     0.116 C 
BRANCH   2   3
ATOM      3  N   UNL A   1      32.783  25.944  23.534  1.00  0.00    -0.356 N 
ATOM      4  C   UNL A   1      33.765  25.008  23.626  1.00  0.00     0.227 C 
ATOM      5  O   UNL A   1      34.252  24.638  22.555  1.00  0.00    -0.274 OA
ATOM      6  H   UNL A   1      32.515  26.176  22.615  1.00  0.00     0.163 HD
BRANCH   4   7
ATOM      7  C   UNL A   1      34.177  24.431  24.996  1.00  0.00     0.108 C 
ATOM      8  C   UNL A   1      35.686  24.485  25.266  1.00  0.00     0.023 C 
BRANCH   7   9
ATOM      9  C   UNL A   1      33.739  22.984  25.147  1.00  0.00     0.000 A 
ATOM     10  C   UNL A   1      34.669  21.949  25.023  1.00  0.00     0.009 A 
ATOM     11  C   UNL A   1      32.422  22.642  25.440  1.00  0.00     0.129 A 
ATOM     12  C   UNL A   1      34.279  20.621  25.162  1.00  0.00     0.026 A 
ATOM     13  C   UNL A   1      32.041  21.310  25.612  1.00  0.00     0.065 A 
ATOM     14  F   UNL A   1      31.495  23.602  25.586  1.00  0.00    -0.207 F 
ATOM     15  C   UNL A   1      32.967  20.266  25.475  1.00  0.00     0.037 A 
BRANCH  15  16
ATOM     16  N   UNL A   1      32.561  18.967  25.706  1.00  0.00    -0.380 N 
ATOM     17  H   UNL A   1      32.111  18.803  26.566  1.00  0.00     0.160 HD
BRANCH  16  18
ATOM     18  C   UNL A   1      32.718  17.808  24.831  1.00  0.00     0.107 C 
ATOM     19  C   UNL A   1      32.283  18.048  23.381  1.00  0.00     0.027 C 
ATOM     20  C   UNL A   1      34.147  17.241  24.764  1.00  0.00     0.136 C 
ATOM     21  C   UNL A   1      33.354  17.381  22.512  1.00  0.00     0.005 C 
ATOM     22  C   UNL A   1      34.139  16.474  23.451  1.00  0.00     0.034 C 
BRANCH  20  23
ATOM     23  O   UNL A   1      34.431  16.390  25.867  1.00  0.00    -0.391 OA
ATOM     24  H   UNL A   1      34.049  15.513  25.706  1.00  0.00     0.211 HD
ENDBRANCH  20  23
ENDBRANCH  16  18
ENDBRANCH  15  16
ENDBRANCH   7   9
ENDBRANCH   4   7
ENDBRANCH   2   3
ENDBRANCH   1   2
BRANCH   1  25
ATOM     25  C   UNL A   1      34.017  28.078  25.470  1.00  0.00     0.023 C 
BRANCH  25  26
ATOM     26  C   UNL A   1      33.954  28.206  26.985  1.00  0.00     0.116 C 
BRANCH  26  27
ATOM     27  N   UNL A   1      33.692  29.568  27.417  1.00  0.00    -0.352 N 
ATOM     28  C   UNL A   1      34.508  30.429  28.101  1.00  0.00     0.251 C 
ATOM     29  H   UNL A   1      32.803  29.922  27.184  1.00  0.00     0.163 HD
ATOM     30  O   UNL A   1      34.052  31.490  28.523  1.00  0.00    -0.269 OA
BRANCH  28  31
ATOM     31  C   UNL A   1      35.921  30.070  28.351  1.00  0.00     0.039 A 
ATOM     32  C   UNL A   1      36.843  30.210  27.311  1.00  0.00     0.014 A 
ATOM     33  C   UNL A   1      36.333  29.580  29.594  1.00  0.00     0.014 A 
ATOM     34  C   UNL A   1      38.182  29.884  27.528  1.00  0.00     0.010 A 
ATOM     35  C   UNL A   1      37.683  29.341  29.833  1.00  0.00     0.010 A 
ATOM     36  C   UNL A   1      38.617  29.463  28.795  1.00  0.00    -0.014 A 
BRANCH  36  37
ATOM     37  C   UNL A   1      40.037  29.097  29.030  1.00  0.00     0.031 A 
ATOM     38  C   UNL A   1      40.978  30.092  29.658  1.00  0.00     0.074 A 
ATOM     39  C   UNL A   1      40.484  27.882  28.657  1.00  0.00     0.049 A 
ATOM     40  N   UNL A   1      42.246  29.959  29.951  1.00  0.00    -0.248 NA
ATOM     41  C   UNL A   1      40.429  31.422  29.974  1.00  0.00     0.031 C 
ATOM     42  C   UNL A   1      39.682  26.852  27.992  1.00  0.00     0.029 A 
ATOM     43  N   UNL A   1      41.722  27.304  28.788  1.00  0.00    -0.354 N 
ATOM     44  C   UNL A   1      42.647  31.186  30.467  1.00  0.00     0.074 A 
ATOM     45  C   UNL A   1      41.507  32.070  30.391  1.00  0.00     0.031 C 
ATOM     46  C   UNL A   1      40.436  25.756  27.810  1.00  0.00     0.029 A 
ATOM     47  C   UNL A   1      41.783  26.015  28.312  1.00  0.00     0.049 A 
ATOM     48  H   UNL A   1      42.493  27.768  29.184  1.00  0.00     0.167 HD
ATOM     49  C   UNL A   1      43.848  31.536  30.986  1.00  0.00     0.037 A 
ATOM     50  C   UNL A   1      42.807  25.140  28.290  1.00  0.00     0.037 A 
ATOM     51  C   UNL A   1      44.970  30.640  31.086  1.00  0.00     0.049 A 
ATOM     52  C   UNL A   1      44.129  25.548  28.883  1.00  0.00     0.074 A 
ATOM     53  C   UNL A   1      46.211  30.873  31.652  1.00  0.00     0.029 A 
ATOM     54  N   UNL A   1      44.988  29.338  30.607  1.00  0.00    -0.354 N 
ATOM     55  N   UNL A   1      44.469  26.689  29.436  1.00  0.00    -0.248 NA
ATOM     56  C   UNL A   1      45.201  24.545  28.863  1.00  0.00     0.031 C 
ATOM     57  C   UNL A   1      46.997  29.732  31.467  1.00  0.00     0.029 A 
ATOM     58  C   UNL A   1      46.227  28.763  30.843  1.00  0.00     0.049 A 
ATOM     59  H   UNL A   1      44.234  28.888  30.162  1.00  0.00     0.167 HD
ATOM     60  C   UNL A   1      45.783  26.526  29.865  1.00  0.00     0.074 A 
ATOM     61  C   UNL A   1      46.169  25.174  29.515  1.00  0.00     0.031 C 
ATOM     62  C   UNL A   1      46.593  27.412  30.497  1.00  0.00     0.037 A 
BRANCH  49  63
ATOM     63  C   UNL A   1      44.012  32.949  31.483  1.00  0.00     0.058 A 
ATOM     64  C   UNL A   1      43.723  33.308  32.809  1.00  0.00     0.135 A 
ATOM     65  C   UNL A   1      44.491  33.953  30.626  1.00  0.00     0.135 A 
ATOM     66  F   UNL A   1      43.246  32.394  33.670  1.00  0.00    -0.206 F 
ATOM     67  C   UNL A   1      43.871  34.617  33.260  1.00  0.00     0.059 A 
ATOM     68  C   UNL A   1      44.680  35.261  31.063  1.00  0.00     0.059 A 
ATOM     69  F   UNL A   1      44.784  33.669  29.348  1.00  0.00    -0.206 F 
ATOM     70  C   UNL A   1      44.351  35.586  32.379  1.00  0.00     0.060 A 
BRANCH  70  71
ATOM     71  S   UNL A   1      44.541  37.278  32.980  1.00  0.00     0.124 S 
ATOM     72  O   UNL A   1      43.554  37.317  34.054  1.00  0.00    -0.237 OA
ATOM     73  O   UNL A   1      45.937  37.304  33.401  1.00  0.00    -0.237 OA
ATOM     74  O   UNL A   1      44.227  38.092  31.810  1.00  0.00    -0.744 OA
ENDBRANCH  70  71
ENDBRANCH  49  63
BRANCH  50  75
ATOM     75  C   UNL A   1      42.611  23.776  27.728  1.00  0.00     0.058 A 
ATOM     76  C   UNL A   1      42.406  22.671  28.567  1.00  0.00     0.135 A 
ATOM     77  C   UNL A   1      42.619  23.549  26.343  1.00  0.00     0.135 A 
ATOM     78  F   UNL A   1      42.393  22.834  29.900  1.00  0.00    -0.206 F 
ATOM     79  C   UNL A   1      42.240  21.387  28.059  1.00  0.00     0.059 A 
ATOM     80  C   UNL A   1      42.427  22.279  25.808  1.00  0.00     0.059 A 
ATOM     81  F   UNL A   1      42.792  24.574  25.494  1.00  0.00    -0.206 F 
ATOM     82  C   UNL A   1      42.250  21.202  26.675  1.00  0.00     0.060 A 
BRANCH  82  83
ATOM     83  S   UNL A   1      41.994  19.537  26.024  1.00  0.00     0.124 S 
ATOM     84  O   UNL A   1      42.485  18.713  27.122  1.00  0.00    -0.237 OA
ATOM     85  O   UNL A   1      40.551  19.513  25.803  1.00  0.00    -0.237 OA
ATOM     86  O   UNL A   1      42.805  19.521  24.811  1.00  0.00    -0.744 OA
ENDBRANCH  82  83
ENDBRANCH  50  75
BRANCH  62  87
ATOM     87  C   UNL A   1      47.961  26.931  30.902  1.00  0.00     0.058 A 
ATOM     88  C   UNL A   1      48.185  26.250  32.109  1.00  0.00     0.135 A 
ATOM     89  C   UNL A   1      49.059  27.131  30.050  1.00  0.00     0.135 A 
ATOM     90  F   UNL A   1      47.171  26.033  32.962  1.00  0.00    -0.206 F 
ATOM     91  C   UNL A   1      49.457  25.822  32.476  1.00  0.00     0.059 A 
ATOM     92  C   UNL A   1      50.334  26.681  30.380  1.00  0.00     0.059 A 
ATOM     93  F   UNL A   1      48.899  27.762  28.876  1.00  0.00    -0.206 F 
ATOM     94  C   UNL A   1      50.526  26.045  31.605  1.00  0.00     0.060 A 
BRANCH  94  95
ATOM     95  S   UNL A   1      52.171  25.480  32.089  1.00  0.00     0.124 S 
ATOM     96  O   UNL A   1      52.434  26.313  33.258  1.00  0.00    -0.237 OA
ATOM     97  O   UNL A   1      51.947  24.062  32.358  1.00  0.00    -0.237 OA
ATOM     98  O   UNL A   1      52.988  25.769  30.914  1.00  0.00    -0.744 OA
ENDBRANCH  94  95
ENDBRANCH  62  87
ENDBRANCH  36  37
ENDBRANCH  28  31
ENDBRANCH  26  27
ENDBRANCH  25  26
ENDBRANCH   1  25
TORSDOF 18
ENDMDL
