MODEL 1
REMARK VINA RESULT:     -10.2      0.000      0.000
REMARK SMILES COc1ccc(-c2ccc(/C=C3\SC(=S)N([C@H](Cc4ccccc4)C(=O)NCCCCNC(=O)c4ccc(-c5c6nc(c(-c7c(F)cc(S(=O)(=O)[O-])cc7F)c7ccc([nH]7)c(-c7c(F)cc(S(=O)(=O)[O-])cc7F)c7nc(c(-c8c(F)cc(S(=O)(=O)[O-])cc8F)c8ccc5[nH]8)C=C7)C=C6)cc4)C3=O)o2)cc1
REMARK SMILES IDX 29 1 28 2 27 3 25 4 26 5 17 7 16 8 11 9 12 10 13 11 101 12
REMARK SMILES IDX 14 13 102 14 15 15 10 16 7 17 8 18 103 19 9 20 6 21 3 22
REMARK SMILES IDX 4 23 105 24 5 25 104 26 2 27 1 28 18 29 19 30 20 31 24 32
REMARK SMILES IDX 21 33 23 34 22 35 30 36 31 37 32 38 33 39 34 41 35 42 36 43
REMARK SMILES IDX 100 44 37 45 99 46 38 47 39 48 40 49 93 50 41 51 98 52 92 53
REMARK SMILES IDX 94 54 42 55 97 56 91 57 90 58 43 60 77 61 56 62 76 63 57 64
REMARK SMILES IDX 60 65 75 66 95 67 58 68 59 69 74 71 96 72 61 73 44 74 45 75
REMARK SMILES IDX 54 76 46 77 47 78 53 79 55 80 48 81 49 82 50 83 51 84 52 85
REMARK SMILES IDX 78 86 79 87 88 88 80 89 81 90 87 91 89 92 82 93 83 94 84 95
REMARK SMILES IDX 85 96 86 97 62 98 63 99 72 100 64 101 65 102 71 103 73 104
REMARK SMILES IDX 66 105 67 106 68 107 69 108 70 109
REMARK H PARENT 27 6 32 40 94 59 60 70
REMARK Flexibility Score: inf
ROOT
ATOM      1  C   UNL A   1      38.432  31.357  35.594  1.00  0.00     0.023 C 
ENDROOT
BRANCH   1   2
ATOM      2  C   UNL A   1      39.723  32.165  35.555  1.00  0.00     0.116 C 
BRANCH   2   3
ATOM      3  N   UNL A   1      40.542  31.844  34.398  1.00  0.00    -0.354 N 
ATOM      4  C   UNL A   1      40.935  32.634  33.348  1.00  0.00     0.243 C 
ATOM      5  O   UNL A   1      41.748  32.168  32.545  1.00  0.00    -0.273 OA
ATOM      6  H   UNL A   1      40.866  30.915  34.362  1.00  0.00     0.163 HD
BRANCH   4   7
ATOM      7  C   UNL A   1      40.301  34.026  33.093  1.00  0.00     0.185 C 
BRANCH   7   8
ATOM      8  N   UNL A   1      39.290  34.114  31.994  1.00  0.00    -0.280 N 
ATOM      9  C   UNL A   1      35.796  34.056  31.078  1.00  0.00     0.068 C 
ATOM     10  C   UNL A   1      37.133  34.090  31.029  1.00  0.00     0.084 C 
ATOM     11  S   UNL A   1      38.163  33.867  29.684  1.00  0.00    -0.054 SA
ATOM     12  C   UNL A   1      37.946  34.337  32.244  1.00  0.00     0.267 C 
ATOM     13  C   UNL A   1      39.605  34.163  30.648  1.00  0.00     0.149 C 
ATOM     14  O   UNL A   1      37.434  34.721  33.287  1.00  0.00    -0.268 OA
ATOM     15  S   UNL A   1      41.051  34.502  29.898  1.00  0.00    -0.052 S 
BRANCH   9  16
ATOM     16  C   UNL A   1      34.994  33.725  29.956  1.00  0.00     0.128 A 
ATOM     17  C   UNL A   1      34.096  32.482  28.354  1.00  0.00     0.134 A 
ATOM     18  C   UNL A   1      33.596  33.751  28.176  1.00  0.00     0.051 A 
ATOM     19  O   UNL A   1      34.949  32.463  29.415  1.00  0.00    -0.457 OA
ATOM     20  C   UNL A   1      34.162  34.541  29.199  1.00  0.00     0.051 A 
BRANCH  17  21
ATOM     21  C   UNL A   1      33.895  31.223  27.662  1.00  0.00     0.017 A 
ATOM     22  C   UNL A   1      33.577  28.837  26.201  1.00  0.00     0.118 A 
ATOM     23  C   UNL A   1      32.547  29.778  26.255  1.00  0.00     0.047 A 
ATOM     24  C   UNL A   1      34.765  29.085  26.887  1.00  0.00     0.047 A 
ATOM     25  C   UNL A   1      32.696  30.956  26.991  1.00  0.00     0.016 A 
ATOM     26  C   UNL A   1      34.924  30.275  27.607  1.00  0.00     0.016 A 
BRANCH  22  27
ATOM     27  O   UNL A   1      33.318  27.741  25.426  1.00  0.00    -0.497 OA
ATOM     28  C   UNL A   1      33.739  27.816  24.069  1.00  0.00     0.278 C 
ENDBRANCH  22  27
ENDBRANCH  17  21
ENDBRANCH   9  16
ENDBRANCH   7   8
BRANCH   7  29
ATOM     29  C   UNL A   1      41.505  35.012  32.927  1.00  0.00     0.071 C 
BRANCH  29  30
ATOM     30  C   UNL A   1      42.119  35.645  34.154  1.00  0.00    -0.045 A 
ATOM     31  C   UNL A   1      43.446  36.093  34.178  1.00  0.00     0.004 A 
ATOM     32  C   UNL A   1      41.315  35.855  35.287  1.00  0.00     0.004 A 
ATOM     33  C   UNL A   1      43.978  36.658  35.339  1.00  0.00     0.000 A 
ATOM     34  C   UNL A   1      41.845  36.434  36.440  1.00  0.00     0.000 A 
ATOM     35  C   UNL A   1      43.180  36.821  36.471  1.00  0.00     0.000 A 
ENDBRANCH  29  30
ENDBRANCH   7  29
ENDBRANCH   4   7
ENDBRANCH   2   3
ENDBRANCH   1   2
BRANCH   1  36
ATOM     36  C   UNL A   1      37.707  31.264  34.251  1.00  0.00     0.023 C 
BRANCH  36  37
ATOM     37  C   UNL A   1      37.795  29.907  33.557  1.00  0.00     0.116 C 
BRANCH  37  38
ATOM     38  N   UNL A   1      36.773  29.718  32.538  1.00  0.00    -0.352 N 
ATOM     39  C   UNL A   1      36.936  29.593  31.178  1.00  0.00     0.251 C 
ATOM     40  H   UNL A   1      35.845  29.672  32.865  1.00  0.00     0.163 HD
ATOM     41  O   UNL A   1      35.959  29.560  30.436  1.00  0.00    -0.269 OA
BRANCH  39  42
ATOM     42  C   UNL A   1      38.304  29.539  30.624  1.00  0.00     0.039 A 
ATOM     43  C   UNL A   1      39.348  29.088  31.434  1.00  0.00     0.014 A 
ATOM     44  C   UNL A   1      38.536  29.873  29.287  1.00  0.00     0.014 A 
ATOM     45  C   UNL A   1      40.617  28.902  30.880  1.00  0.00     0.010 A 
ATOM     46  C   UNL A   1      39.780  29.619  28.721  1.00  0.00     0.010 A 
ATOM     47  C   UNL A   1      40.832  29.128  29.511  1.00  0.00    -0.014 A 
BRANCH  47  48
ATOM     48  C   UNL A   1      42.149  28.858  28.877  1.00  0.00     0.031 A 
ATOM     49  C   UNL A   1      42.461  27.481  28.359  1.00  0.00     0.074 A 
ATOM     50  C   UNL A   1      43.087  29.826  28.842  1.00  0.00     0.049 A 
ATOM     51  N   UNL A   1      43.582  27.016  27.872  1.00  0.00    -0.248 NA
ATOM     52  C   UNL A   1      41.377  26.487  28.426  1.00  0.00     0.031 C 
ATOM     53  C   UNL A   1      42.921  31.187  29.355  1.00  0.00     0.029 A 
ATOM     54  N   UNL A   1      44.376  29.806  28.370  1.00  0.00    -0.354 N 
ATOM     55  C   UNL A   1      43.345  25.675  27.594  1.00  0.00     0.074 A 
ATOM     56  C   UNL A   1      41.991  25.389  28.012  1.00  0.00     0.031 C 
ATOM     57  C   UNL A   1      44.057  31.874  29.156  1.00  0.00     0.029 A 
ATOM     58  C   UNL A   1      45.044  30.996  28.537  1.00  0.00     0.049 A 
ATOM     59  H   UNL A   1      44.783  29.014  27.950  1.00  0.00     0.167 HD
ATOM     60  C   UNL A   1      44.175  24.770  27.021  1.00  0.00     0.037 A 
ATOM     61  C   UNL A   1      46.313  31.337  28.238  1.00  0.00     0.037 A 
ATOM     62  C   UNL A   1      45.512  25.070  26.579  1.00  0.00     0.049 A 
ATOM     63  C   UNL A   1      47.215  30.317  27.597  1.00  0.00     0.074 A 
ATOM     64  C   UNL A   1      46.411  24.241  25.934  1.00  0.00     0.029 A 
ATOM     65  N   UNL A   1      46.140  26.297  26.736  1.00  0.00    -0.354 N 
ATOM     66  N   UNL A   1      46.956  29.068  27.286  1.00  0.00    -0.248 NA
ATOM     67  C   UNL A   1      48.579  30.750  27.260  1.00  0.00     0.031 C 
ATOM     68  C   UNL A   1      47.598  24.954  25.735  1.00  0.00     0.029 A 
ATOM     69  C   UNL A   1      47.421  26.242  26.213  1.00  0.00     0.049 A 
ATOM     70  H   UNL A   1      45.736  27.090  27.157  1.00  0.00     0.167 HD
ATOM     71  C   UNL A   1      48.112  28.577  26.689  1.00  0.00     0.074 A 
ATOM     72  C   UNL A   1      49.069  29.664  26.677  1.00  0.00     0.031 C 
ATOM     73  C   UNL A   1      48.357  27.339  26.194  1.00  0.00     0.037 A 
BRANCH  60  74
ATOM     74  C   UNL A   1      43.656  23.372  26.833  1.00  0.00     0.058 A 
ATOM     75  C   UNL A   1      43.492  22.497  27.920  1.00  0.00     0.135 A 
ATOM     76  C   UNL A   1      43.288  22.910  25.560  1.00  0.00     0.135 A 
ATOM     77  F   UNL A   1      43.841  22.881  29.157  1.00  0.00    -0.206 F 
ATOM     78  C   UNL A   1      43.012  21.203  27.745  1.00  0.00     0.059 A 
ATOM     79  C   UNL A   1      42.780  21.628  25.365  1.00  0.00     0.059 A 
ATOM     80  F   UNL A   1      43.423  23.705  24.487  1.00  0.00    -0.206 F 
ATOM     81  C   UNL A   1      42.661  20.777  26.463  1.00  0.00     0.060 A 
BRANCH  81  82
ATOM     82  S   UNL A   1      42.039  19.095  26.255  1.00  0.00     0.124 S 
ATOM     83  O   UNL A   1      42.966  18.564  25.261  1.00  0.00    -0.237 OA
ATOM     84  O   UNL A   1      42.171  18.545  27.600  1.00  0.00    -0.237 OA
ATOM     85  O   UNL A   1      40.669  19.293  25.793  1.00  0.00    -0.744 OA
ENDBRANCH  81  82
ENDBRANCH  60  74
BRANCH  61  86
ATOM     86  C   UNL A   1      46.800  32.714  28.519  1.00  0.00     0.058 A 
ATOM     87  C   UNL A   1      46.699  33.725  27.551  1.00  0.00     0.135 A 
ATOM     88  C   UNL A   1      47.361  33.053  29.760  1.00  0.00     0.135 A 
ATOM     89  F   UNL A   1      46.176  33.450  26.347  1.00  0.00    -0.206 F 
ATOM     90  C   UNL A   1      47.153  35.017  27.795  1.00  0.00     0.059 A 
ATOM     91  C   UNL A   1      47.799  34.344  30.037  1.00  0.00     0.059 A 
ATOM     92  F   UNL A   1      47.464  32.127  30.725  1.00  0.00    -0.206 F 
ATOM     93  C   UNL A   1      47.700  35.318  29.044  1.00  0.00     0.060 A 
BRANCH  93  94
ATOM     94  S   UNL A   1      48.240  37.011  29.368  1.00  0.00     0.124 S 
ATOM     95  O   UNL A   1      47.634  37.268  30.669  1.00  0.00    -0.237 OA
ATOM     96  O   UNL A   1      49.693  36.875  29.355  1.00  0.00    -0.237 OA
ATOM     97  O   UNL A   1      47.678  37.761  28.250  1.00  0.00    -0.744 OA
ENDBRANCH  93  94
ENDBRANCH  61  86
BRANCH  73  98
ATOM     98  C   UNL A   1      49.696  27.097  25.556  1.00  0.00     0.058 A 
ATOM     99  C   UNL A   1      49.924  27.353  24.195  1.00  0.00     0.135 A 
ATOM    100  C   UNL A   1      50.783  26.667  26.334  1.00  0.00     0.135 A 
ATOM    101  F   UNL A   1      48.915  27.759  23.406  1.00  0.00    -0.206 F 
ATOM    102  C   UNL A   1      51.180  27.179  23.624  1.00  0.00     0.059 A 
ATOM    103  C   UNL A   1      52.054  26.510  25.790  1.00  0.00     0.059 A 
ATOM    104  F   UNL A   1      50.621  26.417  27.642  1.00  0.00    -0.206 F 
ATOM    105  C   UNL A   1      52.240  26.761  24.431  1.00  0.00     0.060 A 
BRANCH 105 106
ATOM    106  S   UNL A   1      53.877  26.586  23.689  1.00  0.00     0.124 S 
ATOM    107  O   UNL A   1      54.444  27.913  23.913  1.00  0.00    -0.237 OA
ATOM    108  O   UNL A   1      54.463  25.505  24.475  1.00  0.00    -0.237 OA
ATOM    109  O   UNL A   1      53.586  26.255  22.297  1.00  0.00    -0.744 OA
ENDBRANCH 105 106
ENDBRANCH  73  98
ENDBRANCH  47  48
ENDBRANCH  39  42
ENDBRANCH  37  38
ENDBRANCH  36  37
ENDBRANCH   1  36
TORSDOF 20
ENDMDL
MODEL 2
REMARK VINA RESULT:     -10.1      4.013      9.815
REMARK SMILES COc1ccc(-c2ccc(/C=C3\SC(=S)N([C@H](Cc4ccccc4)C(=O)NCCCCNC(=O)c4ccc(-c5c6nc(c(-c7c(F)cc(S(=O)(=O)[O-])cc7F)c7ccc([nH]7)c(-c7c(F)cc(S(=O)(=O)[O-])cc7F)c7nc(c(-c8c(F)cc(S(=O)(=O)[O-])cc8F)c8ccc5[nH]8)C=C7)C=C6)cc4)C3=O)o2)cc1
REMARK SMILES IDX 29 1 28 2 27 3 25 4 26 5 17 7 16 8 11 9 12 10 13 11 101 12
REMARK SMILES IDX 14 13 102 14 15 15 10 16 7 17 8 18 103 19 9 20 6 21 3 22
REMARK SMILES IDX 4 23 105 24 5 25 104 26 2 27 1 28 18 29 19 30 20 31 24 32
REMARK SMILES IDX 21 33 23 34 22 35 30 36 31 37 32 38 33 39 34 41 35 42 36 43
REMARK SMILES IDX 100 44 37 45 99 46 38 47 39 48 40 49 93 50 41 51 98 52 92 53
REMARK SMILES IDX 94 54 42 55 97 56 91 57 90 58 43 60 77 61 56 62 76 63 57 64
REMARK SMILES IDX 60 65 75 66 95 67 58 68 59 69 74 71 96 72 61 73 44 74 45 75
REMARK SMILES IDX 54 76 46 77 47 78 53 79 55 80 48 81 49 82 50 83 51 84 52 85
REMARK SMILES IDX 78 86 79 87 88 88 80 89 81 90 87 91 89 92 82 93 83 94 84 95
REMARK SMILES IDX 85 96 86 97 62 98 63 99 72 100 64 101 65 102 71 103 73 104
REMARK SMILES IDX 66 105 67 106 68 107 69 108 70 109
REMARK H PARENT 27 6 32 40 94 59 60 70
REMARK Flexibility Score: inf
ROOT
ATOM      1  C   UNL A   1      39.551  34.570  29.030  1.00  0.00     0.023 C 
ENDROOT
BRANCH   1   2
ATOM      2  C   UNL A   1      38.335  33.854  29.605  1.00  0.00     0.116 C 
BRANCH   2   3
ATOM      3  N   UNL A   1      37.083  34.450  29.170  1.00  0.00    -0.354 N 
ATOM      4  C   UNL A   1      35.798  33.988  29.287  1.00  0.00     0.243 C 
ATOM      5  O   UNL A   1      34.879  34.742  28.954  1.00  0.00    -0.273 OA
ATOM      6  H   UNL A   1      37.172  35.322  28.722  1.00  0.00     0.163 HD
BRANCH   4   7
ATOM      7  C   UNL A   1      35.491  32.528  29.708  1.00  0.00     0.185 C 
BRANCH   7   8
ATOM      8  N   UNL A   1      35.027  31.600  28.629  1.00  0.00    -0.280 N 
ATOM      9  C   UNL A   1      32.295  30.526  26.524  1.00  0.00     0.068 C 
ATOM     10  C   UNL A   1      33.483  30.619  27.133  1.00  0.00     0.084 C 
ATOM     11  S   UNL A   1      34.761  29.485  27.171  1.00  0.00    -0.054 SA
ATOM     12  C   UNL A   1      33.856  31.818  27.923  1.00  0.00     0.267 C 
ATOM     13  C   UNL A   1      35.783  30.562  28.117  1.00  0.00     0.149 C 
ATOM     14  O   UNL A   1      33.189  32.843  27.879  1.00  0.00    -0.268 OA
ATOM     15  S   UNL A   1      37.418  30.271  28.227  1.00  0.00    -0.052 S 
BRANCH   9  16
ATOM     16  C   UNL A   1      31.868  29.356  25.846  1.00  0.00     0.128 A 
ATOM     17  C   UNL A   1      31.673  27.198  25.373  1.00  0.00     0.134 A 
ATOM     18  C   UNL A   1      30.945  27.865  24.415  1.00  0.00     0.051 A 
ATOM     19  O   UNL A   1      32.242  28.091  26.229  1.00  0.00    -0.457 OA
ATOM     20  C   UNL A   1      31.064  29.238  24.718  1.00  0.00     0.051 A 
BRANCH  17  21
ATOM     21  C   UNL A   1      31.932  25.795  25.634  1.00  0.00     0.017 A 
ATOM     22  C   UNL A   1      32.387  23.092  26.280  1.00  0.00     0.118 A 
ATOM     23  C   UNL A   1      33.433  24.017  26.319  1.00  0.00     0.047 A 
ATOM     24  C   UNL A   1      31.113  23.519  25.909  1.00  0.00     0.047 A 
ATOM     25  C   UNL A   1      33.213  25.355  25.985  1.00  0.00     0.016 A 
ATOM     26  C   UNL A   1      30.887  24.864  25.594  1.00  0.00     0.016 A 
BRANCH  22  27
ATOM     27  O   UNL A   1      32.725  21.822  26.657  1.00  0.00    -0.497 OA
ATOM     28  C   UNL A   1      33.895  21.692  27.454  1.00  0.00     0.278 C 
ENDBRANCH  22  27
ENDBRANCH  17  21
ENDBRANCH   9  16
ENDBRANCH   7   8
BRANCH   7  29
ATOM     29  C   UNL A   1      34.505  32.637  30.918  1.00  0.00     0.071 C 
BRANCH  29  30
ATOM     30  C   UNL A   1      35.031  33.077  32.264  1.00  0.00    -0.045 A 
ATOM     31  C   UNL A   1      36.048  32.383  32.932  1.00  0.00     0.004 A 
ATOM     32  C   UNL A   1      34.533  34.259  32.837  1.00  0.00     0.004 A 
ATOM     33  C   UNL A   1      36.493  32.816  34.182  1.00  0.00     0.000 A 
ATOM     34  C   UNL A   1      34.990  34.698  34.079  1.00  0.00     0.000 A 
ATOM     35  C   UNL A   1      35.960  33.968  34.759  1.00  0.00     0.000 A 
ENDBRANCH  29  30
ENDBRANCH   7  29
ENDBRANCH   4   7
ENDBRANCH   2   3
ENDBRANCH   1   2
BRANCH   1  36
ATOM     36  C   UNL A   1      40.851  34.317  29.796  1.00  0.00     0.023 C 
BRANCH  36  37
ATOM     37  C   UNL A   1      41.967  35.323  29.533  1.00  0.00     0.116 C 
BRANCH  37  38
ATOM     38  N   UNL A   1      41.651  36.262  28.465  1.00  0.00    -0.352 N 
ATOM     39  C   UNL A   1      42.400  36.574  27.354  1.00  0.00     0.251 C 
ATOM     40  H   UNL A   1      40.791  36.733  28.549  1.00  0.00     0.163 HD
ATOM     41  O   UNL A   1      42.049  37.480  26.605  1.00  0.00    -0.269 OA
BRANCH  39  42
ATOM     42  C   UNL A   1      43.647  35.827  27.100  1.00  0.00     0.039 A 
ATOM     43  C   UNL A   1      44.698  35.925  28.015  1.00  0.00     0.014 A 
ATOM     44  C   UNL A   1      43.748  34.982  25.991  1.00  0.00     0.014 A 
ATOM     45  C   UNL A   1      45.826  35.117  27.855  1.00  0.00     0.010 A 
ATOM     46  C   UNL A   1      44.839  34.128  25.875  1.00  0.00     0.010 A 
ATOM     47  C   UNL A   1      45.887  34.184  26.807  1.00  0.00    -0.014 A 
BRANCH  47  48
ATOM     48  C   UNL A   1      47.036  33.253  26.662  1.00  0.00     0.031 A 
ATOM     49  C   UNL A   1      48.400  33.795  26.333  1.00  0.00     0.074 A 
ATOM     50  C   UNL A   1      46.837  31.922  26.744  1.00  0.00     0.049 A 
ATOM     51  N   UNL A   1      49.504  33.148  26.062  1.00  0.00    -0.248 NA
ATOM     52  C   UNL A   1      48.534  35.261  26.272  1.00  0.00     0.031 C 
ATOM     53  C   UNL A   1      45.551  31.273  27.011  1.00  0.00     0.029 A 
ATOM     54  N   UNL A   1      47.710  30.875  26.593  1.00  0.00    -0.354 N 
ATOM     55  C   UNL A   1      50.454  34.122  25.779  1.00  0.00     0.074 A 
ATOM     56  C   UNL A   1      49.785  35.402  25.863  1.00  0.00     0.031 C 
ATOM     57  C   UNL A   1      45.724  29.942  27.020  1.00  0.00     0.029 A 
ATOM     58  C   UNL A   1      47.121  29.640  26.723  1.00  0.00     0.049 A 
ATOM     59  H   UNL A   1      48.670  30.997  26.410  1.00  0.00     0.167 HD
ATOM     60  C   UNL A   1      51.769  33.964  25.498  1.00  0.00     0.037 A 
ATOM     61  C   UNL A   1      47.643  28.403  26.604  1.00  0.00     0.037 A 
ATOM     62  C   UNL A   1      52.434  32.689  25.446  1.00  0.00     0.049 A 
ATOM     63  C   UNL A   1      49.109  28.252  26.295  1.00  0.00     0.074 A 
ATOM     64  C   UNL A   1      53.775  32.426  25.227  1.00  0.00     0.029 A 
ATOM     65  N   UNL A   1      51.809  31.463  25.616  1.00  0.00    -0.354 N 
ATOM     66  N   UNL A   1      50.007  29.187  26.089  1.00  0.00    -0.248 NA
ATOM     67  C   UNL A   1      49.635  26.883  26.208  1.00  0.00     0.031 C 
ATOM     68  C   UNL A   1      53.954  31.039  25.227  1.00  0.00     0.029 A 
ATOM     69  C   UNL A   1      52.734  30.439  25.493  1.00  0.00     0.049 A 
ATOM     70  H   UNL A   1      50.850  31.338  25.798  1.00  0.00     0.167 HD
ATOM     71  C   UNL A   1      51.209  28.520  25.879  1.00  0.00     0.074 A 
ATOM     72  C   UNL A   1      50.924  27.104  25.990  1.00  0.00     0.031 C 
ATOM     73  C   UNL A   1      52.436  29.033  25.622  1.00  0.00     0.037 A 
BRANCH  60  74
ATOM     74  C   UNL A   1      52.576  35.204  25.231  1.00  0.00     0.058 A 
ATOM     75  C   UNL A   1      53.126  35.963  26.277  1.00  0.00     0.135 A 
ATOM     76  C   UNL A   1      52.829  35.624  23.915  1.00  0.00     0.135 A 
ATOM     77  F   UNL A   1      52.903  35.616  27.554  1.00  0.00    -0.206 F 
ATOM     78  C   UNL A   1      53.871  37.111  26.029  1.00  0.00     0.059 A 
ATOM     79  C   UNL A   1      53.595  36.754  23.643  1.00  0.00     0.059 A 
ATOM     80  F   UNL A   1      52.328  34.936  22.877  1.00  0.00    -0.206 F 
ATOM     81  C   UNL A   1      54.099  37.500  24.708  1.00  0.00     0.060 A 
BRANCH  81  82
ATOM     82  S   UNL A   1      55.069  38.991  24.404  1.00  0.00     0.124 S 
ATOM     83  O   UNL A   1      55.982  38.981  25.542  1.00  0.00    -0.237 OA
ATOM     84  O   UNL A   1      55.674  38.711  23.105  1.00  0.00    -0.237 OA
ATOM     85  O   UNL A   1      54.070  40.054  24.410  1.00  0.00    -0.744 OA
ENDBRANCH  81  82
ENDBRANCH  60  74
BRANCH  61  86
ATOM     86  C   UNL A   1      46.779  27.208  26.799  1.00  0.00     0.058 A 
ATOM     87  C   UNL A   1      46.660  26.604  28.060  1.00  0.00     0.135 A 
ATOM     88  C   UNL A   1      46.047  26.653  25.738  1.00  0.00     0.135 A 
ATOM     89  F   UNL A   1      47.345  27.094  29.104  1.00  0.00    -0.206 F 
ATOM     90  C   UNL A   1      45.860  25.485  28.261  1.00  0.00     0.059 A 
ATOM     91  C   UNL A   1      45.221  25.548  25.919  1.00  0.00     0.059 A 
ATOM     92  F   UNL A   1      46.113  27.203  24.516  1.00  0.00    -0.206 F 
ATOM     93  C   UNL A   1      45.141  24.964  27.183  1.00  0.00     0.060 A 
BRANCH  93  94
ATOM     94  S   UNL A   1      44.067  23.540  27.464  1.00  0.00     0.124 S 
ATOM     95  O   UNL A   1      42.776  24.054  27.026  1.00  0.00    -0.237 OA
ATOM     96  O   UNL A   1      44.675  22.525  26.609  1.00  0.00    -0.237 OA
ATOM     97  O   UNL A   1      44.198  23.300  28.898  1.00  0.00    -0.744 OA
ENDBRANCH  93  94
ENDBRANCH  61  86
BRANCH  73  98
ATOM     98  C   UNL A   1      53.580  28.069  25.484  1.00  0.00     0.058 A 
ATOM     99  C   UNL A   1      53.887  27.454  24.261  1.00  0.00     0.135 A 
ATOM    100  C   UNL A   1      54.422  27.810  26.578  1.00  0.00     0.135 A 
ATOM    101  F   UNL A   1      53.109  27.664  23.186  1.00  0.00    -0.206 F 
ATOM    102  C   UNL A   1      54.981  26.606  24.128  1.00  0.00     0.059 A 
ATOM    103  C   UNL A   1      55.537  26.985  26.462  1.00  0.00     0.059 A 
ATOM    104  F   UNL A   1      54.179  28.379  27.769  1.00  0.00    -0.206 F 
ATOM    105  C   UNL A   1      55.802  26.381  25.235  1.00  0.00     0.060 A 
BRANCH 105 106
ATOM    106  S   UNL A   1      57.248  25.317  25.037  1.00  0.00     0.124 S 
ATOM    107  O   UNL A   1      57.766  25.761  23.747  1.00  0.00    -0.237 OA
ATOM    108  O   UNL A   1      58.057  25.669  26.200  1.00  0.00    -0.237 OA
ATOM    109  O   UNL A   1      56.685  23.970  25.058  1.00  0.00    -0.744 OA
ENDBRANCH 105 106
ENDBRANCH  73  98
ENDBRANCH  47  48
ENDBRANCH  39  42
ENDBRANCH  37  38
ENDBRANCH  36  37
ENDBRANCH   1  36
TORSDOF 20
ENDMDL
MODEL 3
REMARK VINA RESULT:     -10.0      5.300     13.981
REMARK SMILES COc1ccc(-c2ccc(/C=C3\SC(=S)N([C@H](Cc4ccccc4)C(=O)NCCCCNC(=O)c4ccc(-c5c6nc(c(-c7c(F)cc(S(=O)(=O)[O-])cc7F)c7ccc([nH]7)c(-c7c(F)cc(S(=O)(=O)[O-])cc7F)c7nc(c(-c8c(F)cc(S(=O)(=O)[O-])cc8F)c8ccc5[nH]8)C=C7)C=C6)cc4)C3=O)o2)cc1
REMARK SMILES IDX 29 1 28 2 27 3 25 4 26 5 17 7 16 8 11 9 12 10 13 11 101 12
REMARK SMILES IDX 14 13 102 14 15 15 10 16 7 17 8 18 103 19 9 20 6 21 3 22
REMARK SMILES IDX 4 23 105 24 5 25 104 26 2 27 1 28 18 29 19 30 20 31 24 32
REMARK SMILES IDX 21 33 23 34 22 35 30 36 31 37 32 38 33 39 34 41 35 42 36 43
REMARK SMILES IDX 100 44 37 45 99 46 38 47 39 48 40 49 93 50 41 51 98 52 92 53
REMARK SMILES IDX 94 54 42 55 97 56 91 57 90 58 43 60 77 61 56 62 76 63 57 64
REMARK SMILES IDX 60 65 75 66 95 67 58 68 59 69 74 71 96 72 61 73 44 74 45 75
REMARK SMILES IDX 54 76 46 77 47 78 53 79 55 80 48 81 49 82 50 83 51 84 52 85
REMARK SMILES IDX 78 86 79 87 88 88 80 89 81 90 87 91 89 92 82 93 83 94 84 95
REMARK SMILES IDX 85 96 86 97 62 98 63 99 72 100 64 101 65 102 71 103 73 104
REMARK SMILES IDX 66 105 67 106 68 107 69 108 70 109
REMARK H PARENT 27 6 32 40 94 59 60 70
REMARK Flexibility Score: inf
ROOT
ATOM      1  C   UNL A   1      50.913  28.415  34.811  1.00  0.00     0.023 C 
ENDROOT
BRANCH   1   2
ATOM      2  C   UNL A   1      50.416  27.786  33.515  1.00  0.00     0.116 C 
BRANCH   2   3
ATOM      3  N   UNL A   1      49.575  28.689  32.748  1.00  0.00    -0.354 N 
ATOM      4  C   UNL A   1      48.366  28.469  32.141  1.00  0.00     0.243 C 
ATOM      5  O   UNL A   1      47.776  29.438  31.654  1.00  0.00    -0.273 OA
ATOM      6  H   UNL A   1      49.930  29.603  32.647  1.00  0.00     0.163 HD
BRANCH   4   7
ATOM      7  C   UNL A   1      47.794  27.039  31.959  1.00  0.00     0.185 C 
BRANCH   7   8
ATOM      8  N   UNL A   1      47.503  26.605  30.556  1.00  0.00    -0.280 N 
ATOM      9  C   UNL A   1      45.015  26.158  27.977  1.00  0.00     0.068 C 
ATOM     10  C   UNL A   1      46.162  26.149  28.665  1.00  0.00     0.084 C 
ATOM     11  S   UNL A   1      47.608  25.302  28.330  1.00  0.00    -0.054 SA
ATOM     12  C   UNL A   1      46.323  26.936  29.912  1.00  0.00     0.267 C 
ATOM     13  C   UNL A   1      48.427  26.004  29.720  1.00  0.00     0.149 C 
ATOM     14  O   UNL A   1      45.498  27.775  30.247  1.00  0.00    -0.268 OA
ATOM     15  S   UNL A   1      50.085  25.930  29.833  1.00  0.00    -0.052 S 
BRANCH   9  16
ATOM     16  C   UNL A   1      44.795  25.342  26.838  1.00  0.00     0.128 A 
ATOM     17  C   UNL A   1      44.385  23.509  25.658  1.00  0.00     0.134 A 
ATOM     18  C   UNL A   1      44.558  24.520  24.742  1.00  0.00     0.051 A 
ATOM     19  O   UNL A   1      44.540  23.994  26.921  1.00  0.00    -0.457 OA
ATOM     20  C   UNL A   1      44.813  25.688  25.492  1.00  0.00     0.051 A 
BRANCH  17  21
ATOM     21  C   UNL A   1      44.080  22.095  25.541  1.00  0.00     0.017 A 
ATOM     22  C   UNL A   1      43.547  19.332  25.450  1.00  0.00     0.118 A 
ATOM     23  C   UNL A   1      44.690  19.854  24.841  1.00  0.00     0.047 A 
ATOM     24  C   UNL A   1      42.664  20.195  26.098  1.00  0.00     0.047 A 
ATOM     25  C   UNL A   1      44.949  21.227  24.872  1.00  0.00     0.016 A 
ATOM     26  C   UNL A   1      42.934  21.567  26.148  1.00  0.00     0.016 A 
BRANCH  22  27
ATOM     27  O   UNL A   1      43.423  17.972  25.374  1.00  0.00    -0.497 OA
ATOM     28  C   UNL A   1      43.050  17.307  26.574  1.00  0.00     0.278 C 
ENDBRANCH  22  27
ENDBRANCH  17  21
ENDBRANCH   9  16
ENDBRANCH   7   8
BRANCH   7  29
ATOM     29  C   UNL A   1      46.560  26.954  32.917  1.00  0.00     0.071 C 
BRANCH  29  30
ATOM     30  C   UNL A   1      46.265  25.655  33.632  1.00  0.00    -0.045 A 
ATOM     31  C   UNL A   1      44.958  25.199  33.842  1.00  0.00     0.004 A 
ATOM     32  C   UNL A   1      47.338  24.843  34.038  1.00  0.00     0.004 A 
ATOM     33  C   UNL A   1      44.731  24.000  34.521  1.00  0.00     0.000 A 
ATOM     34  C   UNL A   1      47.108  23.638  34.702  1.00  0.00     0.000 A 
ATOM     35  C   UNL A   1      45.804  23.225  34.957  1.00  0.00     0.000 A 
ENDBRANCH  29  30
ENDBRANCH   7  29
ENDBRANCH   4   7
ENDBRANCH   2   3
ENDBRANCH   1   2
BRANCH   1  36
ATOM     36  C   UNL A   1      50.276  27.836  36.075  1.00  0.00     0.023 C 
BRANCH  36  37
ATOM     37  C   UNL A   1      48.791  27.503  35.961  1.00  0.00     0.116 C 
BRANCH  37  38
ATOM     38  N   UNL A   1      48.337  26.558  36.971  1.00  0.00    -0.352 N 
ATOM     39  C   UNL A   1      47.084  26.440  37.528  1.00  0.00     0.251 C 
ATOM     40  H   UNL A   1      49.013  25.920  37.297  1.00  0.00     0.163 HD
ATOM     41  O   UNL A   1      46.890  25.667  38.461  1.00  0.00    -0.269 OA
BRANCH  39  42
ATOM     42  C   UNL A   1      45.989  27.284  37.009  1.00  0.00     0.039 A 
ATOM     43  C   UNL A   1      46.303  28.442  36.295  1.00  0.00     0.014 A 
ATOM     44  C   UNL A   1      44.658  26.892  37.177  1.00  0.00     0.014 A 
ATOM     45  C   UNL A   1      45.280  29.172  35.684  1.00  0.00     0.010 A 
ATOM     46  C   UNL A   1      43.650  27.577  36.508  1.00  0.00     0.010 A 
ATOM     47  C   UNL A   1      43.951  28.722  35.752  1.00  0.00    -0.014 A 
BRANCH  47  48
ATOM     48  C   UNL A   1      42.854  29.430  35.042  1.00  0.00     0.031 A 
ATOM     49  C   UNL A   1      42.185  30.611  35.689  1.00  0.00     0.074 A 
ATOM     50  C   UNL A   1      42.409  28.961  33.859  1.00  0.00     0.049 A 
ATOM     51  N   UNL A   1      41.146  31.296  35.286  1.00  0.00    -0.248 NA
ATOM     52  C   UNL A   1      42.740  31.064  36.976  1.00  0.00     0.031 C 
ATOM     53  C   UNL A   1      42.944  27.795  33.153  1.00  0.00     0.029 A 
ATOM     54  N   UNL A   1      41.390  29.398  33.050  1.00  0.00    -0.354 N 
ATOM     55  C   UNL A   1      40.912  32.244  36.275  1.00  0.00     0.074 A 
ATOM     56  C   UNL A   1      41.885  32.015  37.320  1.00  0.00     0.031 C 
ATOM     57  C   UNL A   1      42.261  27.620  32.011  1.00  0.00     0.029 A 
ATOM     58  C   UNL A   1      41.216  28.634  31.920  1.00  0.00     0.049 A 
ATOM     59  H   UNL A   1      40.837  30.185  33.258  1.00  0.00     0.167 HD
ATOM     60  C   UNL A   1      39.983  33.230  36.299  1.00  0.00     0.037 A 
ATOM     61  C   UNL A   1      40.307  28.731  30.929  1.00  0.00     0.037 A 
ATOM     62  C   UNL A   1      39.037  33.470  35.241  1.00  0.00     0.049 A 
ATOM     63  C   UNL A   1      39.288  29.838  30.974  1.00  0.00     0.074 A 
ATOM     64  C   UNL A   1      38.095  34.478  35.142  1.00  0.00     0.029 A 
ATOM     65  N   UNL A   1      38.914  32.695  34.098  1.00  0.00    -0.354 N 
ATOM     66  N   UNL A   1      39.118  30.764  31.889  1.00  0.00    -0.248 NA
ATOM     67  C   UNL A   1      38.342  29.920  29.852  1.00  0.00     0.031 C 
ATOM     68  C   UNL A   1      37.376  34.291  33.957  1.00  0.00     0.029 A 
ATOM     69  C   UNL A   1      37.902  33.193  33.295  1.00  0.00     0.049 A 
ATOM     70  H   UNL A   1      39.465  31.906  33.887  1.00  0.00     0.167 HD
ATOM     71  C   UNL A   1      38.067  31.555  31.438  1.00  0.00     0.074 A 
ATOM     72  C   UNL A   1      37.645  31.004  30.167  1.00  0.00     0.031 C 
ATOM     73  C   UNL A   1      37.505  32.641  32.022  1.00  0.00     0.037 A 
BRANCH  60  74
ATOM     74  C   UNL A   1      39.952  34.125  37.505  1.00  0.00     0.058 A 
ATOM     75  C   UNL A   1      39.160  33.822  38.626  1.00  0.00     0.135 A 
ATOM     76  C   UNL A   1      40.743  35.284  37.558  1.00  0.00     0.135 A 
ATOM     77  F   UNL A   1      38.372  32.736  38.624  1.00  0.00    -0.206 F 
ATOM     78  C   UNL A   1      39.130  34.653  39.741  1.00  0.00     0.059 A 
ATOM     79  C   UNL A   1      40.751  36.115  38.675  1.00  0.00     0.059 A 
ATOM     80  F   UNL A   1      41.519  35.620  36.516  1.00  0.00    -0.206 F 
ATOM     81  C   UNL A   1      39.928  35.798  39.755  1.00  0.00     0.060 A 
BRANCH  81  82
ATOM     82  S   UNL A   1      39.879  36.864  41.212  1.00  0.00     0.124 S 
ATOM     83  O   UNL A   1      38.764  37.747  40.887  1.00  0.00    -0.237 OA
ATOM     84  O   UNL A   1      39.637  35.909  42.289  1.00  0.00    -0.237 OA
ATOM     85  O   UNL A   1      41.196  37.491  41.220  1.00  0.00    -0.744 OA
ENDBRANCH  81  82
ENDBRANCH  60  74
BRANCH  61  86
ATOM     86  C   UNL A   1      40.335  27.767  29.797  1.00  0.00     0.058 A 
ATOM     87  C   UNL A   1      41.284  27.887  28.771  1.00  0.00     0.135 A 
ATOM     88  C   UNL A   1      39.425  26.700  29.723  1.00  0.00     0.135 A 
ATOM     89  F   UNL A   1      42.170  28.894  28.794  1.00  0.00    -0.206 F 
ATOM     90  C   UNL A   1      41.321  26.997  27.703  1.00  0.00     0.059 A 
ATOM     91  C   UNL A   1      39.459  25.782  28.677  1.00  0.00     0.059 A 
ATOM     92  F   UNL A   1      38.509  26.530  30.688  1.00  0.00    -0.206 F 
ATOM     93  C   UNL A   1      40.405  25.945  27.666  1.00  0.00     0.060 A 
BRANCH  93  94
ATOM     94  S   UNL A   1      40.494  24.765  26.301  1.00  0.00     0.124 S 
ATOM     95  O   UNL A   1      41.187  23.645  26.925  1.00  0.00    -0.237 OA
ATOM     96  O   UNL A   1      39.084  24.551  25.990  1.00  0.00    -0.237 OA
ATOM     97  O   UNL A   1      41.249  25.488  25.283  1.00  0.00    -0.744 OA
ENDBRANCH  93  94
ENDBRANCH  61  86
BRANCH  73  98
ATOM     98  C   UNL A   1      36.401  33.339  31.279  1.00  0.00     0.058 A 
ATOM     99  C   UNL A   1      35.068  33.287  31.714  1.00  0.00     0.135 A 
ATOM    100  C   UNL A   1      36.694  34.128  30.155  1.00  0.00     0.135 A 
ATOM    101  F   UNL A   1      34.734  32.541  32.780  1.00  0.00    -0.206 F 
ATOM    102  C   UNL A   1      34.061  33.981  31.053  1.00  0.00     0.059 A 
ATOM    103  C   UNL A   1      35.707  34.852  29.493  1.00  0.00     0.059 A 
ATOM    104  F   UNL A   1      37.955  34.219  29.703  1.00  0.00    -0.206 F 
ATOM    105  C   UNL A   1      34.391  34.764  29.945  1.00  0.00     0.060 A 
BRANCH 105 106
ATOM    106  S   UNL A   1      33.083  35.701  29.125  1.00  0.00     0.124 S 
ATOM    107  O   UNL A   1      32.439  34.665  28.323  1.00  0.00    -0.237 OA
ATOM    108  O   UNL A   1      32.306  36.205  30.252  1.00  0.00    -0.237 OA
ATOM    109  O   UNL A   1      33.813  36.716  28.371  1.00  0.00    -0.744 OA
ENDBRANCH 105 106
ENDBRANCH  73  98
ENDBRANCH  47  48
ENDBRANCH  39  42
ENDBRANCH  37  38
ENDBRANCH  36  37
ENDBRANCH   1  36
TORSDOF 20
ENDMDL
