MODEL 1
REMARK VINA RESULT:     -11.6      0.000      0.000
REMARK SMILES COCc1cccc(C(=O)N2C[C@@H](O)C[C@@H]2C(=O)NCCCCNC(=O)c2ccc(-c3c4nc(c(-c5c(F)cc(S(=O)(=O)[O-])cc5F)c5ccc([nH]5)c(-c5c(F)cc(S(=O)(=O)[O-])cc5F)c5nc(c(-c6c(F)cc(S(=O)(=O)[O-])cc6F)c6ccc3[nH]6)C=C5)C=C4)cc2)c1
REMARK SMILES IDX 21 1 20 2 19 3 17 4 18 5 16 7 11 8 12 9 13 10 15 11 9 12
REMARK SMILES IDX 10 13 8 14 4 15 5 16 93 17 6 18 7 19 3 20 2 21 1 22 14 23
REMARK SMILES IDX 22 25 23 26 24 27 25 28 26 30 27 31 28 32 92 33 29 34 91 35
REMARK SMILES IDX 30 36 31 37 32 38 85 39 33 40 90 41 84 42 86 43 34 44 89 45
REMARK SMILES IDX 83 46 82 47 35 49 69 50 48 51 68 52 49 53 52 54 67 55 87 56
REMARK SMILES IDX 50 57 51 58 66 60 88 61 53 62 36 63 37 64 46 65 38 66 39 67
REMARK SMILES IDX 45 68 47 69 40 70 41 71 42 72 43 73 44 74 70 75 71 76 80 77
REMARK SMILES IDX 72 78 73 79 79 80 81 81 74 82 75 83 76 84 77 85 78 86 54 87
REMARK SMILES IDX 55 88 64 89 56 90 57 91 63 92 65 93 58 94 59 95 60 96 61 97
REMARK SMILES IDX 62 98
REMARK H PARENT 19 6 14 24 24 29 86 48 52 59
REMARK Flexibility Score: inf
ROOT
ATOM      1  C   UNL A   1      31.354  27.087  26.718  1.00  0.00     0.023 C 
ENDROOT
BRANCH   1   2
ATOM      2  C   UNL A   1      31.337  25.743  25.996  1.00  0.00     0.116 C 
BRANCH   2   3
ATOM      3  N   UNL A   1      31.374  24.589  26.868  1.00  0.00    -0.354 N 
ATOM      4  C   UNL A   1      32.328  23.614  26.950  1.00  0.00     0.242 C 
ATOM      5  O   UNL A   1      32.375  22.977  28.005  1.00  0.00    -0.273 OA
ATOM      6  H   UNL A   1      30.611  24.493  27.482  1.00  0.00     0.163 HD
BRANCH   4   7
ATOM      7  C   UNL A   1      33.262  23.318  25.745  1.00  0.00     0.177 C 
ATOM      8  N   UNL A   1      33.316  21.871  25.486  1.00  0.00    -0.324 N 
ATOM      9  C   UNL A   1      34.670  21.353  25.572  1.00  0.00     0.152 C 
ATOM     10  C   UNL A   1      35.380  22.370  26.448  1.00  0.00     0.136 C 
ATOM     11  C   UNL A   1      34.728  23.684  26.020  1.00  0.00     0.069 C 
BRANCH   8  12
ATOM     12  C   UNL A   1      32.195  21.160  25.104  1.00  0.00     0.254 C 
ATOM     13  O   UNL A   1      31.072  21.429  25.515  1.00  0.00    -0.269 OA
BRANCH  12  14
ATOM     14  C   UNL A   1      32.420  19.947  24.258  1.00  0.00     0.040 A 
ATOM     15  C   UNL A   1      32.921  17.554  24.098  1.00  0.00    -0.022 A 
ATOM     16  C   UNL A   1      32.743  17.633  22.713  1.00  0.00     0.006 A 
ATOM     17  C   UNL A   1      32.736  18.716  24.857  1.00  0.00     0.020 A 
ATOM     18  C   UNL A   1      32.367  18.840  22.111  1.00  0.00     0.001 A 
ATOM     19  C   UNL A   1      32.205  19.997  22.881  1.00  0.00     0.014 A 
BRANCH  15  20
ATOM     20  C   UNL A   1      33.365  16.294  24.807  1.00  0.00     0.195 C 
BRANCH  20  21
ATOM     21  O   UNL A   1      34.633  15.807  24.371  1.00  0.00    -0.380 OA
ATOM     22  C   UNL A   1      35.589  15.779  25.425  1.00  0.00     0.195 C 
ENDBRANCH  20  21
ENDBRANCH  15  20
ENDBRANCH  12  14
ENDBRANCH   8  12
BRANCH  10  23
ATOM     23  O   UNL A   1      36.783  22.398  26.259  1.00  0.00    -0.391 OA
ATOM     24  H   UNL A   1      37.016  23.144  25.682  1.00  0.00     0.211 HD
ENDBRANCH  10  23
ENDBRANCH   4   7
ENDBRANCH   2   3
ENDBRANCH   1   2
BRANCH   1  25
ATOM     25  C   UNL A   1      32.367  28.121  26.220  1.00  0.00     0.023 C 
BRANCH  25  26
ATOM     26  C   UNL A   1      33.482  28.507  27.186  1.00  0.00     0.116 C 
BRANCH  26  27
ATOM     27  N   UNL A   1      33.471  29.913  27.554  1.00  0.00    -0.352 N 
ATOM     28  C   UNL A   1      34.452  30.686  28.132  1.00  0.00     0.251 C 
ATOM     29  H   UNL A   1      32.630  30.386  27.361  1.00  0.00     0.163 HD
ATOM     30  O   UNL A   1      34.191  31.840  28.464  1.00  0.00    -0.269 OA
BRANCH  28  31
ATOM     31  C   UNL A   1      35.799  30.130  28.391  1.00  0.00     0.039 A 
ATOM     32  C   UNL A   1      36.746  30.153  27.363  1.00  0.00     0.014 A 
ATOM     33  C   UNL A   1      36.139  29.589  29.634  1.00  0.00     0.014 A 
ATOM     34  C   UNL A   1      38.054  29.722  27.607  1.00  0.00     0.010 A 
ATOM     35  C   UNL A   1      37.460  29.234  29.899  1.00  0.00     0.010 A 
ATOM     36  C   UNL A   1      38.436  29.305  28.893  1.00  0.00    -0.014 A 
BRANCH  36  37
ATOM     37  C   UNL A   1      39.847  28.961  29.212  1.00  0.00     0.031 A 
ATOM     38  C   UNL A   1      40.749  29.975  29.861  1.00  0.00     0.074 A 
ATOM     39  C   UNL A   1      40.342  27.762  28.845  1.00  0.00     0.049 A 
ATOM     40  N   UNL A   1      42.030  29.900  30.116  1.00  0.00    -0.248 NA
ATOM     41  C   UNL A   1      40.134  31.255  30.248  1.00  0.00     0.031 C 
ATOM     42  C   UNL A   1      39.588  26.705  28.168  1.00  0.00     0.029 A 
ATOM     43  N   UNL A   1      41.604  27.235  28.973  1.00  0.00    -0.354 N 
ATOM     44  C   UNL A   1      42.381  31.127  30.668  1.00  0.00     0.074 A 
ATOM     45  C   UNL A   1      41.184  31.942  30.670  1.00  0.00     0.031 C 
ATOM     46  C   UNL A   1      40.393  25.650  27.962  1.00  0.00     0.029 A 
ATOM     47  C   UNL A   1      41.730  25.968  28.455  1.00  0.00     0.049 A 
ATOM     48  H   UNL A   1      42.349  27.720  29.397  1.00  0.00     0.167 HD
ATOM     49  C   UNL A   1      43.581  31.532  31.149  1.00  0.00     0.037 A 
ATOM     50  C   UNL A   1      42.801  25.155  28.376  1.00  0.00     0.037 A 
ATOM     51  C   UNL A   1      44.762  30.709  31.174  1.00  0.00     0.049 A 
ATOM     52  C   UNL A   1      44.121  25.618  28.926  1.00  0.00     0.074 A 
ATOM     53  C   UNL A   1      46.010  31.008  31.689  1.00  0.00     0.029 A 
ATOM     54  N   UNL A   1      44.840  29.420  30.666  1.00  0.00    -0.354 N 
ATOM     55  N   UNL A   1      44.423  26.765  29.486  1.00  0.00    -0.248 NA
ATOM     56  C   UNL A   1      45.248  24.678  28.836  1.00  0.00     0.031 C 
ATOM     57  C   UNL A   1      46.852  29.912  31.466  1.00  0.00     0.029 A 
ATOM     58  C   UNL A   1      46.117  28.915  30.845  1.00  0.00     0.049 A 
ATOM     59  H   UNL A   1      44.096  28.935  30.239  1.00  0.00     0.167 HD
ATOM     60  C   UNL A   1      45.764  26.675  29.838  1.00  0.00     0.074 A 
ATOM     61  C   UNL A   1      46.215  25.359  29.434  1.00  0.00     0.031 C 
ATOM     62  C   UNL A   1      46.550  27.599  30.444  1.00  0.00     0.037 A 
BRANCH  49  63
ATOM     63  C   UNL A   1      43.670  32.933  31.688  1.00  0.00     0.058 A 
ATOM     64  C   UNL A   1      43.431  33.215  33.043  1.00  0.00     0.135 A 
ATOM     65  C   UNL A   1      43.998  34.005  30.845  1.00  0.00     0.135 A 
ATOM     66  F   UNL A   1      43.102  32.228  33.891  1.00  0.00    -0.206 F 
ATOM     67  C   UNL A   1      43.471  34.516  33.533  1.00  0.00     0.059 A 
ATOM     68  C   UNL A   1      44.069  35.313  31.319  1.00  0.00     0.059 A 
ATOM     69  F   UNL A   1      44.239  33.793  29.541  1.00  0.00    -0.206 F 
ATOM     70  C   UNL A   1      43.782  35.559  32.661  1.00  0.00     0.060 A 
BRANCH  70  71
ATOM     71  S   UNL A   1      43.802  37.247  33.302  1.00  0.00     0.124 S 
ATOM     72  O   UNL A   1      45.070  37.266  34.025  1.00  0.00    -0.237 OA
ATOM     73  O   UNL A   1      43.759  38.048  32.082  1.00  0.00    -0.237 OA
ATOM     74  O   UNL A   1      42.604  37.309  34.131  1.00  0.00    -0.744 OA
ENDBRANCH  70  71
ENDBRANCH  49  63
BRANCH  50  75
ATOM     75  C   UNL A   1      42.658  23.799  27.782  1.00  0.00     0.058 A 
ATOM     76  C   UNL A   1      42.703  23.620  26.392  1.00  0.00     0.135 A 
ATOM     77  C   UNL A   1      42.506  22.660  28.586  1.00  0.00     0.135 A 
ATOM     78  F   UNL A   1      42.840  24.681  25.583  1.00  0.00    -0.206 F 
ATOM     79  C   UNL A   1      42.597  22.358  25.817  1.00  0.00     0.059 A 
ATOM     80  C   UNL A   1      42.418  21.385  28.036  1.00  0.00     0.059 A 
ATOM     81  F   UNL A   1      42.472  22.779  29.923  1.00  0.00    -0.206 F 
ATOM     82  C   UNL A   1      42.458  21.245  26.648  1.00  0.00     0.060 A 
BRANCH  82  83
ATOM     83  S   UNL A   1      42.390  19.604  25.895  1.00  0.00     0.124 S 
ATOM     84  O   UNL A   1      43.396  19.720  24.847  1.00  0.00    -0.237 OA
ATOM     85  O   UNL A   1      42.734  18.737  27.018  1.00  0.00    -0.237 OA
ATOM     86  O   UNL A   1      41.007  19.504  25.439  1.00  0.00    -0.744 OA
ENDBRANCH  82  83
ENDBRANCH  50  75
BRANCH  62  87
ATOM     87  C   UNL A   1      47.970  27.210  30.740  1.00  0.00     0.058 A 
ATOM     88  C   UNL A   1      48.341  26.655  31.974  1.00  0.00     0.135 A 
ATOM     89  C   UNL A   1      48.963  27.349  29.756  1.00  0.00     0.135 A 
ATOM     90  F   UNL A   1      47.430  26.510  32.949  1.00  0.00    -0.206 F 
ATOM     91  C   UNL A   1      49.651  26.265  32.230  1.00  0.00     0.059 A 
ATOM     92  C   UNL A   1      50.275  26.944  29.983  1.00  0.00     0.059 A 
ATOM     93  F   UNL A   1      48.659  27.867  28.556  1.00  0.00    -0.206 F 
ATOM     94  C   UNL A   1      50.612  26.414  31.227  1.00  0.00     0.060 A 
BRANCH  94  95
ATOM     95  S   UNL A   1      52.302  25.868  31.556  1.00  0.00     0.124 S 
ATOM     96  O   UNL A   1      52.679  26.734  32.668  1.00  0.00    -0.237 OA
ATOM     97  O   UNL A   1      52.119  24.458  31.885  1.00  0.00    -0.237 OA
ATOM     98  O   UNL A   1      52.992  26.126  30.296  1.00  0.00    -0.744 OA
ENDBRANCH  94  95
ENDBRANCH  62  87
ENDBRANCH  36  37
ENDBRANCH  28  31
ENDBRANCH  26  27
ENDBRANCH  25  26
ENDBRANCH   1  25
TORSDOF 19
ENDMDL
MODEL 2
REMARK VINA RESULT:     -11.5      4.560     10.119
REMARK SMILES COCc1cccc(C(=O)N2C[C@@H](O)C[C@@H]2C(=O)NCCCCNC(=O)c2ccc(-c3c4nc(c(-c5c(F)cc(S(=O)(=O)[O-])cc5F)c5ccc([nH]5)c(-c5c(F)cc(S(=O)(=O)[O-])cc5F)c5nc(c(-c6c(F)cc(S(=O)(=O)[O-])cc6F)c6ccc3[nH]6)C=C5)C=C4)cc2)c1
REMARK SMILES IDX 21 1 20 2 19 3 17 4 18 5 16 7 11 8 12 9 13 10 15 11 9 12
REMARK SMILES IDX 10 13 8 14 4 15 5 16 93 17 6 18 7 19 3 20 2 21 1 22 14 23
REMARK SMILES IDX 22 25 23 26 24 27 25 28 26 30 27 31 28 32 92 33 29 34 91 35
REMARK SMILES IDX 30 36 31 37 32 38 85 39 33 40 90 41 84 42 86 43 34 44 89 45
REMARK SMILES IDX 83 46 82 47 35 49 69 50 48 51 68 52 49 53 52 54 67 55 87 56
REMARK SMILES IDX 50 57 51 58 66 60 88 61 53 62 36 63 37 64 46 65 38 66 39 67
REMARK SMILES IDX 45 68 47 69 40 70 41 71 42 72 43 73 44 74 70 75 71 76 80 77
REMARK SMILES IDX 72 78 73 79 79 80 81 81 74 82 75 83 76 84 77 85 78 86 54 87
REMARK SMILES IDX 55 88 64 89 56 90 57 91 63 92 65 93 58 94 59 95 60 96 61 97
REMARK SMILES IDX 62 98
REMARK H PARENT 19 6 14 24 24 29 86 48 52 59
REMARK Flexibility Score: inf
ROOT
ATOM      1  C   UNL A   1      37.295  22.277  24.851  1.00  0.00     0.023 C 
ENDROOT
BRANCH   1   2
ATOM      2  C   UNL A   1      36.513  23.452  24.274  1.00  0.00     0.116 C 
BRANCH   2   3
ATOM      3  N   UNL A   1      35.582  23.100  23.224  1.00  0.00    -0.354 N 
ATOM      4  C   UNL A   1      34.249  23.387  23.137  1.00  0.00     0.242 C 
ATOM      5  O   UNL A   1      33.753  23.360  22.008  1.00  0.00    -0.273 OA
ATOM      6  H   UNL A   1      35.958  22.586  22.474  1.00  0.00     0.163 HD
BRANCH   4   7
ATOM      7  C   UNL A   1      33.418  23.685  24.414  1.00  0.00     0.177 C 
ATOM      8  N   UNL A   1      32.650  22.496  24.812  1.00  0.00    -0.324 N 
ATOM      9  C   UNL A   1      31.222  22.759  24.852  1.00  0.00     0.152 C 
ATOM     10  C   UNL A   1      31.059  23.950  23.924  1.00  0.00     0.136 C 
ATOM     11  C   UNL A   1      32.335  24.750  24.188  1.00  0.00     0.069 C 
BRANCH   8  12
ATOM     12  C   UNL A   1      33.273  21.324  25.196  1.00  0.00     0.254 C 
ATOM     13  O   UNL A   1      34.019  21.261  26.166  1.00  0.00    -0.269 OA
BRANCH  12  14
ATOM     14  C   UNL A   1      33.103  20.142  24.295  1.00  0.00     0.040 A 
ATOM     15  C   UNL A   1      33.421  17.749  23.877  1.00  0.00    -0.022 A 
ATOM     16  C   UNL A   1      32.709  17.886  22.682  1.00  0.00     0.006 A 
ATOM     17  C   UNL A   1      33.591  18.883  24.681  1.00  0.00     0.020 A 
ATOM     18  C   UNL A   1      32.163  19.123  22.316  1.00  0.00     0.001 A 
ATOM     19  C   UNL A   1      32.359  20.251  23.120  1.00  0.00     0.014 A 
BRANCH  15  20
ATOM     20  C   UNL A   1      34.070  16.454  24.313  1.00  0.00     0.195 C 
BRANCH  20  21
ATOM     21  O   UNL A   1      33.706  16.044  25.630  1.00  0.00    -0.380 OA
ATOM     22  C   UNL A   1      32.519  15.261  25.641  1.00  0.00     0.195 C 
ENDBRANCH  20  21
ENDBRANCH  15  20
ENDBRANCH  12  14
ENDBRANCH   8  12
BRANCH  10  23
ATOM     23  O   UNL A   1      29.899  24.718  24.189  1.00  0.00    -0.391 OA
ATOM     24  H   UNL A   1      29.239  24.163  24.634  1.00  0.00     0.211 HD
ENDBRANCH  10  23
ENDBRANCH   4   7
ENDBRANCH   2   3
ENDBRANCH   1   2
BRANCH   1  25
ATOM     25  C   UNL A   1      38.013  22.518  26.182  1.00  0.00     0.023 C 
BRANCH  25  26
ATOM     26  C   UNL A   1      38.753  23.843  26.330  1.00  0.00     0.116 C 
BRANCH  26  27
ATOM     27  N   UNL A   1      40.178  23.745  26.061  1.00  0.00    -0.352 N 
ATOM     28  C   UNL A   1      41.218  24.540  26.489  1.00  0.00     0.251 C 
ATOM     29  H   UNL A   1      40.441  22.993  25.483  1.00  0.00     0.163 HD
ATOM     30  O   UNL A   1      42.347  24.342  26.047  1.00  0.00    -0.269 OA
BRANCH  28  31
ATOM     31  C   UNL A   1      40.981  25.651  27.438  1.00  0.00     0.039 A 
ATOM     32  C   UNL A   1      39.973  25.511  28.398  1.00  0.00     0.014 A 
ATOM     33  C   UNL A   1      41.739  26.823  27.395  1.00  0.00     0.014 A 
ATOM     34  C   UNL A   1      39.790  26.502  29.368  1.00  0.00     0.010 A 
ATOM     35  C   UNL A   1      41.609  27.773  28.407  1.00  0.00     0.010 A 
ATOM     36  C   UNL A   1      40.640  27.620  29.411  1.00  0.00    -0.014 A 
BRANCH  36  37
ATOM     37  C   UNL A   1      40.549  28.626  30.503  1.00  0.00     0.031 A 
ATOM     38  C   UNL A   1      41.435  28.515  31.713  1.00  0.00     0.074 A 
ATOM     39  C   UNL A   1      39.612  29.593  30.444  1.00  0.00     0.049 A 
ATOM     40  N   UNL A   1      41.428  29.226  32.812  1.00  0.00    -0.248 NA
ATOM     41  C   UNL A   1      42.444  27.443  31.699  1.00  0.00     0.031 C 
ATOM     42  C   UNL A   1      38.660  29.785  29.348  1.00  0.00     0.029 A 
ATOM     43  N   UNL A   1      39.294  30.589  31.335  1.00  0.00    -0.354 N 
ATOM     44  C   UNL A   1      42.409  28.675  33.628  1.00  0.00     0.074 A 
ATOM     45  C   UNL A   1      42.961  27.543  32.914  1.00  0.00     0.031 C 
ATOM     46  C   UNL A   1      37.882  30.845  29.620  1.00  0.00     0.029 A 
ATOM     47  C   UNL A   1      38.251  31.385  30.925  1.00  0.00     0.049 A 
ATOM     48  H   UNL A   1      39.769  30.720  32.187  1.00  0.00     0.167 HD
ATOM     49  C   UNL A   1      42.828  29.085  34.850  1.00  0.00     0.037 A 
ATOM     50  C   UNL A   1      37.652  32.427  31.533  1.00  0.00     0.037 A 
ATOM     51  C   UNL A   1      42.300  30.229  35.545  1.00  0.00     0.049 A 
ATOM     52  C   UNL A   1      38.140  32.874  32.884  1.00  0.00     0.074 A 
ATOM     53  C   UNL A   1      42.694  30.758  36.761  1.00  0.00     0.029 A 
ATOM     54  N   UNL A   1      41.263  31.028  35.082  1.00  0.00    -0.354 N 
ATOM     55  N   UNL A   1      39.100  32.368  33.620  1.00  0.00    -0.248 NA
ATOM     56  C   UNL A   1      37.466  34.033  33.486  1.00  0.00     0.031 C 
ATOM     57  C   UNL A   1      41.877  31.858  37.048  1.00  0.00     0.029 A 
ATOM     58  C   UNL A   1      40.997  32.037  35.993  1.00  0.00     0.049 A 
ATOM     59  H   UNL A   1      40.785  30.896  34.231  1.00  0.00     0.167 HD
ATOM     60  C   UNL A   1      39.163  33.162  34.759  1.00  0.00     0.074 A 
ATOM     61  C   UNL A   1      38.147  34.186  34.612  1.00  0.00     0.031 C 
ATOM     62  C   UNL A   1      39.988  33.054  35.829  1.00  0.00     0.037 A 
BRANCH  49  63
ATOM     63  C   UNL A   1      43.916  28.284  35.510  1.00  0.00     0.058 A 
ATOM     64  C   UNL A   1      45.273  28.588  35.314  1.00  0.00     0.135 A 
ATOM     65  C   UNL A   1      43.602  27.201  36.346  1.00  0.00     0.135 A 
ATOM     66  F   UNL A   1      45.630  29.605  34.513  1.00  0.00    -0.206 F 
ATOM     67  C   UNL A   1      46.281  27.820  35.889  1.00  0.00     0.059 A 
ATOM     68  C   UNL A   1      44.594  26.435  36.953  1.00  0.00     0.059 A 
ATOM     69  F   UNL A   1      42.321  26.868  36.570  1.00  0.00    -0.206 F 
ATOM     70  C   UNL A   1      45.930  26.740  36.700  1.00  0.00     0.060 A 
BRANCH  70  71
ATOM     71  S   UNL A   1      47.246  25.733  37.417  1.00  0.00     0.124 S 
ATOM     72  O   UNL A   1      46.630  24.410  37.418  1.00  0.00    -0.237 OA
ATOM     73  O   UNL A   1      48.340  25.921  36.468  1.00  0.00    -0.237 OA
ATOM     74  O   UNL A   1      47.453  26.332  38.732  1.00  0.00    -0.744 OA
ENDBRANCH  70  71
ENDBRANCH  49  63
BRANCH  50  75
ATOM     75  C   UNL A   1      36.544  33.145  30.848  1.00  0.00     0.058 A 
ATOM     76  C   UNL A   1      35.219  32.992  31.280  1.00  0.00     0.135 A 
ATOM     77  C   UNL A   1      36.789  34.018  29.778  1.00  0.00     0.135 A 
ATOM     78  F   UNL A   1      34.937  32.163  32.296  1.00  0.00    -0.206 F 
ATOM     79  C   UNL A   1      34.172  33.673  30.670  1.00  0.00     0.059 A 
ATOM     80  C   UNL A   1      35.761  34.727  29.164  1.00  0.00     0.059 A 
ATOM     81  F   UNL A   1      38.043  34.210  29.338  1.00  0.00    -0.206 F 
ATOM     82  C   UNL A   1      34.453  34.542  29.615  1.00  0.00     0.060 A 
BRANCH  82  83
ATOM     83  S   UNL A   1      33.094  35.475  28.874  1.00  0.00     0.124 S 
ATOM     84  O   UNL A   1      32.426  34.446  28.087  1.00  0.00    -0.237 OA
ATOM     85  O   UNL A   1      32.370  35.949  30.050  1.00  0.00    -0.237 OA
ATOM     86  O   UNL A   1      33.779  36.513  28.111  1.00  0.00    -0.744 OA
ENDBRANCH  82  83
ENDBRANCH  50  75
BRANCH  62  87
ATOM     87  C   UNL A   1      39.855  34.087  36.912  1.00  0.00     0.058 A 
ATOM     88  C   UNL A   1      40.530  35.315  36.846  1.00  0.00     0.135 A 
ATOM     89  C   UNL A   1      38.999  33.864  38.004  1.00  0.00     0.135 A 
ATOM     90  F   UNL A   1      41.365  35.572  35.827  1.00  0.00    -0.206 F 
ATOM     91  C   UNL A   1      40.377  36.281  37.834  1.00  0.00     0.059 A 
ATOM     92  C   UNL A   1      38.813  34.826  38.991  1.00  0.00     0.059 A 
ATOM     93  F   UNL A   1      38.324  32.709  38.108  1.00  0.00    -0.206 F 
ATOM     94  C   UNL A   1      39.515  36.028  38.904  1.00  0.00     0.060 A 
BRANCH  94  95
ATOM     95  S   UNL A   1      39.292  37.305  40.161  1.00  0.00     0.124 S 
ATOM     96  O   UNL A   1      38.464  38.274  39.450  1.00  0.00    -0.237 OA
ATOM     97  O   UNL A   1      38.629  36.575  41.238  1.00  0.00    -0.237 OA
ATOM     98  O   UNL A   1      40.656  37.735  40.452  1.00  0.00    -0.744 OA
ENDBRANCH  94  95
ENDBRANCH  62  87
ENDBRANCH  36  37
ENDBRANCH  28  31
ENDBRANCH  26  27
ENDBRANCH  25  26
ENDBRANCH   1  25
TORSDOF 19
ENDMDL
MODEL 3
REMARK VINA RESULT:     -11.4      3.403      4.529
REMARK SMILES COCc1cccc(C(=O)N2C[C@@H](O)C[C@@H]2C(=O)NCCCCNC(=O)c2ccc(-c3c4nc(c(-c5c(F)cc(S(=O)(=O)[O-])cc5F)c5ccc([nH]5)c(-c5c(F)cc(S(=O)(=O)[O-])cc5F)c5nc(c(-c6c(F)cc(S(=O)(=O)[O-])cc6F)c6ccc3[nH]6)C=C5)C=C4)cc2)c1
REMARK SMILES IDX 21 1 20 2 19 3 17 4 18 5 16 7 11 8 12 9 13 10 15 11 9 12
REMARK SMILES IDX 10 13 8 14 4 15 5 16 93 17 6 18 7 19 3 20 2 21 1 22 14 23
REMARK SMILES IDX 22 25 23 26 24 27 25 28 26 30 27 31 28 32 92 33 29 34 91 35
REMARK SMILES IDX 30 36 31 37 32 38 85 39 33 40 90 41 84 42 86 43 34 44 89 45
REMARK SMILES IDX 83 46 82 47 35 49 69 50 48 51 68 52 49 53 52 54 67 55 87 56
REMARK SMILES IDX 50 57 51 58 66 60 88 61 53 62 36 63 37 64 46 65 38 66 39 67
REMARK SMILES IDX 45 68 47 69 40 70 41 71 42 72 43 73 44 74 70 75 71 76 80 77
REMARK SMILES IDX 72 78 73 79 79 80 81 81 74 82 75 83 76 84 77 85 78 86 54 87
REMARK SMILES IDX 55 88 64 89 56 90 57 91 63 92 65 93 58 94 59 95 60 96 61 97
REMARK SMILES IDX 62 98
REMARK H PARENT 19 6 14 24 24 29 86 48 52 59
REMARK Flexibility Score: inf
ROOT
ATOM      1  C   UNL A   1      32.946  29.243  27.146  1.00  0.00     0.023 C 
ENDROOT
BRANCH   1   2
ATOM      2  C   UNL A   1      31.981  28.081  27.354  1.00  0.00     0.116 C 
BRANCH   2   3
ATOM      3  N   UNL A   1      31.289  27.649  26.159  1.00  0.00    -0.354 N 
ATOM      4  C   UNL A   1      30.946  26.381  25.785  1.00  0.00     0.242 C 
ATOM      5  O   UNL A   1      30.028  26.277  24.968  1.00  0.00    -0.273 OA
ATOM      6  H   UNL A   1      31.031  28.363  25.533  1.00  0.00     0.163 HD
BRANCH   4   7
ATOM      7  C   UNL A   1      31.718  25.154  26.343  1.00  0.00     0.177 C 
ATOM      8  N   UNL A   1      32.443  24.473  25.261  1.00  0.00    -0.324 N 
ATOM      9  C   UNL A   1      32.039  23.084  25.126  1.00  0.00     0.152 C 
ATOM     10  C   UNL A   1      30.654  23.060  25.746  1.00  0.00     0.136 C 
ATOM     11  C   UNL A   1      30.789  24.062  26.892  1.00  0.00     0.069 C 
BRANCH   8  12
ATOM     12  C   UNL A   1      33.456  25.098  24.558  1.00  0.00     0.254 C 
ATOM     13  O   UNL A   1      33.294  26.165  23.978  1.00  0.00    -0.269 OA
BRANCH  12  14
ATOM     14  C   UNL A   1      34.744  24.351  24.421  1.00  0.00     0.040 A 
ATOM     15  C   UNL A   1      36.829  23.544  25.425  1.00  0.00    -0.022 A 
ATOM     16  C   UNL A   1      37.115  22.870  24.234  1.00  0.00     0.006 A 
ATOM     17  C   UNL A   1      35.629  24.263  25.508  1.00  0.00     0.020 A 
ATOM     18  C   UNL A   1      36.211  22.899  23.164  1.00  0.00     0.001 A 
ATOM     19  C   UNL A   1      35.027  23.638  23.256  1.00  0.00     0.014 A 
BRANCH  15  20
ATOM     20  C   UNL A   1      37.777  23.588  26.602  1.00  0.00     0.195 C 
BRANCH  20  21
ATOM     21  O   UNL A   1      39.149  23.450  26.239  1.00  0.00    -0.380 OA
ATOM     22  C   UNL A   1      39.702  22.217  26.683  1.00  0.00     0.195 C 
ENDBRANCH  20  21
ENDBRANCH  15  20
ENDBRANCH  12  14
ENDBRANCH   8  12
BRANCH  10  23
ATOM     23  O   UNL A   1      30.266  21.781  26.215  1.00  0.00    -0.391 OA
ATOM     24  H   UNL A   1      30.335  21.757  27.183  1.00  0.00     0.211 HD
ENDBRANCH  10  23
ENDBRANCH   4   7
ENDBRANCH   2   3
ENDBRANCH   1   2
BRANCH   1  25
ATOM     25  C   UNL A   1      34.380  28.882  26.749  1.00  0.00     0.023 C 
BRANCH  25  26
ATOM     26  C   UNL A   1      35.495  29.696  27.397  1.00  0.00     0.116 C 
BRANCH  26  27
ATOM     27  N   UNL A   1      35.354  29.829  28.838  1.00  0.00    -0.352 N 
ATOM     28  C   UNL A   1      36.301  29.741  29.834  1.00  0.00     0.251 C 
ATOM     29  H   UNL A   1      34.438  30.009  29.151  1.00  0.00     0.163 HD
ATOM     30  O   UNL A   1      35.943  29.774  31.008  1.00  0.00    -0.269 OA
BRANCH  28  31
ATOM     31  C   UNL A   1      37.734  29.567  29.502  1.00  0.00     0.039 A 
ATOM     32  C   UNL A   1      38.634  29.290  30.535  1.00  0.00     0.014 A 
ATOM     33  C   UNL A   1      38.197  29.673  28.188  1.00  0.00     0.014 A 
ATOM     34  C   UNL A   1      39.976  29.026  30.241  1.00  0.00     0.010 A 
ATOM     35  C   UNL A   1      39.515  29.334  27.887  1.00  0.00     0.010 A 
ATOM     36  C   UNL A   1      40.417  28.997  28.907  1.00  0.00    -0.014 A 
BRANCH  36  37
ATOM     37  C   UNL A   1      41.807  28.599  28.556  1.00  0.00     0.031 A 
ATOM     38  C   UNL A   1      42.905  29.627  28.518  1.00  0.00     0.074 A 
ATOM     39  C   UNL A   1      42.066  27.327  28.191  1.00  0.00     0.049 A 
ATOM     40  N   UNL A   1      44.148  29.496  28.131  1.00  0.00    -0.248 NA
ATOM     41  C   UNL A   1      42.550  30.990  28.943  1.00  0.00     0.031 C 
ATOM     42  C   UNL A   1      41.083  26.243  28.142  1.00  0.00     0.029 A 
ATOM     43  N   UNL A   1      43.233  26.733  27.777  1.00  0.00    -0.354 N 
ATOM     44  C   UNL A   1      44.717  30.759  28.241  1.00  0.00     0.074 A 
ATOM     45  C   UNL A   1      43.669  31.652  28.691  1.00  0.00     0.031 C 
ATOM     46  C   UNL A   1      41.691  25.114  27.744  1.00  0.00     0.029 A 
ATOM     47  C   UNL A   1      43.097  25.400  27.472  1.00  0.00     0.049 A 
ATOM     48  H   UNL A   1      44.087  27.218  27.706  1.00  0.00     0.167 HD
ATOM     49  C   UNL A   1      45.997  31.139  28.011  1.00  0.00     0.037 A 
ATOM     50  C   UNL A   1      43.998  24.508  27.017  1.00  0.00     0.037 A 
ATOM     51  C   UNL A   1      47.044  30.244  27.595  1.00  0.00     0.049 A 
ATOM     52  C   UNL A   1      45.416  24.947  26.779  1.00  0.00     0.074 A 
ATOM     53  C   UNL A   1      48.384  30.522  27.388  1.00  0.00     0.029 A 
ATOM     54  N   UNL A   1      46.871  28.894  27.325  1.00  0.00    -0.354 N 
ATOM     55  N   UNL A   1      45.946  26.137  26.933  1.00  0.00    -0.248 NA
ATOM     56  C   UNL A   1      46.360  23.924  26.308  1.00  0.00     0.031 C 
ATOM     57  C   UNL A   1      49.015  29.346  26.964  1.00  0.00     0.029 A 
ATOM     58  C   UNL A   1      48.076  28.328  26.943  1.00  0.00     0.049 A 
ATOM     59  H   UNL A   1      46.017  28.409  27.394  1.00  0.00     0.167 HD
ATOM     60  C   UNL A   1      47.289  26.000  26.603  1.00  0.00     0.074 A 
ATOM     61  C   UNL A   1      47.493  24.610  26.247  1.00  0.00     0.031 C 
ATOM     62  C   UNL A   1      48.265  26.940  26.599  1.00  0.00     0.037 A 
BRANCH  49  63
ATOM     63  C   UNL A   1      46.330  32.592  28.209  1.00  0.00     0.058 A 
ATOM     64  C   UNL A   1      46.208  33.522  27.163  1.00  0.00     0.135 A 
ATOM     65  C   UNL A   1      46.776  33.062  29.453  1.00  0.00     0.135 A 
ATOM     66  F   UNL A   1      45.798  33.124  25.948  1.00  0.00    -0.206 F 
ATOM     67  C   UNL A   1      46.557  34.858  27.333  1.00  0.00     0.059 A 
ATOM     68  C   UNL A   1      47.106  34.400  29.654  1.00  0.00     0.059 A 
ATOM     69  F   UNL A   1      46.908  32.217  30.488  1.00  0.00    -0.206 F 
ATOM     70  C   UNL A   1      47.014  35.285  28.580  1.00  0.00     0.060 A 
BRANCH  70  71
ATOM     71  S   UNL A   1      47.492  37.014  28.782  1.00  0.00     0.124 S 
ATOM     72  O   UNL A   1      46.278  37.702  28.352  1.00  0.00    -0.237 OA
ATOM     73  O   UNL A   1      47.792  37.094  30.209  1.00  0.00    -0.237 OA
ATOM     74  O   UNL A   1      48.642  37.154  27.895  1.00  0.00    -0.744 OA
ENDBRANCH  70  71
ENDBRANCH  49  63
BRANCH  50  75
ATOM     75  C   UNL A   1      43.590  23.096  26.791  1.00  0.00     0.058 A 
ATOM     76  C   UNL A   1      43.490  22.580  25.491  1.00  0.00     0.135 A 
ATOM     77  C   UNL A   1      43.326  22.230  27.862  1.00  0.00     0.135 A 
ATOM     78  F   UNL A   1      43.727  23.373  24.435  1.00  0.00    -0.206 F 
ATOM     79  C   UNL A   1      43.135  21.256  25.258  1.00  0.00     0.059 A 
ATOM     80  C   UNL A   1      42.989  20.895  27.656  1.00  0.00     0.059 A 
ATOM     81  F   UNL A   1      43.424  22.672  29.126  1.00  0.00    -0.206 F 
ATOM     82  C   UNL A   1      42.891  20.419  26.348  1.00  0.00     0.060 A 
BRANCH  82  83
ATOM     83  S   UNL A   1      42.498  18.684  26.037  1.00  0.00     0.124 S 
ATOM     84  O   UNL A   1      41.082  18.758  25.700  1.00  0.00    -0.237 OA
ATOM     85  O   UNL A   1      43.400  18.357  24.936  1.00  0.00    -0.237 OA
ATOM     86  O   UNL A   1      42.814  18.037  27.307  1.00  0.00    -0.744 OA
ENDBRANCH  82  83
ENDBRANCH  50  75
BRANCH  62  87
ATOM     87  C   UNL A   1      49.652  26.495  26.229  1.00  0.00     0.058 A 
ATOM     88  C   UNL A   1      50.141  26.619  24.920  1.00  0.00     0.135 A 
ATOM     89  C   UNL A   1      50.518  25.984  27.210  1.00  0.00     0.135 A 
ATOM     90  F   UNL A   1      49.350  27.094  23.946  1.00  0.00    -0.206 F 
ATOM     91  C   UNL A   1      51.437  26.237  24.591  1.00  0.00     0.059 A 
ATOM     92  C   UNL A   1      51.825  25.617  26.908  1.00  0.00     0.059 A 
ATOM     93  F   UNL A   1      50.100  25.853  28.479  1.00  0.00    -0.206 F 
ATOM     94  C   UNL A   1      52.273  25.736  25.593  1.00  0.00     0.060 A 
BRANCH  94  95
ATOM     95  S   UNL A   1      53.966  25.280  25.163  1.00  0.00     0.124 S 
ATOM     96  O   UNL A   1      54.679  25.604  26.395  1.00  0.00    -0.237 OA
ATOM     97  O   UNL A   1      53.842  23.857  24.859  1.00  0.00    -0.237 OA
ATOM     98  O   UNL A   1      54.267  26.134  24.018  1.00  0.00    -0.744 OA
ENDBRANCH  94  95
ENDBRANCH  62  87
ENDBRANCH  36  37
ENDBRANCH  28  31
ENDBRANCH  26  27
ENDBRANCH  25  26
ENDBRANCH   1  25
TORSDOF 19
ENDMDL
