MODEL 1
REMARK VINA RESULT:     -11.8      0.000      0.000
REMARK SMILES CCc1c(C)nn(CC(=O)N2CCC[C@@H](Cn3cc(C(=O)NCCCCNC(=O)c4ccc(-c5c6nc(c(-c7c(F)cc(S(=O)(=O)[O-])cc7F)c7ccc([nH]7)c(-c7c(F)cc(S(=O)(=O)[O-])cc7F)c7nc(c(-c8c(F)cc(S(=O)(=O)[O-])cc8F)c8ccc5[nH]8)C=C7)C=C6)cc4)nn3)C2)c1C
REMARK SMILES IDX 23 1 22 2 20 3 21 4 19 6 17 7 18 8 97 9 96 10 16 11 15 12
REMARK SMILES IDX 11 13 12 14 98 15 13 16 14 17 9 18 10 19 8 20 7 21 3 22 4 23
REMARK SMILES IDX 99 24 5 25 6 26 100 27 2 28 1 29 24 30 25 31 26 32 27 33
REMARK SMILES IDX 28 34 29 36 30 37 31 38 95 39 32 40 94 41 33 42 34 43 35 44
REMARK SMILES IDX 88 45 36 46 93 47 87 48 89 49 37 50 92 51 86 52 85 53 38 55
REMARK SMILES IDX 72 56 51 57 71 58 52 59 55 60 70 61 90 62 53 63 54 64 69 66
REMARK SMILES IDX 91 67 56 68 39 69 40 70 49 71 41 72 42 73 48 74 50 75 43 76
REMARK SMILES IDX 44 77 45 78 46 79 47 80 73 81 74 82 83 83 75 84 76 85 82 86
REMARK SMILES IDX 84 87 77 88 78 89 79 90 80 91 81 92 57 93 58 94 67 95 59 96
REMARK SMILES IDX 60 97 66 98 68 99 61 100 62 101 63 102 64 103 65 104
REMARK H PARENT 22 5 27 35 89 54 55 65
REMARK Flexibility Score: inf
ROOT
ATOM      1  C   UNL A   1      39.994  21.341  26.959  1.00  0.00     0.116 C 
ENDROOT
BRANCH   1   2
ATOM      2  N   UNL A   1      39.500  22.684  26.744  1.00  0.00    -0.351 N 
ATOM      3  C   UNL A   1      38.312  23.152  26.224  1.00  0.00     0.273 C 
ATOM      4  O   UNL A   1      38.165  24.374  26.195  1.00  0.00    -0.267 OA
ATOM      5  H   UNL A   1      40.127  23.392  27.019  1.00  0.00     0.163 HD
BRANCH   3   6
ATOM      6  C   UNL A   1      37.264  22.244  25.764  1.00  0.00     0.170 A 
ATOM      7  N   UNL A   1      35.441  21.272  25.110  1.00  0.00    -0.251 N 
ATOM      8  C   UNL A   1      35.888  22.292  25.900  1.00  0.00     0.145 A 
ATOM      9  N   UNL A   1      36.451  20.503  24.688  1.00  0.00    -0.067 NA
ATOM     10  N   UNL A   1      37.575  21.089  25.075  1.00  0.00    -0.125 NA
BRANCH   7  11
ATOM     11  C   UNL A   1      34.096  21.033  24.635  1.00  0.00     0.151 C 
BRANCH  11  12
ATOM     12  C   UNL A   1      33.272  22.311  24.376  1.00  0.00     0.030 C 
ATOM     13  N   UNL A   1      32.210  23.735  22.664  1.00  0.00    -0.341 N 
ATOM     14  C   UNL A   1      30.959  23.822  23.421  1.00  0.00     0.119 C 
ATOM     15  C   UNL A   1      32.947  22.498  22.883  1.00  0.00     0.125 C 
ATOM     16  C   UNL A   1      31.204  23.664  24.918  1.00  0.00     0.022 C 
ATOM     17  C   UNL A   1      31.985  22.381  25.217  1.00  0.00     0.009 C 
BRANCH  13  18
ATOM     18  C   UNL A   1      32.702  24.876  22.040  1.00  0.00     0.244 C 
ATOM     19  O   UNL A   1      32.480  25.062  20.835  1.00  0.00    -0.273 OA
BRANCH  18  20
ATOM     20  C   UNL A   1      33.757  25.741  22.713  1.00  0.00     0.244 C 
BRANCH  20  21
ATOM     21  N   UNL A   1      33.345  26.641  23.776  1.00  0.00    -0.260 N 
ATOM     22  C   UNL A   1      32.970  27.591  25.742  1.00  0.00    -0.004 A 
ATOM     23  C   UNL A   1      32.414  28.329  24.651  1.00  0.00     0.063 A 
ATOM     24  C   UNL A   1      33.665  26.561  25.118  1.00  0.00     0.039 A 
ATOM     25  C   UNL A   1      31.676  29.617  24.680  1.00  0.00     0.069 C 
ATOM     26  N   UNL A   1      32.626  27.735  23.474  1.00  0.00    -0.177 NA
ATOM     27  C   UNL A   1      34.585  25.507  25.615  1.00  0.00     0.066 C 
BRANCH  22  28
ATOM     28  C   UNL A   1      32.775  27.967  27.186  1.00  0.00     0.036 C 
ATOM     29  C   UNL A   1      31.365  28.115  27.718  1.00  0.00     0.009 C 
ENDBRANCH  22  28
ENDBRANCH  20  21
ENDBRANCH  18  20
ENDBRANCH  13  18
ENDBRANCH  11  12
ENDBRANCH   7  11
ENDBRANCH   3   6
ENDBRANCH   1   2
BRANCH   1  30
ATOM     30  C   UNL A   1      41.248  21.070  26.128  1.00  0.00     0.023 C 
BRANCH  30  31
ATOM     31  C   UNL A   1      41.707  19.606  26.034  1.00  0.00     0.023 C 
BRANCH  31  32
ATOM     32  C   UNL A   1      43.187  19.355  26.321  1.00  0.00     0.116 C 
BRANCH  32  33
ATOM     33  N   UNL A   1      43.987  19.120  25.113  1.00  0.00    -0.352 N 
ATOM     34  C   UNL A   1      44.522  20.046  24.226  1.00  0.00     0.251 C 
ATOM     35  H   UNL A   1      44.169  18.177  24.903  1.00  0.00     0.163 HD
ATOM     36  O   UNL A   1      44.870  19.717  23.109  1.00  0.00    -0.269 OA
BRANCH  34  37
ATOM     37  C   UNL A   1      44.674  21.439  24.683  1.00  0.00     0.039 A 
ATOM     38  C   UNL A   1      43.878  22.473  24.180  1.00  0.00     0.014 A 
ATOM     39  C   UNL A   1      45.575  21.662  25.716  1.00  0.00     0.014 A 
ATOM     40  C   UNL A   1      43.908  23.710  24.823  1.00  0.00     0.010 A 
ATOM     41  C   UNL A   1      45.469  22.812  26.450  1.00  0.00     0.010 A 
ATOM     42  C   UNL A   1      44.675  23.857  25.988  1.00  0.00    -0.014 A 
BRANCH  42  43
ATOM     43  C   UNL A   1      44.548  25.041  26.835  1.00  0.00     0.031 A 
ATOM     44  C   UNL A   1      45.568  26.098  26.579  1.00  0.00     0.074 A 
ATOM     45  C   UNL A   1      43.448  25.280  27.584  1.00  0.00     0.049 A 
ATOM     46  N   UNL A   1      46.540  26.461  27.349  1.00  0.00    -0.248 NA
ATOM     47  C   UNL A   1      45.619  26.716  25.241  1.00  0.00     0.031 C 
ATOM     48  C   UNL A   1      42.213  24.491  27.670  1.00  0.00     0.029 A 
ATOM     49  N   UNL A   1      43.148  26.367  28.342  1.00  0.00    -0.354 N 
ATOM     50  C   UNL A   1      47.162  27.528  26.703  1.00  0.00     0.074 A 
ATOM     51  C   UNL A   1      46.708  27.483  25.339  1.00  0.00     0.031 C 
ATOM     52  C   UNL A   1      41.228  25.242  28.209  1.00  0.00     0.029 A 
ATOM     53  C   UNL A   1      41.804  26.489  28.676  1.00  0.00     0.049 A 
ATOM     54  H   UNL A   1      43.829  27.016  28.631  1.00  0.00     0.167 HD
ATOM     55  C   UNL A   1      47.788  28.515  27.406  1.00  0.00     0.037 A 
ATOM     56  C   UNL A   1      41.207  27.557  29.265  1.00  0.00     0.037 A 
ATOM     57  C   UNL A   1      47.980  28.123  28.782  1.00  0.00     0.049 A 
ATOM     58  C   UNL A   1      42.288  28.337  29.926  1.00  0.00     0.074 A 
ATOM     59  C   UNL A   1      48.607  27.065  29.411  1.00  0.00     0.029 A 
ATOM     60  N   UNL A   1      47.125  28.659  29.718  1.00  0.00    -0.354 N 
ATOM     61  N   UNL A   1      42.993  27.888  30.929  1.00  0.00    -0.248 NA
ATOM     62  C   UNL A   1      42.909  29.408  29.162  1.00  0.00     0.031 C 
ATOM     63  C   UNL A   1      47.736  26.710  30.484  1.00  0.00     0.029 A 
ATOM     64  C   UNL A   1      46.682  27.626  30.505  1.00  0.00     0.049 A 
ATOM     65  H   UNL A   1      46.878  29.607  29.808  1.00  0.00     0.167 HD
ATOM     66  C   UNL A   1      44.292  28.295  30.663  1.00  0.00     0.074 A 
ATOM     67  C   UNL A   1      44.164  29.299  29.605  1.00  0.00     0.031 C 
ATOM     68  C   UNL A   1      45.368  27.577  31.107  1.00  0.00     0.037 A 
BRANCH  55  69
ATOM     69  C   UNL A   1      47.882  29.963  26.976  1.00  0.00     0.058 A 
ATOM     70  C   UNL A   1      49.124  30.628  27.071  1.00  0.00     0.135 A 
ATOM     71  C   UNL A   1      46.765  30.798  26.750  1.00  0.00     0.135 A 
ATOM     72  F   UNL A   1      50.255  29.939  27.288  1.00  0.00    -0.206 F 
ATOM     73  C   UNL A   1      49.235  32.019  27.028  1.00  0.00     0.059 A 
ATOM     74  C   UNL A   1      46.861  32.181  26.646  1.00  0.00     0.059 A 
ATOM     75  F   UNL A   1      45.514  30.328  26.718  1.00  0.00    -0.206 F 
ATOM     76  C   UNL A   1      48.093  32.787  26.831  1.00  0.00     0.060 A 
BRANCH  76  77
ATOM     77  S   UNL A   1      48.214  34.583  26.875  1.00  0.00     0.124 S 
ATOM     78  O   UNL A   1      48.409  34.895  25.464  1.00  0.00    -0.237 OA
ATOM     79  O   UNL A   1      46.922  34.958  27.442  1.00  0.00    -0.237 OA
ATOM     80  O   UNL A   1      49.365  34.819  27.741  1.00  0.00    -0.744 OA
ENDBRANCH  76  77
ENDBRANCH  55  69
BRANCH  56  81
ATOM     81  C   UNL A   1      39.855  28.119  28.989  1.00  0.00     0.058 A 
ATOM     82  C   UNL A   1      38.893  28.225  30.010  1.00  0.00     0.135 A 
ATOM     83  C   UNL A   1      39.577  28.829  27.802  1.00  0.00     0.135 A 
ATOM     84  F   UNL A   1      39.078  27.592  31.179  1.00  0.00    -0.206 F 
ATOM     85  C   UNL A   1      37.761  29.040  29.890  1.00  0.00     0.059 A 
ATOM     86  C   UNL A   1      38.451  29.638  27.655  1.00  0.00     0.059 A 
ATOM     87  F   UNL A   1      40.444  28.836  26.779  1.00  0.00    -0.206 F 
ATOM     88  C   UNL A   1      37.563  29.765  28.716  1.00  0.00     0.060 A 
BRANCH  88  89
ATOM     89  S   UNL A   1      36.220  30.976  28.632  1.00  0.00     0.124 S 
ATOM     90  O   UNL A   1      35.637  30.873  29.965  1.00  0.00    -0.237 OA
ATOM     91  O   UNL A   1      36.938  32.212  28.343  1.00  0.00    -0.237 OA
ATOM     92  O   UNL A   1      35.384  30.477  27.543  1.00  0.00    -0.744 OA
ENDBRANCH  88  89
ENDBRANCH  56  81
BRANCH  68  93
ATOM     93  C   UNL A   1      45.144  26.508  32.148  1.00  0.00     0.058 A 
ATOM     94  C   UNL A   1      45.029  26.740  33.531  1.00  0.00     0.135 A 
ATOM     95  C   UNL A   1      44.878  25.207  31.697  1.00  0.00     0.135 A 
ATOM     96  F   UNL A   1      45.158  27.973  34.040  1.00  0.00    -0.206 F 
ATOM     97  C   UNL A   1      44.709  25.715  34.425  1.00  0.00     0.059 A 
ATOM     98  C   UNL A   1      44.526  24.178  32.565  1.00  0.00     0.059 A 
ATOM     99  F   UNL A   1      44.908  24.933  30.382  1.00  0.00    -0.206 F 
ATOM    100  C   UNL A   1      44.459  24.435  33.931  1.00  0.00     0.060 A 
BRANCH 100 101
ATOM    101  S   UNL A   1      43.990  23.122  35.077  1.00  0.00     0.124 S 
ATOM    102  O   UNL A   1      42.583  23.420  35.325  1.00  0.00    -0.237 OA
ATOM    103  O   UNL A   1      44.256  21.913  34.302  1.00  0.00    -0.237 OA
ATOM    104  O   UNL A   1      44.881  23.328  36.217  1.00  0.00    -0.744 OA
ENDBRANCH 100 101
ENDBRANCH  68  93
ENDBRANCH  42  43
ENDBRANCH  34  37
ENDBRANCH  32  33
ENDBRANCH  31  32
ENDBRANCH  30  31
ENDBRANCH   1  30
TORSDOF 20
ENDMDL
MODEL 2
REMARK VINA RESULT:     -11.7      2.761      3.754
REMARK SMILES CCc1c(C)nn(CC(=O)N2CCC[C@@H](Cn3cc(C(=O)NCCCCNC(=O)c4ccc(-c5c6nc(c(-c7c(F)cc(S(=O)(=O)[O-])cc7F)c7ccc([nH]7)c(-c7c(F)cc(S(=O)(=O)[O-])cc7F)c7nc(c(-c8c(F)cc(S(=O)(=O)[O-])cc8F)c8ccc5[nH]8)C=C7)C=C6)cc4)nn3)C2)c1C
REMARK SMILES IDX 23 1 22 2 20 3 21 4 19 6 17 7 18 8 97 9 96 10 16 11 15 12
REMARK SMILES IDX 11 13 12 14 98 15 13 16 14 17 9 18 10 19 8 20 7 21 3 22 4 23
REMARK SMILES IDX 99 24 5 25 6 26 100 27 2 28 1 29 24 30 25 31 26 32 27 33
REMARK SMILES IDX 28 34 29 36 30 37 31 38 95 39 32 40 94 41 33 42 34 43 35 44
REMARK SMILES IDX 88 45 36 46 93 47 87 48 89 49 37 50 92 51 86 52 85 53 38 55
REMARK SMILES IDX 72 56 51 57 71 58 52 59 55 60 70 61 90 62 53 63 54 64 69 66
REMARK SMILES IDX 91 67 56 68 39 69 40 70 49 71 41 72 42 73 48 74 50 75 43 76
REMARK SMILES IDX 44 77 45 78 46 79 47 80 73 81 74 82 83 83 75 84 76 85 82 86
REMARK SMILES IDX 84 87 77 88 78 89 79 90 80 91 81 92 57 93 58 94 67 95 59 96
REMARK SMILES IDX 60 97 66 98 68 99 61 100 62 101 63 102 64 103 65 104
REMARK H PARENT 22 5 27 35 89 54 55 65
REMARK Flexibility Score: inf
ROOT
ATOM      1  C   UNL A   1      38.362  24.164  26.487  1.00  0.00     0.116 C 
ENDROOT
BRANCH   1   2
ATOM      2  N   UNL A   1      38.153  23.184  25.442  1.00  0.00    -0.351 N 
ATOM      3  C   UNL A   1      37.044  22.446  25.086  1.00  0.00     0.273 C 
ATOM      4  O   UNL A   1      37.166  21.701  24.114  1.00  0.00    -0.267 OA
ATOM      5  H   UNL A   1      38.946  23.015  24.884  1.00  0.00     0.163 HD
BRANCH   3   6
ATOM      6  C   UNL A   1      35.777  22.568  25.804  1.00  0.00     0.170 A 
ATOM      7  N   UNL A   1      33.867  23.150  26.643  1.00  0.00    -0.251 N 
ATOM      8  C   UNL A   1      35.029  23.676  26.156  1.00  0.00     0.145 A 
ATOM      9  N   UNL A   1      33.958  21.825  26.797  1.00  0.00    -0.067 NA
ATOM     10  N   UNL A   1      35.120  21.451  26.281  1.00  0.00    -0.125 NA
BRANCH   7  11
ATOM     11  C   UNL A   1      32.611  23.828  26.884  1.00  0.00     0.151 C 
BRANCH  11  12
ATOM     12  C   UNL A   1      32.000  24.503  25.640  1.00  0.00     0.030 C 
ATOM     13  N   UNL A   1      31.681  24.358  23.197  1.00  0.00    -0.341 N 
ATOM     14  C   UNL A   1      30.251  24.659  23.303  1.00  0.00     0.119 C 
ATOM     15  C   UNL A   1      32.226  23.674  24.361  1.00  0.00     0.125 C 
ATOM     16  C   UNL A   1      29.950  25.497  24.540  1.00  0.00     0.022 C 
ATOM     17  C   UNL A   1      30.506  24.836  25.804  1.00  0.00     0.009 C 
BRANCH  13  18
ATOM     18  C   UNL A   1      32.420  24.945  22.177  1.00  0.00     0.244 C 
ATOM     19  O   UNL A   1      33.557  24.523  21.920  1.00  0.00    -0.273 OA
BRANCH  18  20
ATOM     20  C   UNL A   1      32.003  26.279  21.577  1.00  0.00     0.244 C 
BRANCH  20  21
ATOM     21  N   UNL A   1      31.681  27.375  22.475  1.00  0.00    -0.260 N 
ATOM     22  C   UNL A   1      31.687  28.854  24.125  1.00  0.00    -0.004 A 
ATOM     23  C   UNL A   1      30.553  28.984  23.262  1.00  0.00     0.063 A 
ATOM     24  C   UNL A   1      32.452  27.870  23.510  1.00  0.00     0.039 A 
ATOM     25  C   UNL A   1      29.447  29.973  23.324  1.00  0.00     0.069 C 
ATOM     26  N   UNL A   1      30.549  28.073  22.286  1.00  0.00    -0.177 NA
ATOM     27  C   UNL A   1      33.810  27.328  23.768  1.00  0.00     0.066 C 
BRANCH  22  28
ATOM     28  C   UNL A   1      31.879  29.671  25.373  1.00  0.00     0.036 C 
ATOM     29  C   UNL A   1      31.773  28.985  26.719  1.00  0.00     0.009 C 
ENDBRANCH  22  28
ENDBRANCH  20  21
ENDBRANCH  18  20
ENDBRANCH  13  18
ENDBRANCH  11  12
ENDBRANCH   7  11
ENDBRANCH   3   6
ENDBRANCH   1   2
BRANCH   1  30
ATOM     30  C   UNL A   1      39.545  23.782  27.377  1.00  0.00     0.023 C 
BRANCH  30  31
ATOM     31  C   UNL A   1      40.058  22.337  27.255  1.00  0.00     0.023 C 
BRANCH  31  32
ATOM     32  C   UNL A   1      41.521  22.118  27.642  1.00  0.00     0.116 C 
BRANCH  32  33
ATOM     33  N   UNL A   1      42.414  21.955  26.490  1.00  0.00    -0.352 N 
ATOM     34  C   UNL A   1      42.953  22.929  25.657  1.00  0.00     0.251 C 
ATOM     35  H   UNL A   1      42.666  21.028  26.277  1.00  0.00     0.163 HD
ATOM     36  O   UNL A   1      43.395  22.643  24.561  1.00  0.00    -0.269 OA
BRANCH  34  37
ATOM     37  C   UNL A   1      42.990  24.318  26.146  1.00  0.00     0.039 A 
ATOM     38  C   UNL A   1      42.242  25.335  25.543  1.00  0.00     0.014 A 
ATOM     39  C   UNL A   1      43.723  24.553  27.302  1.00  0.00     0.014 A 
ATOM     40  C   UNL A   1      42.136  26.561  26.197  1.00  0.00     0.010 A 
ATOM     41  C   UNL A   1      43.473  25.688  28.025  1.00  0.00     0.010 A 
ATOM     42  C   UNL A   1      42.721  26.715  27.463  1.00  0.00    -0.014 A 
BRANCH  42  43
ATOM     43  C   UNL A   1      42.431  27.881  28.295  1.00  0.00     0.031 A 
ATOM     44  C   UNL A   1      43.430  28.983  28.183  1.00  0.00     0.074 A 
ATOM     45  C   UNL A   1      41.234  28.063  28.894  1.00  0.00     0.049 A 
ATOM     46  N   UNL A   1      44.276  29.377  29.077  1.00  0.00    -0.248 NA
ATOM     47  C   UNL A   1      43.629  29.620  26.869  1.00  0.00     0.031 C 
ATOM     48  C   UNL A   1      40.033  27.222  28.810  1.00  0.00     0.029 A 
ATOM     49  N   UNL A   1      40.790  29.127  29.615  1.00  0.00    -0.354 N 
ATOM     50  C   UNL A   1      44.930  30.478  28.528  1.00  0.00     0.074 A 
ATOM     51  C   UNL A   1      44.661  30.431  27.115  1.00  0.00     0.031 C 
ATOM     52  C   UNL A   1      38.955  27.924  29.221  1.00  0.00     0.029 A 
ATOM     53  C   UNL A   1      39.409  29.187  29.769  1.00  0.00     0.049 A 
ATOM     54  H   UNL A   1      41.398  29.800  29.996  1.00  0.00     0.167 HD
ATOM     55  C   UNL A   1      45.415  31.481  29.315  1.00  0.00     0.037 A 
ATOM     56  C   UNL A   1      38.695  30.221  30.283  1.00  0.00     0.037 A 
ATOM     57  C   UNL A   1      45.441  31.078  30.701  1.00  0.00     0.049 A 
ATOM     58  C   UNL A   1      39.645  31.038  31.086  1.00  0.00     0.074 A 
ATOM     59  C   UNL A   1      46.025  30.039  31.399  1.00  0.00     0.029 A 
ATOM     60  N   UNL A   1      44.448  31.565  31.520  1.00  0.00    -0.354 N 
ATOM     61  N   UNL A   1      40.231  30.605  32.171  1.00  0.00    -0.248 NA
ATOM     62  C   UNL A   1      40.313  32.144  30.419  1.00  0.00     0.031 C 
ATOM     63  C   UNL A   1      45.038  29.633  32.345  1.00  0.00     0.029 A 
ATOM     64  C   UNL A   1      43.951  30.504  32.234  1.00  0.00     0.049 A 
ATOM     65  H   UNL A   1      44.151  32.501  31.584  1.00  0.00     0.167 HD
ATOM     66  C   UNL A   1      41.535  31.070  32.081  1.00  0.00     0.074 A 
ATOM     67  C   UNL A   1      41.503  32.082  31.023  1.00  0.00     0.031 C 
ATOM     68  C   UNL A   1      42.573  30.392  32.657  1.00  0.00     0.037 A 
BRANCH  55  69
ATOM     69  C   UNL A   1      45.501  32.937  28.912  1.00  0.00     0.058 A 
ATOM     70  C   UNL A   1      46.717  33.630  29.102  1.00  0.00     0.135 A 
ATOM     71  C   UNL A   1      44.382  33.747  28.621  1.00  0.00     0.135 A 
ATOM     72  F   UNL A   1      47.848  32.965  29.387  1.00  0.00    -0.206 F 
ATOM     73  C   UNL A   1      46.796  35.023  29.085  1.00  0.00     0.059 A 
ATOM     74  C   UNL A   1      44.450  35.134  28.542  1.00  0.00     0.059 A 
ATOM     75  F   UNL A   1      43.148  33.248  28.495  1.00  0.00    -0.206 F 
ATOM     76  C   UNL A   1      45.650  35.767  28.820  1.00  0.00     0.060 A 
BRANCH  76  77
ATOM     77  S   UNL A   1      45.723  37.564  28.897  1.00  0.00     0.124 S 
ATOM     78  O   UNL A   1      44.323  37.900  29.132  1.00  0.00    -0.237 OA
ATOM     79  O   UNL A   1      46.632  37.781  30.018  1.00  0.00    -0.237 OA
ATOM     80  O   UNL A   1      46.251  37.934  27.587  1.00  0.00    -0.744 OA
ENDBRANCH  76  77
ENDBRANCH  55  69
BRANCH  56  81
ATOM     81  C   UNL A   1      37.368  30.730  29.835  1.00  0.00     0.058 A 
ATOM     82  C   UNL A   1      36.497  31.370  30.736  1.00  0.00     0.135 A 
ATOM     83  C   UNL A   1      37.049  30.863  28.468  1.00  0.00     0.135 A 
ATOM     84  F   UNL A   1      36.727  31.307  32.056  1.00  0.00    -0.206 F 
ATOM     85  C   UNL A   1      35.418  32.152  30.306  1.00  0.00     0.059 A 
ATOM     86  C   UNL A   1      35.973  31.627  28.015  1.00  0.00     0.059 A 
ATOM     87  F   UNL A   1      37.833  30.332  27.518  1.00  0.00    -0.206 F 
ATOM     88  C   UNL A   1      35.181  32.296  28.940  1.00  0.00     0.060 A 
BRANCH  88  89
ATOM     89  S   UNL A   1      33.922  33.467  28.373  1.00  0.00     0.124 S 
ATOM     90  O   UNL A   1      33.449  34.035  29.630  1.00  0.00    -0.237 OA
ATOM     91  O   UNL A   1      34.696  34.362  27.519  1.00  0.00    -0.237 OA
ATOM     92  O   UNL A   1      32.964  32.617  27.670  1.00  0.00    -0.744 OA
ENDBRANCH  88  89
ENDBRANCH  56  81
BRANCH  68  93
ATOM     93  C   UNL A   1      42.261  29.301  33.651  1.00  0.00     0.058 A 
ATOM     94  C   UNL A   1      42.114  27.938  33.335  1.00  0.00     0.135 A 
ATOM     95  C   UNL A   1      42.266  29.641  35.012  1.00  0.00     0.135 A 
ATOM     96  F   UNL A   1      42.206  27.507  32.070  1.00  0.00    -0.206 F 
ATOM     97  C   UNL A   1      41.937  26.967  34.324  1.00  0.00     0.059 A 
ATOM     98  C   UNL A   1      42.124  28.688  36.015  1.00  0.00     0.059 A 
ATOM     99  F   UNL A   1      42.465  30.916  35.385  1.00  0.00    -0.206 F 
ATOM    100  C   UNL A   1      41.943  27.353  35.664  1.00  0.00     0.060 A 
BRANCH 100 101
ATOM    101  S   UNL A   1      41.772  26.095  36.947  1.00  0.00     0.124 S 
ATOM    102  O   UNL A   1      42.839  26.456  37.874  1.00  0.00    -0.237 OA
ATOM    103  O   UNL A   1      40.411  26.315  37.428  1.00  0.00    -0.237 OA
ATOM    104  O   UNL A   1      41.972  24.841  36.224  1.00  0.00    -0.744 OA
ENDBRANCH 100 101
ENDBRANCH  68  93
ENDBRANCH  42  43
ENDBRANCH  34  37
ENDBRANCH  32  33
ENDBRANCH  31  32
ENDBRANCH  30  31
ENDBRANCH   1  30
TORSDOF 20
ENDMDL
MODEL 3
REMARK VINA RESULT:     -11.4      1.894      2.806
REMARK SMILES CCc1c(C)nn(CC(=O)N2CCC[C@@H](Cn3cc(C(=O)NCCCCNC(=O)c4ccc(-c5c6nc(c(-c7c(F)cc(S(=O)(=O)[O-])cc7F)c7ccc([nH]7)c(-c7c(F)cc(S(=O)(=O)[O-])cc7F)c7nc(c(-c8c(F)cc(S(=O)(=O)[O-])cc8F)c8ccc5[nH]8)C=C7)C=C6)cc4)nn3)C2)c1C
REMARK SMILES IDX 23 1 22 2 20 3 21 4 19 6 17 7 18 8 97 9 96 10 16 11 15 12
REMARK SMILES IDX 11 13 12 14 98 15 13 16 14 17 9 18 10 19 8 20 7 21 3 22 4 23
REMARK SMILES IDX 99 24 5 25 6 26 100 27 2 28 1 29 24 30 25 31 26 32 27 33
REMARK SMILES IDX 28 34 29 36 30 37 31 38 95 39 32 40 94 41 33 42 34 43 35 44
REMARK SMILES IDX 88 45 36 46 93 47 87 48 89 49 37 50 92 51 86 52 85 53 38 55
REMARK SMILES IDX 72 56 51 57 71 58 52 59 55 60 70 61 90 62 53 63 54 64 69 66
REMARK SMILES IDX 91 67 56 68 39 69 40 70 49 71 41 72 42 73 48 74 50 75 43 76
REMARK SMILES IDX 44 77 45 78 46 79 47 80 73 81 74 82 83 83 75 84 76 85 82 86
REMARK SMILES IDX 84 87 77 88 78 89 79 90 80 91 81 92 57 93 58 94 67 95 59 96
REMARK SMILES IDX 60 97 66 98 68 99 61 100 62 101 63 102 64 103 65 104
REMARK H PARENT 22 5 27 35 89 54 55 65
REMARK Flexibility Score: inf
ROOT
ATOM      1  C   UNL A   1      38.328  23.571  26.400  1.00  0.00     0.116 C 
ENDROOT
BRANCH   1   2
ATOM      2  N   UNL A   1      37.920  22.952  25.158  1.00  0.00    -0.351 N 
ATOM      3  C   UNL A   1      36.696  22.486  24.724  1.00  0.00     0.273 C 
ATOM      4  O   UNL A   1      36.653  22.028  23.582  1.00  0.00    -0.267 OA
ATOM      5  H   UNL A   1      38.648  22.843  24.504  1.00  0.00     0.163 HD
BRANCH   3   6
ATOM      6  C   UNL A   1      35.503  22.565  25.562  1.00  0.00     0.170 A 
ATOM      7  N   UNL A   1      33.622  23.036  26.530  1.00  0.00    -0.251 N 
ATOM      8  C   UNL A   1      34.644  23.616  25.835  1.00  0.00     0.145 A 
ATOM      9  N   UNL A   1      33.914  21.775  26.866  1.00  0.00    -0.067 NA
ATOM     10  N   UNL A   1      35.060  21.469  26.274  1.00  0.00    -0.125 NA
BRANCH   7  11
ATOM     11  C   UNL A   1      32.314  23.583  26.817  1.00  0.00     0.151 C 
BRANCH  11  12
ATOM     12  C   UNL A   1      31.772  24.543  25.739  1.00  0.00     0.030 C 
ATOM     13  N   UNL A   1      31.481  24.930  23.320  1.00  0.00    -0.341 N 
ATOM     14  C   UNL A   1      30.075  25.306  23.484  1.00  0.00     0.119 C 
ATOM     15  C   UNL A   1      31.959  23.983  24.317  1.00  0.00     0.125 C 
ATOM     16  C   UNL A   1      29.815  25.890  24.869  1.00  0.00     0.022 C 
ATOM     17  C   UNL A   1      30.303  24.943  25.968  1.00  0.00     0.009 C 
BRANCH  13  18
ATOM     18  C   UNL A   1      32.276  25.661  22.444  1.00  0.00     0.244 C 
ATOM     19  O   UNL A   1      33.207  25.101  21.847  1.00  0.00    -0.273 OA
BRANCH  18  20
ATOM     20  C   UNL A   1      32.233  27.180  22.431  1.00  0.00     0.244 C 
BRANCH  20  21
ATOM     21  N   UNL A   1      32.331  27.890  23.696  1.00  0.00    -0.260 N 
ATOM     22  C   UNL A   1      32.027  29.289  25.386  1.00  0.00    -0.004 A 
ATOM     23  C   UNL A   1      33.122  28.392  25.594  1.00  0.00     0.063 A 
ATOM     24  C   UNL A   1      31.470  28.852  24.190  1.00  0.00     0.039 A 
ATOM     25  C   UNL A   1      34.015  28.274  26.774  1.00  0.00     0.069 C 
ATOM     26  N   UNL A   1      33.308  27.569  24.560  1.00  0.00    -0.177 NA
ATOM     27  C   UNL A   1      30.240  29.221  23.445  1.00  0.00     0.066 C 
BRANCH  22  28
ATOM     28  C   UNL A   1      31.671  30.400  26.336  1.00  0.00     0.036 C 
ATOM     29  C   UNL A   1      30.990  31.638  25.791  1.00  0.00     0.009 C 
ENDBRANCH  22  28
ENDBRANCH  20  21
ENDBRANCH  18  20
ENDBRANCH  13  18
ENDBRANCH  11  12
ENDBRANCH   7  11
ENDBRANCH   3   6
ENDBRANCH   1   2
BRANCH   1  30
ATOM     30  C   UNL A   1      39.645  22.982  26.908  1.00  0.00     0.023 C 
BRANCH  30  31
ATOM     31  C   UNL A   1      39.982  21.555  26.445  1.00  0.00     0.023 C 
BRANCH  31  32
ATOM     32  C   UNL A   1      41.069  20.838  27.246  1.00  0.00     0.116 C 
BRANCH  32  33
ATOM     33  N   UNL A   1      42.196  20.380  26.424  1.00  0.00    -0.352 N 
ATOM     34  C   UNL A   1      43.154  21.134  25.757  1.00  0.00     0.251 C 
ATOM     35  H   UNL A   1      42.285  19.404  26.334  1.00  0.00     0.163 HD
ATOM     36  O   UNL A   1      43.817  20.653  24.859  1.00  0.00    -0.269 OA
BRANCH  34  37
ATOM     37  C   UNL A   1      43.358  22.530  26.180  1.00  0.00     0.039 A 
ATOM     38  C   UNL A   1      42.845  23.607  25.449  1.00  0.00     0.014 A 
ATOM     39  C   UNL A   1      43.995  22.726  27.398  1.00  0.00     0.014 A 
ATOM     40  C   UNL A   1      42.865  24.875  26.027  1.00  0.00     0.010 A 
ATOM     41  C   UNL A   1      43.852  23.931  28.033  1.00  0.00     0.010 A 
ATOM     42  C   UNL A   1      43.333  25.021  27.342  1.00  0.00    -0.014 A 
BRANCH  42  43
ATOM     43  C   UNL A   1      43.145  26.268  28.079  1.00  0.00     0.031 A 
ATOM     44  C   UNL A   1      44.197  27.296  27.833  1.00  0.00     0.074 A 
ATOM     45  C   UNL A   1      41.987  26.571  28.707  1.00  0.00     0.049 A 
ATOM     46  N   UNL A   1      45.102  27.714  28.655  1.00  0.00    -0.248 NA
ATOM     47  C   UNL A   1      44.373  27.806  26.461  1.00  0.00     0.031 C 
ATOM     48  C   UNL A   1      40.739  25.797  28.744  1.00  0.00     0.029 A 
ATOM     49  N   UNL A   1      41.635  27.716  29.349  1.00  0.00    -0.354 N 
ATOM     50  C   UNL A   1      45.792  28.723  27.986  1.00  0.00     0.074 A 
ATOM     51  C   UNL A   1      45.458  28.573  26.594  1.00  0.00     0.031 C 
ATOM     52  C   UNL A   1      39.721  26.594  29.134  1.00  0.00     0.029 A 
ATOM     53  C   UNL A   1      40.268  27.871  29.551  1.00  0.00     0.049 A 
ATOM     54  H   UNL A   1      42.296  28.382  29.645  1.00  0.00     0.167 HD
ATOM     55  C   UNL A   1      46.365  29.760  28.663  1.00  0.00     0.037 A 
ATOM     56  C   UNL A   1      39.635  28.985  30.000  1.00  0.00     0.037 A 
ATOM     57  C   UNL A   1      46.430  29.476  30.076  1.00  0.00     0.049 A 
ATOM     58  C   UNL A   1      40.663  29.809  30.691  1.00  0.00     0.074 A 
ATOM     59  C   UNL A   1      46.987  28.467  30.839  1.00  0.00     0.029 A 
ATOM     60  N   UNL A   1      45.503  30.088  30.888  1.00  0.00    -0.354 N 
ATOM     61  N   UNL A   1      41.272  29.437  31.785  1.00  0.00    -0.248 NA
ATOM     62  C   UNL A   1      41.362  30.814  29.904  1.00  0.00     0.031 C 
ATOM     63  C   UNL A   1      46.021  28.203  31.855  1.00  0.00     0.029 A 
ATOM     64  C   UNL A   1      44.981  29.123  31.711  1.00  0.00     0.049 A 
ATOM     65  H   UNL A   1      45.261  31.042  30.881  1.00  0.00     0.167 HD
ATOM     66  C   UNL A   1      42.594  29.815  31.604  1.00  0.00     0.074 A 
ATOM     67  C   UNL A   1      42.572  30.733  30.464  1.00  0.00     0.031 C 
ATOM     68  C   UNL A   1      43.618  29.129  32.196  1.00  0.00     0.037 A 
BRANCH  55  69
ATOM     69  C   UNL A   1      46.514  31.168  28.131  1.00  0.00     0.058 A 
ATOM     70  C   UNL A   1      45.366  31.857  27.681  1.00  0.00     0.135 A 
ATOM     71  C   UNL A   1      47.749  31.758  27.780  1.00  0.00     0.135 A 
ATOM     72  F   UNL A   1      44.137  31.390  27.951  1.00  0.00    -0.206 F 
ATOM     73  C   UNL A   1      45.442  32.995  26.877  1.00  0.00     0.059 A 
ATOM     74  C   UNL A   1      47.846  32.923  27.027  1.00  0.00     0.059 A 
ATOM     75  F   UNL A   1      48.923  31.184  28.061  1.00  0.00    -0.206 F 
ATOM     76  C   UNL A   1      46.690  33.511  26.542  1.00  0.00     0.060 A 
BRANCH  76  77
ATOM     77  S   UNL A   1      46.797  34.917  25.422  1.00  0.00     0.124 S 
ATOM     78  O   UNL A   1      48.126  34.731  24.852  1.00  0.00    -0.237 OA
ATOM     79  O   UNL A   1      45.673  34.672  24.524  1.00  0.00    -0.237 OA
ATOM     80  O   UNL A   1      46.643  36.064  26.311  1.00  0.00    -0.744 OA
ENDBRANCH  76  77
ENDBRANCH  55  69
BRANCH  56  81
ATOM     81  C   UNL A   1      38.320  29.531  29.562  1.00  0.00     0.058 A 
ATOM     82  C   UNL A   1      37.354  29.934  30.503  1.00  0.00     0.135 A 
ATOM     83  C   UNL A   1      38.095  29.941  28.232  1.00  0.00     0.135 A 
ATOM     84  F   UNL A   1      37.491  29.599  31.795  1.00  0.00    -0.206 F 
ATOM     85  C   UNL A   1      36.271  30.752  30.160  1.00  0.00     0.059 A 
ATOM     86  C   UNL A   1      37.017  30.746  27.863  1.00  0.00     0.059 A 
ATOM     87  F   UNL A   1      38.971  29.652  27.259  1.00  0.00    -0.206 F 
ATOM     88  C   UNL A   1      36.126  31.175  28.839  1.00  0.00     0.060 A 
BRANCH  88  89
ATOM     89  S   UNL A   1      34.854  32.395  28.429  1.00  0.00     0.124 S 
ATOM     90  O   UNL A   1      33.898  31.593  27.674  1.00  0.00    -0.237 OA
ATOM     91  O   UNL A   1      34.414  32.837  29.749  1.00  0.00    -0.237 OA
ATOM     92  O   UNL A   1      35.584  33.395  27.654  1.00  0.00    -0.744 OA
ENDBRANCH  88  89
ENDBRANCH  56  81
BRANCH  68  93
ATOM     93  C   UNL A   1      43.290  28.147  33.293  1.00  0.00     0.058 A 
ATOM     94  C   UNL A   1      43.243  26.749  33.139  1.00  0.00     0.135 A 
ATOM     95  C   UNL A   1      43.173  28.646  34.599  1.00  0.00     0.135 A 
ATOM     96  F   UNL A   1      43.454  26.177  31.946  1.00  0.00    -0.206 F 
ATOM     97  C   UNL A   1      43.043  25.894  34.225  1.00  0.00     0.059 A 
ATOM     98  C   UNL A   1      43.007  27.813  35.700  1.00  0.00     0.059 A 
ATOM     99  F   UNL A   1      43.274  29.967  34.824  1.00  0.00    -0.206 F 
ATOM    100  C   UNL A   1      42.926  26.437  35.505  1.00  0.00     0.060 A 
BRANCH 100 101
ATOM    101  S   UNL A   1      42.725  25.332  36.918  1.00  0.00     0.124 S 
ATOM    102  O   UNL A   1      41.827  24.312  36.385  1.00  0.00    -0.237 OA
ATOM    103  O   UNL A   1      44.095  24.898  37.180  1.00  0.00    -0.237 OA
ATOM    104  O   UNL A   1      42.148  26.194  37.946  1.00  0.00    -0.744 OA
ENDBRANCH 100 101
ENDBRANCH  68  93
ENDBRANCH  42  43
ENDBRANCH  34  37
ENDBRANCH  32  33
ENDBRANCH  31  32
ENDBRANCH  30  31
ENDBRANCH   1  30
TORSDOF 20
ENDMDL
