MODEL 1
REMARK VINA RESULT:     -11.1      0.000      0.000
REMARK SMILES CC[NH2+][C@]1(C(=O)NCCCCNC(=O)c2ccc(-c3c4nc(c(-c5c(F)cc(S(=O)(=O)[O-])cc5F)c5ccc([nH]5)c(-c5c(F)cc(S(=O)(=O)[O-])cc5F)c5nc(c(-c6c(F)cc(S(=O)(=O)[O-])cc6F)c6ccc3[nH]6)C=C5)C=C4)cc2)CCC[C@H]1CCSc1n[nH]c(=O)n1C
REMARK SMILES IDX 9 1 8 2 7 3 5 4 6 5 4 7 81 8 84 9 82 10 83 11 3 12 2 15 1 16
REMARK SMILES IDX 85 17 86 18 87 19 88 20 89 21 93 22 90 23 91 24 94 25 92 27
REMARK SMILES IDX 10 28 11 29 12 30 13 31 14 33 15 34 16 35 80 36 17 37 79 38
REMARK SMILES IDX 18 39 19 40 20 41 73 42 21 43 78 44 72 45 74 46 22 47 77 48
REMARK SMILES IDX 71 49 70 50 23 52 57 53 36 54 56 55 37 56 40 57 55 58 75 59
REMARK SMILES IDX 38 60 39 61 54 63 76 64 41 65 24 66 25 67 34 68 26 69 27 70
REMARK SMILES IDX 33 71 35 72 28 73 29 74 30 75 31 76 32 77 58 78 59 79 68 80
REMARK SMILES IDX 60 81 61 82 67 83 69 84 62 85 63 86 64 87 65 88 66 89 42 90
REMARK SMILES IDX 43 91 52 92 44 93 45 94 51 95 53 96 46 97 47 98 48 99 49 100
REMARK SMILES IDX 50 101
REMARK H PARENT 7 6 3 13 3 14 90 26 12 32 74 51 40 62
REMARK Flexibility Score: inf
ROOT
ATOM      1  C   UNL A   1      33.373  27.140  25.142  1.00  0.00     0.023 C 
ENDROOT
BRANCH   1   2
ATOM      2  C   UNL A   1      33.991  25.821  25.592  1.00  0.00     0.116 C 
BRANCH   2   3
ATOM      3  N   UNL A   1      33.078  24.958  26.301  1.00  0.00    -0.351 N 
ATOM      4  C   UNL A   1      32.707  23.661  26.135  1.00  0.00     0.281 C 
ATOM      5  O   UNL A   1      31.977  23.264  27.051  1.00  0.00    -0.268 OA
ATOM      6  H   UNL A   1      32.632  25.398  27.060  1.00  0.00     0.163 HD
BRANCH   4   7
ATOM      7  C   UNL A   1      33.073  22.781  24.880  1.00  0.00     0.178 C 
ATOM      8  C   UNL A   1      32.838  21.294  25.292  1.00  0.00     0.079 C 
ATOM      9  C   UNL A   1      32.297  22.914  23.487  1.00  0.00     0.061 C 
ATOM     10  C   UNL A   1      32.702  20.531  23.986  1.00  0.00     0.008 C 
ATOM     11  C   UNL A   1      31.843  21.459  23.155  1.00  0.00     0.011 C 
BRANCH   7  12
ATOM     12  N   UNL A   1      34.551  22.739  24.557  1.00  0.00    -0.334 N 
ATOM     13  H   UNL A   1      35.012  23.280  25.288  1.00  0.00     0.347 HD
ATOM     14  H   UNL A   1      34.709  21.734  24.480  1.00  0.00     0.347 HD
BRANCH  12  15
ATOM     15  C   UNL A   1      35.111  23.210  23.300  1.00  0.00     0.257 C 
ATOM     16  C   UNL A   1      36.609  22.903  23.194  1.00  0.00     0.071 C 
ENDBRANCH  12  15
ENDBRANCH   7  12
BRANCH   9  17
ATOM     17  C   UNL A   1      31.104  23.843  23.113  1.00  0.00     0.022 C 
BRANCH  17  18
ATOM     18  C   UNL A   1      31.270  25.349  22.882  1.00  0.00     0.079 C 
BRANCH  18  19
ATOM     19  S   UNL A   1      30.102  26.507  23.633  1.00  0.00    -0.086 SA
BRANCH  19  20
ATOM     20  C   UNL A   1      30.200  28.044  22.873  1.00  0.00     0.191 A 
ATOM     21  N   UNL A   1      31.340  28.474  22.403  1.00  0.00    -0.146 NA
ATOM     22  N   UNL A   1      29.168  28.877  22.646  1.00  0.00    -0.273 N 
ATOM     23  N   UNL A   1      31.043  29.689  21.853  1.00  0.00    -0.226 N 
ATOM     24  C   UNL A   1      29.705  29.981  22.032  1.00  0.00     0.343 A 
ATOM     25  C   UNL A   1      27.764  28.802  22.869  1.00  0.00     0.157 C 
ATOM     26  H   UNL A   1      31.690  30.273  21.395  1.00  0.00     0.195 HD
ATOM     27  O   UNL A   1      29.138  31.010  21.719  1.00  0.00    -0.246 OA
ENDBRANCH  19  20
ENDBRANCH  18  19
ENDBRANCH  17  18
ENDBRANCH   9  17
ENDBRANCH   4   7
ENDBRANCH   2   3
ENDBRANCH   1   2
BRANCH   1  28
ATOM     28  C   UNL A   1      33.918  28.395  25.836  1.00  0.00     0.023 C 
BRANCH  28  29
ATOM     29  C   UNL A   1      33.519  28.596  27.299  1.00  0.00     0.116 C 
BRANCH  29  30
ATOM     30  N   UNL A   1      33.542  29.991  27.718  1.00  0.00    -0.352 N 
ATOM     31  C   UNL A   1      34.549  30.720  28.310  1.00  0.00     0.251 C 
ATOM     32  H   UNL A   1      32.710  30.488  27.553  1.00  0.00     0.163 HD
ATOM     33  O   UNL A   1      34.318  31.855  28.716  1.00  0.00    -0.269 OA
BRANCH  31  34
ATOM     34  C   UNL A   1      35.891  30.125  28.496  1.00  0.00     0.039 A 
ATOM     35  C   UNL A   1      36.789  30.136  27.425  1.00  0.00     0.014 A 
ATOM     36  C   UNL A   1      36.273  29.576  29.721  1.00  0.00     0.014 A 
ATOM     37  C   UNL A   1      38.100  29.690  27.616  1.00  0.00     0.010 A 
ATOM     38  C   UNL A   1      37.602  29.211  29.933  1.00  0.00     0.010 A 
ATOM     39  C   UNL A   1      38.535  29.275  28.886  1.00  0.00    -0.014 A 
BRANCH  39  40
ATOM     40  C   UNL A   1      39.963  28.937  29.142  1.00  0.00     0.031 A 
ATOM     41  C   UNL A   1      40.902  29.966  29.711  1.00  0.00     0.074 A 
ATOM     42  C   UNL A   1      40.431  27.720  28.797  1.00  0.00     0.049 A 
ATOM     43  N   UNL A   1      42.188  29.873  29.942  1.00  0.00    -0.248 NA
ATOM     44  C   UNL A   1      40.330  31.281  30.040  1.00  0.00     0.031 C 
ATOM     45  C   UNL A   1      39.638  26.648  28.190  1.00  0.00     0.029 A 
ATOM     46  N   UNL A   1      41.690  27.179  28.897  1.00  0.00    -0.354 N 
ATOM     47  C   UNL A   1      42.577  31.115  30.433  1.00  0.00     0.074 A 
ATOM     48  C   UNL A   1      41.404  31.962  30.412  1.00  0.00     0.031 C 
ATOM     49  C   UNL A   1      40.419  25.574  27.998  1.00  0.00     0.029 A 
ATOM     50  C   UNL A   1      41.779  25.889  28.423  1.00  0.00     0.049 A 
ATOM     51  H   UNL A   1      42.458  27.667  29.273  1.00  0.00     0.167 HD
ATOM     52  C   UNL A   1      43.794  31.507  30.884  1.00  0.00     0.037 A 
ATOM     53  C   UNL A   1      42.836  25.057  28.329  1.00  0.00     0.037 A 
ATOM     54  C   UNL A   1      44.956  30.654  30.917  1.00  0.00     0.049 A 
ATOM     55  C   UNL A   1      44.181  25.522  28.819  1.00  0.00     0.074 A 
ATOM     56  C   UNL A   1      46.218  30.942  31.406  1.00  0.00     0.029 A 
ATOM     57  N   UNL A   1      45.002  29.353  30.437  1.00  0.00    -0.354 N 
ATOM     58  N   UNL A   1      44.515  26.676  29.345  1.00  0.00    -0.248 NA
ATOM     59  C   UNL A   1      45.295  24.569  28.707  1.00  0.00     0.031 C 
ATOM     60  C   UNL A   1      47.042  29.837  31.171  1.00  0.00     0.029 A 
ATOM     61  C   UNL A   1      46.278  28.836  30.594  1.00  0.00     0.049 A 
ATOM     62  H   UNL A   1      44.240  28.869  30.044  1.00  0.00     0.167 HD
ATOM     63  C   UNL A   1      45.867  26.577  29.657  1.00  0.00     0.074 A 
ATOM     64  C   UNL A   1      46.286  25.245  29.271  1.00  0.00     0.031 C 
ATOM     65  C   UNL A   1      46.685  27.505  30.213  1.00  0.00     0.037 A 
BRANCH  52  66
ATOM     66  C   UNL A   1      43.935  32.921  31.379  1.00  0.00     0.058 A 
ATOM     67  C   UNL A   1      44.171  33.992  30.500  1.00  0.00     0.135 A 
ATOM     68  C   UNL A   1      43.794  33.219  32.744  1.00  0.00     0.135 A 
ATOM     69  F   UNL A   1      44.329  33.766  29.186  1.00  0.00    -0.206 F 
ATOM     70  C   UNL A   1      44.291  35.300  30.960  1.00  0.00     0.059 A 
ATOM     71  C   UNL A   1      43.877  34.523  33.222  1.00  0.00     0.059 A 
ATOM     72  F   UNL A   1      43.566  32.236  33.630  1.00  0.00    -0.206 F 
ATOM     73  C   UNL A   1      44.141  35.556  32.324  1.00  0.00     0.060 A 
BRANCH  73  74
ATOM     74  S   UNL A   1      44.294  37.259  32.900  1.00  0.00     0.124 S 
ATOM     75  O   UNL A   1      45.500  37.182  33.719  1.00  0.00    -0.237 OA
ATOM     76  O   UNL A   1      44.425  37.999  31.649  1.00  0.00    -0.237 OA
ATOM     77  O   UNL A   1      43.052  37.485  33.632  1.00  0.00    -0.744 OA
ENDBRANCH  73  74
ENDBRANCH  52  66
BRANCH  53  78
ATOM     78  C   UNL A   1      42.662  23.690  27.765  1.00  0.00     0.058 A 
ATOM     79  C   UNL A   1      42.722  23.467  26.380  1.00  0.00     0.135 A 
ATOM     80  C   UNL A   1      42.436  22.581  28.594  1.00  0.00     0.135 A 
ATOM     81  F   UNL A   1      42.926  24.495  25.543  1.00  0.00    -0.206 F 
ATOM     82  C   UNL A   1      42.547  22.198  25.837  1.00  0.00     0.059 A 
ATOM     83  C   UNL A   1      42.289  21.296  28.077  1.00  0.00     0.059 A 
ATOM     84  F   UNL A   1      42.386  22.736  29.926  1.00  0.00    -0.206 F 
ATOM     85  C   UNL A   1      42.335  21.117  26.695  1.00  0.00     0.060 A 
BRANCH  85  86
ATOM     86  S   UNL A   1      42.157  19.468  25.982  1.00  0.00     0.124 S 
ATOM     87  O   UNL A   1      42.964  19.581  24.773  1.00  0.00    -0.237 OA
ATOM     88  O   UNL A   1      42.701  18.620  27.037  1.00  0.00    -0.237 OA
ATOM     89  O   UNL A   1      40.717  19.347  25.771  1.00  0.00    -0.744 OA
ENDBRANCH  85  86
ENDBRANCH  53  78
BRANCH  65  90
ATOM     90  C   UNL A   1      48.112  27.105  30.481  1.00  0.00     0.058 A 
ATOM     91  C   UNL A   1      49.125  27.280  29.525  1.00  0.00     0.135 A 
ATOM     92  C   UNL A   1      48.479  26.589  31.735  1.00  0.00     0.135 A 
ATOM     93  F   UNL A   1      48.829  27.763  28.308  1.00  0.00    -0.206 F 
ATOM     94  C   UNL A   1      50.446  26.934  29.794  1.00  0.00     0.059 A 
ATOM     95  C   UNL A   1      49.799  26.266  32.036  1.00  0.00     0.059 A 
ATOM     96  F   UNL A   1      47.553  26.409  32.691  1.00  0.00    -0.206 F 
ATOM     97  C   UNL A   1      50.774  26.431  31.055  1.00  0.00     0.060 A 
BRANCH  97  98
ATOM     98  S   UNL A   1      52.496  26.021  31.400  1.00  0.00     0.124 S 
ATOM     99  O   UNL A   1      53.108  26.183  30.085  1.00  0.00    -0.237 OA
ATOM    100  O   UNL A   1      52.862  27.023  32.397  1.00  0.00    -0.237 OA
ATOM    101  O   UNL A   1      52.428  24.649  31.896  1.00  0.00    -0.744 OA
ENDBRANCH  97  98
ENDBRANCH  65  90
ENDBRANCH  39  40
ENDBRANCH  31  34
ENDBRANCH  29  30
ENDBRANCH  28  29
ENDBRANCH   1  28
TORSDOF 20
ENDMDL
MODEL 2
REMARK VINA RESULT:     -10.7      2.418      3.104
REMARK SMILES CC[NH2+][C@]1(C(=O)NCCCCNC(=O)c2ccc(-c3c4nc(c(-c5c(F)cc(S(=O)(=O)[O-])cc5F)c5ccc([nH]5)c(-c5c(F)cc(S(=O)(=O)[O-])cc5F)c5nc(c(-c6c(F)cc(S(=O)(=O)[O-])cc6F)c6ccc3[nH]6)C=C5)C=C4)cc2)CCC[C@H]1CCSc1n[nH]c(=O)n1C
REMARK SMILES IDX 9 1 8 2 7 3 5 4 6 5 4 7 81 8 84 9 82 10 83 11 3 12 2 15 1 16
REMARK SMILES IDX 85 17 86 18 87 19 88 20 89 21 93 22 90 23 91 24 94 25 92 27
REMARK SMILES IDX 10 28 11 29 12 30 13 31 14 33 15 34 16 35 80 36 17 37 79 38
REMARK SMILES IDX 18 39 19 40 20 41 73 42 21 43 78 44 72 45 74 46 22 47 77 48
REMARK SMILES IDX 71 49 70 50 23 52 57 53 36 54 56 55 37 56 40 57 55 58 75 59
REMARK SMILES IDX 38 60 39 61 54 63 76 64 41 65 24 66 25 67 34 68 26 69 27 70
REMARK SMILES IDX 33 71 35 72 28 73 29 74 30 75 31 76 32 77 58 78 59 79 68 80
REMARK SMILES IDX 60 81 61 82 67 83 69 84 62 85 63 86 64 87 65 88 66 89 42 90
REMARK SMILES IDX 43 91 52 92 44 93 45 94 51 95 53 96 46 97 47 98 48 99 49 100
REMARK SMILES IDX 50 101
REMARK H PARENT 7 6 3 13 3 14 90 26 12 32 74 51 40 62
REMARK Flexibility Score: inf
ROOT
ATOM      1  C   UNL A   1      33.368  28.118  26.037  1.00  0.00     0.023 C 
ENDROOT
BRANCH   1   2
ATOM      2  C   UNL A   1      33.567  26.615  25.869  1.00  0.00     0.116 C 
BRANCH   2   3
ATOM      3  N   UNL A   1      32.509  25.817  26.438  1.00  0.00    -0.351 N 
ATOM      4  C   UNL A   1      32.188  24.500  26.349  1.00  0.00     0.281 C 
ATOM      5  O   UNL A   1      31.258  24.194  27.105  1.00  0.00    -0.268 OA
ATOM      6  H   UNL A   1      31.893  26.332  27.009  1.00  0.00     0.163 HD
BRANCH   4   7
ATOM      7  C   UNL A   1      32.847  23.486  25.338  1.00  0.00     0.178 C 
ATOM      8  C   UNL A   1      32.493  22.053  25.844  1.00  0.00     0.079 C 
ATOM      9  C   UNL A   1      32.451  23.448  23.788  1.00  0.00     0.061 C 
ATOM     10  C   UNL A   1      32.681  21.144  24.643  1.00  0.00     0.008 C 
ATOM     11  C   UNL A   1      32.074  21.958  23.521  1.00  0.00     0.011 C 
BRANCH   7  12
ATOM     12  N   UNL A   1      34.358  23.429  25.407  1.00  0.00    -0.334 N 
ATOM     13  H   UNL A   1      34.617  23.919  26.263  1.00  0.00     0.347 HD
ATOM     14  H   UNL A   1      34.523  22.427  25.314  1.00  0.00     0.347 HD
BRANCH  12  15
ATOM     15  C   UNL A   1      35.229  23.956  24.368  1.00  0.00     0.257 C 
ATOM     16  C   UNL A   1      36.573  23.219  24.324  1.00  0.00     0.071 C 
ENDBRANCH  12  15
ENDBRANCH   7  12
BRANCH   9  17
ATOM     17  C   UNL A   1      31.406  24.311  23.020  1.00  0.00     0.022 C 
BRANCH  17  18
ATOM     18  C   UNL A   1      31.526  25.833  22.891  1.00  0.00     0.079 C 
BRANCH  18  19
ATOM     19  S   UNL A   1      30.293  26.900  23.672  1.00  0.00    -0.086 SA
BRANCH  19  20
ATOM     20  C   UNL A   1      30.168  28.395  22.835  1.00  0.00     0.191 A 
ATOM     21  N   UNL A   1      31.229  28.946  22.311  1.00  0.00    -0.146 NA
ATOM     22  N   UNL A   1      29.030  29.070  22.597  1.00  0.00    -0.273 N 
ATOM     23  N   UNL A   1      30.761  30.080  21.711  1.00  0.00    -0.226 N 
ATOM     24  C   UNL A   1      29.400  30.202  21.914  1.00  0.00     0.343 A 
ATOM     25  C   UNL A   1      27.653  28.822  22.863  1.00  0.00     0.157 C 
ATOM     26  H   UNL A   1      31.314  30.719  21.206  1.00  0.00     0.195 HD
ATOM     27  O   UNL A   1      28.695  31.130  21.567  1.00  0.00    -0.246 OA
ENDBRANCH  19  20
ENDBRANCH  18  19
ENDBRANCH  17  18
ENDBRANCH   9  17
ENDBRANCH   4   7
ENDBRANCH   2   3
ENDBRANCH   1   2
BRANCH   1  28
ATOM     28  C   UNL A   1      33.747  28.683  27.413  1.00  0.00     0.023 C 
BRANCH  28  29
ATOM     29  C   UNL A   1      35.073  29.439  27.501  1.00  0.00     0.116 C 
BRANCH  29  30
ATOM     30  N   UNL A   1      35.189  30.267  28.693  1.00  0.00    -0.352 N 
ATOM     31  C   UNL A   1      36.254  30.444  29.547  1.00  0.00     0.251 C 
ATOM     32  H   UNL A   1      34.381  30.779  28.924  1.00  0.00     0.163 HD
ATOM     33  O   UNL A   1      36.102  31.083  30.584  1.00  0.00    -0.269 OA
BRANCH  31  34
ATOM     34  C   UNL A   1      37.566  29.830  29.241  1.00  0.00     0.039 A 
ATOM     35  C   UNL A   1      38.002  29.796  27.914  1.00  0.00     0.014 A 
ATOM     36  C   UNL A   1      38.373  29.307  30.253  1.00  0.00     0.014 A 
ATOM     37  C   UNL A   1      39.288  29.333  27.618  1.00  0.00     0.010 A 
ATOM     38  C   UNL A   1      39.682  28.925  29.968  1.00  0.00     0.010 A 
ATOM     39  C   UNL A   1      40.160  28.945  28.649  1.00  0.00    -0.014 A 
BRANCH  39  40
ATOM     40  C   UNL A   1      41.579  28.588  28.366  1.00  0.00     0.031 A 
ATOM     41  C   UNL A   1      42.648  29.647  28.371  1.00  0.00     0.074 A 
ATOM     42  C   UNL A   1      41.894  27.319  28.039  1.00  0.00     0.049 A 
ATOM     43  N   UNL A   1      43.922  29.536  28.088  1.00  0.00    -0.248 NA
ATOM     44  C   UNL A   1      42.229  31.016  28.711  1.00  0.00     0.031 C 
ATOM     45  C   UNL A   1      40.944  26.206  27.949  1.00  0.00     0.029 A 
ATOM     46  N   UNL A   1      43.099  26.747  27.710  1.00  0.00    -0.354 N 
ATOM     47  C   UNL A   1      44.452  30.817  28.208  1.00  0.00     0.074 A 
ATOM     48  C   UNL A   1      43.351  31.698  28.531  1.00  0.00     0.031 C 
ATOM     49  C   UNL A   1      41.605  25.086  27.618  1.00  0.00     0.029 A 
ATOM     50  C   UNL A   1      43.016  25.402  27.425  1.00  0.00     0.049 A 
ATOM     51  H   UNL A   1      43.944  27.251  27.682  1.00  0.00     0.167 HD
ATOM     52  C   UNL A   1      45.740  31.217  28.084  1.00  0.00     0.037 A 
ATOM     53  C   UNL A   1      43.964  24.524  27.041  1.00  0.00     0.037 A 
ATOM     54  C   UNL A   1      46.836  30.332  27.776  1.00  0.00     0.049 A 
ATOM     55  C   UNL A   1      45.386  24.997  26.891  1.00  0.00     0.074 A 
ATOM     56  C   UNL A   1      48.183  30.633  27.684  1.00  0.00     0.029 A 
ATOM     57  N   UNL A   1      46.711  28.977  27.504  1.00  0.00    -0.354 N 
ATOM     58  N   UNL A   1      45.880  26.199  27.077  1.00  0.00    -0.248 NA
ATOM     59  C   UNL A   1      46.382  23.995  26.485  1.00  0.00     0.031 C 
ATOM     60  C   UNL A   1      48.866  29.475  27.301  1.00  0.00     0.029 A 
ATOM     61  C   UNL A   1      47.954  28.436  27.217  1.00  0.00     0.049 A 
ATOM     62  H   UNL A   1      45.865  28.474  27.513  1.00  0.00     0.167 HD
ATOM     63  C   UNL A   1      47.247  26.089  26.843  1.00  0.00     0.074 A 
ATOM     64  C   UNL A   1      47.503  24.702  26.513  1.00  0.00     0.031 C 
ATOM     65  C   UNL A   1      48.201  27.051  26.897  1.00  0.00     0.037 A 
BRANCH  52  66
ATOM     66  C   UNL A   1      46.041  32.679  28.280  1.00  0.00     0.058 A 
ATOM     67  C   UNL A   1      45.950  33.601  27.224  1.00  0.00     0.135 A 
ATOM     68  C   UNL A   1      46.386  33.174  29.549  1.00  0.00     0.135 A 
ATOM     69  F   UNL A   1      45.638  33.183  25.986  1.00  0.00    -0.206 F 
ATOM     70  C   UNL A   1      46.219  34.953  27.411  1.00  0.00     0.059 A 
ATOM     71  C   UNL A   1      46.626  34.528  29.766  1.00  0.00     0.059 A 
ATOM     72  F   UNL A   1      46.486  32.340  30.595  1.00  0.00    -0.206 F 
ATOM     73  C   UNL A   1      46.555  35.408  28.687  1.00  0.00     0.060 A 
BRANCH  73  74
ATOM     74  S   UNL A   1      46.894  37.166  28.912  1.00  0.00     0.124 S 
ATOM     75  O   UNL A   1      48.104  37.334  28.114  1.00  0.00    -0.237 OA
ATOM     76  O   UNL A   1      45.688  37.786  28.371  1.00  0.00    -0.237 OA
ATOM     77  O   UNL A   1      47.071  37.298  30.355  1.00  0.00    -0.744 OA
ENDBRANCH  73  74
ENDBRANCH  52  66
BRANCH  53  78
ATOM     78  C   UNL A   1      43.606  23.101  26.787  1.00  0.00     0.058 A 
ATOM     79  C   UNL A   1      43.275  22.239  27.844  1.00  0.00     0.135 A 
ATOM     80  C   UNL A   1      43.581  22.575  25.486  1.00  0.00     0.135 A 
ATOM     81  F   UNL A   1      43.291  22.690  29.108  1.00  0.00    -0.206 F 
ATOM     82  C   UNL A   1      42.952  20.904  27.624  1.00  0.00     0.059 A 
ATOM     83  C   UNL A   1      43.231  21.251  25.237  1.00  0.00     0.059 A 
ATOM     84  F   UNL A   1      43.873  23.360  24.437  1.00  0.00    -0.206 F 
ATOM     85  C   UNL A   1      42.928  20.420  26.315  1.00  0.00     0.060 A 
BRANCH  85  86
ATOM     86  S   UNL A   1      42.460  18.698  26.037  1.00  0.00     0.124 S 
ATOM     87  O   UNL A   1      41.053  18.830  25.676  1.00  0.00    -0.237 OA
ATOM     88  O   UNL A   1      43.363  18.308  24.959  1.00  0.00    -0.237 OA
ATOM     89  O   UNL A   1      42.725  18.066  27.326  1.00  0.00    -0.744 OA
ENDBRANCH  85  86
ENDBRANCH  53  78
BRANCH  65  90
ATOM     90  C   UNL A   1      49.625  26.636  26.635  1.00  0.00     0.058 A 
ATOM     91  C   UNL A   1      50.161  26.594  25.338  1.00  0.00     0.135 A 
ATOM     92  C   UNL A   1      50.481  26.326  27.705  1.00  0.00     0.135 A 
ATOM     93  F   UNL A   1      49.386  26.874  24.278  1.00  0.00    -0.206 F 
ATOM     94  C   UNL A   1      51.486  26.237  25.110  1.00  0.00     0.059 A 
ATOM     95  C   UNL A   1      51.817  25.997  27.503  1.00  0.00     0.059 A 
ATOM     96  F   UNL A   1      50.024  26.357  28.968  1.00  0.00    -0.206 F 
ATOM     97  C   UNL A   1      52.308  25.944  26.200  1.00  0.00     0.060 A 
BRANCH  97  98
ATOM     98  S   UNL A   1      54.034  25.517  25.891  1.00  0.00     0.124 S 
ATOM     99  O   UNL A   1      54.448  25.002  27.192  1.00  0.00    -0.237 OA
ATOM    100  O   UNL A   1      53.924  24.527  24.823  1.00  0.00    -0.237 OA
ATOM    101  O   UNL A   1      54.635  26.789  25.499  1.00  0.00    -0.744 OA
ENDBRANCH  97  98
ENDBRANCH  65  90
ENDBRANCH  39  40
ENDBRANCH  31  34
ENDBRANCH  29  30
ENDBRANCH  28  29
ENDBRANCH   1  28
TORSDOF 20
ENDMDL
MODEL 3
REMARK VINA RESULT:     -10.7      1.849      3.697
REMARK SMILES CC[NH2+][C@]1(C(=O)NCCCCNC(=O)c2ccc(-c3c4nc(c(-c5c(F)cc(S(=O)(=O)[O-])cc5F)c5ccc([nH]5)c(-c5c(F)cc(S(=O)(=O)[O-])cc5F)c5nc(c(-c6c(F)cc(S(=O)(=O)[O-])cc6F)c6ccc3[nH]6)C=C5)C=C4)cc2)CCC[C@H]1CCSc1n[nH]c(=O)n1C
REMARK SMILES IDX 9 1 8 2 7 3 5 4 6 5 4 7 81 8 84 9 82 10 83 11 3 12 2 15 1 16
REMARK SMILES IDX 85 17 86 18 87 19 88 20 89 21 93 22 90 23 91 24 94 25 92 27
REMARK SMILES IDX 10 28 11 29 12 30 13 31 14 33 15 34 16 35 80 36 17 37 79 38
REMARK SMILES IDX 18 39 19 40 20 41 73 42 21 43 78 44 72 45 74 46 22 47 77 48
REMARK SMILES IDX 71 49 70 50 23 52 57 53 36 54 56 55 37 56 40 57 55 58 75 59
REMARK SMILES IDX 38 60 39 61 54 63 76 64 41 65 24 66 25 67 34 68 26 69 27 70
REMARK SMILES IDX 33 71 35 72 28 73 29 74 30 75 31 76 32 77 58 78 59 79 68 80
REMARK SMILES IDX 60 81 61 82 67 83 69 84 62 85 63 86 64 87 65 88 66 89 42 90
REMARK SMILES IDX 43 91 52 92 44 93 45 94 51 95 53 96 46 97 47 98 48 99 49 100
REMARK SMILES IDX 50 101
REMARK H PARENT 7 6 3 13 3 14 90 26 12 32 74 51 40 62
REMARK Flexibility Score: inf
ROOT
ATOM      1  C   UNL A   1      31.771  27.167  25.966  1.00  0.00     0.023 C 
ENDROOT
BRANCH   1   2
ATOM      2  C   UNL A   1      30.458  26.393  26.018  1.00  0.00     0.116 C 
BRANCH   2   3
ATOM      3  N   UNL A   1      30.623  24.969  26.175  1.00  0.00    -0.351 N 
ATOM      4  C   UNL A   1      31.203  24.010  25.406  1.00  0.00     0.281 C 
ATOM      5  O   UNL A   1      31.236  22.912  25.975  1.00  0.00    -0.268 OA
ATOM      6  H   UNL A   1      30.238  24.619  27.011  1.00  0.00     0.163 HD
BRANCH   4   7
ATOM      7  C   UNL A   1      31.693  24.229  23.924  1.00  0.00     0.178 C 
ATOM      8  C   UNL A   1      30.691  25.225  23.262  1.00  0.00     0.079 C 
ATOM      9  C   UNL A   1      33.127  24.853  23.583  1.00  0.00     0.061 C 
ATOM     10  C   UNL A   1      31.427  25.802  22.066  1.00  0.00     0.008 C 
ATOM     11  C   UNL A   1      32.813  26.041  22.621  1.00  0.00     0.011 C 
BRANCH   7  12
ATOM     12  N   UNL A   1      31.511  23.028  23.023  1.00  0.00    -0.334 N 
ATOM     13  H   UNL A   1      30.774  22.468  23.449  1.00  0.00     0.347 HD
ATOM     14  H   UNL A   1      31.362  23.478  22.120  1.00  0.00     0.347 HD
BRANCH  12  15
ATOM     15  C   UNL A   1      32.581  22.097  22.701  1.00  0.00     0.257 C 
ATOM     16  C   UNL A   1      32.173  20.644  22.973  1.00  0.00     0.071 C 
ENDBRANCH  12  15
ENDBRANCH   7  12
BRANCH   9  17
ATOM     17  C   UNL A   1      34.236  25.355  24.554  1.00  0.00     0.022 C 
BRANCH  17  18
ATOM     18  C   UNL A   1      35.371  24.452  25.049  1.00  0.00     0.079 C 
BRANCH  18  19
ATOM     19  S   UNL A   1      35.032  23.183  26.292  1.00  0.00    -0.086 SA
BRANCH  19  20
ATOM     20  C   UNL A   1      35.526  21.637  25.728  1.00  0.00     0.191 A 
ATOM     21  N   UNL A   1      34.637  20.719  25.461  1.00  0.00    -0.146 NA
ATOM     22  N   UNL A   1      36.791  21.264  25.464  1.00  0.00    -0.273 N 
ATOM     23  N   UNL A   1      35.370  19.656  25.017  1.00  0.00    -0.226 N 
ATOM     24  C   UNL A   1      36.718  19.956  25.052  1.00  0.00     0.343 A 
ATOM     25  C   UNL A   1      38.049  21.929  25.492  1.00  0.00     0.157 C 
ATOM     26  H   UNL A   1      34.992  18.798  24.716  1.00  0.00     0.195 HD
ATOM     27  O   UNL A   1      37.636  19.204  24.786  1.00  0.00    -0.246 OA
ENDBRANCH  19  20
ENDBRANCH  18  19
ENDBRANCH  17  18
ENDBRANCH   9  17
ENDBRANCH   4   7
ENDBRANCH   2   3
ENDBRANCH   1   2
BRANCH   1  28
ATOM     28  C   UNL A   1      32.104  27.985  27.220  1.00  0.00     0.023 C 
BRANCH  28  29
ATOM     29  C   UNL A   1      33.499  28.609  27.281  1.00  0.00     0.116 C 
BRANCH  29  30
ATOM     30  N   UNL A   1      33.494  29.993  27.734  1.00  0.00    -0.352 N 
ATOM     31  C   UNL A   1      34.485  30.725  28.348  1.00  0.00     0.251 C 
ATOM     32  H   UNL A   1      32.654  30.479  27.578  1.00  0.00     0.163 HD
ATOM     33  O   UNL A   1      34.232  31.846  28.781  1.00  0.00    -0.269 OA
BRANCH  31  34
ATOM     34  C   UNL A   1      35.837  30.150  28.526  1.00  0.00     0.039 A 
ATOM     35  C   UNL A   1      36.703  30.111  27.429  1.00  0.00     0.014 A 
ATOM     36  C   UNL A   1      36.261  29.669  29.766  1.00  0.00     0.014 A 
ATOM     37  C   UNL A   1      38.024  29.685  27.604  1.00  0.00     0.010 A 
ATOM     38  C   UNL A   1      37.598  29.325  29.956  1.00  0.00     0.010 A 
ATOM     39  C   UNL A   1      38.499  29.341  28.880  1.00  0.00    -0.014 A 
BRANCH  39  40
ATOM     40  C   UNL A   1      39.937  29.027  29.110  1.00  0.00     0.031 A 
ATOM     41  C   UNL A   1      40.871  30.074  29.654  1.00  0.00     0.074 A 
ATOM     42  C   UNL A   1      40.417  27.814  28.765  1.00  0.00     0.049 A 
ATOM     43  N   UNL A   1      42.162  30.003  29.860  1.00  0.00    -0.248 NA
ATOM     44  C   UNL A   1      40.285  31.383  29.984  1.00  0.00     0.031 C 
ATOM     45  C   UNL A   1      39.628  26.725  28.182  1.00  0.00     0.029 A 
ATOM     46  N   UNL A   1      41.686  27.293  28.845  1.00  0.00    -0.354 N 
ATOM     47  C   UNL A   1      42.541  31.254  30.334  1.00  0.00     0.074 A 
ATOM     48  C   UNL A   1      41.355  32.082  30.329  1.00  0.00     0.031 C 
ATOM     49  C   UNL A   1      40.422  25.662  27.983  1.00  0.00     0.029 A 
ATOM     50  C   UNL A   1      41.785  26.001  28.379  1.00  0.00     0.049 A 
ATOM     51  H   UNL A   1      42.453  27.796  29.202  1.00  0.00     0.167 HD
ATOM     52  C   UNL A   1      43.760  31.668  30.758  1.00  0.00     0.037 A 
ATOM     53  C   UNL A   1      42.853  25.184  28.271  1.00  0.00     0.037 A 
ATOM     54  C   UNL A   1      44.936  30.833  30.775  1.00  0.00     0.049 A 
ATOM     55  C   UNL A   1      44.200  25.673  28.730  1.00  0.00     0.074 A 
ATOM     56  C   UNL A   1      46.203  31.144  31.237  1.00  0.00     0.029 A 
ATOM     57  N   UNL A   1      44.993  29.529  30.304  1.00  0.00    -0.354 N 
ATOM     58  N   UNL A   1      44.526  26.837  29.241  1.00  0.00    -0.248 NA
ATOM     59  C   UNL A   1      45.326  24.737  28.604  1.00  0.00     0.031 C 
ATOM     60  C   UNL A   1      47.039  30.050  30.994  1.00  0.00     0.029 A 
ATOM     61  C   UNL A   1      46.279  29.033  30.439  1.00  0.00     0.049 A 
ATOM     62  H   UNL A   1      44.231  29.030  29.929  1.00  0.00     0.167 HD
ATOM     63  C   UNL A   1      45.885  26.761  29.528  1.00  0.00     0.074 A 
ATOM     64  C   UNL A   1      46.318  25.433  29.143  1.00  0.00     0.031 C 
ATOM     65  C   UNL A   1      46.699  27.705  30.061  1.00  0.00     0.037 A 
BRANCH  52  66
ATOM     66  C   UNL A   1      43.890  33.088  31.240  1.00  0.00     0.058 A 
ATOM     67  C   UNL A   1      44.256  34.132  30.374  1.00  0.00     0.135 A 
ATOM     68  C   UNL A   1      43.604  33.419  32.575  1.00  0.00     0.135 A 
ATOM     69  F   UNL A   1      44.554  33.873  29.090  1.00  0.00    -0.206 F 
ATOM     70  C   UNL A   1      44.365  35.445  30.820  1.00  0.00     0.059 A 
ATOM     71  C   UNL A   1      43.674  34.731  33.035  1.00  0.00     0.059 A 
ATOM     72  F   UNL A   1      43.248  32.464  33.447  1.00  0.00    -0.206 F 
ATOM     73  C   UNL A   1      44.070  35.735  32.153  1.00  0.00     0.060 A 
BRANCH  73  74
ATOM     74  S   UNL A   1      44.211  37.446  32.712  1.00  0.00     0.124 S 
ATOM     75  O   UNL A   1      45.626  37.523  33.060  1.00  0.00    -0.237 OA
ATOM     76  O   UNL A   1      43.810  38.194  31.524  1.00  0.00    -0.237 OA
ATOM     77  O   UNL A   1      43.283  37.515  33.836  1.00  0.00    -0.744 OA
ENDBRANCH  73  74
ENDBRANCH  52  66
BRANCH  53  78
ATOM     78  C   UNL A   1      42.689  23.811  27.720  1.00  0.00     0.058 A 
ATOM     79  C   UNL A   1      42.564  22.701  28.569  1.00  0.00     0.135 A 
ATOM     80  C   UNL A   1      42.650  23.579  26.336  1.00  0.00     0.135 A 
ATOM     81  F   UNL A   1      42.604  22.867  29.900  1.00  0.00    -0.206 F 
ATOM     82  C   UNL A   1      42.425  21.410  28.069  1.00  0.00     0.059 A 
ATOM     83  C   UNL A   1      42.480  22.301  25.811  1.00  0.00     0.059 A 
ATOM     84  F   UNL A   1      42.748  24.607  25.479  1.00  0.00    -0.206 F 
ATOM     85  C   UNL A   1      42.380  21.221  26.687  1.00  0.00     0.060 A 
BRANCH  85  86
ATOM     86  S   UNL A   1      42.150  19.547  26.049  1.00  0.00     0.124 S 
ATOM     87  O   UNL A   1      43.087  19.527  24.932  1.00  0.00    -0.237 OA
ATOM     88  O   UNL A   1      42.513  18.730  27.202  1.00  0.00    -0.237 OA
ATOM     89  O   UNL A   1      40.736  19.516  25.688  1.00  0.00    -0.744 OA
ENDBRANCH  85  86
ENDBRANCH  53  78
BRANCH  65  90
ATOM     90  C   UNL A   1      48.137  27.330  30.304  1.00  0.00     0.058 A 
ATOM     91  C   UNL A   1      49.146  27.606  29.368  1.00  0.00     0.135 A 
ATOM     92  C   UNL A   1      48.518  26.731  31.517  1.00  0.00     0.135 A 
ATOM     93  F   UNL A   1      48.838  28.171  28.190  1.00  0.00    -0.206 F 
ATOM     94  C   UNL A   1      50.477  27.282  29.616  1.00  0.00     0.059 A 
ATOM     95  C   UNL A   1      49.846  26.427  31.798  1.00  0.00     0.059 A 
ATOM     96  F   UNL A   1      47.595  26.452  32.452  1.00  0.00    -0.206 F 
ATOM     97  C   UNL A   1      50.817  26.695  30.836  1.00  0.00     0.060 A 
BRANCH  97  98
ATOM     98  S   UNL A   1      52.551  26.311  31.157  1.00  0.00     0.124 S 
ATOM     99  O   UNL A   1      52.967  27.465  31.947  1.00  0.00    -0.237 OA
ATOM    100  O   UNL A   1      52.462  25.046  31.880  1.00  0.00    -0.237 OA
ATOM    101  O   UNL A   1      53.134  26.223  29.820  1.00  0.00    -0.744 OA
ENDBRANCH  97  98
ENDBRANCH  65  90
ENDBRANCH  39  40
ENDBRANCH  31  34
ENDBRANCH  29  30
ENDBRANCH  28  29
ENDBRANCH   1  28
TORSDOF 20
ENDMDL
