MODEL 1
REMARK VINA RESULT:     -12.8      0.000      0.000
REMARK SMILES Nc1c(N2CCC(C(=O)NCCCCNC(=O)c3ccc(-c4c5nc(c(-c6c(F)cc(S(=O)(=O)[O-])cc6F)c6ccc([nH]6)c(-c6c(F)cc(S(=O)(=O)[O-])cc6F)c6nc(c(-c7c(F)cc(S(=O)(=O)[O-])cc7F)c7ccc4[nH]7)C=C6)C=C5)cc3)CC2)ncnc1N1CCN(c2ccccc2)CC1
REMARK SMILES IDX 12 1 11 2 10 3 8 4 9 5 7 7 4 8 5 9 85 10 6 11 84 12 3 13
REMARK SMILES IDX 2 14 89 15 86 16 88 17 87 18 1 19 90 22 91 23 101 24 92 25
REMARK SMILES IDX 100 26 93 27 94 28 95 29 99 30 96 31 98 32 97 33 13 34 14 35
REMARK SMILES IDX 15 36 16 37 17 39 18 40 19 41 83 42 20 43 82 44 21 45 22 46
REMARK SMILES IDX 23 47 76 48 24 49 81 50 75 51 77 52 25 53 80 54 74 55 73 56
REMARK SMILES IDX 26 58 60 59 39 60 59 61 40 62 43 63 58 64 78 65 41 66 42 67
REMARK SMILES IDX 57 69 79 70 44 71 27 72 28 73 37 74 29 75 30 76 36 77 38 78
REMARK SMILES IDX 31 79 32 80 33 81 34 82 35 83 61 84 62 85 71 86 63 87 64 88
REMARK SMILES IDX 70 89 72 90 65 91 66 92 67 93 68 94 69 95 45 96 46 97 55 98
REMARK SMILES IDX 47 99 48 100 54 101 56 102 49 103 50 104 51 105 52 106
REMARK SMILES IDX 53 107
REMARK H PARENT 10 6 1 20 1 21 15 38 77 57 43 68
REMARK Flexibility Score: inf
ROOT
ATOM      1  C   UNL A   1      31.787  30.901  26.797  1.00  0.00     0.023 C 
ENDROOT
BRANCH   1   2
ATOM      2  C   UNL A   1      31.654  30.243  25.427  1.00  0.00     0.116 C 
BRANCH   2   3
ATOM      3  N   UNL A   1      30.519  30.762  24.680  1.00  0.00    -0.356 N 
ATOM      4  C   UNL A   1      29.835  30.238  23.625  1.00  0.00     0.223 C 
ATOM      5  O   UNL A   1      28.890  30.882  23.164  1.00  0.00    -0.275 OA
ATOM      6  H   UNL A   1      30.190  31.637  24.987  1.00  0.00     0.163 HD
BRANCH   4   7
ATOM      7  C   UNL A   1      30.192  28.880  23.042  1.00  0.00     0.082 C 
ATOM      8  N   UNL A   1      31.664  26.472  23.281  1.00  0.00    -0.355 N 
ATOM      9  C   UNL A   1      32.139  27.411  22.288  1.00  0.00     0.119 C 
ATOM     10  C   UNL A   1      30.242  26.399  23.563  1.00  0.00     0.119 C 
ATOM     11  C   UNL A   1      31.661  28.817  22.603  1.00  0.00     0.035 C 
ATOM     12  C   UNL A   1      29.718  27.760  23.978  1.00  0.00     0.035 C 
BRANCH   8  13
ATOM     13  C   UNL A   1      32.569  25.820  24.105  1.00  0.00     0.157 A 
ATOM     14  C   UNL A   1      32.521  24.424  24.203  1.00  0.00     0.118 A 
ATOM     15  C   UNL A   1      33.420  23.820  25.096  1.00  0.00     0.157 A 
ATOM     16  N   UNL A   1      33.445  26.550  24.818  1.00  0.00    -0.217 NA
ATOM     17  N   UNL A   1      34.249  24.537  25.870  1.00  0.00    -0.217 NA
ATOM     18  C   UNL A   1      34.229  25.865  25.670  1.00  0.00     0.226 A 
BRANCH  14  19
ATOM     19  N   UNL A   1      31.690  23.647  23.371  1.00  0.00    -0.393 N 
ATOM     20  H   UNL A   1      30.829  23.311  23.709  1.00  0.00     0.156 HD
ATOM     21  H   UNL A   1      31.972  23.438  22.450  1.00  0.00     0.156 HD
ENDBRANCH  14  19
BRANCH  15  22
ATOM     22  N   UNL A   1      33.409  22.440  25.194  1.00  0.00    -0.351 N 
ATOM     23  C   UNL A   1      32.215  21.736  25.649  1.00  0.00     0.139 C 
ATOM     24  C   UNL A   1      34.677  21.759  25.483  1.00  0.00     0.139 C 
ATOM     25  C   UNL A   1      32.172  20.355  24.942  1.00  0.00     0.138 C 
ATOM     26  C   UNL A   1      34.674  20.376  24.799  1.00  0.00     0.138 C 
ATOM     27  N   UNL A   1      33.444  19.626  25.136  1.00  0.00    -0.368 N 
BRANCH  27  28
ATOM     28  C   UNL A   1      33.495  18.248  25.009  1.00  0.00     0.037 A 
ATOM     29  C   UNL A   1      34.357  17.595  24.120  1.00  0.00     0.026 A 
ATOM     30  C   UNL A   1      32.636  17.457  25.786  1.00  0.00     0.026 A 
ATOM     31  C   UNL A   1      34.355  16.200  24.008  1.00  0.00     0.002 A 
ATOM     32  C   UNL A   1      32.619  16.067  25.669  1.00  0.00     0.002 A 
ATOM     33  C   UNL A   1      33.480  15.438  24.778  1.00  0.00     0.000 A 
ENDBRANCH  27  28
ENDBRANCH  15  22
ENDBRANCH   8  13
ENDBRANCH   4   7
ENDBRANCH   2   3
ENDBRANCH   1   2
BRANCH   1  34
ATOM     34  C   UNL A   1      31.788  32.427  26.771  1.00  0.00     0.023 C 
BRANCH  34  35
ATOM     35  C   UNL A   1      32.869  33.085  27.619  1.00  0.00     0.116 C 
BRANCH  35  36
ATOM     36  N   UNL A   1      32.560  34.464  27.968  1.00  0.00    -0.352 N 
ATOM     37  C   UNL A   1      33.133  35.253  28.935  1.00  0.00     0.251 C 
ATOM     38  H   UNL A   1      31.843  34.887  27.441  1.00  0.00     0.163 HD
ATOM     39  O   UNL A   1      32.674  36.363  29.185  1.00  0.00    -0.269 OA
BRANCH  37  40
ATOM     40  C   UNL A   1      34.286  34.730  29.695  1.00  0.00     0.039 A 
ATOM     41  C   UNL A   1      34.073  34.214  30.974  1.00  0.00     0.014 A 
ATOM     42  C   UNL A   1      35.559  34.699  29.116  1.00  0.00     0.014 A 
ATOM     43  C   UNL A   1      35.127  33.596  31.648  1.00  0.00     0.010 A 
ATOM     44  C   UNL A   1      36.589  34.023  29.760  1.00  0.00     0.010 A 
ATOM     45  C   UNL A   1      36.382  33.463  31.030  1.00  0.00    -0.014 A 
BRANCH  45  46
ATOM     46  C   UNL A   1      37.490  32.740  31.701  1.00  0.00     0.031 A 
ATOM     47  C   UNL A   1      38.004  33.224  33.028  1.00  0.00     0.074 A 
ATOM     48  C   UNL A   1      38.059  31.679  31.095  1.00  0.00     0.049 A 
ATOM     49  N   UNL A   1      38.989  32.756  33.748  1.00  0.00    -0.248 NA
ATOM     50  C   UNL A   1      37.338  34.400  33.610  1.00  0.00     0.031 C 
ATOM     51  C   UNL A   1      37.673  31.143  29.788  1.00  0.00     0.029 A 
ATOM     52  N   UNL A   1      39.083  30.860  31.499  1.00  0.00    -0.354 N 
ATOM     53  C   UNL A   1      39.063  33.580  34.865  1.00  0.00     0.074 A 
ATOM     54  C   UNL A   1      38.062  34.611  34.700  1.00  0.00     0.031 C 
ATOM     55  C   UNL A   1      38.425  30.065  29.514  1.00  0.00     0.029 A 
ATOM     56  C   UNL A   1      39.367  29.851  30.609  1.00  0.00     0.049 A 
ATOM     57  H   UNL A   1      39.569  30.984  32.346  1.00  0.00     0.167 HD
ATOM     58  C   UNL A   1      39.871  33.469  35.944  1.00  0.00     0.037 A 
ATOM     59  C   UNL A   1      40.281  28.863  30.673  1.00  0.00     0.037 A 
ATOM     60  C   UNL A   1      40.846  32.427  36.118  1.00  0.00     0.049 A 
ATOM     61  C   UNL A   1      41.176  28.767  31.878  1.00  0.00     0.074 A 
ATOM     62  C   UNL A   1      41.687  32.206  37.194  1.00  0.00     0.029 A 
ATOM     63  N   UNL A   1      41.106  31.425  35.194  1.00  0.00    -0.354 N 
ATOM     64  N   UNL A   1      41.205  29.533  32.942  1.00  0.00    -0.248 NA
ATOM     65  C   UNL A   1      42.162  27.677  31.891  1.00  0.00     0.031 C 
ATOM     66  C   UNL A   1      42.474  31.085  36.909  1.00  0.00     0.029 A 
ATOM     67  C   UNL A   1      42.101  30.590  35.670  1.00  0.00     0.049 A 
ATOM     68  H   UNL A   1      40.649  31.323  34.327  1.00  0.00     0.167 HD
ATOM     69  C   UNL A   1      42.197  29.005  33.761  1.00  0.00     0.074 A 
ATOM     70  C   UNL A   1      42.738  27.852  33.073  1.00  0.00     0.031 C 
ATOM     71  C   UNL A   1      42.621  29.440  34.972  1.00  0.00     0.037 A 
BRANCH  58  72
ATOM     72  C   UNL A   1      39.715  34.490  37.034  1.00  0.00     0.058 A 
ATOM     73  C   UNL A   1      40.349  35.740  36.955  1.00  0.00     0.135 A 
ATOM     74  C   UNL A   1      38.900  34.236  38.148  1.00  0.00     0.135 A 
ATOM     75  F   UNL A   1      41.155  36.026  35.920  1.00  0.00    -0.206 F 
ATOM     76  C   UNL A   1      40.200  36.695  37.954  1.00  0.00     0.059 A 
ATOM     77  C   UNL A   1      38.717  35.186  39.148  1.00  0.00     0.059 A 
ATOM     78  F   UNL A   1      38.274  33.055  38.273  1.00  0.00    -0.206 F 
ATOM     79  C   UNL A   1      39.381  36.408  39.048  1.00  0.00     0.060 A 
BRANCH  79  80
ATOM     80  S   UNL A   1      39.191  37.663  40.332  1.00  0.00     0.124 S 
ATOM     81  O   UNL A   1      38.861  36.842  41.494  1.00  0.00    -0.237 OA
ATOM     82  O   UNL A   1      40.509  38.289  40.355  1.00  0.00    -0.237 OA
ATOM     83  O   UNL A   1      38.109  38.503  39.829  1.00  0.00    -0.744 OA
ENDBRANCH  79  80
ENDBRANCH  58  72
BRANCH  59  84
ATOM     84  C   UNL A   1      40.365  27.861  29.579  1.00  0.00     0.058 A 
ATOM     85  C   UNL A   1      39.499  26.758  29.554  1.00  0.00     0.135 A 
ATOM     86  C   UNL A   1      41.288  27.993  28.531  1.00  0.00     0.135 A 
ATOM     87  F   UNL A   1      38.604  26.586  30.538  1.00  0.00    -0.206 F 
ATOM     88  C   UNL A   1      39.549  25.815  28.533  1.00  0.00     0.059 A 
ATOM     89  C   UNL A   1      41.345  27.073  27.488  1.00  0.00     0.059 A 
ATOM     90  F   UNL A   1      42.128  29.039  28.503  1.00  0.00    -0.206 F 
ATOM     91  C   UNL A   1      40.475  25.984  27.501  1.00  0.00     0.060 A 
BRANCH  91  92
ATOM     92  S   UNL A   1      40.492  24.784  26.151  1.00  0.00     0.124 S 
ATOM     93  O   UNL A   1      39.080  24.441  26.044  1.00  0.00    -0.237 OA
ATOM     94  O   UNL A   1      41.045  25.568  25.051  1.00  0.00    -0.237 OA
ATOM     95  O   UNL A   1      41.364  23.726  26.655  1.00  0.00    -0.744 OA
ENDBRANCH  91  92
ENDBRANCH  59  84
BRANCH  71  96
ATOM     96  C   UNL A   1      43.713  28.663  35.648  1.00  0.00     0.058 A 
ATOM     97  C   UNL A   1      45.063  28.999  35.473  1.00  0.00     0.135 A 
ATOM     98  C   UNL A   1      43.400  27.633  36.550  1.00  0.00     0.135 A 
ATOM     99  F   UNL A   1      45.411  29.971  34.615  1.00  0.00    -0.206 F 
ATOM    100  C   UNL A   1      46.069  28.341  36.171  1.00  0.00     0.059 A 
ATOM    101  C   UNL A   1      44.389  26.974  37.273  1.00  0.00     0.059 A 
ATOM    102  F   UNL A   1      42.121  27.281  36.756  1.00  0.00    -0.206 F 
ATOM    103  C   UNL A   1      45.722  27.334  37.075  1.00  0.00     0.060 A 
BRANCH 103 104
ATOM    104  S   UNL A   1      47.033  26.537  38.024  1.00  0.00     0.124 S 
ATOM    105  O   UNL A   1      46.484  26.576  39.376  1.00  0.00    -0.237 OA
ATOM    106  O   UNL A   1      47.106  25.215  37.408  1.00  0.00    -0.237 OA
ATOM    107  O   UNL A   1      48.192  27.395  37.792  1.00  0.00    -0.744 OA
ENDBRANCH 103 104
ENDBRANCH  71  96
ENDBRANCH  45  46
ENDBRANCH  37  40
ENDBRANCH  35  36
ENDBRANCH  34  35
ENDBRANCH   1  34
TORSDOF 18
ENDMDL
MODEL 2
REMARK VINA RESULT:     -12.8      2.733      9.615
REMARK SMILES Nc1c(N2CCC(C(=O)NCCCCNC(=O)c3ccc(-c4c5nc(c(-c6c(F)cc(S(=O)(=O)[O-])cc6F)c6ccc([nH]6)c(-c6c(F)cc(S(=O)(=O)[O-])cc6F)c6nc(c(-c7c(F)cc(S(=O)(=O)[O-])cc7F)c7ccc4[nH]7)C=C6)C=C5)cc3)CC2)ncnc1N1CCN(c2ccccc2)CC1
REMARK SMILES IDX 12 1 11 2 10 3 8 4 9 5 7 7 4 8 5 9 85 10 6 11 84 12 3 13
REMARK SMILES IDX 2 14 89 15 86 16 88 17 87 18 1 19 90 22 91 23 101 24 92 25
REMARK SMILES IDX 100 26 93 27 94 28 95 29 99 30 96 31 98 32 97 33 13 34 14 35
REMARK SMILES IDX 15 36 16 37 17 39 18 40 19 41 83 42 20 43 82 44 21 45 22 46
REMARK SMILES IDX 23 47 76 48 24 49 81 50 75 51 77 52 25 53 80 54 74 55 73 56
REMARK SMILES IDX 26 58 60 59 39 60 59 61 40 62 43 63 58 64 78 65 41 66 42 67
REMARK SMILES IDX 57 69 79 70 44 71 27 72 28 73 37 74 29 75 30 76 36 77 38 78
REMARK SMILES IDX 31 79 32 80 33 81 34 82 35 83 61 84 62 85 71 86 63 87 64 88
REMARK SMILES IDX 70 89 72 90 65 91 66 92 67 93 68 94 69 95 45 96 46 97 55 98
REMARK SMILES IDX 47 99 48 100 54 101 56 102 49 103 50 104 51 105 52 106
REMARK SMILES IDX 53 107
REMARK H PARENT 10 6 1 20 1 21 15 38 77 57 43 68
REMARK Flexibility Score: inf
ROOT
ATOM      1  C   UNL A   1      40.812  21.889  27.780  1.00  0.00     0.023 C 
ENDROOT
BRANCH   1   2
ATOM      2  C   UNL A   1      39.971  22.567  26.702  1.00  0.00     0.116 C 
BRANCH   2   3
ATOM      3  N   UNL A   1      39.366  21.603  25.796  1.00  0.00    -0.356 N 
ATOM      4  C   UNL A   1      38.071  21.445  25.402  1.00  0.00     0.223 C 
ATOM      5  O   UNL A   1      37.810  20.539  24.608  1.00  0.00    -0.275 OA
ATOM      6  H   UNL A   1      39.996  20.957  25.402  1.00  0.00     0.163 HD
BRANCH   4   7
ATOM      7  C   UNL A   1      36.972  22.373  25.893  1.00  0.00     0.082 C 
ATOM      8  N   UNL A   1      34.418  23.517  25.456  1.00  0.00    -0.355 N 
ATOM      9  C   UNL A   1      35.550  24.396  25.258  1.00  0.00     0.119 C 
ATOM     10  C   UNL A   1      34.502  22.470  26.458  1.00  0.00     0.119 C 
ATOM     11  C   UNL A   1      36.812  23.598  24.982  1.00  0.00     0.035 C 
ATOM     12  C   UNL A   1      35.694  21.574  26.182  1.00  0.00     0.035 C 
BRANCH   8  13
ATOM     13  C   UNL A   1      33.365  23.532  24.554  1.00  0.00     0.157 A 
ATOM     14  C   UNL A   1      32.666  24.724  24.339  1.00  0.00     0.118 A 
ATOM     15  C   UNL A   1      31.573  24.669  23.461  1.00  0.00     0.157 A 
ATOM     16  N   UNL A   1      33.020  22.387  23.937  1.00  0.00    -0.217 NA
ATOM     17  N   UNL A   1      31.168  23.522  22.894  1.00  0.00    -0.217 NA
ATOM     18  C   UNL A   1      31.931  22.447  23.149  1.00  0.00     0.226 A 
BRANCH  14  19
ATOM     19  N   UNL A   1      33.096  25.950  24.887  1.00  0.00    -0.393 N 
ATOM     20  H   UNL A   1      33.028  26.777  24.359  1.00  0.00     0.156 HD
ATOM     21  H   UNL A   1      33.466  25.979  25.800  1.00  0.00     0.156 HD
ENDBRANCH  14  19
BRANCH  15  22
ATOM     22  N   UNL A   1      30.878  25.840  23.212  1.00  0.00    -0.351 N 
ATOM     23  C   UNL A   1      29.475  25.966  23.590  1.00  0.00     0.139 C 
ATOM     24  C   UNL A   1      31.285  26.651  22.058  1.00  0.00     0.139 C 
ATOM     25  C   UNL A   1      29.205  27.452  23.949  1.00  0.00     0.138 C 
ATOM     26  C   UNL A   1      31.029  28.140  22.374  1.00  0.00     0.138 C 
ATOM     27  N   UNL A   1      29.645  28.346  22.855  1.00  0.00    -0.368 N 
BRANCH  27  28
ATOM     28  C   UNL A   1      29.120  29.620  22.730  1.00  0.00     0.037 A 
ATOM     29  C   UNL A   1      28.337  30.018  21.640  1.00  0.00     0.026 A 
ATOM     30  C   UNL A   1      29.392  30.574  23.721  1.00  0.00     0.026 A 
ATOM     31  C   UNL A   1      27.849  31.326  21.543  1.00  0.00     0.002 A 
ATOM     32  C   UNL A   1      28.920  31.883  23.624  1.00  0.00     0.002 A 
ATOM     33  C   UNL A   1      28.147  32.259  22.532  1.00  0.00     0.000 A 
ENDBRANCH  27  28
ENDBRANCH  15  22
ENDBRANCH   8  13
ENDBRANCH   4   7
ENDBRANCH   2   3
ENDBRANCH   1   2
BRANCH   1  34
ATOM     34  C   UNL A   1      42.319  21.960  27.547  1.00  0.00     0.023 C 
BRANCH  34  35
ATOM     35  C   UNL A   1      42.909  23.364  27.567  1.00  0.00     0.116 C 
BRANCH  35  36
ATOM     36  N   UNL A   1      42.939  23.989  26.252  1.00  0.00    -0.352 N 
ATOM     37  C   UNL A   1      42.561  25.262  25.900  1.00  0.00     0.251 C 
ATOM     38  H   UNL A   1      43.274  23.424  25.519  1.00  0.00     0.163 HD
ATOM     39  O   UNL A   1      42.535  25.598  24.720  1.00  0.00    -0.269 OA
BRANCH  37  40
ATOM     40  C   UNL A   1      42.150  26.205  26.957  1.00  0.00     0.039 A 
ATOM     41  C   UNL A   1      41.144  25.826  27.847  1.00  0.00     0.014 A 
ATOM     42  C   UNL A   1      42.801  27.435  27.100  1.00  0.00     0.014 A 
ATOM     43  C   UNL A   1      40.839  26.652  28.930  1.00  0.00     0.010 A 
ATOM     44  C   UNL A   1      42.544  28.222  28.217  1.00  0.00     0.010 A 
ATOM     45  C   UNL A   1      41.564  27.836  29.143  1.00  0.00    -0.014 A 
BRANCH  45  46
ATOM     46  C   UNL A   1      41.306  28.685  30.332  1.00  0.00     0.031 A 
ATOM     47  C   UNL A   1      42.175  28.547  31.552  1.00  0.00     0.074 A 
ATOM     48  C   UNL A   1      40.267  29.543  30.329  1.00  0.00     0.049 A 
ATOM     49  N   UNL A   1      42.082  29.164  32.701  1.00  0.00    -0.248 NA
ATOM     50  C   UNL A   1      43.275  27.574  31.478  1.00  0.00     0.031 C 
ATOM     51  C   UNL A   1      39.330  29.733  29.219  1.00  0.00     0.029 A 
ATOM     52  N   UNL A   1      39.824  30.417  31.289  1.00  0.00    -0.354 N 
ATOM     53  C   UNL A   1      43.109  28.653  33.485  1.00  0.00     0.074 A 
ATOM     54  C   UNL A   1      43.776  27.635  32.703  1.00  0.00     0.031 C 
ATOM     55  C   UNL A   1      38.447  30.689  29.548  1.00  0.00     0.029 A 
ATOM     56  C   UNL A   1      38.733  31.158  30.901  1.00  0.00     0.049 A 
ATOM     57  H   UNL A   1      40.248  30.505  32.173  1.00  0.00     0.167 HD
ATOM     58  C   UNL A   1      43.482  29.022  34.733  1.00  0.00     0.037 A 
ATOM     59  C   UNL A   1      38.045  32.110  31.560  1.00  0.00     0.037 A 
ATOM     60  C   UNL A   1      42.835  30.053  35.496  1.00  0.00     0.049 A 
ATOM     61  C   UNL A   1      38.472  32.494  32.950  1.00  0.00     0.074 A 
ATOM     62  C   UNL A   1      43.163  30.526  36.754  1.00  0.00     0.029 A 
ATOM     63  N   UNL A   1      41.732  30.779  35.069  1.00  0.00    -0.354 N 
ATOM     64  N   UNL A   1      39.469  32.027  33.661  1.00  0.00    -0.248 NA
ATOM     65  C   UNL A   1      37.680  33.531  33.627  1.00  0.00     0.031 C 
ATOM     66  C   UNL A   1      42.240  31.520  37.100  1.00  0.00     0.029 A 
ATOM     67  C   UNL A   1      41.359  31.688  36.044  1.00  0.00     0.049 A 
ATOM     68  H   UNL A   1      41.281  30.664  34.202  1.00  0.00     0.167 HD
ATOM     69  C   UNL A   1      39.439  32.727  34.862  1.00  0.00     0.074 A 
ATOM     70  C   UNL A   1      38.330  33.654  34.778  1.00  0.00     0.031 C 
ATOM     71  C   UNL A   1      40.255  32.609  35.937  1.00  0.00     0.037 A 
BRANCH  58  72
ATOM     72  C   UNL A   1      44.662  28.318  35.338  1.00  0.00     0.058 A 
ATOM     73  C   UNL A   1      45.967  28.806  35.167  1.00  0.00     0.135 A 
ATOM     74  C   UNL A   1      44.490  27.168  36.124  1.00  0.00     0.135 A 
ATOM     75  F   UNL A   1      46.188  29.892  34.409  1.00  0.00    -0.206 F 
ATOM     76  C   UNL A   1      47.063  28.167  35.734  1.00  0.00     0.059 A 
ATOM     77  C   UNL A   1      45.569  26.524  36.721  1.00  0.00     0.059 A 
ATOM     78  F   UNL A   1      43.262  26.657  36.316  1.00  0.00    -0.206 F 
ATOM     79  C   UNL A   1      46.853  27.025  36.510  1.00  0.00     0.060 A 
BRANCH  79  80
ATOM     80  S   UNL A   1      48.287  26.212  37.247  1.00  0.00     0.124 S 
ATOM     81  O   UNL A   1      47.888  26.135  38.650  1.00  0.00    -0.237 OA
ATOM     82  O   UNL A   1      48.328  24.940  36.531  1.00  0.00    -0.237 OA
ATOM     83  O   UNL A   1      49.385  27.128  36.955  1.00  0.00    -0.744 OA
ENDBRANCH  79  80
ENDBRANCH  58  72
BRANCH  59  84
ATOM     84  C   UNL A   1      36.907  32.797  30.895  1.00  0.00     0.058 A 
ATOM     85  C   UNL A   1      35.586  32.407  31.159  1.00  0.00     0.135 A 
ATOM     86  C   UNL A   1      37.111  33.863  30.007  1.00  0.00     0.135 A 
ATOM     87  F   UNL A   1      35.342  31.388  31.997  1.00  0.00    -0.206 F 
ATOM     88  C   UNL A   1      34.505  33.045  30.560  1.00  0.00     0.059 A 
ATOM     89  C   UNL A   1      36.045  34.530  29.409  1.00  0.00     0.059 A 
ATOM     90  F   UNL A   1      38.356  34.282  29.734  1.00  0.00    -0.206 F 
ATOM     91  C   UNL A   1      34.744  34.109  29.688  1.00  0.00     0.060 A 
BRANCH  91  92
ATOM     92  S   UNL A   1      33.331  34.965  28.960  1.00  0.00     0.124 S 
ATOM     93  O   UNL A   1      32.515  35.238  30.136  1.00  0.00    -0.237 OA
ATOM     94  O   UNL A   1      33.963  36.124  28.337  1.00  0.00    -0.237 OA
ATOM     95  O   UNL A   1      32.788  33.981  28.027  1.00  0.00    -0.744 OA
ENDBRANCH  91  92
ENDBRANCH  59  84
BRANCH  71  96
ATOM     96  C   UNL A   1      39.999  33.512  37.109  1.00  0.00     0.058 A 
ATOM     97  C   UNL A   1      40.684  34.726  37.258  1.00  0.00     0.135 A 
ATOM     98  C   UNL A   1      38.993  33.203  38.039  1.00  0.00     0.135 A 
ATOM     99  F   UNL A   1      41.659  35.060  36.398  1.00  0.00    -0.206 F 
ATOM    100  C   UNL A   1      40.381  35.606  38.291  1.00  0.00     0.059 A 
ATOM    101  C   UNL A   1      38.660  34.077  39.068  1.00  0.00     0.059 A 
ATOM    102  F   UNL A   1      38.304  32.055  37.933  1.00  0.00    -0.206 F 
ATOM    103  C   UNL A   1      39.362  35.276  39.187  1.00  0.00     0.060 A 
BRANCH 103 104
ATOM    104  S   UNL A   1      38.933  36.460  40.480  1.00  0.00     0.124 S 
ATOM    105  O   UNL A   1      38.525  37.620  39.694  1.00  0.00    -0.237 OA
ATOM    106  O   UNL A   1      37.864  35.769  41.195  1.00  0.00    -0.237 OA
ATOM    107  O   UNL A   1      40.179  36.615  41.226  1.00  0.00    -0.744 OA
ENDBRANCH 103 104
ENDBRANCH  71  96
ENDBRANCH  45  46
ENDBRANCH  37  40
ENDBRANCH  35  36
ENDBRANCH  34  35
ENDBRANCH   1  34
TORSDOF 18
ENDMDL
MODEL 3
REMARK VINA RESULT:     -12.6      6.062      8.238
REMARK SMILES Nc1c(N2CCC(C(=O)NCCCCNC(=O)c3ccc(-c4c5nc(c(-c6c(F)cc(S(=O)(=O)[O-])cc6F)c6ccc([nH]6)c(-c6c(F)cc(S(=O)(=O)[O-])cc6F)c6nc(c(-c7c(F)cc(S(=O)(=O)[O-])cc7F)c7ccc4[nH]7)C=C6)C=C5)cc3)CC2)ncnc1N1CCN(c2ccccc2)CC1
REMARK SMILES IDX 12 1 11 2 10 3 8 4 9 5 7 7 4 8 5 9 85 10 6 11 84 12 3 13
REMARK SMILES IDX 2 14 89 15 86 16 88 17 87 18 1 19 90 22 91 23 101 24 92 25
REMARK SMILES IDX 100 26 93 27 94 28 95 29 99 30 96 31 98 32 97 33 13 34 14 35
REMARK SMILES IDX 15 36 16 37 17 39 18 40 19 41 83 42 20 43 82 44 21 45 22 46
REMARK SMILES IDX 23 47 76 48 24 49 81 50 75 51 77 52 25 53 80 54 74 55 73 56
REMARK SMILES IDX 26 58 60 59 39 60 59 61 40 62 43 63 58 64 78 65 41 66 42 67
REMARK SMILES IDX 57 69 79 70 44 71 27 72 28 73 37 74 29 75 30 76 36 77 38 78
REMARK SMILES IDX 31 79 32 80 33 81 34 82 35 83 61 84 62 85 71 86 63 87 64 88
REMARK SMILES IDX 70 89 72 90 65 91 66 92 67 93 68 94 69 95 45 96 46 97 55 98
REMARK SMILES IDX 47 99 48 100 54 101 56 102 49 103 50 104 51 105 52 106
REMARK SMILES IDX 53 107
REMARK H PARENT 10 6 1 20 1 21 15 38 77 57 43 68
REMARK Flexibility Score: inf
ROOT
ATOM      1  C   UNL A   1      36.036  29.624  27.498  1.00  0.00     0.023 C 
ENDROOT
BRANCH   1   2
ATOM      2  C   UNL A   1      34.783  29.389  26.661  1.00  0.00     0.116 C 
BRANCH   2   3
ATOM      3  N   UNL A   1      33.810  30.459  26.823  1.00  0.00    -0.356 N 
ATOM      4  C   UNL A   1      32.453  30.451  26.706  1.00  0.00     0.223 C 
ATOM      5  O   UNL A   1      31.845  31.506  26.900  1.00  0.00    -0.275 OA
ATOM      6  H   UNL A   1      34.196  31.335  27.055  1.00  0.00     0.163 HD
BRANCH   4   7
ATOM      7  C   UNL A   1      31.691  29.177  26.381  1.00  0.00     0.082 C 
ATOM      8  N   UNL A   1      31.596  26.727  24.962  1.00  0.00    -0.355 N 
ATOM      9  C   UNL A   1      30.737  27.781  24.468  1.00  0.00     0.119 C 
ATOM     10  C   UNL A   1      31.873  26.648  26.385  1.00  0.00     0.119 C 
ATOM     11  C   UNL A   1      31.240  29.142  24.914  1.00  0.00     0.035 C 
ATOM     12  C   UNL A   1      32.470  27.952  26.877  1.00  0.00     0.035 C 
BRANCH   8  13
ATOM     13  C   UNL A   1      32.321  25.950  24.071  1.00  0.00     0.157 A 
ATOM     14  C   UNL A   1      32.493  24.587  24.336  1.00  0.00     0.118 A 
ATOM     15  C   UNL A   1      33.284  23.860  23.432  1.00  0.00     0.157 A 
ATOM     16  N   UNL A   1      32.872  26.537  22.993  1.00  0.00    -0.217 NA
ATOM     17  N   UNL A   1      33.902  24.443  22.394  1.00  0.00    -0.217 NA
ATOM     18  C   UNL A   1      33.642  25.749  22.221  1.00  0.00     0.226 A 
BRANCH  14  19
ATOM     19  N   UNL A   1      31.820  23.943  25.394  1.00  0.00    -0.393 N 
ATOM     20  H   UNL A   1      32.250  23.196  25.870  1.00  0.00     0.156 HD
ATOM     21  H   UNL A   1      30.918  24.239  25.658  1.00  0.00     0.156 HD
ENDBRANCH  14  19
BRANCH  15  22
ATOM     22  N   UNL A   1      33.450  22.505  23.658  1.00  0.00    -0.351 N 
ATOM     23  C   UNL A   1      34.704  21.990  24.198  1.00  0.00     0.139 C 
ATOM     24  C   UNL A   1      32.712  21.567  22.804  1.00  0.00     0.139 C 
ATOM     25  C   UNL A   1      34.381  20.737  25.055  1.00  0.00     0.138 C 
ATOM     26  C   UNL A   1      32.372  20.303  23.620  1.00  0.00     0.138 C 
ATOM     27  N   UNL A   1      33.581  19.762  24.281  1.00  0.00    -0.368 N 
BRANCH  27  28
ATOM     28  C   UNL A   1      33.556  18.426  24.639  1.00  0.00     0.037 A 
ATOM     29  C   UNL A   1      32.526  17.858  25.397  1.00  0.00     0.026 A 
ATOM     30  C   UNL A   1      34.615  17.593  24.249  1.00  0.00     0.026 A 
ATOM     31  C   UNL A   1      32.557  16.506  25.757  1.00  0.00     0.002 A 
ATOM     32  C   UNL A   1      34.659  16.248  24.616  1.00  0.00     0.002 A 
ATOM     33  C   UNL A   1      33.628  15.704  25.372  1.00  0.00     0.000 A 
ENDBRANCH  27  28
ENDBRANCH  15  22
ENDBRANCH   8  13
ENDBRANCH   4   7
ENDBRANCH   2   3
ENDBRANCH   1   2
BRANCH   1  34
ATOM     34  C   UNL A   1      35.809  30.443  28.766  1.00  0.00     0.023 C 
BRANCH  34  35
ATOM     35  C   UNL A   1      36.077  29.701  30.069  1.00  0.00     0.116 C 
BRANCH  35  36
ATOM     36  N   UNL A   1      36.131  30.582  31.227  1.00  0.00    -0.352 N 
ATOM     37  C   UNL A   1      37.235  31.065  31.886  1.00  0.00     0.251 C 
ATOM     38  H   UNL A   1      35.259  30.869  31.585  1.00  0.00     0.163 HD
ATOM     39  O   UNL A   1      37.107  31.706  32.925  1.00  0.00    -0.269 OA
BRANCH  37  40
ATOM     40  C   UNL A   1      38.576  30.770  31.348  1.00  0.00     0.039 A 
ATOM     41  C   UNL A   1      39.449  29.985  32.103  1.00  0.00     0.014 A 
ATOM     42  C   UNL A   1      38.943  31.221  30.075  1.00  0.00     0.014 A 
ATOM     43  C   UNL A   1      40.667  29.588  31.549  1.00  0.00     0.010 A 
ATOM     44  C   UNL A   1      40.125  30.767  29.501  1.00  0.00     0.010 A 
ATOM     45  C   UNL A   1      40.996  29.945  30.231  1.00  0.00    -0.014 A 
BRANCH  45  46
ATOM     46  C   UNL A   1      42.250  29.465  29.601  1.00  0.00     0.031 A 
ATOM     47  C   UNL A   1      43.432  30.388  29.488  1.00  0.00     0.074 A 
ATOM     48  C   UNL A   1      42.309  28.218  29.093  1.00  0.00     0.049 A 
ATOM     49  N   UNL A   1      44.595  30.171  28.934  1.00  0.00    -0.248 NA
ATOM     50  C   UNL A   1      43.276  31.738  30.053  1.00  0.00     0.031 C 
ATOM     51  C   UNL A   1      41.213  27.247  29.106  1.00  0.00     0.029 A 
ATOM     52  N   UNL A   1      43.333  27.553  28.467  1.00  0.00    -0.354 N 
ATOM     53  C   UNL A   1      45.308  31.354  29.081  1.00  0.00     0.074 A 
ATOM     54  C   UNL A   1      44.428  32.305  29.723  1.00  0.00     0.031 C 
ATOM     55  C   UNL A   1      41.635  26.100  28.549  1.00  0.00     0.029 A 
ATOM     56  C   UNL A   1      43.018  26.263  28.111  1.00  0.00     0.049 A 
ATOM     57  H   UNL A   1      44.211  27.962  28.290  1.00  0.00     0.167 HD
ATOM     58  C   UNL A   1      46.591  31.615  28.738  1.00  0.00     0.037 A 
ATOM     59  C   UNL A   1      43.763  25.319  27.504  1.00  0.00     0.037 A 
ATOM     60  C   UNL A   1      47.472  30.659  28.125  1.00  0.00     0.049 A 
ATOM     61  C   UNL A   1      45.182  25.636  27.123  1.00  0.00     0.074 A 
ATOM     62  C   UNL A   1      48.802  30.815  27.775  1.00  0.00     0.029 A 
ATOM     63  N   UNL A   1      47.116  29.365  27.778  1.00  0.00    -0.354 N 
ATOM     64  N   UNL A   1      45.852  26.749  27.304  1.00  0.00    -0.248 NA
ATOM     65  C   UNL A   1      45.946  24.573  26.454  1.00  0.00     0.031 C 
ATOM     66  C   UNL A   1      49.242  29.623  27.190  1.00  0.00     0.029 A 
ATOM     67  C   UNL A   1      48.196  28.714  27.206  1.00  0.00     0.049 A 
ATOM     68  H   UNL A   1      46.225  28.967  27.916  1.00  0.00     0.167 HD
ATOM     69  C   UNL A   1      47.123  26.514  26.790  1.00  0.00     0.074 A 
ATOM     70  C   UNL A   1      47.131  25.152  26.299  1.00  0.00     0.031 C 
ATOM     71  C   UNL A   1      48.185  27.353  26.731  1.00  0.00     0.037 A 
BRANCH  58  72
ATOM     72  C   UNL A   1      47.125  32.985  29.044  1.00  0.00     0.058 A 
ATOM     73  C   UNL A   1      47.754  33.264  30.268  1.00  0.00     0.135 A 
ATOM     74  C   UNL A   1      47.039  34.019  28.099  1.00  0.00     0.135 A 
ATOM     75  F   UNL A   1      47.845  32.315  31.213  1.00  0.00    -0.206 F 
ATOM     76  C   UNL A   1      48.261  34.526  30.554  1.00  0.00     0.059 A 
ATOM     77  C   UNL A   1      47.560  35.284  28.354  1.00  0.00     0.059 A 
ATOM     78  F   UNL A   1      46.443  33.806  26.915  1.00  0.00    -0.206 F 
ATOM     79  C   UNL A   1      48.158  35.531  29.589  1.00  0.00     0.060 A 
BRANCH  79  80
ATOM     80  S   UNL A   1      48.829  37.162  29.974  1.00  0.00     0.124 S 
ATOM     81  O   UNL A   1      50.234  36.990  29.615  1.00  0.00    -0.237 OA
ATOM     82  O   UNL A   1      48.054  38.035  29.096  1.00  0.00    -0.237 OA
ATOM     83  O   UNL A   1      48.559  37.313  31.400  1.00  0.00    -0.744 OA
ENDBRANCH  79  80
ENDBRANCH  58  72
BRANCH  59  84
ATOM     84  C   UNL A   1      43.191  23.969  27.259  1.00  0.00     0.058 A 
ATOM     85  C   UNL A   1      42.677  23.630  25.999  1.00  0.00     0.135 A 
ATOM     86  C   UNL A   1      43.168  22.989  28.262  1.00  0.00     0.135 A 
ATOM     87  F   UNL A   1      42.672  24.537  25.011  1.00  0.00    -0.206 F 
ATOM     88  C   UNL A   1      42.151  22.369  25.742  1.00  0.00     0.059 A 
ATOM     89  C   UNL A   1      42.663  21.713  28.024  1.00  0.00     0.059 A 
ATOM     90  F   UNL A   1      43.662  23.261  29.480  1.00  0.00    -0.206 F 
ATOM     91  C   UNL A   1      42.152  21.414  26.762  1.00  0.00     0.060 A 
BRANCH  91  92
ATOM     92  S   UNL A   1      41.518  19.762  26.400  1.00  0.00     0.124 S 
ATOM     93  O   UNL A   1      42.314  19.389  25.238  1.00  0.00    -0.237 OA
ATOM     94  O   UNL A   1      41.813  19.044  27.636  1.00  0.00    -0.237 OA
ATOM     95  O   UNL A   1      40.099  19.997  26.146  1.00  0.00    -0.744 OA
ENDBRANCH  91  92
ENDBRANCH  59  84
BRANCH  71  96
ATOM     96  C   UNL A   1      49.455  26.826  26.128  1.00  0.00     0.058 A 
ATOM     97  C   UNL A   1      49.794  27.091  24.794  1.00  0.00     0.135 A 
ATOM     98  C   UNL A   1      50.384  26.131  26.920  1.00  0.00     0.135 A 
ATOM     99  F   UNL A   1      48.934  27.744  23.996  1.00  0.00    -0.206 F 
ATOM    100  C   UNL A   1      51.012  26.684  24.262  1.00  0.00     0.059 A 
ATOM    101  C   UNL A   1      51.617  25.732  26.414  1.00  0.00     0.059 A 
ATOM    102  F   UNL A   1      50.108  25.862  28.206  1.00  0.00    -0.206 F 
ATOM    103  C   UNL A   1      51.920  26.012  25.082  1.00  0.00     0.060 A 
BRANCH 103 104
ATOM    104  S   UNL A   1      53.526  25.551  24.397  1.00  0.00     0.124 S 
ATOM    105  O   UNL A   1      53.377  25.953  23.002  1.00  0.00    -0.237 OA
ATOM    106  O   UNL A   1      54.448  26.355  25.193  1.00  0.00    -0.237 OA
ATOM    107  O   UNL A   1      53.595  24.112  24.632  1.00  0.00    -0.744 OA
ENDBRANCH 103 104
ENDBRANCH  71  96
ENDBRANCH  45  46
ENDBRANCH  37  40
ENDBRANCH  35  36
ENDBRANCH  34  35
ENDBRANCH   1  34
TORSDOF 18
ENDMDL
