MODEL 1
REMARK VINA RESULT:     -10.6      0.000      0.000
REMARK SMILES CCC[NH2+]CC(=O)N1CCC(CC(=O)NCCCCNC(=O)c2ccc(-c3c4nc(c(-c5c(F)cc(S(=O)(=O)[O-])cc5F)c5ccc([nH]5)c(-c5c(F)cc(S(=O)(=O)[O-])cc5F)c5nc(c(-c6c(F)cc(S(=O)(=O)[O-])cc6F)c6ccc3[nH]6)C=C5)C=C4)cc2)CC1
REMARK SMILES IDX 16 1 15 2 13 3 14 4 12 6 11 7 6 8 7 9 8 10 9 11 90 12 10 13
REMARK SMILES IDX 89 14 5 15 4 16 3 19 2 20 1 21 17 22 18 23 19 24 20 25 21 26
REMARK SMILES IDX 22 28 23 29 24 30 88 31 25 32 87 33 26 34 27 35 28 36 81 37
REMARK SMILES IDX 29 38 86 39 80 40 82 41 30 42 85 43 79 44 78 45 31 47 65 48
REMARK SMILES IDX 44 49 64 50 45 51 48 52 63 53 83 54 46 55 47 56 62 58 84 59
REMARK SMILES IDX 49 60 32 61 33 62 42 63 34 64 35 65 41 66 43 67 36 68 37 69
REMARK SMILES IDX 38 70 39 71 40 72 66 73 67 74 76 75 68 76 69 77 75 78 77 79
REMARK SMILES IDX 70 80 71 81 72 82 73 83 74 84 50 85 51 86 60 87 52 88 53 89
REMARK SMILES IDX 59 90 61 91 54 92 55 93 56 94 57 95 58 96
REMARK H PARENT 15 5 4 17 4 18 20 27 82 46 48 57
REMARK Flexibility Score: inf
ROOT
ATOM      1  C   UNL A   1      30.900  26.584  25.496  1.00  0.00     0.116 C 
ENDROOT
BRANCH   1   2
ATOM      2  N   UNL A   1      30.673  26.709  24.064  1.00  0.00    -0.356 N 
ATOM      3  C   UNL A   1      31.564  26.811  23.036  1.00  0.00     0.220 C 
ATOM      4  O   UNL A   1      31.135  26.970  21.892  1.00  0.00    -0.275 OA
ATOM      5  H   UNL A   1      29.726  26.722  23.795  1.00  0.00     0.163 HD
BRANCH   3   6
ATOM      6  C   UNL A   1      33.059  26.740  23.294  1.00  0.00     0.103 C 
BRANCH   6   7
ATOM      7  C   UNL A   1      33.655  25.330  23.119  1.00  0.00     0.002 C 
ATOM      8  C   UNL A   1      32.827  21.933  25.016  1.00  0.00     0.277 C 
ATOM      9  O   UNL A   1      32.601  22.500  26.089  1.00  0.00    -0.268 OA
ATOM     10  N   UNL A   1      33.593  22.541  24.026  1.00  0.00    -0.338 N 
ATOM     11  C   UNL A   1      34.705  23.371  24.437  1.00  0.00     0.120 C 
ATOM     12  C   UNL A   1      33.046  22.902  22.729  1.00  0.00     0.120 C 
ATOM     13  C   UNL A   1      34.336  24.843  24.399  1.00  0.00     0.026 C 
ATOM     14  C   UNL A   1      32.555  24.347  22.705  1.00  0.00     0.026 C 
BRANCH   8  15
ATOM     15  C   UNL A   1      32.481  20.439  24.833  1.00  0.00     0.362 C 
BRANCH  15  16
ATOM     16  N   UNL A   1      32.999  19.545  25.882  1.00  0.00    -0.338 N 
ATOM     17  H   UNL A   1      33.994  19.731  26.009  1.00  0.00     0.346 HD
ATOM     18  H   UNL A   1      32.474  19.730  26.737  1.00  0.00     0.346 HD
BRANCH  16  19
ATOM     19  C   UNL A   1      32.823  18.137  25.545  1.00  0.00     0.260 C 
BRANCH  19  20
ATOM     20  C   UNL A   1      32.811  17.796  24.041  1.00  0.00     0.058 C 
ATOM     21  C   UNL A   1      34.001  17.028  23.477  1.00  0.00     0.010 C 
ENDBRANCH  19  20
ENDBRANCH  16  19
ENDBRANCH  15  16
ENDBRANCH   8  15
ENDBRANCH   6   7
ENDBRANCH   3   6
ENDBRANCH   1   2
BRANCH   1  22
ATOM     22  C   UNL A   1      31.343  27.910  26.119  1.00  0.00     0.023 C 
BRANCH  22  23
ATOM     23  C   UNL A   1      32.293  27.797  27.295  1.00  0.00     0.023 C 
BRANCH  23  24
ATOM     24  C   UNL A   1      33.565  28.594  27.122  1.00  0.00     0.116 C 
BRANCH  24  25
ATOM     25  N   UNL A   1      33.479  29.952  27.646  1.00  0.00    -0.352 N 
ATOM     26  C   UNL A   1      34.468  30.678  28.271  1.00  0.00     0.251 C 
ATOM     27  H   UNL A   1      32.610  30.404  27.541  1.00  0.00     0.163 HD
ATOM     28  O   UNL A   1      34.239  31.784  28.747  1.00  0.00    -0.269 OA
BRANCH  26  29
ATOM     29  C   UNL A   1      35.800  30.058  28.395  1.00  0.00     0.039 A 
ATOM     30  C   UNL A   1      36.674  30.100  27.309  1.00  0.00     0.014 A 
ATOM     31  C   UNL A   1      36.219  29.577  29.637  1.00  0.00     0.014 A 
ATOM     32  C   UNL A   1      38.006  29.733  27.497  1.00  0.00     0.010 A 
ATOM     33  C   UNL A   1      37.566  29.331  29.849  1.00  0.00     0.010 A 
ATOM     34  C   UNL A   1      38.470  29.392  28.778  1.00  0.00    -0.014 A 
BRANCH  34  35
ATOM     35  C   UNL A   1      39.889  29.039  29.026  1.00  0.00     0.031 A 
ATOM     36  C   UNL A   1      40.807  30.083  29.605  1.00  0.00     0.074 A 
ATOM     37  C   UNL A   1      40.363  27.829  28.668  1.00  0.00     0.049 A 
ATOM     38  N   UNL A   1      42.100  30.041  29.780  1.00  0.00    -0.248 NA
ATOM     39  C   UNL A   1      40.192  31.365  29.996  1.00  0.00     0.031 C 
ATOM     40  C   UNL A   1      39.583  26.756  28.042  1.00  0.00     0.029 A 
ATOM     41  N   UNL A   1      41.623  27.298  28.774  1.00  0.00    -0.354 N 
ATOM     42  C   UNL A   1      42.452  31.292  30.274  1.00  0.00     0.074 A 
ATOM     43  C   UNL A   1      41.252  32.095  30.302  1.00  0.00     0.031 C 
ATOM     44  C   UNL A   1      40.374  25.687  27.853  1.00  0.00     0.029 A 
ATOM     45  C   UNL A   1      41.723  26.007  28.310  1.00  0.00     0.049 A 
ATOM     46  H   UNL A   1      42.386  27.794  29.149  1.00  0.00     0.167 HD
ATOM     47  C   UNL A   1      43.660  31.721  30.708  1.00  0.00     0.037 A 
ATOM     48  C   UNL A   1      42.784  25.180  28.262  1.00  0.00     0.037 A 
ATOM     49  C   UNL A   1      44.835  30.896  30.739  1.00  0.00     0.049 A 
ATOM     50  C   UNL A   1      44.109  25.670  28.786  1.00  0.00     0.074 A 
ATOM     51  C   UNL A   1      46.099  31.213  31.200  1.00  0.00     0.029 A 
ATOM     52  N   UNL A   1      44.879  29.576  30.313  1.00  0.00    -0.354 N 
ATOM     53  N   UNL A   1      44.415  26.845  29.283  1.00  0.00    -0.248 NA
ATOM     54  C   UNL A   1      45.231  24.721  28.750  1.00  0.00     0.031 C 
ATOM     55  C   UNL A   1      46.914  30.088  31.038  1.00  0.00     0.029 A 
ATOM     56  C   UNL A   1      46.148  29.062  30.507  1.00  0.00     0.049 A 
ATOM     57  H   UNL A   1      44.120  29.079  29.930  1.00  0.00     0.167 HD
ATOM     58  C   UNL A   1      45.754  26.765  29.649  1.00  0.00     0.074 A 
ATOM     59  C   UNL A   1      46.196  25.424  29.326  1.00  0.00     0.031 C 
ATOM     60  C   UNL A   1      46.549  27.714  30.201  1.00  0.00     0.037 A 
BRANCH  47  61
ATOM     61  C   UNL A   1      43.751  33.129  31.221  1.00  0.00     0.058 A 
ATOM     62  C   UNL A   1      43.510  33.430  32.572  1.00  0.00     0.135 A 
ATOM     63  C   UNL A   1      44.109  34.184  30.368  1.00  0.00     0.135 A 
ATOM     64  F   UNL A   1      43.140  32.462  33.425  1.00  0.00    -0.206 F 
ATOM     65  C   UNL A   1      43.596  34.731  33.053  1.00  0.00     0.059 A 
ATOM     66  C   UNL A   1      44.229  35.491  30.834  1.00  0.00     0.059 A 
ATOM     67  F   UNL A   1      44.344  33.952  29.067  1.00  0.00    -0.206 F 
ATOM     68  C   UNL A   1      43.958  35.755  32.177  1.00  0.00     0.060 A 
BRANCH  68  69
ATOM     69  S   UNL A   1      44.088  37.435  32.824  1.00  0.00     0.124 S 
ATOM     70  O   UNL A   1      42.982  37.466  33.777  1.00  0.00    -0.237 OA
ATOM     71  O   UNL A   1      45.426  37.443  33.407  1.00  0.00    -0.237 OA
ATOM     72  O   UNL A   1      43.919  38.269  31.638  1.00  0.00    -0.744 OA
ENDBRANCH  68  69
ENDBRANCH  47  61
BRANCH  48  73
ATOM     73  C   UNL A   1      42.646  23.795  27.735  1.00  0.00     0.058 A 
ATOM     74  C   UNL A   1      42.608  23.553  26.353  1.00  0.00     0.135 A 
ATOM     75  C   UNL A   1      42.519  22.693  28.594  1.00  0.00     0.135 A 
ATOM     76  F   UNL A   1      42.723  24.575  25.491  1.00  0.00    -0.206 F 
ATOM     77  C   UNL A   1      42.411  22.275  25.840  1.00  0.00     0.059 A 
ATOM     78  C   UNL A   1      42.346  21.401  28.104  1.00  0.00     0.059 A 
ATOM     79  F   UNL A   1      42.570  22.867  29.924  1.00  0.00    -0.206 F 
ATOM     80  C   UNL A   1      42.273  21.206  26.726  1.00  0.00     0.060 A 
BRANCH  80  81
ATOM     81  S   UNL A   1      42.023  19.547  26.054  1.00  0.00     0.124 S 
ATOM     82  O   UNL A   1      42.441  18.713  27.175  1.00  0.00    -0.237 OA
ATOM     83  O   UNL A   1      40.593  19.546  25.755  1.00  0.00    -0.237 OA
ATOM     84  O   UNL A   1      42.899  19.525  24.887  1.00  0.00    -0.744 OA
ENDBRANCH  80  81
ENDBRANCH  48  73
BRANCH  60  85
ATOM     85  C   UNL A   1      47.958  27.321  30.538  1.00  0.00     0.058 A 
ATOM     86  C   UNL A   1      48.265  26.622  31.713  1.00  0.00     0.135 A 
ATOM     87  C   UNL A   1      49.002  27.598  29.640  1.00  0.00     0.135 A 
ATOM     88  F   UNL A   1      47.301  26.339  32.603  1.00  0.00    -0.206 F 
ATOM     89  C   UNL A   1      49.566  26.224  31.999  1.00  0.00     0.059 A 
ATOM     90  C   UNL A   1      50.305  27.189  29.894  1.00  0.00     0.059 A 
ATOM     91  F   UNL A   1      48.754  28.256  28.496  1.00  0.00    -0.206 F 
ATOM     92  C   UNL A   1      50.579  26.511  31.081  1.00  0.00     0.060 A 
BRANCH  92  93
ATOM     93  S   UNL A   1      52.258  25.955  31.442  1.00  0.00     0.124 S 
ATOM     94  O   UNL A   1      52.013  24.634  32.011  1.00  0.00    -0.237 OA
ATOM     95  O   UNL A   1      52.885  25.971  30.124  1.00  0.00    -0.237 OA
ATOM     96  O   UNL A   1      52.754  26.961  32.376  1.00  0.00    -0.744 OA
ENDBRANCH  92  93
ENDBRANCH  60  85
ENDBRANCH  34  35
ENDBRANCH  26  29
ENDBRANCH  24  25
ENDBRANCH  23  24
ENDBRANCH  22  23
ENDBRANCH   1  22
TORSDOF 19
ENDMDL
MODEL 2
REMARK VINA RESULT:     -10.4      2.940      3.951
REMARK SMILES CCC[NH2+]CC(=O)N1CCC(CC(=O)NCCCCNC(=O)c2ccc(-c3c4nc(c(-c5c(F)cc(S(=O)(=O)[O-])cc5F)c5ccc([nH]5)c(-c5c(F)cc(S(=O)(=O)[O-])cc5F)c5nc(c(-c6c(F)cc(S(=O)(=O)[O-])cc6F)c6ccc3[nH]6)C=C5)C=C4)cc2)CC1
REMARK SMILES IDX 16 1 15 2 13 3 14 4 12 6 11 7 6 8 7 9 8 10 9 11 90 12 10 13
REMARK SMILES IDX 89 14 5 15 4 16 3 19 2 20 1 21 17 22 18 23 19 24 20 25 21 26
REMARK SMILES IDX 22 28 23 29 24 30 88 31 25 32 87 33 26 34 27 35 28 36 81 37
REMARK SMILES IDX 29 38 86 39 80 40 82 41 30 42 85 43 79 44 78 45 31 47 65 48
REMARK SMILES IDX 44 49 64 50 45 51 48 52 63 53 83 54 46 55 47 56 62 58 84 59
REMARK SMILES IDX 49 60 32 61 33 62 42 63 34 64 35 65 41 66 43 67 36 68 37 69
REMARK SMILES IDX 38 70 39 71 40 72 66 73 67 74 76 75 68 76 69 77 75 78 77 79
REMARK SMILES IDX 70 80 71 81 72 82 73 83 74 84 50 85 51 86 60 87 52 88 53 89
REMARK SMILES IDX 59 90 61 91 54 92 55 93 56 94 57 95 58 96
REMARK H PARENT 15 5 4 17 4 18 20 27 82 46 48 57
REMARK Flexibility Score: inf
ROOT
ATOM      1  C   UNL A   1      31.362  28.190  23.573  1.00  0.00     0.116 C 
ENDROOT
BRANCH   1   2
ATOM      2  N   UNL A   1      32.520  27.645  22.881  1.00  0.00    -0.356 N 
ATOM      3  C   UNL A   1      32.694  26.438  22.270  1.00  0.00     0.220 C 
ATOM      4  O   UNL A   1      33.797  26.167  21.793  1.00  0.00    -0.275 OA
ATOM      5  H   UNL A   1      33.301  28.243  22.847  1.00  0.00     0.163 HD
BRANCH   3   6
ATOM      6  C   UNL A   1      31.554  25.438  22.187  1.00  0.00     0.103 C 
BRANCH   6   7
ATOM      7  C   UNL A   1      31.663  24.282  23.200  1.00  0.00     0.002 C 
ATOM      8  C   UNL A   1      34.867  22.410  24.631  1.00  0.00     0.277 C 
ATOM      9  O   UNL A   1      35.492  22.510  23.572  1.00  0.00    -0.268 OA
ATOM     10  N   UNL A   1      33.479  22.501  24.662  1.00  0.00    -0.338 N 
ATOM     11  C   UNL A   1      32.734  21.957  23.548  1.00  0.00     0.120 C 
ATOM     12  C   UNL A   1      32.784  23.572  25.358  1.00  0.00     0.120 C 
ATOM     13  C   UNL A   1      32.317  23.048  22.578  1.00  0.00     0.026 C 
ATOM     14  C   UNL A   1      32.462  24.737  24.425  1.00  0.00     0.026 C 
BRANCH   8  15
ATOM     15  C   UNL A   1      35.578  21.931  25.915  1.00  0.00     0.362 C 
BRANCH  15  16
ATOM     16  N   UNL A   1      37.014  22.248  25.990  1.00  0.00    -0.338 N 
ATOM     17  H   UNL A   1      37.397  21.837  26.842  1.00  0.00     0.346 HD
ATOM     18  H   UNL A   1      37.462  21.865  25.158  1.00  0.00     0.346 HD
BRANCH  16  19
ATOM     19  C   UNL A   1      37.262  23.685  26.011  1.00  0.00     0.260 C 
BRANCH  19  20
ATOM     20  C   UNL A   1      38.507  24.149  26.793  1.00  0.00     0.058 C 
ATOM     21  C   UNL A   1      39.713  23.217  26.826  1.00  0.00     0.010 C 
ENDBRANCH  19  20
ENDBRANCH  16  19
ENDBRANCH  15  16
ENDBRANCH   8  15
ENDBRANCH   6   7
ENDBRANCH   3   6
ENDBRANCH   1   2
BRANCH   1  22
ATOM     22  C   UNL A   1      31.757  28.894  24.875  1.00  0.00     0.023 C 
BRANCH  22  23
ATOM     23  C   UNL A   1      32.701  28.122  25.776  1.00  0.00     0.023 C 
BRANCH  23  24
ATOM     24  C   UNL A   1      33.980  28.863  26.086  1.00  0.00     0.116 C 
BRANCH  24  25
ATOM     25  N   UNL A   1      33.766  30.217  26.584  1.00  0.00    -0.352 N 
ATOM     26  C   UNL A   1      34.539  30.915  27.483  1.00  0.00     0.251 C 
ATOM     27  H   UNL A   1      32.974  30.688  26.236  1.00  0.00     0.163 HD
ATOM     28  O   UNL A   1      34.199  32.021  27.889  1.00  0.00    -0.269 OA
BRANCH  26  29
ATOM     29  C   UNL A   1      35.765  30.267  27.983  1.00  0.00     0.039 A 
ATOM     30  C   UNL A   1      36.967  30.471  27.305  1.00  0.00     0.014 A 
ATOM     31  C   UNL A   1      35.734  29.589  29.204  1.00  0.00     0.014 A 
ATOM     32  C   UNL A   1      38.160  30.062  27.902  1.00  0.00     0.010 A 
ATOM     33  C   UNL A   1      36.926  29.296  29.846  1.00  0.00     0.010 A 
ATOM     34  C   UNL A   1      38.150  29.515  29.196  1.00  0.00    -0.014 A 
BRANCH  34  35
ATOM     35  C   UNL A   1      39.401  29.110  29.882  1.00  0.00     0.031 A 
ATOM     36  C   UNL A   1      39.811  29.838  31.135  1.00  0.00     0.074 A 
ATOM     37  C   UNL A   1      40.192  28.158  29.349  1.00  0.00     0.049 A 
ATOM     38  N   UNL A   1      40.919  29.744  31.820  1.00  0.00    -0.248 NA
ATOM     39  C   UNL A   1      38.866  30.840  31.661  1.00  0.00     0.031 C 
ATOM     40  C   UNL A   1      39.929  27.425  28.106  1.00  0.00     0.029 A 
ATOM     41  N   UNL A   1      41.388  27.646  29.784  1.00  0.00    -0.354 N 
ATOM     42  C   UNL A   1      40.813  30.688  32.834  1.00  0.00     0.074 A 
ATOM     43  C   UNL A   1      39.569  31.395  32.634  1.00  0.00     0.031 C 
ATOM     44  C   UNL A   1      40.916  26.537  27.900  1.00  0.00     0.029 A 
ATOM     45  C   UNL A   1      41.898  26.659  28.973  1.00  0.00     0.049 A 
ATOM     46  H   UNL A   1      41.840  27.955  30.602  1.00  0.00     0.167 HD
ATOM     47  C   UNL A   1      41.655  30.918  33.868  1.00  0.00     0.037 A 
ATOM     48  C   UNL A   1      43.029  25.937  29.088  1.00  0.00     0.037 A 
ATOM     49  C   UNL A   1      42.858  30.167  34.097  1.00  0.00     0.049 A 
ATOM     50  C   UNL A   1      43.931  26.187  30.268  1.00  0.00     0.074 A 
ATOM     51  C   UNL A   1      43.762  30.284  35.136  1.00  0.00     0.029 A 
ATOM     52  N   UNL A   1      43.308  29.137  33.284  1.00  0.00    -0.354 N 
ATOM     53  N   UNL A   1      43.796  27.060  31.238  1.00  0.00    -0.248 NA
ATOM     54  C   UNL A   1      45.134  25.349  30.375  1.00  0.00     0.031 C 
ATOM     55  C   UNL A   1      44.770  29.334  34.943  1.00  0.00     0.029 A 
ATOM     56  C   UNL A   1      44.475  28.605  33.802  1.00  0.00     0.049 A 
ATOM     57  H   UNL A   1      42.863  28.831  32.461  1.00  0.00     0.167 HD
ATOM     58  C   UNL A   1      44.878  26.854  32.087  1.00  0.00     0.074 A 
ATOM     59  C   UNL A   1      45.652  25.768  31.521  1.00  0.00     0.031 C 
ATOM     60  C   UNL A   1      45.206  27.504  33.230  1.00  0.00     0.037 A 
BRANCH  47  61
ATOM     61  C   UNL A   1      41.277  31.994  34.844  1.00  0.00     0.058 A 
ATOM     62  C   UNL A   1      41.750  33.309  34.699  1.00  0.00     0.135 A 
ATOM     63  C   UNL A   1      40.415  31.721  35.918  1.00  0.00     0.135 A 
ATOM     64  F   UNL A   1      42.597  33.617  33.705  1.00  0.00    -0.206 F 
ATOM     65  C   UNL A   1      41.402  34.310  35.599  1.00  0.00     0.059 A 
ATOM     66  C   UNL A   1      40.031  32.715  36.814  1.00  0.00     0.059 A 
ATOM     67  F   UNL A   1      39.941  30.480  36.106  1.00  0.00    -0.206 F 
ATOM     68  C   UNL A   1      40.539  34.004  36.651  1.00  0.00     0.060 A 
BRANCH  68  69
ATOM     69  S   UNL A   1      40.078  35.321  37.796  1.00  0.00     0.124 S 
ATOM     70  O   UNL A   1      39.905  36.450  36.886  1.00  0.00    -0.237 OA
ATOM     71  O   UNL A   1      38.856  34.799  38.397  1.00  0.00    -0.237 OA
ATOM     72  O   UNL A   1      41.227  35.408  38.693  1.00  0.00    -0.744 OA
ENDBRANCH  68  69
ENDBRANCH  47  61
BRANCH  48  73
ATOM     73  C   UNL A   1      43.365  24.887  28.088  1.00  0.00     0.058 A 
ATOM     74  C   UNL A   1      43.040  23.543  28.322  1.00  0.00     0.135 A 
ATOM     75  C   UNL A   1      44.041  25.198  26.898  1.00  0.00     0.135 A 
ATOM     76  F   UNL A   1      42.396  23.196  29.448  1.00  0.00    -0.206 F 
ATOM     77  C   UNL A   1      43.405  22.537  27.434  1.00  0.00     0.059 A 
ATOM     78  C   UNL A   1      44.395  24.212  25.981  1.00  0.00     0.059 A 
ATOM     79  F   UNL A   1      44.355  26.472  26.616  1.00  0.00    -0.206 F 
ATOM     80  C   UNL A   1      44.090  22.882  26.268  1.00  0.00     0.060 A 
BRANCH  80  81
ATOM     81  S   UNL A   1      44.557  21.573  25.113  1.00  0.00     0.124 S 
ATOM     82  O   UNL A   1      44.459  22.264  23.833  1.00  0.00    -0.237 OA
ATOM     83  O   UNL A   1      45.908  21.236  25.556  1.00  0.00    -0.237 OA
ATOM     84  O   UNL A   1      43.552  20.542  25.355  1.00  0.00    -0.744 OA
ENDBRANCH  80  81
ENDBRANCH  48  73
BRANCH  60  85
ATOM     85  C   UNL A   1      46.421  27.027  33.970  1.00  0.00     0.058 A 
ATOM     86  C   UNL A   1      46.345  26.003  34.924  1.00  0.00     0.135 A 
ATOM     87  C   UNL A   1      47.685  27.562  33.673  1.00  0.00     0.135 A 
ATOM     88  F   UNL A   1      45.157  25.463  35.244  1.00  0.00    -0.206 F 
ATOM     89  C   UNL A   1      47.480  25.535  35.576  1.00  0.00     0.059 A 
ATOM     90  C   UNL A   1      48.836  27.094  34.295  1.00  0.00     0.059 A 
ATOM     91  F   UNL A   1      47.809  28.537  32.758  1.00  0.00    -0.206 F 
ATOM     92  C   UNL A   1      48.722  26.087  35.253  1.00  0.00     0.060 A 
BRANCH  92  93
ATOM     93  S   UNL A   1      50.195  25.445  36.075  1.00  0.00     0.124 S 
ATOM     94  O   UNL A   1      50.962  24.932  34.944  1.00  0.00    -0.237 OA
ATOM     95  O   UNL A   1      50.739  26.636  36.721  1.00  0.00    -0.237 OA
ATOM     96  O   UNL A   1      49.662  24.435  36.984  1.00  0.00    -0.744 OA
ENDBRANCH  92  93
ENDBRANCH  60  85
ENDBRANCH  34  35
ENDBRANCH  26  29
ENDBRANCH  24  25
ENDBRANCH  23  24
ENDBRANCH  22  23
ENDBRANCH   1  22
TORSDOF 19
ENDMDL
MODEL 3
REMARK VINA RESULT:     -10.4      2.729      3.339
REMARK SMILES CCC[NH2+]CC(=O)N1CCC(CC(=O)NCCCCNC(=O)c2ccc(-c3c4nc(c(-c5c(F)cc(S(=O)(=O)[O-])cc5F)c5ccc([nH]5)c(-c5c(F)cc(S(=O)(=O)[O-])cc5F)c5nc(c(-c6c(F)cc(S(=O)(=O)[O-])cc6F)c6ccc3[nH]6)C=C5)C=C4)cc2)CC1
REMARK SMILES IDX 16 1 15 2 13 3 14 4 12 6 11 7 6 8 7 9 8 10 9 11 90 12 10 13
REMARK SMILES IDX 89 14 5 15 4 16 3 19 2 20 1 21 17 22 18 23 19 24 20 25 21 26
REMARK SMILES IDX 22 28 23 29 24 30 88 31 25 32 87 33 26 34 27 35 28 36 81 37
REMARK SMILES IDX 29 38 86 39 80 40 82 41 30 42 85 43 79 44 78 45 31 47 65 48
REMARK SMILES IDX 44 49 64 50 45 51 48 52 63 53 83 54 46 55 47 56 62 58 84 59
REMARK SMILES IDX 49 60 32 61 33 62 42 63 34 64 35 65 41 66 43 67 36 68 37 69
REMARK SMILES IDX 38 70 39 71 40 72 66 73 67 74 76 75 68 76 69 77 75 78 77 79
REMARK SMILES IDX 70 80 71 81 72 82 73 83 74 84 50 85 51 86 60 87 52 88 53 89
REMARK SMILES IDX 59 90 61 91 54 92 55 93 56 94 57 95 58 96
REMARK H PARENT 15 5 4 17 4 18 20 27 82 46 48 57
REMARK Flexibility Score: inf
ROOT
ATOM      1  C   UNL A   1      30.903  27.035  25.995  1.00  0.00     0.116 C 
ENDROOT
BRANCH   1   2
ATOM      2  N   UNL A   1      30.801  27.518  24.626  1.00  0.00    -0.356 N 
ATOM      3  C   UNL A   1      30.611  26.833  23.462  1.00  0.00     0.220 C 
ATOM      4  O   UNL A   1      30.616  27.457  22.399  1.00  0.00    -0.275 OA
ATOM      5  H   UNL A   1      30.880  28.494  24.526  1.00  0.00     0.163 HD
BRANCH   3   6
ATOM      6  C   UNL A   1      30.407  25.328  23.470  1.00  0.00     0.103 C 
BRANCH   6   7
ATOM      7  C   UNL A   1      31.645  24.529  23.016  1.00  0.00     0.002 C 
ATOM      8  C   UNL A   1      34.227  22.367  25.131  1.00  0.00     0.277 C 
ATOM      9  O   UNL A   1      34.161  23.111  26.113  1.00  0.00    -0.268 OA
ATOM     10  N   UNL A   1      33.866  22.811  23.863  1.00  0.00    -0.338 N 
ATOM     11  C   UNL A   1      34.156  24.185  23.513  1.00  0.00     0.120 C 
ATOM     12  C   UNL A   1      32.743  22.250  23.130  1.00  0.00     0.120 C 
ATOM     13  C   UNL A   1      32.925  25.061  23.659  1.00  0.00     0.026 C 
ATOM     14  C   UNL A   1      31.463  23.048  23.361  1.00  0.00     0.026 C 
BRANCH   8  15
ATOM     15  C   UNL A   1      34.945  21.003  25.230  1.00  0.00     0.362 C 
BRANCH  15  16
ATOM     16  N   UNL A   1      34.067  19.853  25.503  1.00  0.00    -0.338 N 
ATOM     17  H   UNL A   1      34.319  19.455  26.409  1.00  0.00     0.346 HD
ATOM     18  H   UNL A   1      33.104  20.188  25.500  1.00  0.00     0.346 HD
BRANCH  16  19
ATOM     19  C   UNL A   1      34.183  18.815  24.486  1.00  0.00     0.260 C 
BRANCH  19  20
ATOM     20  C   UNL A   1      32.870  18.125  24.065  1.00  0.00     0.058 C 
ATOM     21  C   UNL A   1      32.312  18.442  22.682  1.00  0.00     0.010 C 
ENDBRANCH  19  20
ENDBRANCH  16  19
ENDBRANCH  15  16
ENDBRANCH   8  15
ENDBRANCH   6   7
ENDBRANCH   3   6
ENDBRANCH   1   2
BRANCH   1  22
ATOM     22  C   UNL A   1      31.864  27.887  26.828  1.00  0.00     0.023 C 
BRANCH  22  23
ATOM     23  C   UNL A   1      33.339  27.635  26.588  1.00  0.00     0.023 C 
BRANCH  23  24
ATOM     24  C   UNL A   1      34.038  28.769  25.877  1.00  0.00     0.116 C 
BRANCH  24  25
ATOM     25  N   UNL A   1      33.752  30.082  26.446  1.00  0.00    -0.352 N 
ATOM     26  C   UNL A   1      34.472  30.758  27.405  1.00  0.00     0.251 C 
ATOM     27  H   UNL A   1      32.950  30.538  26.105  1.00  0.00     0.163 HD
ATOM     28  O   UNL A   1      34.074  31.822  27.865  1.00  0.00    -0.269 OA
BRANCH  26  29
ATOM     29  C   UNL A   1      35.713  30.133  27.899  1.00  0.00     0.039 A 
ATOM     30  C   UNL A   1      36.913  30.383  27.232  1.00  0.00     0.014 A 
ATOM     31  C   UNL A   1      35.695  29.432  29.107  1.00  0.00     0.014 A 
ATOM     32  C   UNL A   1      38.113  29.995  27.828  1.00  0.00     0.010 A 
ATOM     33  C   UNL A   1      36.891  29.159  29.750  1.00  0.00     0.010 A 
ATOM     34  C   UNL A   1      38.112  29.424  29.111  1.00  0.00    -0.014 A 
BRANCH  34  35
ATOM     35  C   UNL A   1      39.370  29.040  29.796  1.00  0.00     0.031 A 
ATOM     36  C   UNL A   1      39.779  29.787  31.038  1.00  0.00     0.074 A 
ATOM     37  C   UNL A   1      40.168  28.089  29.271  1.00  0.00     0.049 A 
ATOM     38  N   UNL A   1      40.890  29.714  31.718  1.00  0.00    -0.248 NA
ATOM     39  C   UNL A   1      38.825  30.786  31.555  1.00  0.00     0.031 C 
ATOM     40  C   UNL A   1      39.907  27.338  28.038  1.00  0.00     0.029 A 
ATOM     41  N   UNL A   1      41.371  27.595  29.706  1.00  0.00    -0.354 N 
ATOM     42  C   UNL A   1      40.779  30.669  32.721  1.00  0.00     0.074 A 
ATOM     43  C   UNL A   1      39.528  31.361  32.519  1.00  0.00     0.031 C 
ATOM     44  C   UNL A   1      40.902  26.457  27.840  1.00  0.00     0.029 A 
ATOM     45  C   UNL A   1      41.887  26.603  28.906  1.00  0.00     0.049 A 
ATOM     46  H   UNL A   1      41.824  27.919  30.519  1.00  0.00     0.167 HD
ATOM     47  C   UNL A   1      41.624  30.920  33.748  1.00  0.00     0.037 A 
ATOM     48  C   UNL A   1      43.026  25.894  29.024  1.00  0.00     0.037 A 
ATOM     49  C   UNL A   1      42.836  30.184  33.981  1.00  0.00     0.049 A 
ATOM     50  C   UNL A   1      43.931  26.167  30.197  1.00  0.00     0.074 A 
ATOM     51  C   UNL A   1      43.743  30.324  35.014  1.00  0.00     0.029 A 
ATOM     52  N   UNL A   1      43.293  29.149  33.178  1.00  0.00    -0.354 N 
ATOM     53  N   UNL A   1      43.792  27.051  31.157  1.00  0.00    -0.248 NA
ATOM     54  C   UNL A   1      45.143  25.344  30.309  1.00  0.00     0.031 C 
ATOM     55  C   UNL A   1      44.760  29.381  34.828  1.00  0.00     0.029 A 
ATOM     56  C   UNL A   1      44.466  28.635  33.697  1.00  0.00     0.049 A 
ATOM     57  H   UNL A   1      42.847  28.828  32.361  1.00  0.00     0.167 HD
ATOM     58  C   UNL A   1      44.880  26.867  32.003  1.00  0.00     0.074 A 
ATOM     59  C   UNL A   1      45.662  25.782  31.447  1.00  0.00     0.031 C 
ATOM     60  C   UNL A   1      45.206  27.535  33.136  1.00  0.00     0.037 A 
BRANCH  47  61
ATOM     61  C   UNL A   1      41.240  32.005  34.713  1.00  0.00     0.058 A 
ATOM     62  C   UNL A   1      40.439  31.733  35.834  1.00  0.00     0.135 A 
ATOM     63  C   UNL A   1      41.695  33.321  34.534  1.00  0.00     0.135 A 
ATOM     64  F   UNL A   1      39.957  30.497  36.038  1.00  0.00    -0.206 F 
ATOM     65  C   UNL A   1      40.083  32.733  36.732  1.00  0.00     0.059 A 
ATOM     66  C   UNL A   1      41.374  34.331  35.436  1.00  0.00     0.059 A 
ATOM     67  F   UNL A   1      42.457  33.635  33.475  1.00  0.00    -0.206 F 
ATOM     68  C   UNL A   1      40.557  34.029  36.526  1.00  0.00     0.060 A 
BRANCH  68  69
ATOM     69  S   UNL A   1      40.104  35.309  37.714  1.00  0.00     0.124 S 
ATOM     70  O   UNL A   1      41.249  35.285  38.619  1.00  0.00    -0.237 OA
ATOM     71  O   UNL A   1      39.989  36.493  36.869  1.00  0.00    -0.237 OA
ATOM     72  O   UNL A   1      38.848  34.820  38.277  1.00  0.00    -0.744 OA
ENDBRANCH  68  69
ENDBRANCH  47  61
BRANCH  48  73
ATOM     73  C   UNL A   1      43.368  24.835  28.036  1.00  0.00     0.058 A 
ATOM     74  C   UNL A   1      42.908  23.520  28.204  1.00  0.00     0.135 A 
ATOM     75  C   UNL A   1      44.182  25.105  26.925  1.00  0.00     0.135 A 
ATOM     76  F   UNL A   1      42.128  23.213  29.253  1.00  0.00    -0.206 F 
ATOM     77  C   UNL A   1      43.271  22.501  27.331  1.00  0.00     0.059 A 
ATOM     78  C   UNL A   1      44.539  24.106  26.023  1.00  0.00     0.059 A 
ATOM     79  F   UNL A   1      44.630  26.350  26.706  1.00  0.00    -0.206 F 
ATOM     80  C   UNL A   1      44.095  22.804  26.246  1.00  0.00     0.060 A 
BRANCH  80  81
ATOM     81  S   UNL A   1      44.560  21.477  25.110  1.00  0.00     0.124 S 
ATOM     82  O   UNL A   1      45.937  21.218  25.513  1.00  0.00    -0.237 OA
ATOM     83  O   UNL A   1      43.590  20.435  25.438  1.00  0.00    -0.237 OA
ATOM     84  O   UNL A   1      44.389  22.089  23.796  1.00  0.00    -0.744 OA
ENDBRANCH  80  81
ENDBRANCH  48  73
BRANCH  60  85
ATOM     85  C   UNL A   1      46.429  27.079  33.876  1.00  0.00     0.058 A 
ATOM     86  C   UNL A   1      46.366  26.075  34.853  1.00  0.00     0.135 A 
ATOM     87  C   UNL A   1      47.688  27.613  33.557  1.00  0.00     0.135 A 
ATOM     88  F   UNL A   1      45.183  25.538  35.194  1.00  0.00    -0.206 F 
ATOM     89  C   UNL A   1      47.508  25.627  35.505  1.00  0.00     0.059 A 
ATOM     90  C   UNL A   1      48.847  27.163  34.180  1.00  0.00     0.059 A 
ATOM     91  F   UNL A   1      47.801  28.568  32.621  1.00  0.00    -0.206 F 
ATOM     92  C   UNL A   1      48.745  26.177  35.160  1.00  0.00     0.060 A 
BRANCH  92  93
ATOM     93  S   UNL A   1      50.228  25.559  35.983  1.00  0.00     0.124 S 
ATOM     94  O   UNL A   1      50.744  24.621  34.993  1.00  0.00    -0.237 OA
ATOM     95  O   UNL A   1      51.012  26.776  36.172  1.00  0.00    -0.237 OA
ATOM     96  O   UNL A   1      49.709  24.960  37.209  1.00  0.00    -0.744 OA
ENDBRANCH  92  93
ENDBRANCH  60  85
ENDBRANCH  34  35
ENDBRANCH  26  29
ENDBRANCH  24  25
ENDBRANCH  23  24
ENDBRANCH  22  23
ENDBRANCH   1  22
TORSDOF 19
ENDMDL
