MODEL 1
REMARK VINA RESULT:     -11.9      0.000      0.000
REMARK SMILES CSCC[C@@H](C(=O)NCCCCNC(=O)c1ccc(-c2c3nc(c(-c4c(F)cc(S(=O)(=O)[O-])cc4F)c4ccc([nH]4)c(-c4c(F)cc(S(=O)(=O)[O-])cc4F)c4nc(c(-c5c(F)cc(S(=O)(=O)[O-])cc5F)c5ccc2[nH]5)C=C4)C=C3)cc1)N1C(=O)/C(=C/c2ccc(Cl)cc2Cl)SC1=S
REMARK SMILES IDX 10 1 9 2 8 3 6 4 7 5 5 7 4 8 3 9 2 10 1 11 82 12 83 13 96 14
REMARK SMILES IDX 84 15 85 16 95 17 97 18 86 19 87 20 88 21 93 22 89 23 92 24
REMARK SMILES IDX 94 25 90 26 91 27 11 28 12 29 13 30 14 31 15 33 16 34 17 35
REMARK SMILES IDX 81 36 18 37 80 38 19 39 20 40 21 41 74 42 22 43 79 44 73 45
REMARK SMILES IDX 75 46 23 47 78 48 72 49 71 50 24 52 58 53 37 54 57 55 38 56
REMARK SMILES IDX 41 57 56 58 76 59 39 60 40 61 55 63 77 64 42 65 25 66 26 67
REMARK SMILES IDX 35 68 27 69 28 70 34 71 36 72 29 73 30 74 31 75 32 76 33 77
REMARK SMILES IDX 59 78 60 79 69 80 61 81 62 82 68 83 70 84 63 85 64 86 65 87
REMARK SMILES IDX 66 88 67 89 43 90 44 91 53 92 45 93 46 94 52 95 54 96 47 97
REMARK SMILES IDX 48 98 49 99 50 100 51 101
REMARK H PARENT 8 6 13 32 75 51 41 62
REMARK Flexibility Score: inf
ROOT
ATOM      1  C   UNL A   1      32.696  30.074  26.876  1.00  0.00     0.023 C 
ENDROOT
BRANCH   1   2
ATOM      2  C   UNL A   1      32.144  29.833  25.470  1.00  0.00     0.116 C 
BRANCH   2   3
ATOM      3  N   UNL A   1      33.220  29.520  24.560  1.00  0.00    -0.354 N 
ATOM      4  C   UNL A   1      33.269  28.667  23.503  1.00  0.00     0.243 C 
ATOM      5  O   UNL A   1      34.362  28.580  22.933  1.00  0.00    -0.273 OA
ATOM      6  H   UNL A   1      34.059  30.003  24.736  1.00  0.00     0.163 HD
BRANCH   4   7
ATOM      7  C   UNL A   1      32.019  27.880  23.010  1.00  0.00     0.182 C 
BRANCH   7   8
ATOM      8  C   UNL A   1      30.712  28.121  23.791  1.00  0.00     0.046 C 
BRANCH   8   9
ATOM      9  C   UNL A   1      29.450  28.555  23.037  1.00  0.00     0.072 C 
BRANCH   9  10
ATOM     10  S   UNL A   1      29.353  30.330  22.629  1.00  0.00    -0.165 SA
ATOM     11  C   UNL A   1      28.014  30.344  21.412  1.00  0.00     0.085 C 
ENDBRANCH   9  10
ENDBRANCH   8   9
ENDBRANCH   7   8
BRANCH   7  12
ATOM     12  N   UNL A   1      32.469  26.453  23.029  1.00  0.00    -0.280 N 
ATOM     13  C   UNL A   1      32.578  25.844  24.274  1.00  0.00     0.266 C 
ATOM     14  C   UNL A   1      32.567  25.600  21.938  1.00  0.00     0.149 C 
ATOM     15  O   UNL A   1      32.429  26.394  25.358  1.00  0.00    -0.268 OA
ATOM     16  C   UNL A   1      32.891  24.397  24.133  1.00  0.00     0.081 C 
ATOM     17  S   UNL A   1      32.983  23.975  22.475  1.00  0.00    -0.054 SA
ATOM     18  S   UNL A   1      32.366  25.890  20.303  1.00  0.00    -0.052 S 
ATOM     19  C   UNL A   1      33.071  23.580  25.181  1.00  0.00     0.031 C 
BRANCH  19  20
ATOM     20  C   UNL A   1      33.457  22.163  25.068  1.00  0.00    -0.006 A 
ATOM     21  C   UNL A   1      32.446  21.197  24.957  1.00  0.00     0.011 A 
ATOM     22  C   UNL A   1      34.802  21.747  25.037  1.00  0.00     0.049 A 
ATOM     23  C   UNL A   1      32.773  19.845  24.808  1.00  0.00     0.021 A 
ATOM     24  C   UNL A   1      35.127  20.397  24.878  1.00  0.00     0.041 A 
ATOM     25  Cl  UNL A   1      36.111  22.868  25.206  1.00  0.00    -0.084 Cl
ATOM     26  C   UNL A   1      34.111  19.454  24.764  1.00  0.00     0.042 A 
ATOM     27  Cl  UNL A   1      34.511  17.792  24.571  1.00  0.00    -0.084 Cl
ENDBRANCH  19  20
ENDBRANCH   7  12
ENDBRANCH   4   7
ENDBRANCH   2   3
ENDBRANCH   1   2
BRANCH   1  28
ATOM     28  C   UNL A   1      33.748  29.049  27.298  1.00  0.00     0.023 C 
BRANCH  28  29
ATOM     29  C   UNL A   1      35.119  29.651  27.589  1.00  0.00     0.116 C 
BRANCH  29  30
ATOM     30  N   UNL A   1      35.169  30.396  28.840  1.00  0.00    -0.352 N 
ATOM     31  C   UNL A   1      36.220  30.502  29.723  1.00  0.00     0.251 C 
ATOM     32  H   UNL A   1      34.350  30.884  29.086  1.00  0.00     0.163 HD
ATOM     33  O   UNL A   1      36.083  31.094  30.788  1.00  0.00    -0.269 OA
BRANCH  31  34
ATOM     34  C   UNL A   1      37.497  29.847  29.380  1.00  0.00     0.039 A 
ATOM     35  C   UNL A   1      37.924  29.852  28.052  1.00  0.00     0.014 A 
ATOM     36  C   UNL A   1      38.309  29.324  30.390  1.00  0.00     0.014 A 
ATOM     37  C   UNL A   1      39.210  29.405  27.745  1.00  0.00     0.010 A 
ATOM     38  C   UNL A   1      39.614  28.954  30.094  1.00  0.00     0.010 A 
ATOM     39  C   UNL A   1      40.080  28.997  28.770  1.00  0.00    -0.014 A 
BRANCH  39  40
ATOM     40  C   UNL A   1      41.487  28.618  28.484  1.00  0.00     0.031 A 
ATOM     41  C   UNL A   1      42.559  29.673  28.479  1.00  0.00     0.074 A 
ATOM     42  C   UNL A   1      41.782  27.346  28.148  1.00  0.00     0.049 A 
ATOM     43  N   UNL A   1      43.821  29.566  28.154  1.00  0.00    -0.248 NA
ATOM     44  C   UNL A   1      42.148  31.037  28.850  1.00  0.00     0.031 C 
ATOM     45  C   UNL A   1      40.818  26.248  28.054  1.00  0.00     0.029 A 
ATOM     46  N   UNL A   1      42.978  26.766  27.807  1.00  0.00    -0.354 N 
ATOM     47  C   UNL A   1      44.349  30.847  28.264  1.00  0.00     0.074 A 
ATOM     48  C   UNL A   1      43.258  31.724  28.629  1.00  0.00     0.031 C 
ATOM     49  C   UNL A   1      41.463  25.123  27.701  1.00  0.00     0.029 A 
ATOM     50  C   UNL A   1      42.878  25.426  27.513  1.00  0.00     0.049 A 
ATOM     51  H   UNL A   1      43.828  27.261  27.777  1.00  0.00     0.167 HD
ATOM     52  C   UNL A   1      45.630  31.251  28.103  1.00  0.00     0.037 A 
ATOM     53  C   UNL A   1      43.821  24.543  27.130  1.00  0.00     0.037 A 
ATOM     54  C   UNL A   1      46.718  30.366  27.780  1.00  0.00     0.049 A 
ATOM     55  C   UNL A   1      45.246  25.008  26.993  1.00  0.00     0.074 A 
ATOM     56  C   UNL A   1      48.062  30.664  27.653  1.00  0.00     0.029 A 
ATOM     57  N   UNL A   1      46.585  29.006  27.542  1.00  0.00    -0.354 N 
ATOM     58  N   UNL A   1      45.737  26.212  27.158  1.00  0.00    -0.248 NA
ATOM     59  C   UNL A   1      46.244  23.994  26.629  1.00  0.00     0.031 C 
ATOM     60  C   UNL A   1      48.741  29.489  27.312  1.00  0.00     0.029 A 
ATOM     61  C   UNL A   1      47.823  28.452  27.262  1.00  0.00     0.049 A 
ATOM     62  H   UNL A   1      45.736  28.507  27.567  1.00  0.00     0.167 HD
ATOM     63  C   UNL A   1      47.105  26.097  26.940  1.00  0.00     0.074 A 
ATOM     64  C   UNL A   1      47.365  24.703  26.644  1.00  0.00     0.031 C 
ATOM     65  C   UNL A   1      48.060  27.059  26.980  1.00  0.00     0.037 A 
BRANCH  52  66
ATOM     66  C   UNL A   1      45.924  32.712  28.294  1.00  0.00     0.058 A 
ATOM     67  C   UNL A   1      45.883  33.615  27.219  1.00  0.00     0.135 A 
ATOM     68  C   UNL A   1      46.236  33.221  29.565  1.00  0.00     0.135 A 
ATOM     69  F   UNL A   1      45.608  33.179  25.979  1.00  0.00    -0.206 F 
ATOM     70  C   UNL A   1      46.175  34.964  27.390  1.00  0.00     0.059 A 
ATOM     71  C   UNL A   1      46.504  34.572  29.765  1.00  0.00     0.059 A 
ATOM     72  F   UNL A   1      46.290  32.401  30.626  1.00  0.00    -0.206 F 
ATOM     73  C   UNL A   1      46.488  35.432  28.667  1.00  0.00     0.060 A 
BRANCH  73  74
ATOM     74  S   UNL A   1      46.869  37.185  28.873  1.00  0.00     0.124 S 
ATOM     75  O   UNL A   1      48.043  37.125  29.738  1.00  0.00    -0.237 OA
ATOM     76  O   UNL A   1      47.114  37.616  27.500  1.00  0.00    -0.237 OA
ATOM     77  O   UNL A   1      45.661  37.724  29.489  1.00  0.00    -0.744 OA
ENDBRANCH  73  74
ENDBRANCH  52  66
BRANCH  53  78
ATOM     78  C   UNL A   1      43.453  23.124  26.878  1.00  0.00     0.058 A 
ATOM     79  C   UNL A   1      43.426  22.609  25.574  1.00  0.00     0.135 A 
ATOM     80  C   UNL A   1      43.139  22.254  27.932  1.00  0.00     0.135 A 
ATOM     81  F   UNL A   1      43.715  23.404  24.533  1.00  0.00    -0.206 F 
ATOM     82  C   UNL A   1      43.082  21.286  25.321  1.00  0.00     0.059 A 
ATOM     83  C   UNL A   1      42.814  20.920  27.706  1.00  0.00     0.059 A 
ATOM     84  F   UNL A   1      43.170  22.694  29.200  1.00  0.00    -0.206 F 
ATOM     85  C   UNL A   1      42.778  20.447  26.394  1.00  0.00     0.060 A 
BRANCH  85  86
ATOM     86  S   UNL A   1      42.382  18.717  26.061  1.00  0.00     0.124 S 
ATOM     87  O   UNL A   1      42.647  18.102  27.356  1.00  0.00    -0.237 OA
ATOM     88  O   UNL A   1      40.980  18.792  25.664  1.00  0.00    -0.237 OA
ATOM     89  O   UNL A   1      43.310  18.362  24.990  1.00  0.00    -0.744 OA
ENDBRANCH  85  86
ENDBRANCH  53  78
BRANCH  65  90
ATOM     90  C   UNL A   1      49.479  26.633  26.731  1.00  0.00     0.058 A 
ATOM     91  C   UNL A   1      50.306  26.187  27.774  1.00  0.00     0.135 A 
ATOM     92  C   UNL A   1      49.996  26.616  25.426  1.00  0.00     0.135 A 
ATOM     93  F   UNL A   1      49.859  26.190  29.040  1.00  0.00    -0.206 F 
ATOM     94  C   UNL A   1      51.606  25.757  27.533  1.00  0.00     0.059 A 
ATOM     95  C   UNL A   1      51.286  26.168  25.160  1.00  0.00     0.059 A 
ATOM     96  F   UNL A   1      49.242  27.024  24.395  1.00  0.00    -0.206 F 
ATOM     97  C   UNL A   1      52.086  25.749  26.222  1.00  0.00     0.060 A 
BRANCH  97  98
ATOM     98  S   UNL A   1      53.762  25.149  25.916  1.00  0.00     0.124 S 
ATOM     99  O   UNL A   1      54.220  26.075  24.886  1.00  0.00    -0.237 OA
ATOM    100  O   UNL A   1      54.391  25.293  27.225  1.00  0.00    -0.237 OA
ATOM    101  O   UNL A   1      53.553  23.772  25.476  1.00  0.00    -0.744 OA
ENDBRANCH  97  98
ENDBRANCH  65  90
ENDBRANCH  39  40
ENDBRANCH  31  34
ENDBRANCH  29  30
ENDBRANCH  28  29
ENDBRANCH   1  28
TORSDOF 19
ENDMDL
MODEL 2
REMARK VINA RESULT:     -11.7      6.563     12.089
REMARK SMILES CSCC[C@@H](C(=O)NCCCCNC(=O)c1ccc(-c2c3nc(c(-c4c(F)cc(S(=O)(=O)[O-])cc4F)c4ccc([nH]4)c(-c4c(F)cc(S(=O)(=O)[O-])cc4F)c4nc(c(-c5c(F)cc(S(=O)(=O)[O-])cc5F)c5ccc2[nH]5)C=C4)C=C3)cc1)N1C(=O)/C(=C/c2ccc(Cl)cc2Cl)SC1=S
REMARK SMILES IDX 10 1 9 2 8 3 6 4 7 5 5 7 4 8 3 9 2 10 1 11 82 12 83 13 96 14
REMARK SMILES IDX 84 15 85 16 95 17 97 18 86 19 87 20 88 21 93 22 89 23 92 24
REMARK SMILES IDX 94 25 90 26 91 27 11 28 12 29 13 30 14 31 15 33 16 34 17 35
REMARK SMILES IDX 81 36 18 37 80 38 19 39 20 40 21 41 74 42 22 43 79 44 73 45
REMARK SMILES IDX 75 46 23 47 78 48 72 49 71 50 24 52 58 53 37 54 57 55 38 56
REMARK SMILES IDX 41 57 56 58 76 59 39 60 40 61 55 63 77 64 42 65 25 66 26 67
REMARK SMILES IDX 35 68 27 69 28 70 34 71 36 72 29 73 30 74 31 75 32 76 33 77
REMARK SMILES IDX 59 78 60 79 69 80 61 81 62 82 68 83 70 84 63 85 64 86 65 87
REMARK SMILES IDX 66 88 67 89 43 90 44 91 53 92 45 93 46 94 52 95 54 96 47 97
REMARK SMILES IDX 48 98 49 99 50 100 51 101
REMARK H PARENT 8 6 13 32 75 51 41 62
REMARK Flexibility Score: inf
ROOT
ATOM      1  C   UNL A   1      38.827  22.980  26.183  1.00  0.00     0.023 C 
ENDROOT
BRANCH   1   2
ATOM      2  C   UNL A   1      37.719  22.027  25.733  1.00  0.00     0.116 C 
BRANCH   2   3
ATOM      3  N   UNL A   1      37.158  22.473  24.480  1.00  0.00    -0.354 N 
ATOM      4  C   UNL A   1      35.864  22.613  24.086  1.00  0.00     0.243 C 
ATOM      5  O   UNL A   1      35.695  22.981  22.919  1.00  0.00    -0.273 OA
ATOM      6  H   UNL A   1      37.823  22.715  23.796  1.00  0.00     0.163 HD
BRANCH   4   7
ATOM      7  C   UNL A   1      34.669  22.368  25.053  1.00  0.00     0.182 C 
BRANCH   7   8
ATOM      8  C   UNL A   1      34.224  20.902  25.227  1.00  0.00     0.046 C 
BRANCH   8   9
ATOM      9  C   UNL A   1      35.098  19.776  24.666  1.00  0.00     0.072 C 
BRANCH   9  10
ATOM     10  S   UNL A   1      34.282  18.150  24.518  1.00  0.00    -0.165 SA
ATOM     11  C   UNL A   1      32.593  18.551  25.028  1.00  0.00     0.085 C 
ENDBRANCH   9  10
ENDBRANCH   8   9
ENDBRANCH   7   8
BRANCH   7  12
ATOM     12  N   UNL A   1      33.591  23.257  24.516  1.00  0.00    -0.280 N 
ATOM     13  C   UNL A   1      33.639  24.596  24.883  1.00  0.00     0.266 C 
ATOM     14  C   UNL A   1      32.686  22.947  23.510  1.00  0.00     0.149 C 
ATOM     15  O   UNL A   1      34.426  25.096  25.677  1.00  0.00    -0.268 OA
ATOM     16  C   UNL A   1      32.601  25.382  24.165  1.00  0.00     0.081 C 
ATOM     17  S   UNL A   1      31.718  24.362  23.108  1.00  0.00    -0.054 SA
ATOM     18  S   UNL A   1      32.407  21.513  22.696  1.00  0.00    -0.052 S 
ATOM     19  C   UNL A   1      32.415  26.697  24.352  1.00  0.00     0.031 C 
BRANCH  19  20
ATOM     20  C   UNL A   1      31.345  27.481  23.712  1.00  0.00    -0.006 A 
ATOM     21  C   UNL A   1      30.011  27.128  23.961  1.00  0.00     0.011 A 
ATOM     22  C   UNL A   1      31.612  28.588  22.883  1.00  0.00     0.049 A 
ATOM     23  C   UNL A   1      28.966  27.872  23.402  1.00  0.00     0.021 A 
ATOM     24  C   UNL A   1      30.567  29.336  22.334  1.00  0.00     0.041 A 
ATOM     25  Cl  UNL A   1      33.229  29.069  22.492  1.00  0.00    -0.084 Cl
ATOM     26  C   UNL A   1      29.250  28.973  22.598  1.00  0.00     0.042 A 
ATOM     27  Cl  UNL A   1      27.963  29.893  21.920  1.00  0.00    -0.084 Cl
ENDBRANCH  19  20
ENDBRANCH   7  12
ENDBRANCH   4   7
ENDBRANCH   2   3
ENDBRANCH   1   2
BRANCH   1  28
ATOM     28  C   UNL A   1      39.960  22.281  26.934  1.00  0.00     0.023 C 
BRANCH  28  29
ATOM     29  C   UNL A   1      41.166  23.174  27.208  1.00  0.00     0.116 C 
BRANCH  29  30
ATOM     30  N   UNL A   1      41.516  24.032  26.084  1.00  0.00    -0.352 N 
ATOM     31  C   UNL A   1      41.698  25.397  26.082  1.00  0.00     0.251 C 
ATOM     32  H   UNL A   1      41.639  23.581  25.218  1.00  0.00     0.163 HD
ATOM     33  O   UNL A   1      41.903  25.998  25.033  1.00  0.00    -0.269 OA
BRANCH  31  34
ATOM     34  C   UNL A   1      41.592  26.123  27.362  1.00  0.00     0.039 A 
ATOM     35  C   UNL A   1      42.671  26.899  27.790  1.00  0.00     0.014 A 
ATOM     36  C   UNL A   1      40.392  26.111  28.078  1.00  0.00     0.014 A 
ATOM     37  C   UNL A   1      42.515  27.736  28.896  1.00  0.00     0.010 A 
ATOM     38  C   UNL A   1      40.215  27.001  29.129  1.00  0.00     0.010 A 
ATOM     39  C   UNL A   1      41.272  27.827  29.544  1.00  0.00    -0.014 A 
BRANCH  39  40
ATOM     40  C   UNL A   1      41.049  28.786  30.656  1.00  0.00     0.031 A 
ATOM     41  C   UNL A   1      41.875  28.684  31.908  1.00  0.00     0.074 A 
ATOM     42  C   UNL A   1      40.049  29.687  30.572  1.00  0.00     0.049 A 
ATOM     43  N   UNL A   1      41.768  29.354  33.025  1.00  0.00    -0.248 NA
ATOM     44  C   UNL A   1      42.939  27.666  31.918  1.00  0.00     0.031 C 
ATOM     45  C   UNL A   1      39.137  29.839  29.436  1.00  0.00     0.029 A 
ATOM     46  N   UNL A   1      39.625  30.638  31.466  1.00  0.00    -0.354 N 
ATOM     47  C   UNL A   1      42.733  28.829  33.875  1.00  0.00     0.074 A 
ATOM     48  C   UNL A   1      43.379  27.746  33.165  1.00  0.00     0.031 C 
ATOM     49  C   UNL A   1      38.274  30.837  29.694  1.00  0.00     0.029 A 
ATOM     50  C   UNL A   1      38.551  31.373  31.022  1.00  0.00     0.049 A 
ATOM     51  H   UNL A   1      40.049  30.779  32.343  1.00  0.00     0.167 HD
ATOM     52  C   UNL A   1      43.071  29.229  35.123  1.00  0.00     0.037 A 
ATOM     53  C   UNL A   1      37.864  32.366  31.621  1.00  0.00     0.037 A 
ATOM     54  C   UNL A   1      42.454  30.333  35.808  1.00  0.00     0.049 A 
ATOM     55  C   UNL A   1      38.282  32.819  32.994  1.00  0.00     0.074 A 
ATOM     56  C   UNL A   1      42.763  30.858  37.049  1.00  0.00     0.029 A 
ATOM     57  N   UNL A   1      41.405  31.089  35.304  1.00  0.00    -0.354 N 
ATOM     58  N   UNL A   1      39.237  32.349  33.760  1.00  0.00    -0.248 NA
ATOM     59  C   UNL A   1      37.538  33.942  33.579  1.00  0.00     0.031 C 
ATOM     60  C   UNL A   1      41.883  31.915  37.309  1.00  0.00     0.029 A 
ATOM     61  C   UNL A   1      41.050  32.071  36.212  1.00  0.00     0.049 A 
ATOM     62  H   UNL A   1      40.975  30.947  34.429  1.00  0.00     0.167 HD
ATOM     63  C   UNL A   1      39.223  33.133  34.908  1.00  0.00     0.074 A 
ATOM     64  C   UNL A   1      38.174  34.115  34.730  1.00  0.00     0.031 C 
ATOM     65  C   UNL A   1      40.008  33.046  36.010  1.00  0.00     0.037 A 
BRANCH  52  66
ATOM     66  C   UNL A   1      44.174  28.479  35.815  1.00  0.00     0.058 A 
ATOM     67  C   UNL A   1      43.901  27.389  36.660  1.00  0.00     0.135 A 
ATOM     68  C   UNL A   1      45.517  28.840  35.626  1.00  0.00     0.135 A 
ATOM     69  F   UNL A   1      42.633  27.014  36.891  1.00  0.00    -0.206 F 
ATOM     70  C   UNL A   1      44.918  26.707  37.318  1.00  0.00     0.059 A 
ATOM     71  C   UNL A   1      46.553  28.153  36.252  1.00  0.00     0.059 A 
ATOM     72  F   UNL A   1      45.833  29.874  34.831  1.00  0.00    -0.206 F 
ATOM     73  C   UNL A   1      46.241  27.099  37.111  1.00  0.00     0.060 A 
BRANCH  73  74
ATOM     74  S   UNL A   1      47.550  26.206  37.976  1.00  0.00     0.124 S 
ATOM     75  O   UNL A   1      47.607  26.932  39.240  1.00  0.00    -0.237 OA
ATOM     76  O   UNL A   1      47.012  24.851  38.046  1.00  0.00    -0.237 OA
ATOM     77  O   UNL A   1      48.708  26.373  37.103  1.00  0.00    -0.744 OA
ENDBRANCH  73  74
ENDBRANCH  52  66
BRANCH  53  78
ATOM     78  C   UNL A   1      36.730  33.018  30.915  1.00  0.00     0.058 A 
ATOM     79  C   UNL A   1      35.403  32.719  31.255  1.00  0.00     0.135 A 
ATOM     80  C   UNL A   1      36.949  33.961  29.900  1.00  0.00     0.135 A 
ATOM     81  F   UNL A   1      35.143  31.820  32.217  1.00  0.00    -0.206 F 
ATOM     82  C   UNL A   1      34.331  33.318  30.603  1.00  0.00     0.059 A 
ATOM     83  C   UNL A   1      35.892  34.591  29.248  1.00  0.00     0.059 A 
ATOM     84  F   UNL A   1      38.200  34.296  29.550  1.00  0.00    -0.206 F 
ATOM     85  C   UNL A   1      34.585  34.254  29.600  1.00  0.00     0.060 A 
BRANCH  85  86
ATOM     86  S   UNL A   1      33.188  35.065  28.793  1.00  0.00     0.124 S 
ATOM     87  O   UNL A   1      33.835  36.216  28.175  1.00  0.00    -0.237 OA
ATOM     88  O   UNL A   1      32.717  34.030  27.879  1.00  0.00    -0.237 OA
ATOM     89  O   UNL A   1      32.289  35.366  29.904  1.00  0.00    -0.744 OA
ENDBRANCH  85  86
ENDBRANCH  53  78
BRANCH  65  90
ATOM     90  C   UNL A   1      39.786  34.059  37.097  1.00  0.00     0.058 A 
ATOM     91  C   UNL A   1      38.955  33.788  38.195  1.00  0.00     0.135 A 
ATOM     92  C   UNL A   1      40.457  35.291  37.067  1.00  0.00     0.135 A 
ATOM     93  F   UNL A   1      38.286  32.626  38.266  1.00  0.00    -0.206 F 
ATOM     94  C   UNL A   1      38.783  34.714  39.218  1.00  0.00     0.059 A 
ATOM     95  C   UNL A   1      40.318  36.222  38.091  1.00  0.00     0.059 A 
ATOM     96  F   UNL A   1      41.270  35.593  36.043  1.00  0.00    -0.206 F 
ATOM     97  C   UNL A   1      39.470  35.927  39.158  1.00  0.00     0.060 A 
BRANCH  97  98
ATOM     98  S   UNL A   1      39.272  37.104  40.513  1.00  0.00     0.124 S 
ATOM     99  O   UNL A   1      38.806  36.236  41.589  1.00  0.00    -0.237 OA
ATOM    100  O   UNL A   1      40.622  37.636  40.668  1.00  0.00    -0.237 OA
ATOM    101  O   UNL A   1      38.287  38.051  39.998  1.00  0.00    -0.744 OA
ENDBRANCH  97  98
ENDBRANCH  65  90
ENDBRANCH  39  40
ENDBRANCH  31  34
ENDBRANCH  29  30
ENDBRANCH  28  29
ENDBRANCH   1  28
TORSDOF 19
ENDMDL
MODEL 3
REMARK VINA RESULT:     -11.5      2.750      8.781
REMARK SMILES CSCC[C@@H](C(=O)NCCCCNC(=O)c1ccc(-c2c3nc(c(-c4c(F)cc(S(=O)(=O)[O-])cc4F)c4ccc([nH]4)c(-c4c(F)cc(S(=O)(=O)[O-])cc4F)c4nc(c(-c5c(F)cc(S(=O)(=O)[O-])cc5F)c5ccc2[nH]5)C=C4)C=C3)cc1)N1C(=O)/C(=C/c2ccc(Cl)cc2Cl)SC1=S
REMARK SMILES IDX 10 1 9 2 8 3 6 4 7 5 5 7 4 8 3 9 2 10 1 11 82 12 83 13 96 14
REMARK SMILES IDX 84 15 85 16 95 17 97 18 86 19 87 20 88 21 93 22 89 23 92 24
REMARK SMILES IDX 94 25 90 26 91 27 11 28 12 29 13 30 14 31 15 33 16 34 17 35
REMARK SMILES IDX 81 36 18 37 80 38 19 39 20 40 21 41 74 42 22 43 79 44 73 45
REMARK SMILES IDX 75 46 23 47 78 48 72 49 71 50 24 52 58 53 37 54 57 55 38 56
REMARK SMILES IDX 41 57 56 58 76 59 39 60 40 61 55 63 77 64 42 65 25 66 26 67
REMARK SMILES IDX 35 68 27 69 28 70 34 71 36 72 29 73 30 74 31 75 32 76 33 77
REMARK SMILES IDX 59 78 60 79 69 80 61 81 62 82 68 83 70 84 63 85 64 86 65 87
REMARK SMILES IDX 66 88 67 89 43 90 44 91 53 92 45 93 46 94 52 95 54 96 47 97
REMARK SMILES IDX 48 98 49 99 50 100 51 101
REMARK H PARENT 8 6 13 32 75 51 41 62
REMARK Flexibility Score: inf
ROOT
ATOM      1  C   UNL A   1      37.206  21.884  25.561  1.00  0.00     0.023 C 
ENDROOT
BRANCH   1   2
ATOM      2  C   UNL A   1      35.789  21.310  25.598  1.00  0.00     0.116 C 
BRANCH   2   3
ATOM      3  N   UNL A   1      35.072  21.830  26.738  1.00  0.00    -0.354 N 
ATOM      4  C   UNL A   1      33.741  22.012  26.942  1.00  0.00     0.243 C 
ATOM      5  O   UNL A   1      33.428  22.526  28.022  1.00  0.00    -0.273 OA
ATOM      6  H   UNL A   1      35.643  22.098  27.494  1.00  0.00     0.163 HD
BRANCH   4   7
ATOM      7  C   UNL A   1      32.670  21.564  25.904  1.00  0.00     0.182 C 
BRANCH   7   8
ATOM      8  C   UNL A   1      33.074  20.410  24.965  1.00  0.00     0.046 C 
BRANCH   8   9
ATOM      9  C   UNL A   1      32.884  18.960  25.424  1.00  0.00     0.072 C 
BRANCH   9  10
ATOM     10  S   UNL A   1      32.884  17.710  24.095  1.00  0.00    -0.165 SA
ATOM     11  C   UNL A   1      32.940  16.174  25.050  1.00  0.00     0.085 C 
ENDBRANCH   9  10
ENDBRANCH   8   9
ENDBRANCH   7   8
BRANCH   7  12
ATOM     12  N   UNL A   1      32.330  22.828  25.179  1.00  0.00    -0.280 N 
ATOM     13  C   UNL A   1      31.349  23.633  25.744  1.00  0.00     0.266 C 
ATOM     14  C   UNL A   1      33.043  23.402  24.134  1.00  0.00     0.149 C 
ATOM     15  O   UNL A   1      30.674  23.359  26.729  1.00  0.00    -0.268 OA
ATOM     16  C   UNL A   1      31.219  24.915  25.001  1.00  0.00     0.081 C 
ATOM     17  S   UNL A   1      32.349  24.966  23.715  1.00  0.00    -0.054 SA
ATOM     18  S   UNL A   1      34.367  22.843  23.278  1.00  0.00    -0.052 S 
ATOM     19  C   UNL A   1      30.328  25.864  25.325  1.00  0.00     0.031 C 
BRANCH  19  20
ATOM     20  C   UNL A   1      30.128  27.106  24.559  1.00  0.00    -0.006 A 
ATOM     21  C   UNL A   1      29.094  27.154  23.613  1.00  0.00     0.011 A 
ATOM     22  C   UNL A   1      30.917  28.255  24.764  1.00  0.00     0.049 A 
ATOM     23  C   UNL A   1      28.847  28.328  22.893  1.00  0.00     0.021 A 
ATOM     24  C   UNL A   1      30.662  29.430  24.052  1.00  0.00     0.041 A 
ATOM     25  Cl  UNL A   1      32.236  28.271  25.885  1.00  0.00    -0.084 Cl
ATOM     26  C   UNL A   1      29.628  29.460  23.121  1.00  0.00     0.042 A 
ATOM     27  Cl  UNL A   1      29.317  30.906  22.242  1.00  0.00    -0.084 Cl
ENDBRANCH  19  20
ENDBRANCH   7  12
ENDBRANCH   4   7
ENDBRANCH   2   3
ENDBRANCH   1   2
BRANCH   1  28
ATOM     28  C   UNL A   1      38.270  20.847  25.200  1.00  0.00     0.023 C 
BRANCH  28  29
ATOM     29  C   UNL A   1      39.491  20.869  26.114  1.00  0.00     0.116 C 
BRANCH  29  30
ATOM     30  N   UNL A   1      40.293  19.655  26.035  1.00  0.00    -0.352 N 
ATOM     31  C   UNL A   1      41.661  19.534  26.128  1.00  0.00     0.251 C 
ATOM     32  H   UNL A   1      39.795  18.817  25.898  1.00  0.00     0.163 HD
ATOM     33  O   UNL A   1      42.205  18.449  25.951  1.00  0.00    -0.269 OA
BRANCH  31  34
ATOM     34  C   UNL A   1      42.459  20.745  26.399  1.00  0.00     0.039 A 
ATOM     35  C   UNL A   1      42.960  21.479  25.323  1.00  0.00     0.014 A 
ATOM     36  C   UNL A   1      42.619  21.200  27.710  1.00  0.00     0.014 A 
ATOM     37  C   UNL A   1      43.552  22.721  25.558  1.00  0.00     0.010 A 
ATOM     38  C   UNL A   1      43.136  22.469  27.934  1.00  0.00     0.010 A 
ATOM     39  C   UNL A   1      43.602  23.245  26.861  1.00  0.00    -0.014 A 
BRANCH  39  40
ATOM     40  C   UNL A   1      44.129  24.607  27.126  1.00  0.00     0.031 A 
ATOM     41  C   UNL A   1      43.190  25.702  27.552  1.00  0.00     0.074 A 
ATOM     42  C   UNL A   1      45.431  24.876  26.902  1.00  0.00     0.049 A 
ATOM     43  N   UNL A   1      43.433  26.974  27.732  1.00  0.00    -0.248 NA
ATOM     44  C   UNL A   1      41.784  25.323  27.767  1.00  0.00     0.031 C 
ATOM     45  C   UNL A   1      46.427  23.913  26.424  1.00  0.00     0.029 A 
ATOM     46  N   UNL A   1      46.138  26.044  27.032  1.00  0.00    -0.354 N 
ATOM     47  C   UNL A   1      42.212  27.548  28.061  1.00  0.00     0.074 A 
ATOM     48  C   UNL A   1      41.219  26.498  28.000  1.00  0.00     0.031 C 
ATOM     49  C   UNL A   1      47.619  24.525  26.322  1.00  0.00     0.029 A 
ATOM     50  C   UNL A   1      47.467  25.927  26.694  1.00  0.00     0.049 A 
ATOM     51  H   UNL A   1      45.733  26.887  27.338  1.00  0.00     0.167 HD
ATOM     52  C   UNL A   1      41.945  28.828  28.410  1.00  0.00     0.037 A 
ATOM     53  C   UNL A   1      48.450  26.849  26.682  1.00  0.00     0.037 A 
ATOM     54  C   UNL A   1      42.943  29.860  28.509  1.00  0.00     0.049 A 
ATOM     55  C   UNL A   1      48.137  28.257  27.110  1.00  0.00     0.074 A 
ATOM     56  C   UNL A   1      42.787  31.173  28.911  1.00  0.00     0.029 A 
ATOM     57  N   UNL A   1      44.287  29.689  28.210  1.00  0.00    -0.354 N 
ATOM     58  N   UNL A   1      46.986  28.770  27.475  1.00  0.00    -0.248 NA
ATOM     59  C   UNL A   1      49.255  29.209  27.134  1.00  0.00     0.031 C 
ATOM     60  C   UNL A   1      44.033  31.807  28.831  1.00  0.00     0.029 A 
ATOM     61  C   UNL A   1      44.971  30.876  28.413  1.00  0.00     0.049 A 
ATOM     62  H   UNL A   1      44.695  28.849  27.899  1.00  0.00     0.167 HD
ATOM     63  C   UNL A   1      47.246  30.098  27.793  1.00  0.00     0.074 A 
ATOM     64  C   UNL A   1      48.665  30.306  27.590  1.00  0.00     0.031 C 
ATOM     65  C   UNL A   1      46.386  31.058  28.215  1.00  0.00     0.037 A 
BRANCH  52  66
ATOM     66  C   UNL A   1      40.518  29.175  28.729  1.00  0.00     0.058 A 
ATOM     67  C   UNL A   1      40.071  29.295  30.056  1.00  0.00     0.135 A 
ATOM     68  C   UNL A   1      39.588  29.402  27.702  1.00  0.00     0.135 A 
ATOM     69  F   UNL A   1      40.915  29.070  31.076  1.00  0.00    -0.206 F 
ATOM     70  C   UNL A   1      38.747  29.595  30.352  1.00  0.00     0.059 A 
ATOM     71  C   UNL A   1      38.264  29.731  27.976  1.00  0.00     0.059 A 
ATOM     72  F   UNL A   1      39.961  29.298  26.417  1.00  0.00    -0.206 F 
ATOM     73  C   UNL A   1      37.849  29.808  29.306  1.00  0.00     0.060 A 
BRANCH  73  74
ATOM     74  S   UNL A   1      36.131  30.192  29.708  1.00  0.00     0.124 S 
ATOM     75  O   UNL A   1      35.431  29.602  28.572  1.00  0.00    -0.237 OA
ATOM     76  O   UNL A   1      35.949  29.514  30.987  1.00  0.00    -0.237 OA
ATOM     77  O   UNL A   1      36.115  31.650  29.767  1.00  0.00    -0.744 OA
ENDBRANCH  73  74
ENDBRANCH  52  66
BRANCH  53  78
ATOM     78  C   UNL A   1      49.828  26.462  26.280  1.00  0.00     0.058 A 
ATOM     79  C   UNL A   1      50.288  26.693  24.976  1.00  0.00     0.135 A 
ATOM     80  C   UNL A   1      50.714  25.870  27.192  1.00  0.00     0.135 A 
ATOM     81  F   UNL A   1      49.475  27.252  24.067  1.00  0.00    -0.206 F 
ATOM     82  C   UNL A   1      51.573  26.335  24.583  1.00  0.00     0.059 A 
ATOM     83  C   UNL A   1      52.013  25.524  26.829  1.00  0.00     0.059 A 
ATOM     84  F   UNL A   1      50.328  25.646  28.457  1.00  0.00    -0.206 F 
ATOM     85  C   UNL A   1      52.429  25.751  25.517  1.00  0.00     0.060 A 
BRANCH  85  86
ATOM     86  S   UNL A   1      54.113  25.336  25.012  1.00  0.00     0.124 S 
ATOM     87  O   UNL A   1      54.895  25.918  26.096  1.00  0.00    -0.237 OA
ATOM     88  O   UNL A   1      54.071  23.878  24.968  1.00  0.00    -0.237 OA
ATOM     89  O   UNL A   1      54.244  25.991  23.714  1.00  0.00    -0.744 OA
ENDBRANCH  85  86
ENDBRANCH  53  78
BRANCH  65  90
ATOM     90  C   UNL A   1      46.961  32.413  28.517  1.00  0.00     0.058 A 
ATOM     91  C   UNL A   1      47.464  32.730  29.789  1.00  0.00     0.135 A 
ATOM     92  C   UNL A   1      47.061  33.383  27.508  1.00  0.00     0.135 A 
ATOM     93  F   UNL A   1      47.385  31.837  30.789  1.00  0.00    -0.206 F 
ATOM     94  C   UNL A   1      48.030  33.972  30.054  1.00  0.00     0.059 A 
ATOM     95  C   UNL A   1      47.645  34.623  27.745  1.00  0.00     0.059 A 
ATOM     96  F   UNL A   1      46.603  33.125  26.274  1.00  0.00    -0.206 F 
ATOM     97  C   UNL A   1      48.118  34.911  29.025  1.00  0.00     0.060 A 
BRANCH  97  98
ATOM     98  S   UNL A   1      48.893  36.505  29.370  1.00  0.00     0.124 S 
ATOM     99  O   UNL A   1      49.019  37.065  28.029  1.00  0.00    -0.237 OA
ATOM    100  O   UNL A   1      47.913  37.150  30.238  1.00  0.00    -0.237 OA
ATOM    101  O   UNL A   1      50.149  36.138  30.019  1.00  0.00    -0.744 OA
ENDBRANCH  97  98
ENDBRANCH  65  90
ENDBRANCH  39  40
ENDBRANCH  31  34
ENDBRANCH  29  30
ENDBRANCH  28  29
ENDBRANCH   1  28
TORSDOF 19
ENDMDL
