MODEL 1
REMARK VINA RESULT:     -10.6      0.000      0.000
REMARK SMILES O=C(Cn1nc(C(=O)NCCCCNC(=O)c2ccc(-c3c4nc(c(-c5c(F)cc(S(=O)(=O)[O-])cc5F)c5ccc([nH]5)c(-c5c(F)cc(S(=O)(=O)[O-])cc5F)c5nc(c(-c6c(F)cc(S(=O)(=O)[O-])cc6F)c6ccc3[nH]6)C=C5)C=C4)cc2)c2ccccc2c1=O)Nc1ccc2c(c1)C(=O)c1ccccc1C2=O
REMARK SMILES IDX 11 1 10 2 9 3 7 4 8 5 6 7 4 8 5 9 89 10 88 11 90 12 83 13
REMARK SMILES IDX 87 14 84 15 86 16 85 17 3 18 2 19 1 20 91 21 92 23 93 24
REMARK SMILES IDX 97 25 94 26 96 27 95 28 98 29 106 30 99 31 100 32 105 33
REMARK SMILES IDX 107 34 101 35 104 36 102 37 103 38 12 39 13 40 14 41 15 42
REMARK SMILES IDX 16 44 17 45 18 46 82 47 19 48 81 49 20 50 21 51 22 52 75 53
REMARK SMILES IDX 23 54 80 55 74 56 76 57 24 58 79 59 73 60 72 61 25 63 59 64
REMARK SMILES IDX 38 65 58 66 39 67 42 68 57 69 77 70 40 71 41 72 56 74 78 75
REMARK SMILES IDX 43 76 26 77 27 78 36 79 28 80 29 81 35 82 37 83 30 84 31 85
REMARK SMILES IDX 32 86 33 87 34 88 60 89 61 90 70 91 62 92 63 93 69 94 71 95
REMARK SMILES IDX 64 96 65 97 66 98 67 99 68 100 44 101 45 102 54 103 46 104
REMARK SMILES IDX 47 105 53 106 55 107 48 108 49 109 50 110 51 111 52 112
REMARK H PARENT 9 6 91 22 14 43 76 62 42 73
REMARK Flexibility Score: inf
ROOT
ATOM      1  C   UNL A   1      37.630  33.083  30.054  1.00  0.00     0.023 C 
ENDROOT
BRANCH   1   2
ATOM      2  C   UNL A   1      37.807  34.000  31.275  1.00  0.00     0.116 C 
BRANCH   2   3
ATOM      3  N   UNL A   1      39.186  34.433  31.448  1.00  0.00    -0.351 N 
ATOM      4  C   UNL A   1      40.077  34.121  32.436  1.00  0.00     0.272 C 
ATOM      5  O   UNL A   1      41.167  34.668  32.529  1.00  0.00    -0.267 OA
ATOM      6  H   UNL A   1      39.527  35.041  30.751  1.00  0.00     0.163 HD
BRANCH   4   7
ATOM      7  C   UNL A   1      39.715  33.023  33.415  1.00  0.00     0.156 A 
ATOM      8  N   UNL A   1      39.464  30.763  33.848  1.00  0.00    -0.219 N 
ATOM      9  N   UNL A   1      39.778  31.794  32.983  1.00  0.00    -0.163 NA
ATOM     10  C   UNL A   1      39.169  30.966  35.200  1.00  0.00     0.275 A 
ATOM     11  C   UNL A   1      39.077  32.364  35.667  1.00  0.00     0.051 A 
ATOM     12  O   UNL A   1      39.000  30.057  36.009  1.00  0.00    -0.267 OA
ATOM     13  C   UNL A   1      39.331  33.401  34.782  1.00  0.00     0.020 A 
ATOM     14  C   UNL A   1      38.743  32.646  36.999  1.00  0.00     0.014 A 
ATOM     15  C   UNL A   1      39.234  34.732  35.218  1.00  0.00     0.011 A 
ATOM     16  C   UNL A   1      38.651  33.969  37.435  1.00  0.00     0.001 A 
ATOM     17  C   UNL A   1      38.890  35.011  36.543  1.00  0.00     0.001 A 
BRANCH   8  18
ATOM     18  C   UNL A   1      39.624  29.368  33.384  1.00  0.00     0.248 C 
BRANCH  18  19
ATOM     19  C   UNL A   1      40.896  28.561  33.718  1.00  0.00     0.246 C 
ATOM     20  O   UNL A   1      40.882  27.677  34.572  1.00  0.00    -0.273 OA
ATOM     21  N   UNL A   1      42.020  29.031  33.095  1.00  0.00    -0.324 N 
ATOM     22  H   UNL A   1      41.893  29.861  32.581  1.00  0.00     0.169 HD
BRANCH  21  23
ATOM     23  C   UNL A   1      43.323  28.519  33.073  1.00  0.00     0.042 A 
ATOM     24  C   UNL A   1      44.451  29.153  33.598  1.00  0.00     0.027 A 
ATOM     25  C   UNL A   1      43.433  27.216  32.597  1.00  0.00     0.039 A 
ATOM     26  C   UNL A   1      45.616  28.403  33.845  1.00  0.00     0.015 A 
ATOM     27  C   UNL A   1      44.619  26.517  32.736  1.00  0.00     0.036 A 
ATOM     28  C   UNL A   1      45.644  27.048  33.501  1.00  0.00     0.034 A 
ATOM     29  C   UNL A   1      44.652  25.103  32.356  1.00  0.00     0.194 C 
ATOM     30  C   UNL A   1      46.513  26.079  34.221  1.00  0.00     0.194 C 
ATOM     31  O   UNL A   1      44.234  24.697  31.283  1.00  0.00    -0.289 OA
ATOM     32  C   UNL A   1      45.064  24.209  33.429  1.00  0.00     0.034 A 
ATOM     33  C   UNL A   1      45.945  24.706  34.393  1.00  0.00     0.034 A 
ATOM     34  O   UNL A   1      47.545  26.431  34.772  1.00  0.00    -0.289 OA
ATOM     35  C   UNL A   1      44.380  23.005  33.588  1.00  0.00     0.013 A 
ATOM     36  C   UNL A   1      46.120  23.985  35.572  1.00  0.00     0.013 A 
ATOM     37  C   UNL A   1      44.531  22.310  34.779  1.00  0.00     0.001 A 
ATOM     38  C   UNL A   1      45.391  22.802  35.769  1.00  0.00     0.001 A 
ENDBRANCH  21  23
ENDBRANCH  18  19
ENDBRANCH   8  18
ENDBRANCH   4   7
ENDBRANCH   2   3
ENDBRANCH   1   2
BRANCH   1  39
ATOM     39  C   UNL A   1      36.312  33.384  29.352  1.00  0.00     0.023 C 
BRANCH  39  40
ATOM     40  C   UNL A   1      35.074  32.628  29.802  1.00  0.00     0.116 C 
BRANCH  40  41
ATOM     41  N   UNL A   1      34.416  31.752  28.855  1.00  0.00    -0.352 N 
ATOM     42  C   UNL A   1      34.818  30.540  28.317  1.00  0.00     0.251 C 
ATOM     43  H   UNL A   1      33.538  32.070  28.541  1.00  0.00     0.163 HD
ATOM     44  O   UNL A   1      34.001  29.927  27.626  1.00  0.00    -0.269 OA
BRANCH  42  45
ATOM     45  C   UNL A   1      36.197  29.972  28.474  1.00  0.00     0.039 A 
ATOM     46  C   UNL A   1      36.645  29.330  29.622  1.00  0.00     0.014 A 
ATOM     47  C   UNL A   1      37.103  30.099  27.409  1.00  0.00     0.014 A 
ATOM     48  C   UNL A   1      38.002  29.070  29.809  1.00  0.00     0.010 A 
ATOM     49  C   UNL A   1      38.444  29.688  27.539  1.00  0.00     0.010 A 
ATOM     50  C   UNL A   1      38.928  29.222  28.767  1.00  0.00    -0.014 A 
BRANCH  50  51
ATOM     51  C   UNL A   1      40.355  28.844  29.011  1.00  0.00     0.031 A 
ATOM     52  C   UNL A   1      40.910  27.505  28.586  1.00  0.00     0.074 A 
ATOM     53  C   UNL A   1      41.195  29.764  29.536  1.00  0.00     0.049 A 
ATOM     54  N   UNL A   1      42.148  27.076  28.643  1.00  0.00    -0.248 NA
ATOM     55  C   UNL A   1      39.966  26.518  28.042  1.00  0.00     0.031 C 
ATOM     56  C   UNL A   1      40.797  31.094  30.009  1.00  0.00     0.029 A 
ATOM     57  N   UNL A   1      42.559  29.752  29.710  1.00  0.00    -0.354 N 
ATOM     58  C   UNL A   1      42.128  25.769  28.167  1.00  0.00     0.074 A 
ATOM     59  C   UNL A   1      40.750  25.465  27.847  1.00  0.00     0.031 C 
ATOM     60  C   UNL A   1      41.893  31.803  30.312  1.00  0.00     0.029 A 
ATOM     61  C   UNL A   1      43.068  30.957  30.138  1.00  0.00     0.049 A 
ATOM     62  H   UNL A   1      43.116  28.958  29.545  1.00  0.00     0.167 HD
ATOM     63  C   UNL A   1      43.161  24.907  27.999  1.00  0.00     0.037 A 
ATOM     64  C   UNL A   1      44.336  31.352  30.368  1.00  0.00     0.037 A 
ATOM     65  C   UNL A   1      44.541  25.215  28.277  1.00  0.00     0.049 A 
ATOM     66  C   UNL A   1      45.461  30.379  30.176  1.00  0.00     0.074 A 
ATOM     67  C   UNL A   1      45.654  24.408  28.103  1.00  0.00     0.029 A 
ATOM     68  N   UNL A   1      45.004  26.423  28.779  1.00  0.00    -0.354 N 
ATOM     69  N   UNL A   1      45.413  29.148  29.729  1.00  0.00    -0.248 NA
ATOM     70  C   UNL A   1      46.807  30.839  30.541  1.00  0.00     0.031 C 
ATOM     71  C   UNL A   1      46.785  25.115  28.527  1.00  0.00     0.029 A 
ATOM     72  C   UNL A   1      46.381  26.375  28.935  1.00  0.00     0.049 A 
ATOM     73  H   UNL A   1      44.437  27.199  28.993  1.00  0.00     0.167 HD
ATOM     74  C   UNL A   1      46.720  28.683  29.766  1.00  0.00     0.074 A 
ATOM     75  C   UNL A   1      47.542  29.772  30.252  1.00  0.00     0.031 C 
ATOM     76  C   UNL A   1      47.192  27.457  29.434  1.00  0.00     0.037 A 
BRANCH  63  77
ATOM     77  C   UNL A   1      42.850  23.528  27.482  1.00  0.00     0.058 A 
ATOM     78  C   UNL A   1      42.965  23.213  26.121  1.00  0.00     0.135 A 
ATOM     79  C   UNL A   1      42.518  22.491  28.370  1.00  0.00     0.135 A 
ATOM     80  F   UNL A   1      43.270  24.167  25.228  1.00  0.00    -0.206 F 
ATOM     81  C   UNL A   1      42.754  21.919  25.654  1.00  0.00     0.059 A 
ATOM     82  C   UNL A   1      42.322  21.185  27.929  1.00  0.00     0.059 A 
ATOM     83  F   UNL A   1      42.400  22.740  29.684  1.00  0.00    -0.206 F 
ATOM     84  C   UNL A   1      42.436  20.910  26.567  1.00  0.00     0.060 A 
BRANCH  84  85
ATOM     85  S   UNL A   1      42.201  19.230  25.947  1.00  0.00     0.124 S 
ATOM     86  O   UNL A   1      43.044  19.238  24.756  1.00  0.00    -0.237 OA
ATOM     87  O   UNL A   1      42.687  18.417  27.058  1.00  0.00    -0.237 OA
ATOM     88  O   UNL A   1      40.765  19.155  25.701  1.00  0.00    -0.744 OA
ENDBRANCH  84  85
ENDBRANCH  63  77
BRANCH  64  89
ATOM     89  C   UNL A   1      44.599  32.747  30.805  1.00  0.00     0.058 A 
ATOM     90  C   UNL A   1      44.856  33.758  29.869  1.00  0.00     0.135 A 
ATOM     91  C   UNL A   1      44.541  33.106  32.161  1.00  0.00     0.135 A 
ATOM     92  F   UNL A   1      44.931  33.461  28.563  1.00  0.00    -0.206 F 
ATOM     93  C   UNL A   1      45.036  35.081  30.259  1.00  0.00     0.059 A 
ATOM     94  C   UNL A   1      44.693  34.426  32.574  1.00  0.00     0.059 A 
ATOM     95  F   UNL A   1      44.285  32.175  33.092  1.00  0.00    -0.206 F 
ATOM     96  C   UNL A   1      44.943  35.407  31.615  1.00  0.00     0.060 A 
BRANCH  96  97
ATOM     97  S   UNL A   1      45.081  37.139  32.105  1.00  0.00     0.124 S 
ATOM     98  O   UNL A   1      44.769  37.067  33.528  1.00  0.00    -0.237 OA
ATOM     99  O   UNL A   1      46.468  37.445  31.769  1.00  0.00    -0.237 OA
ATOM    100  O   UNL A   1      44.084  37.802  31.270  1.00  0.00    -0.744 OA
ENDBRANCH  96  97
ENDBRANCH  64  89
BRANCH  76 101
ATOM    101  C   UNL A   1      48.666  27.220  29.594  1.00  0.00     0.058 A 
ATOM    102  C   UNL A   1      49.573  27.574  28.583  1.00  0.00     0.135 A 
ATOM    103  C   UNL A   1      49.181  26.678  30.781  1.00  0.00     0.135 A 
ATOM    104  F   UNL A   1      49.129  28.086  27.425  1.00  0.00    -0.206 F 
ATOM    105  C   UNL A   1      50.942  27.385  28.740  1.00  0.00     0.059 A 
ATOM    106  C   UNL A   1      50.549  26.498  30.966  1.00  0.00     0.059 A 
ATOM    107  F   UNL A   1      48.355  26.328  31.780  1.00  0.00    -0.206 F 
ATOM    108  C   UNL A   1      51.421  26.847  29.935  1.00  0.00     0.060 A 
BRANCH 108 109
ATOM    109  S   UNL A   1      53.204  26.638  30.138  1.00  0.00     0.124 S 
ATOM    110  O   UNL A   1      53.263  25.576  31.137  1.00  0.00    -0.237 OA
ATOM    111  O   UNL A   1      53.631  26.269  28.793  1.00  0.00    -0.237 OA
ATOM    112  O   UNL A   1      53.649  27.952  30.592  1.00  0.00    -0.744 OA
ENDBRANCH 108 109
ENDBRANCH  76 101
ENDBRANCH  50  51
ENDBRANCH  42  45
ENDBRANCH  40  41
ENDBRANCH  39  40
ENDBRANCH   1  39
TORSDOF 17
ENDMDL
MODEL 2
REMARK VINA RESULT:     -10.3      5.783     13.705
REMARK SMILES O=C(Cn1nc(C(=O)NCCCCNC(=O)c2ccc(-c3c4nc(c(-c5c(F)cc(S(=O)(=O)[O-])cc5F)c5ccc([nH]5)c(-c5c(F)cc(S(=O)(=O)[O-])cc5F)c5nc(c(-c6c(F)cc(S(=O)(=O)[O-])cc6F)c6ccc3[nH]6)C=C5)C=C4)cc2)c2ccccc2c1=O)Nc1ccc2c(c1)C(=O)c1ccccc1C2=O
REMARK SMILES IDX 11 1 10 2 9 3 7 4 8 5 6 7 4 8 5 9 89 10 88 11 90 12 83 13
REMARK SMILES IDX 87 14 84 15 86 16 85 17 3 18 2 19 1 20 91 21 92 23 93 24
REMARK SMILES IDX 97 25 94 26 96 27 95 28 98 29 106 30 99 31 100 32 105 33
REMARK SMILES IDX 107 34 101 35 104 36 102 37 103 38 12 39 13 40 14 41 15 42
REMARK SMILES IDX 16 44 17 45 18 46 82 47 19 48 81 49 20 50 21 51 22 52 75 53
REMARK SMILES IDX 23 54 80 55 74 56 76 57 24 58 79 59 73 60 72 61 25 63 59 64
REMARK SMILES IDX 38 65 58 66 39 67 42 68 57 69 77 70 40 71 41 72 56 74 78 75
REMARK SMILES IDX 43 76 26 77 27 78 36 79 28 80 29 81 35 82 37 83 30 84 31 85
REMARK SMILES IDX 32 86 33 87 34 88 60 89 61 90 70 91 62 92 63 93 69 94 71 95
REMARK SMILES IDX 64 96 65 97 66 98 67 99 68 100 44 101 45 102 54 103 46 104
REMARK SMILES IDX 47 105 53 106 55 107 48 108 49 109 50 110 51 111 52 112
REMARK H PARENT 9 6 91 22 14 43 76 62 42 73
REMARK Flexibility Score: inf
ROOT
ATOM      1  C   UNL A   1      38.144  23.232  25.998  1.00  0.00     0.023 C 
ENDROOT
BRANCH   1   2
ATOM      2  C   UNL A   1      36.897  22.381  25.709  1.00  0.00     0.116 C 
BRANCH   2   3
ATOM      3  N   UNL A   1      35.825  22.627  26.663  1.00  0.00    -0.351 N 
ATOM      4  C   UNL A   1      34.529  22.995  26.437  1.00  0.00     0.272 C 
ATOM      5  O   UNL A   1      33.769  23.301  27.346  1.00  0.00    -0.267 OA
ATOM      6  H   UNL A   1      36.070  22.512  27.610  1.00  0.00     0.163 HD
BRANCH   4   7
ATOM      7  C   UNL A   1      34.009  22.973  25.014  1.00  0.00     0.156 A 
ATOM      8  N   UNL A   1      33.741  24.064  22.990  1.00  0.00    -0.219 N 
ATOM      9  N   UNL A   1      34.192  24.047  24.296  1.00  0.00    -0.163 NA
ATOM     10  C   UNL A   1      33.176  22.947  22.365  1.00  0.00     0.275 A 
ATOM     11  C   UNL A   1      32.953  21.749  23.198  1.00  0.00     0.051 A 
ATOM     12  O   UNL A   1      32.874  22.908  21.174  1.00  0.00    -0.267 OA
ATOM     13  C   UNL A   1      33.349  21.754  24.527  1.00  0.00     0.020 A 
ATOM     14  C   UNL A   1      32.352  20.606  22.651  1.00  0.00     0.014 A 
ATOM     15  C   UNL A   1      33.130  20.621  25.327  1.00  0.00     0.011 A 
ATOM     16  C   UNL A   1      32.137  19.478  23.444  1.00  0.00     0.001 A 
ATOM     17  C   UNL A   1      32.520  19.488  24.782  1.00  0.00     0.001 A 
BRANCH   8  18
ATOM     18  C   UNL A   1      34.030  25.246  22.150  1.00  0.00     0.248 C 
BRANCH  18  19
ATOM     19  C   UNL A   1      33.427  26.626  22.486  1.00  0.00     0.246 C 
ATOM     20  O   UNL A   1      33.765  27.635  21.869  1.00  0.00    -0.273 OA
ATOM     21  N   UNL A   1      32.632  26.618  23.600  1.00  0.00    -0.324 N 
ATOM     22  H   UNL A   1      32.607  25.763  24.085  1.00  0.00     0.169 HD
BRANCH  21  23
ATOM     23  C   UNL A   1      31.848  27.635  24.158  1.00  0.00     0.042 A 
ATOM     24  C   UNL A   1      32.300  28.606  25.054  1.00  0.00     0.027 A 
ATOM     25  C   UNL A   1      30.555  27.725  23.650  1.00  0.00     0.039 A 
ATOM     26  C   UNL A   1      31.536  29.771  25.257  1.00  0.00     0.015 A 
ATOM     27  C   UNL A   1      29.760  28.817  23.948  1.00  0.00     0.036 A 
ATOM     28  C   UNL A   1      30.306  29.906  24.606  1.00  0.00     0.034 A 
ATOM     29  C   UNL A   1      28.463  28.947  23.279  1.00  0.00     0.194 C 
ATOM     30  C   UNL A   1      29.744  31.242  24.273  1.00  0.00     0.194 C 
ATOM     31  O   UNL A   1      27.650  28.038  23.233  1.00  0.00    -0.289 OA
ATOM     32  C   UNL A   1      28.301  30.187  22.533  1.00  0.00     0.034 A 
ATOM     33  C   UNL A   1      28.981  31.319  22.988  1.00  0.00     0.034 A 
ATOM     34  O   UNL A   1      30.028  32.236  24.922  1.00  0.00    -0.289 OA
ATOM     35  C   UNL A   1      27.691  30.131  21.280  1.00  0.00     0.013 A 
ATOM     36  C   UNL A   1      29.081  32.422  22.143  1.00  0.00     0.013 A 
ATOM     37  C   UNL A   1      27.825  31.219  20.430  1.00  0.00     0.001 A 
ATOM     38  C   UNL A   1      28.523  32.356  20.857  1.00  0.00     0.001 A 
ENDBRANCH  21  23
ENDBRANCH  18  19
ENDBRANCH   8  18
ENDBRANCH   4   7
ENDBRANCH   2   3
ENDBRANCH   1   2
BRANCH   1  39
ATOM     39  C   UNL A   1      39.278  22.353  26.510  1.00  0.00     0.023 C 
BRANCH  39  40
ATOM     40  C   UNL A   1      40.594  23.022  26.867  1.00  0.00     0.116 C 
BRANCH  40  41
ATOM     41  N   UNL A   1      41.240  23.853  25.873  1.00  0.00    -0.352 N 
ATOM     42  C   UNL A   1      41.646  25.177  25.929  1.00  0.00     0.251 C 
ATOM     43  H   UNL A   1      41.421  23.404  25.015  1.00  0.00     0.163 HD
ATOM     44  O   UNL A   1      42.300  25.610  24.978  1.00  0.00    -0.269 OA
BRANCH  42  45
ATOM     45  C   UNL A   1      41.282  26.116  27.040  1.00  0.00     0.039 A 
ATOM     46  C   UNL A   1      41.848  27.374  27.210  1.00  0.00     0.014 A 
ATOM     47  C   UNL A   1      40.319  25.708  27.978  1.00  0.00     0.014 A 
ATOM     48  C   UNL A   1      41.671  28.080  28.399  1.00  0.00     0.010 A 
ATOM     49  C   UNL A   1      40.018  26.498  29.105  1.00  0.00     0.010 A 
ATOM     50  C   UNL A   1      40.739  27.670  29.363  1.00  0.00    -0.014 A 
BRANCH  50  51
ATOM     51  C   UNL A   1      40.538  28.520  30.577  1.00  0.00     0.031 A 
ATOM     52  C   UNL A   1      41.495  28.484  31.746  1.00  0.00     0.074 A 
ATOM     53  C   UNL A   1      39.527  29.418  30.588  1.00  0.00     0.049 A 
ATOM     54  N   UNL A   1      41.504  29.232  32.822  1.00  0.00    -0.248 NA
ATOM     55  C   UNL A   1      42.568  27.479  31.715  1.00  0.00     0.031 C 
ATOM     56  C   UNL A   1      38.514  29.556  29.537  1.00  0.00     0.029 A 
ATOM     57  N   UNL A   1      39.213  30.420  31.475  1.00  0.00    -0.354 N 
ATOM     58  C   UNL A   1      42.561  28.778  33.603  1.00  0.00     0.074 A 
ATOM     59  C   UNL A   1      43.158  27.669  32.889  1.00  0.00     0.031 C 
ATOM     60  C   UNL A   1      37.766  30.641  29.782  1.00  0.00     0.029 A 
ATOM     61  C   UNL A   1      38.187  31.231  31.047  1.00  0.00     0.049 A 
ATOM     62  H   UNL A   1      39.678  30.544  32.334  1.00  0.00     0.167 HD
ATOM     63  C   UNL A   1      43.002  29.245  34.797  1.00  0.00     0.037 A 
ATOM     64  C   UNL A   1      37.636  32.330  31.600  1.00  0.00     0.037 A 
ATOM     65  C   UNL A   1      42.438  30.373  35.496  1.00  0.00     0.049 A 
ATOM     66  C   UNL A   1      38.142  32.827  32.921  1.00  0.00     0.074 A 
ATOM     67  C   UNL A   1      42.848  30.932  36.695  1.00  0.00     0.029 A 
ATOM     68  N   UNL A   1      41.353  31.120  35.062  1.00  0.00    -0.354 N 
ATOM     69  N   UNL A   1      39.139  32.374  33.640  1.00  0.00    -0.248 NA
ATOM     70  C   UNL A   1      37.433  33.967  33.518  1.00  0.00     0.031 C 
ATOM     71  C   UNL A   1      41.993  31.997  37.002  1.00  0.00     0.029 A 
ATOM     72  C   UNL A   1      41.070  32.122  35.978  1.00  0.00     0.049 A 
ATOM     73  H   UNL A   1      40.856  30.960  34.227  1.00  0.00     0.167 HD
ATOM     74  C   UNL A   1      39.174  33.169  34.778  1.00  0.00     0.074 A 
ATOM     75  C   UNL A   1      38.116  34.148  34.641  1.00  0.00     0.031 C 
ATOM     76  C   UNL A   1      40.006  33.084  35.844  1.00  0.00     0.037 A 
BRANCH  63  77
ATOM     77  C   UNL A   1      44.166  28.542  35.441  1.00  0.00     0.058 A 
ATOM     78  C   UNL A   1      45.490  28.920  35.174  1.00  0.00     0.135 A 
ATOM     79  C   UNL A   1      43.951  27.540  36.402  1.00  0.00     0.135 A 
ATOM     80  F   UNL A   1      45.752  29.866  34.258  1.00  0.00    -0.206 F 
ATOM     81  C   UNL A   1      46.562  28.323  35.829  1.00  0.00     0.059 A 
ATOM     82  C   UNL A   1      45.007  26.942  37.085  1.00  0.00     0.059 A 
ATOM     83  F   UNL A   1      42.702  27.145  36.697  1.00  0.00    -0.206 F 
ATOM     84  C   UNL A   1      46.311  27.337  36.787  1.00  0.00     0.060 A 
BRANCH  84  85
ATOM     85  S   UNL A   1      47.714  26.599  37.652  1.00  0.00     0.124 S 
ATOM     86  O   UNL A   1      48.637  27.727  37.727  1.00  0.00    -0.237 OA
ATOM     87  O   UNL A   1      47.117  26.188  38.920  1.00  0.00    -0.237 OA
ATOM     88  O   UNL A   1      48.122  25.509  36.773  1.00  0.00    -0.744 OA
ENDBRANCH  84  85
ENDBRANCH  63  77
BRANCH  64  89
ATOM     89  C   UNL A   1      36.539  33.034  30.887  1.00  0.00     0.058 A 
ATOM     90  C   UNL A   1      35.221  32.978  31.362  1.00  0.00     0.135 A 
ATOM     91  C   UNL A   1      36.797  33.820  29.753  1.00  0.00     0.135 A 
ATOM     92  F   UNL A   1      34.925  32.231  32.435  1.00  0.00    -0.206 F 
ATOM     93  C   UNL A   1      34.196  33.687  30.744  1.00  0.00     0.059 A 
ATOM     94  C   UNL A   1      35.793  34.557  29.133  1.00  0.00     0.059 A 
ATOM     95  F   UNL A   1      38.045  33.914  29.271  1.00  0.00    -0.206 F 
ATOM     96  C   UNL A   1      34.495  34.483  29.635  1.00  0.00     0.060 A 
BRANCH  96  97
ATOM     97  S   UNL A   1      33.180  35.475  28.896  1.00  0.00     0.124 S 
ATOM     98  O   UNL A   1      32.456  35.929  30.078  1.00  0.00    -0.237 OA
ATOM     99  O   UNL A   1      33.932  36.498  28.176  1.00  0.00    -0.237 OA
ATOM    100  O   UNL A   1      32.474  34.518  28.050  1.00  0.00    -0.744 OA
ENDBRANCH  96  97
ENDBRANCH  64  89
BRANCH  76 101
ATOM    101  C   UNL A   1      39.802  34.071  36.956  1.00  0.00     0.058 A 
ATOM    102  C   UNL A   1      40.373  35.352  36.907  1.00  0.00     0.135 A 
ATOM    103  C   UNL A   1      38.994  33.754  38.059  1.00  0.00     0.135 A 
ATOM    104  F   UNL A   1      41.162  35.701  35.878  1.00  0.00    -0.206 F 
ATOM    105  C   UNL A   1      40.161  36.281  37.920  1.00  0.00     0.059 A 
ATOM    106  C   UNL A   1      38.753  34.674  39.075  1.00  0.00     0.059 A 
ATOM    107  F   UNL A   1      38.420  32.543  38.151  1.00  0.00    -0.206 F 
ATOM    108  C   UNL A   1      39.348  35.932  39.001  1.00  0.00     0.060 A 
BRANCH 108 109
ATOM    109  S   UNL A   1      39.054  37.159  40.293  1.00  0.00     0.124 S 
ATOM    110  O   UNL A   1      40.411  37.427  40.758  1.00  0.00    -0.237 OA
ATOM    111  O   UNL A   1      38.411  38.242  39.557  1.00  0.00    -0.237 OA
ATOM    112  O   UNL A   1      38.194  36.455  41.240  1.00  0.00    -0.744 OA
ENDBRANCH 108 109
ENDBRANCH  76 101
ENDBRANCH  50  51
ENDBRANCH  42  45
ENDBRANCH  40  41
ENDBRANCH  39  40
ENDBRANCH   1  39
TORSDOF 17
ENDMDL
MODEL 3
REMARK VINA RESULT:     -10.3      7.006     14.724
REMARK SMILES O=C(Cn1nc(C(=O)NCCCCNC(=O)c2ccc(-c3c4nc(c(-c5c(F)cc(S(=O)(=O)[O-])cc5F)c5ccc([nH]5)c(-c5c(F)cc(S(=O)(=O)[O-])cc5F)c5nc(c(-c6c(F)cc(S(=O)(=O)[O-])cc6F)c6ccc3[nH]6)C=C5)C=C4)cc2)c2ccccc2c1=O)Nc1ccc2c(c1)C(=O)c1ccccc1C2=O
REMARK SMILES IDX 11 1 10 2 9 3 7 4 8 5 6 7 4 8 5 9 89 10 88 11 90 12 83 13
REMARK SMILES IDX 87 14 84 15 86 16 85 17 3 18 2 19 1 20 91 21 92 23 93 24
REMARK SMILES IDX 97 25 94 26 96 27 95 28 98 29 106 30 99 31 100 32 105 33
REMARK SMILES IDX 107 34 101 35 104 36 102 37 103 38 12 39 13 40 14 41 15 42
REMARK SMILES IDX 16 44 17 45 18 46 82 47 19 48 81 49 20 50 21 51 22 52 75 53
REMARK SMILES IDX 23 54 80 55 74 56 76 57 24 58 79 59 73 60 72 61 25 63 59 64
REMARK SMILES IDX 38 65 58 66 39 67 42 68 57 69 77 70 40 71 41 72 56 74 78 75
REMARK SMILES IDX 43 76 26 77 27 78 36 79 28 80 29 81 35 82 37 83 30 84 31 85
REMARK SMILES IDX 32 86 33 87 34 88 60 89 61 90 70 91 62 92 63 93 69 94 71 95
REMARK SMILES IDX 64 96 65 97 66 98 67 99 68 100 44 101 45 102 54 103 46 104
REMARK SMILES IDX 47 105 53 106 55 107 48 108 49 109 50 110 51 111 52 112
REMARK H PARENT 9 6 91 22 14 43 76 62 42 73
REMARK Flexibility Score: inf
ROOT
ATOM      1  C   UNL A   1      47.528  23.439  38.204  1.00  0.00     0.023 C 
ENDROOT
BRANCH   1   2
ATOM      2  C   UNL A   1      46.126  22.898  38.527  1.00  0.00     0.116 C 
BRANCH   2   3
ATOM      3  N   UNL A   1      45.647  21.962  37.520  1.00  0.00    -0.351 N 
ATOM      4  C   UNL A   1      46.055  20.684  37.258  1.00  0.00     0.272 C 
ATOM      5  O   UNL A   1      45.655  20.058  36.286  1.00  0.00    -0.267 OA
ATOM      6  H   UNL A   1      44.924  22.299  36.942  1.00  0.00     0.163 HD
BRANCH   4   7
ATOM      7  C   UNL A   1      46.996  20.011  38.236  1.00  0.00     0.156 A 
ATOM      8  N   UNL A   1      47.304  18.929  40.259  1.00  0.00    -0.219 N 
ATOM      9  N   UNL A   1      46.480  19.558  39.345  1.00  0.00    -0.163 NA
ATOM     10  C   UNL A   1      48.656  18.669  40.013  1.00  0.00     0.275 A 
ATOM     11  C   UNL A   1      49.230  19.210  38.765  1.00  0.00     0.051 A 
ATOM     12  O   UNL A   1      49.375  18.013  40.762  1.00  0.00    -0.267 OA
ATOM     13  C   UNL A   1      48.417  19.897  37.876  1.00  0.00     0.020 A 
ATOM     14  C   UNL A   1      50.589  19.027  38.471  1.00  0.00     0.014 A 
ATOM     15  C   UNL A   1      48.960  20.423  36.693  1.00  0.00     0.011 A 
ATOM     16  C   UNL A   1      51.129  19.546  37.294  1.00  0.00     0.001 A 
ATOM     17  C   UNL A   1      50.316  20.249  36.409  1.00  0.00     0.001 A 
BRANCH   8  18
ATOM     18  C   UNL A   1      46.702  18.336  41.472  1.00  0.00     0.248 C 
BRANCH  18  19
ATOM     19  C   UNL A   1      45.849  17.053  41.390  1.00  0.00     0.246 C 
ATOM     20  O   UNL A   1      46.372  15.952  41.222  1.00  0.00    -0.273 OA
ATOM     21  N   UNL A   1      44.502  17.292  41.368  1.00  0.00    -0.324 N 
ATOM     22  H   UNL A   1      44.251  18.243  41.329  1.00  0.00     0.169 HD
BRANCH  21  23
ATOM     23  C   UNL A   1      43.425  16.399  41.392  1.00  0.00     0.042 A 
ATOM     24  C   UNL A   1      42.715  15.957  40.275  1.00  0.00     0.027 A 
ATOM     25  C   UNL A   1      43.160  15.832  42.636  1.00  0.00     0.039 A 
ATOM     26  C   UNL A   1      41.912  14.805  40.374  1.00  0.00     0.015 A 
ATOM     27  C   UNL A   1      42.278  14.772  42.749  1.00  0.00     0.036 A 
ATOM     28  C   UNL A   1      41.789  14.159  41.608  1.00  0.00     0.034 A 
ATOM     29  C   UNL A   1      42.137  14.110  44.048  1.00  0.00     0.194 C 
ATOM     30  C   UNL A   1      41.503  12.703  41.700  1.00  0.00     0.194 C 
ATOM     31  O   UNL A   1      41.942  14.724  45.085  1.00  0.00    -0.289 OA
ATOM     32  C   UNL A   1      42.420  12.682  44.020  1.00  0.00     0.034 A 
ATOM     33  C   UNL A   1      42.161  11.986  42.837  1.00  0.00     0.034 A 
ATOM     34  O   UNL A   1      40.905  12.111  40.815  1.00  0.00    -0.289 OA
ATOM     35  C   UNL A   1      43.157  12.132  45.068  1.00  0.00     0.013 A 
ATOM     36  C   UNL A   1      42.688  10.706  42.687  1.00  0.00     0.013 A 
ATOM     37  C   UNL A   1      43.710  10.871  44.898  1.00  0.00     0.001 A 
ATOM     38  C   UNL A   1      43.483  10.165  43.710  1.00  0.00     0.001 A 
ENDBRANCH  21  23
ENDBRANCH  18  19
ENDBRANCH   8  18
ENDBRANCH   4   7
ENDBRANCH   2   3
ENDBRANCH   1   2
BRANCH   1  39
ATOM     39  C   UNL A   1      47.569  23.988  36.783  1.00  0.00     0.023 C 
BRANCH  39  40
ATOM     40  C   UNL A   1      48.560  25.096  36.474  1.00  0.00     0.116 C 
BRANCH  40  41
ATOM     41  N   UNL A   1      48.765  26.137  37.460  1.00  0.00    -0.352 N 
ATOM     42  C   UNL A   1      47.972  27.220  37.807  1.00  0.00     0.251 C 
ATOM     43  H   UNL A   1      49.606  26.064  37.968  1.00  0.00     0.163 HD
ATOM     44  O   UNL A   1      48.319  27.887  38.783  1.00  0.00    -0.269 OA
BRANCH  42  45
ATOM     45  C   UNL A   1      46.767  27.656  37.029  1.00  0.00     0.039 A 
ATOM     46  C   UNL A   1      46.801  28.601  36.010  1.00  0.00     0.014 A 
ATOM     47  C   UNL A   1      45.520  27.092  37.345  1.00  0.00     0.014 A 
ATOM     48  C   UNL A   1      45.623  29.158  35.515  1.00  0.00     0.010 A 
ATOM     49  C   UNL A   1      44.337  27.543  36.727  1.00  0.00     0.010 A 
ATOM     50  C   UNL A   1      44.367  28.630  35.845  1.00  0.00    -0.014 A 
BRANCH  50  51
ATOM     51  C   UNL A   1      43.147  29.221  35.212  1.00  0.00     0.031 A 
ATOM     52  C   UNL A   1      42.420  30.396  35.823  1.00  0.00     0.074 A 
ATOM     53  C   UNL A   1      42.743  28.755  34.009  1.00  0.00     0.049 A 
ATOM     54  N   UNL A   1      41.408  31.076  35.338  1.00  0.00    -0.248 NA
ATOM     55  C   UNL A   1      42.868  30.862  37.143  1.00  0.00     0.031 C 
ATOM     56  C   UNL A   1      43.338  27.615  33.305  1.00  0.00     0.029 A 
ATOM     57  N   UNL A   1      41.782  29.209  33.137  1.00  0.00    -0.354 N 
ATOM     58  C   UNL A   1      41.086  32.029  36.298  1.00  0.00     0.074 A 
ATOM     59  C   UNL A   1      41.994  31.826  37.407  1.00  0.00     0.031 C 
ATOM     60  C   UNL A   1      42.811  27.527  32.077  1.00  0.00     0.029 A 
ATOM     61  C   UNL A   1      41.781  28.549  31.929  1.00  0.00     0.049 A 
ATOM     62  H   UNL A   1      41.155  29.935  33.357  1.00  0.00     0.167 HD
ATOM     63  C   UNL A   1      40.133  32.992  36.257  1.00  0.00     0.037 A 
ATOM     64  C   UNL A   1      41.040  28.735  30.818  1.00  0.00     0.037 A 
ATOM     65  C   UNL A   1      39.251  33.227  35.141  1.00  0.00     0.049 A 
ATOM     66  C   UNL A   1      39.992  29.806  30.798  1.00  0.00     0.074 A 
ATOM     67  C   UNL A   1      38.279  34.205  35.005  1.00  0.00     0.029 A 
ATOM     68  N   UNL A   1      39.235  32.488  33.967  1.00  0.00    -0.354 N 
ATOM     69  N   UNL A   1      39.705  30.690  31.722  1.00  0.00    -0.248 NA
ATOM     70  C   UNL A   1      39.151  29.890  29.597  1.00  0.00     0.031 C 
ATOM     71  C   UNL A   1      37.654  34.038  33.764  1.00  0.00     0.029 A 
ATOM     72  C   UNL A   1      38.259  32.977  33.112  1.00  0.00     0.049 A 
ATOM     73  H   UNL A   1      39.828  31.727  33.771  1.00  0.00     0.167 HD
ATOM     74  C   UNL A   1      38.645  31.432  31.217  1.00  0.00     0.074 A 
ATOM     75  C   UNL A   1      38.359  30.912  29.896  1.00  0.00     0.031 C 
ATOM     76  C   UNL A   1      37.967  32.446  31.804  1.00  0.00     0.037 A 
BRANCH  63  77
ATOM     77  C   UNL A   1      39.982  33.885  37.458  1.00  0.00     0.058 A 
ATOM     78  C   UNL A   1      40.690  35.090  37.570  1.00  0.00     0.135 A 
ATOM     79  C   UNL A   1      39.053  33.575  38.466  1.00  0.00     0.135 A 
ATOM     80  F   UNL A   1      41.597  35.431  36.641  1.00  0.00    -0.206 F 
ATOM     81  C   UNL A   1      40.492  35.953  38.643  1.00  0.00     0.059 A 
ATOM     82  C   UNL A   1      38.824  34.432  39.539  1.00  0.00     0.059 A 
ATOM     83  F   UNL A   1      38.346  32.435  38.404  1.00  0.00    -0.206 F 
ATOM     84  C   UNL A   1      39.553  35.617  39.621  1.00  0.00     0.060 A 
BRANCH  84  85
ATOM     85  S   UNL A   1      39.284  36.768  40.988  1.00  0.00     0.124 S 
ATOM     86  O   UNL A   1      40.654  37.096  41.368  1.00  0.00    -0.237 OA
ATOM     87  O   UNL A   1      38.533  37.843  40.346  1.00  0.00    -0.237 OA
ATOM     88  O   UNL A   1      38.534  35.976  41.957  1.00  0.00    -0.744 OA
ENDBRANCH  84  85
ENDBRANCH  63  77
BRANCH  64  89
ATOM     89  C   UNL A   1      41.279  27.875  29.630  1.00  0.00     0.058 A 
ATOM     90  C   UNL A   1      42.428  28.037  28.845  1.00  0.00     0.135 A 
ATOM     91  C   UNL A   1      40.391  26.842  29.292  1.00  0.00     0.135 A 
ATOM     92  F   UNL A   1      43.300  29.018  29.123  1.00  0.00    -0.206 F 
ATOM     93  C   UNL A   1      42.698  27.196  27.770  1.00  0.00     0.059 A 
ATOM     94  C   UNL A   1      40.651  25.973  28.237  1.00  0.00     0.059 A 
ATOM     95  F   UNL A   1      39.284  26.641  30.023  1.00  0.00    -0.206 F 
ATOM     96  C   UNL A   1      41.807  26.159  27.480  1.00  0.00     0.060 A 
BRANCH  96  97
ATOM     97  S   UNL A   1      42.211  25.013  26.145  1.00  0.00     0.124 S 
ATOM     98  O   UNL A   1      43.642  24.816  26.349  1.00  0.00    -0.237 OA
ATOM     99  O   UNL A   1      41.359  23.868  26.453  1.00  0.00    -0.237 OA
ATOM    100  O   UNL A   1      41.838  25.754  24.944  1.00  0.00    -0.744 OA
ENDBRANCH  96  97
ENDBRANCH  64  89
BRANCH  76 101
ATOM    101  C   UNL A   1      36.838  33.060  31.028  1.00  0.00     0.058 A 
ATOM    102  C   UNL A   1      35.500  32.805  31.366  1.00  0.00     0.135 A 
ATOM    103  C   UNL A   1      37.092  33.945  29.969  1.00  0.00     0.135 A 
ATOM    104  F   UNL A   1      35.205  31.958  32.364  1.00  0.00    -0.206 F 
ATOM    105  C   UNL A   1      34.451  33.396  30.670  1.00  0.00     0.059 A 
ATOM    106  C   UNL A   1      36.059  34.563  29.272  1.00  0.00     0.059 A 
ATOM    107  F   UNL A   1      38.356  34.226  29.611  1.00  0.00    -0.206 F 
ATOM    108  C   UNL A   1      34.741  34.275  29.624  1.00  0.00     0.060 A 
BRANCH 108 109
ATOM    109  S   UNL A   1      33.369  35.062  28.751  1.00  0.00     0.124 S 
ATOM    110  O   UNL A   1      34.068  36.056  27.943  1.00  0.00    -0.237 OA
ATOM    111  O   UNL A   1      32.783  33.946  28.016  1.00  0.00    -0.237 OA
ATOM    112  O   UNL A   1      32.543  35.597  29.829  1.00  0.00    -0.744 OA
ENDBRANCH 108 109
ENDBRANCH  76 101
ENDBRANCH  50  51
ENDBRANCH  42  45
ENDBRANCH  40  41
ENDBRANCH  39  40
ENDBRANCH   1  39
TORSDOF 17
ENDMDL
