MODEL 1
REMARK VINA RESULT:     -11.1      0.000      0.000
REMARK SMILES N#Cc1cccc(NCCCC(=O)NCCCCNC(=O)c2ccc(-c3c4nc(c(-c5c(F)cc(S(=O)(=O)[O-])cc5F)c5ccc([nH]5)c(-c5c(F)cc(S(=O)(=O)[O-])cc5F)c5nc(c(-c6c(F)cc(S(=O)(=O)[O-])cc6F)c6ccc3[nH]6)C=C5)C=C4)cc2)c1
REMARK SMILES IDX 15 1 14 2 12 3 13 4 11 6 10 7 9 8 8 9 7 11 3 12 4 13 88 14
REMARK SMILES IDX 5 15 6 16 2 17 1 18 16 19 17 20 18 21 19 22 20 23 21 25
REMARK SMILES IDX 22 26 23 27 87 28 24 29 86 30 25 31 26 32 27 33 80 34 28 35
REMARK SMILES IDX 85 36 79 37 81 38 29 39 84 40 78 41 77 42 30 44 64 45 43 46
REMARK SMILES IDX 63 47 44 48 47 49 62 50 82 51 45 52 46 53 61 55 83 56 48 57
REMARK SMILES IDX 31 58 32 59 41 60 33 61 34 62 40 63 42 64 35 65 36 66 37 67
REMARK SMILES IDX 38 68 39 69 65 70 66 71 75 72 67 73 68 74 74 75 76 76 69 77
REMARK SMILES IDX 70 78 71 79 72 80 73 81 49 82 50 83 59 84 51 85 52 86 58 87
REMARK SMILES IDX 60 88 53 89 54 90 55 91 56 92 57 93
REMARK H PARENT 14 5 8 10 19 24 81 43 47 54
REMARK Flexibility Score: inf
ROOT
ATOM      1  C   UNL A   1      37.652  21.652  25.618  1.00  0.00     0.116 C 
ENDROOT
BRANCH   1   2
ATOM      2  N   UNL A   1      37.436  22.260  24.323  1.00  0.00    -0.356 N 
ATOM      3  C   UNL A   1      36.271  22.638  23.731  1.00  0.00     0.220 C 
ATOM      4  O   UNL A   1      36.303  23.062  22.575  1.00  0.00    -0.275 OA
ATOM      5  H   UNL A   1      38.249  22.424  23.793  1.00  0.00     0.163 HD
BRANCH   3   6
ATOM      6  C   UNL A   1      34.966  22.576  24.497  1.00  0.00     0.102 C 
BRANCH   6   7
ATOM      7  C   UNL A   1      34.826  21.389  25.453  1.00  0.00     0.031 C 
BRANCH   7   8
ATOM      8  C   UNL A   1      33.550  21.283  26.294  1.00  0.00     0.113 C 
BRANCH   8   9
ATOM      9  N   UNL A   1      32.523  20.491  25.640  1.00  0.00    -0.385 N 
ATOM     10  H   UNL A   1      31.585  20.692  25.861  1.00  0.00     0.160 HD
BRANCH   9  11
ATOM     11  C   UNL A   1      32.760  19.477  24.731  1.00  0.00     0.035 A 
ATOM     12  C   UNL A   1      33.738  17.275  24.303  1.00  0.00     0.054 A 
ATOM     13  C   UNL A   1      33.172  17.259  23.029  1.00  0.00     0.019 A 
ATOM     14  C   UNL A   1      33.539  18.383  25.137  1.00  0.00     0.045 A 
ATOM     15  C   UNL A   1      32.440  18.359  22.588  1.00  0.00     0.003 A 
ATOM     16  C   UNL A   1      32.246  19.460  23.432  1.00  0.00     0.026 A 
BRANCH  12  17
ATOM     17  C   UNL A   1      34.485  16.149  24.778  1.00  0.00     0.099 C 
ATOM     18  N   UNL A   1      35.080  15.238  25.186  1.00  0.00    -0.192 NA
ENDBRANCH  12  17
ENDBRANCH   9  11
ENDBRANCH   8   9
ENDBRANCH   7   8
ENDBRANCH   6   7
ENDBRANCH   3   6
ENDBRANCH   1   2
BRANCH   1  19
ATOM     19  C   UNL A   1      39.118  21.771  26.032  1.00  0.00     0.023 C 
BRANCH  19  20
ATOM     20  C   UNL A   1      39.443  23.026  26.827  1.00  0.00     0.023 C 
BRANCH  20  21
ATOM     21  C   UNL A   1      40.917  23.389  26.846  1.00  0.00     0.116 C 
BRANCH  21  22
ATOM     22  N   UNL A   1      41.274  24.402  25.861  1.00  0.00    -0.352 N 
ATOM     23  C   UNL A   1      41.454  25.752  26.063  1.00  0.00     0.251 C 
ATOM     24  H   UNL A   1      41.402  24.082  24.939  1.00  0.00     0.163 HD
ATOM     25  O   UNL A   1      41.627  26.514  25.119  1.00  0.00    -0.269 OA
BRANCH  23  26
ATOM     26  C   UNL A   1      41.381  26.262  27.446  1.00  0.00     0.039 A 
ATOM     27  C   UNL A   1      42.496  26.898  27.993  1.00  0.00     0.014 A 
ATOM     28  C   UNL A   1      40.161  26.240  28.131  1.00  0.00     0.014 A 
ATOM     29  C   UNL A   1      42.357  27.605  29.187  1.00  0.00     0.010 A 
ATOM     30  C   UNL A   1      40.004  27.031  29.261  1.00  0.00     0.010 A 
ATOM     31  C   UNL A   1      41.096  27.732  29.795  1.00  0.00    -0.014 A 
BRANCH  31  32
ATOM     32  C   UNL A   1      40.888  28.617  30.970  1.00  0.00     0.031 A 
ATOM     33  C   UNL A   1      39.824  29.678  30.931  1.00  0.00     0.074 A 
ATOM     34  C   UNL A   1      41.708  28.514  32.036  1.00  0.00     0.049 A 
ATOM     35  N   UNL A   1      39.544  30.597  31.817  1.00  0.00    -0.248 NA
ATOM     36  C   UNL A   1      38.980  29.732  29.724  1.00  0.00     0.031 C 
ATOM     37  C   UNL A   1      42.808  27.556  32.170  1.00  0.00     0.029 A 
ATOM     38  N   UNL A   1      41.754  29.230  33.208  1.00  0.00    -0.354 N 
ATOM     39  C   UNL A   1      38.503  31.341  31.274  1.00  0.00     0.074 A 
ATOM     40  C   UNL A   1      38.241  30.805  29.957  1.00  0.00     0.031 C 
ATOM     41  C   UNL A   1      43.402  27.727  33.362  1.00  0.00     0.029 A 
ATOM     42  C   UNL A   1      42.765  28.841  34.056  1.00  0.00     0.049 A 
ATOM     43  H   UNL A   1      41.122  29.955  33.420  1.00  0.00     0.167 HD
ATOM     44  C   UNL A   1      37.816  32.364  31.833  1.00  0.00     0.037 A 
ATOM     45  C   UNL A   1      43.153  29.340  35.248  1.00  0.00     0.037 A 
ATOM     46  C   UNL A   1      38.078  32.879  33.152  1.00  0.00     0.049 A 
ATOM     47  C   UNL A   1      42.395  30.503  35.831  1.00  0.00     0.074 A 
ATOM     48  C   UNL A   1      37.398  33.872  33.835  1.00  0.00     0.029 A 
ATOM     49  N   UNL A   1      39.109  32.459  33.980  1.00  0.00    -0.354 N 
ATOM     50  N   UNL A   1      41.356  31.138  35.342  1.00  0.00    -0.248 NA
ATOM     51  C   UNL A   1      42.858  31.019  37.127  1.00  0.00     0.031 C 
ATOM     52  C   UNL A   1      38.060  34.102  35.042  1.00  0.00     0.029 A 
ATOM     53  C   UNL A   1      39.110  33.204  35.149  1.00  0.00     0.049 A 
ATOM     54  H   UNL A   1      39.746  31.738  33.769  1.00  0.00     0.167 HD
ATOM     55  C   UNL A   1      41.031  32.113  36.278  1.00  0.00     0.074 A 
ATOM     56  C   UNL A   1      41.968  31.970  37.372  1.00  0.00     0.031 C 
ATOM     57  C   UNL A   1      40.048  33.047  36.233  1.00  0.00     0.037 A 
BRANCH  44  58
ATOM     58  C   UNL A   1      36.718  32.999  31.025  1.00  0.00     0.058 A 
ATOM     59  C   UNL A   1      35.364  32.701  31.249  1.00  0.00     0.135 A 
ATOM     60  C   UNL A   1      37.021  33.963  30.049  1.00  0.00     0.135 A 
ATOM     61  F   UNL A   1      35.014  31.776  32.157  1.00  0.00    -0.206 F 
ATOM     62  C   UNL A   1      34.352  33.318  30.520  1.00  0.00     0.059 A 
ATOM     63  C   UNL A   1      36.024  34.618  29.333  1.00  0.00     0.059 A 
ATOM     64  F   UNL A   1      38.298  34.284  29.791  1.00  0.00    -0.206 F 
ATOM     65  C   UNL A   1      34.693  34.279  29.568  1.00  0.00     0.060 A 
BRANCH  65  66
ATOM     66  S   UNL A   1      33.365  35.087  28.651  1.00  0.00     0.124 S 
ATOM     67  O   UNL A   1      34.115  36.010  27.804  1.00  0.00    -0.237 OA
ATOM     68  O   UNL A   1      32.737  33.964  27.963  1.00  0.00    -0.237 OA
ATOM     69  O   UNL A   1      32.559  35.711  29.696  1.00  0.00    -0.744 OA
ENDBRANCH  65  66
ENDBRANCH  44  58
BRANCH  45  70
ATOM     70  C   UNL A   1      44.318  28.750  35.963  1.00  0.00     0.058 A 
ATOM     71  C   UNL A   1      44.155  27.702  36.882  1.00  0.00     0.135 A 
ATOM     72  C   UNL A   1      45.622  29.224  35.744  1.00  0.00     0.135 A 
ATOM     73  F   UNL A   1      42.929  27.219  37.136  1.00  0.00    -0.206 F 
ATOM     74  C   UNL A   1      45.235  27.158  37.570  1.00  0.00     0.059 A 
ATOM     75  C   UNL A   1      46.722  28.673  36.395  1.00  0.00     0.059 A 
ATOM     76  F   UNL A   1      45.841  30.215  34.866  1.00  0.00    -0.206 F 
ATOM     77  C   UNL A   1      46.517  27.648  37.316  1.00  0.00     0.060 A 
BRANCH  77  78
ATOM     78  S   UNL A   1      47.916  26.904  38.183  1.00  0.00     0.124 S 
ATOM     79  O   UNL A   1      49.020  27.743  37.734  1.00  0.00    -0.237 OA
ATOM     80  O   UNL A   1      47.522  27.058  39.580  1.00  0.00    -0.237 OA
ATOM     81  O   UNL A   1      47.924  25.530  37.689  1.00  0.00    -0.744 OA
ENDBRANCH  77  78
ENDBRANCH  45  70
BRANCH  57  82
ATOM     82  C   UNL A   1      39.915  33.980  37.406  1.00  0.00     0.058 A 
ATOM     83  C   UNL A   1      40.541  35.235  37.425  1.00  0.00     0.135 A 
ATOM     84  C   UNL A   1      39.083  33.647  38.489  1.00  0.00     0.135 A 
ATOM     85  F   UNL A   1      41.354  35.601  36.421  1.00  0.00    -0.206 F 
ATOM     86  C   UNL A   1      40.357  36.124  38.479  1.00  0.00     0.059 A 
ATOM     87  C   UNL A   1      38.857  34.533  39.537  1.00  0.00     0.059 A 
ATOM     88  F   UNL A   1      38.453  32.462  38.519  1.00  0.00    -0.206 F 
ATOM     89  C   UNL A   1      39.504  35.768  39.526  1.00  0.00     0.060 A 
BRANCH  89  90
ATOM     90  S   UNL A   1      39.226  36.959  40.853  1.00  0.00     0.124 S 
ATOM     91  O   UNL A   1      38.343  37.923  40.204  1.00  0.00    -0.237 OA
ATOM     92  O   UNL A   1      38.611  36.133  41.887  1.00  0.00    -0.237 OA
ATOM     93  O   UNL A   1      40.567  37.446  41.161  1.00  0.00    -0.744 OA
ENDBRANCH  89  90
ENDBRANCH  57  82
ENDBRANCH  31  32
ENDBRANCH  23  26
ENDBRANCH  21  22
ENDBRANCH  20  21
ENDBRANCH  19  20
ENDBRANCH   1  19
TORSDOF 19
ENDMDL
MODEL 2
REMARK VINA RESULT:     -11.1      6.360     11.201
REMARK SMILES N#Cc1cccc(NCCCC(=O)NCCCCNC(=O)c2ccc(-c3c4nc(c(-c5c(F)cc(S(=O)(=O)[O-])cc5F)c5ccc([nH]5)c(-c5c(F)cc(S(=O)(=O)[O-])cc5F)c5nc(c(-c6c(F)cc(S(=O)(=O)[O-])cc6F)c6ccc3[nH]6)C=C5)C=C4)cc2)c1
REMARK SMILES IDX 15 1 14 2 12 3 13 4 11 6 10 7 9 8 8 9 7 11 3 12 4 13 88 14
REMARK SMILES IDX 5 15 6 16 2 17 1 18 16 19 17 20 18 21 19 22 20 23 21 25
REMARK SMILES IDX 22 26 23 27 87 28 24 29 86 30 25 31 26 32 27 33 80 34 28 35
REMARK SMILES IDX 85 36 79 37 81 38 29 39 84 40 78 41 77 42 30 44 64 45 43 46
REMARK SMILES IDX 63 47 44 48 47 49 62 50 82 51 45 52 46 53 61 55 83 56 48 57
REMARK SMILES IDX 31 58 32 59 41 60 33 61 34 62 40 63 42 64 35 65 36 66 37 67
REMARK SMILES IDX 38 68 39 69 65 70 66 71 75 72 67 73 68 74 74 75 76 76 69 77
REMARK SMILES IDX 70 78 71 79 72 80 73 81 49 82 50 83 59 84 51 85 52 86 58 87
REMARK SMILES IDX 60 88 53 89 54 90 55 91 56 92 57 93
REMARK H PARENT 14 5 8 10 19 24 81 43 47 54
REMARK Flexibility Score: inf
ROOT
ATOM      1  C   UNL A   1      36.321  20.474  25.246  1.00  0.00     0.116 C 
ENDROOT
BRANCH   1   2
ATOM      2  N   UNL A   1      36.158  21.733  25.940  1.00  0.00    -0.356 N 
ATOM      3  C   UNL A   1      35.284  22.746  25.696  1.00  0.00     0.220 C 
ATOM      4  O   UNL A   1      35.373  23.778  26.362  1.00  0.00    -0.275 OA
ATOM      5  H   UNL A   1      36.768  21.878  26.700  1.00  0.00     0.163 HD
BRANCH   3   6
ATOM      6  C   UNL A   1      34.199  22.589  24.652  1.00  0.00     0.102 C 
BRANCH   6   7
ATOM      7  C   UNL A   1      32.788  22.963  25.116  1.00  0.00     0.031 C 
BRANCH   7   8
ATOM      8  C   UNL A   1      31.790  21.832  25.382  1.00  0.00     0.113 C 
BRANCH   8   9
ATOM      9  N   UNL A   1      32.449  20.572  25.672  1.00  0.00    -0.385 N 
ATOM     10  H   UNL A   1      32.792  20.438  26.586  1.00  0.00     0.160 HD
BRANCH   9  11
ATOM     11  C   UNL A   1      32.634  19.544  24.767  1.00  0.00     0.035 A 
ATOM     12  C   UNL A   1      33.199  17.191  24.399  1.00  0.00     0.054 A 
ATOM     13  C   UNL A   1      32.883  17.315  23.047  1.00  0.00     0.019 A 
ATOM     14  C   UNL A   1      33.085  18.304  25.243  1.00  0.00     0.045 A 
ATOM     15  C   UNL A   1      32.485  18.552  22.544  1.00  0.00     0.003 A 
ATOM     16  C   UNL A   1      32.371  19.656  23.398  1.00  0.00     0.026 A 
BRANCH  12  17
ATOM     17  C   UNL A   1      33.600  15.926  24.936  1.00  0.00     0.099 C 
ATOM     18  N   UNL A   1      33.915  14.887  25.352  1.00  0.00    -0.192 NA
ENDBRANCH  12  17
ENDBRANCH   9  11
ENDBRANCH   8   9
ENDBRANCH   7   8
ENDBRANCH   6   7
ENDBRANCH   3   6
ENDBRANCH   1   2
BRANCH   1  19
ATOM     19  C   UNL A   1      37.788  20.240  24.889  1.00  0.00     0.023 C 
BRANCH  19  20
ATOM     20  C   UNL A   1      38.731  21.332  25.371  1.00  0.00     0.023 C 
BRANCH  20  21
ATOM     21  C   UNL A   1      39.628  20.917  26.523  1.00  0.00     0.116 C 
BRANCH  21  22
ATOM     22  N   UNL A   1      40.398  19.711  26.249  1.00  0.00    -0.352 N 
ATOM     23  C   UNL A   1      41.761  19.597  26.084  1.00  0.00     0.251 C 
ATOM     24  H   UNL A   1      39.883  18.876  26.171  1.00  0.00     0.163 HD
ATOM     25  O   UNL A   1      42.267  18.539  25.727  1.00  0.00    -0.269 OA
BRANCH  23  26
ATOM     26  C   UNL A   1      42.589  20.800  26.299  1.00  0.00     0.039 A 
ATOM     27  C   UNL A   1      43.033  21.523  25.191  1.00  0.00     0.014 A 
ATOM     28  C   UNL A   1      42.789  21.283  27.596  1.00  0.00     0.014 A 
ATOM     29  C   UNL A   1      43.588  22.787  25.383  1.00  0.00     0.010 A 
ATOM     30  C   UNL A   1      43.244  22.583  27.774  1.00  0.00     0.010 A 
ATOM     31  C   UNL A   1      43.637  23.354  26.669  1.00  0.00    -0.014 A 
BRANCH  31  32
ATOM     32  C   UNL A   1      44.065  24.761  26.880  1.00  0.00     0.031 A 
ATOM     33  C   UNL A   1      45.514  25.134  26.739  1.00  0.00     0.074 A 
ATOM     34  C   UNL A   1      43.160  25.681  27.273  1.00  0.00     0.049 A 
ATOM     35  N   UNL A   1      46.094  26.284  26.961  1.00  0.00    -0.248 NA
ATOM     36  C   UNL A   1      46.439  24.067  26.319  1.00  0.00     0.031 C 
ATOM     37  C   UNL A   1      41.733  25.428  27.491  1.00  0.00     0.029 A 
ATOM     38  N   UNL A   1      43.305  27.014  27.572  1.00  0.00    -0.354 N 
ATOM     39  C   UNL A   1      47.447  26.078  26.719  1.00  0.00     0.074 A 
ATOM     40  C   UNL A   1      47.610  24.679  26.391  1.00  0.00     0.031 C 
ATOM     41  C   UNL A   1      41.132  26.570  27.863  1.00  0.00     0.029 A 
ATOM     42  C   UNL A   1      42.136  27.625  27.966  1.00  0.00     0.049 A 
ATOM     43  H   UNL A   1      44.166  27.488  27.510  1.00  0.00     0.167 HD
ATOM     44  C   UNL A   1      48.455  26.979  26.747  1.00  0.00     0.037 A 
ATOM     45  C   UNL A   1      41.901  28.884  28.386  1.00  0.00     0.037 A 
ATOM     46  C   UNL A   1      48.277  28.372  27.062  1.00  0.00     0.049 A 
ATOM     47  C   UNL A   1      43.048  29.858  28.444  1.00  0.00     0.074 A 
ATOM     48  C   UNL A   1      49.225  29.380  27.058  1.00  0.00     0.029 A 
ATOM     49  N   UNL A   1      47.079  28.952  27.455  1.00  0.00    -0.354 N 
ATOM     50  N   UNL A   1      44.307  29.668  28.126  1.00  0.00    -0.248 NA
ATOM     51  C   UNL A   1      42.747  31.216  28.917  1.00  0.00     0.031 C 
ATOM     52  C   UNL A   1      48.618  30.551  27.516  1.00  0.00     0.029 A 
ATOM     53  C   UNL A   1      47.275  30.294  27.738  1.00  0.00     0.049 A 
ATOM     54  H   UNL A   1      46.217  28.480  27.522  1.00  0.00     0.167 HD
ATOM     55  C   UNL A   1      44.942  30.886  28.342  1.00  0.00     0.074 A 
ATOM     56  C   UNL A   1      43.925  31.812  28.794  1.00  0.00     0.031 C 
ATOM     57  C   UNL A   1      46.251  31.207  28.184  1.00  0.00     0.037 A 
BRANCH  44  58
ATOM     58  C   UNL A   1      49.844  26.491  26.435  1.00  0.00     0.058 A 
ATOM     59  C   UNL A   1      50.716  26.041  27.439  1.00  0.00     0.135 A 
ATOM     60  C   UNL A   1      50.289  26.421  25.104  1.00  0.00     0.135 A 
ATOM     61  F   UNL A   1      50.352  26.100  28.730  1.00  0.00    -0.206 F 
ATOM     62  C   UNL A   1      51.987  25.561  27.138  1.00  0.00     0.059 A 
ATOM     63  C   UNL A   1      51.542  25.912  24.777  1.00  0.00     0.059 A 
ATOM     64  F   UNL A   1      49.499  26.841  24.104  1.00  0.00    -0.206 F 
ATOM     65  C   UNL A   1      52.388  25.495  25.803  1.00  0.00     0.060 A 
BRANCH  65  66
ATOM     66  S   UNL A   1      54.030  24.845  25.432  1.00  0.00     0.124 S 
ATOM     67  O   UNL A   1      54.509  25.810  24.446  1.00  0.00    -0.237 OA
ATOM     68  O   UNL A   1      54.684  24.892  26.735  1.00  0.00    -0.237 OA
ATOM     69  O   UNL A   1      53.759  23.506  24.916  1.00  0.00    -0.744 OA
ENDBRANCH  65  66
ENDBRANCH  44  58
BRANCH  45  70
ATOM     70  C   UNL A   1      40.528  29.294  28.793  1.00  0.00     0.058 A 
ATOM     71  C   UNL A   1      40.200  29.506  30.141  1.00  0.00     0.135 A 
ATOM     72  C   UNL A   1      39.512  29.481  27.840  1.00  0.00     0.135 A 
ATOM     73  F   UNL A   1      41.131  29.331  31.091  1.00  0.00    -0.206 F 
ATOM     74  C   UNL A   1      38.916  29.869  30.532  1.00  0.00     0.059 A 
ATOM     75  C   UNL A   1      38.229  29.878  28.204  1.00  0.00     0.059 A 
ATOM     76  F   UNL A   1      39.772  29.306  26.535  1.00  0.00    -0.206 F 
ATOM     77  C   UNL A   1      37.937  30.057  29.555  1.00  0.00     0.060 A 
BRANCH  77  78
ATOM     78  S   UNL A   1      36.285  30.572  30.072  1.00  0.00     0.124 S 
ATOM     79  O   UNL A   1      35.515  30.358  28.853  1.00  0.00    -0.237 OA
ATOM     80  O   UNL A   1      36.012  29.652  31.171  1.00  0.00    -0.237 OA
ATOM     81  O   UNL A   1      36.475  31.966  30.463  1.00  0.00    -0.744 OA
ENDBRANCH  77  78
ENDBRANCH  45  70
BRANCH  57  82
ATOM     82  C   UNL A   1      46.664  32.623  28.482  1.00  0.00     0.058 A 
ATOM     83  C   UNL A   1      47.167  32.995  29.737  1.00  0.00     0.135 A 
ATOM     84  C   UNL A   1      46.634  33.600  27.473  1.00  0.00     0.135 A 
ATOM     85  F   UNL A   1      47.209  32.105  30.741  1.00  0.00    -0.206 F 
ATOM     86  C   UNL A   1      47.615  34.288  29.986  1.00  0.00     0.059 A 
ATOM     87  C   UNL A   1      47.109  34.889  27.688  1.00  0.00     0.059 A 
ATOM     88  F   UNL A   1      46.170  33.296  26.250  1.00  0.00    -0.206 F 
ATOM     89  C   UNL A   1      47.593  35.226  28.952  1.00  0.00     0.060 A 
BRANCH  89  90
ATOM     90  S   UNL A   1      48.239  36.880  29.274  1.00  0.00     0.124 S 
ATOM     91  O   UNL A   1      47.810  37.602  28.081  1.00  0.00    -0.237 OA
ATOM     92  O   UNL A   1      47.559  37.242  30.513  1.00  0.00    -0.237 OA
ATOM     93  O   UNL A   1      49.678  36.667  29.394  1.00  0.00    -0.744 OA
ENDBRANCH  89  90
ENDBRANCH  57  82
ENDBRANCH  31  32
ENDBRANCH  23  26
ENDBRANCH  21  22
ENDBRANCH  20  21
ENDBRANCH  19  20
ENDBRANCH   1  19
TORSDOF 19
ENDMDL
MODEL 3
REMARK VINA RESULT:     -10.7      2.467      9.141
REMARK SMILES N#Cc1cccc(NCCCC(=O)NCCCCNC(=O)c2ccc(-c3c4nc(c(-c5c(F)cc(S(=O)(=O)[O-])cc5F)c5ccc([nH]5)c(-c5c(F)cc(S(=O)(=O)[O-])cc5F)c5nc(c(-c6c(F)cc(S(=O)(=O)[O-])cc6F)c6ccc3[nH]6)C=C5)C=C4)cc2)c1
REMARK SMILES IDX 15 1 14 2 12 3 13 4 11 6 10 7 9 8 8 9 7 11 3 12 4 13 88 14
REMARK SMILES IDX 5 15 6 16 2 17 1 18 16 19 17 20 18 21 19 22 20 23 21 25
REMARK SMILES IDX 22 26 23 27 87 28 24 29 86 30 25 31 26 32 27 33 80 34 28 35
REMARK SMILES IDX 85 36 79 37 81 38 29 39 84 40 78 41 77 42 30 44 64 45 43 46
REMARK SMILES IDX 63 47 44 48 47 49 62 50 82 51 45 52 46 53 61 55 83 56 48 57
REMARK SMILES IDX 31 58 32 59 41 60 33 61 34 62 40 63 42 64 35 65 36 66 37 67
REMARK SMILES IDX 38 68 39 69 65 70 66 71 75 72 67 73 68 74 74 75 76 76 69 77
REMARK SMILES IDX 70 78 71 79 72 80 73 81 49 82 50 83 59 84 51 85 52 86 58 87
REMARK SMILES IDX 60 88 53 89 54 90 55 91 56 92 57 93
REMARK H PARENT 14 5 8 10 19 24 81 43 47 54
REMARK Flexibility Score: inf
ROOT
ATOM      1  C   UNL A   1      35.488  21.419  24.936  1.00  0.00     0.116 C 
ENDROOT
BRANCH   1   2
ATOM      2  N   UNL A   1      34.836  22.471  24.185  1.00  0.00    -0.356 N 
ATOM      3  C   UNL A   1      33.539  22.876  24.217  1.00  0.00     0.220 C 
ATOM      4  O   UNL A   1      33.169  23.743  23.424  1.00  0.00    -0.275 OA
ATOM      5  H   UNL A   1      35.416  22.964  23.561  1.00  0.00     0.163 HD
BRANCH   3   6
ATOM      6  C   UNL A   1      32.579  22.300  25.236  1.00  0.00     0.102 C 
BRANCH   6   7
ATOM      7  C   UNL A   1      31.197  22.956  25.276  1.00  0.00     0.031 C 
BRANCH   7   8
ATOM      8  C   UNL A   1      30.828  23.793  26.504  1.00  0.00     0.113 C 
BRANCH   8   9
ATOM      9  N   UNL A   1      29.849  24.821  26.198  1.00  0.00    -0.385 N 
ATOM     10  H   UNL A   1      28.938  24.701  26.553  1.00  0.00     0.160 HD
BRANCH   9  11
ATOM     11  C   UNL A   1      30.096  25.955  25.447  1.00  0.00     0.035 A 
ATOM     12  C   UNL A   1      31.414  27.997  25.163  1.00  0.00     0.054 A 
ATOM     13  C   UNL A   1      30.818  28.223  23.923  1.00  0.00     0.019 A 
ATOM     14  C   UNL A   1      31.042  26.877  25.919  1.00  0.00     0.045 A 
ATOM     15  C   UNL A   1      29.837  27.347  23.463  1.00  0.00     0.003 A 
ATOM     16  C   UNL A   1      29.476  26.230  24.225  1.00  0.00     0.026 A 
BRANCH  12  17
ATOM     17  C   UNL A   1      32.431  28.880  25.649  1.00  0.00     0.099 C 
ATOM     18  N   UNL A   1      33.274  29.588  26.025  1.00  0.00    -0.192 NA
ENDBRANCH  12  17
ENDBRANCH   9  11
ENDBRANCH   8   9
ENDBRANCH   7   8
ENDBRANCH   6   7
ENDBRANCH   3   6
ENDBRANCH   1   2
BRANCH   1  19
ATOM     19  C   UNL A   1      36.872  21.867  25.404  1.00  0.00     0.023 C 
BRANCH  19  20
ATOM     20  C   UNL A   1      37.168  23.338  25.159  1.00  0.00     0.023 C 
BRANCH  20  21
ATOM     21  C   UNL A   1      37.989  23.999  26.252  1.00  0.00     0.116 C 
BRANCH  21  22
ATOM     22  N   UNL A   1      39.413  23.700  26.164  1.00  0.00    -0.352 N 
ATOM     23  C   UNL A   1      40.464  24.427  26.679  1.00  0.00     0.251 C 
ATOM     24  H   UNL A   1      39.653  22.880  25.677  1.00  0.00     0.163 HD
ATOM     25  O   UNL A   1      41.624  24.130  26.419  1.00  0.00    -0.269 OA
BRANCH  23  26
ATOM     26  C   UNL A   1      40.150  25.606  27.510  1.00  0.00     0.039 A 
ATOM     27  C   UNL A   1      39.316  25.451  28.618  1.00  0.00     0.014 A 
ATOM     28  C   UNL A   1      40.806  26.818  27.271  1.00  0.00     0.014 A 
ATOM     29  C   UNL A   1      39.221  26.486  29.547  1.00  0.00     0.010 A 
ATOM     30  C   UNL A   1      40.791  27.802  28.252  1.00  0.00     0.010 A 
ATOM     31  C   UNL A   1      40.009  27.642  29.405  1.00  0.00    -0.014 A 
BRANCH  31  32
ATOM     32  C   UNL A   1      40.056  28.682  30.466  1.00  0.00     0.031 A 
ATOM     33  C   UNL A   1      40.995  28.524  31.629  1.00  0.00     0.074 A 
ATOM     34  C   UNL A   1      39.200  29.723  30.417  1.00  0.00     0.049 A 
ATOM     35  N   UNL A   1      41.125  29.276  32.691  1.00  0.00    -0.248 NA
ATOM     36  C   UNL A   1      41.888  27.353  31.612  1.00  0.00     0.031 C 
ATOM     37  C   UNL A   1      38.209  29.957  29.364  1.00  0.00     0.029 A 
ATOM     38  N   UNL A   1      39.015  30.775  31.281  1.00  0.00    -0.354 N 
ATOM     39  C   UNL A   1      42.101  28.667  33.468  1.00  0.00     0.074 A 
ATOM     40  C   UNL A   1      42.489  27.452  32.787  1.00  0.00     0.031 C 
ATOM     41  C   UNL A   1      37.540  31.091  29.629  1.00  0.00     0.029 A 
ATOM     42  C   UNL A   1      38.012  31.636  30.898  1.00  0.00     0.049 A 
ATOM     43  H   UNL A   1      39.549  30.901  32.098  1.00  0.00     0.167 HD
ATOM     44  C   UNL A   1      42.640  29.094  34.634  1.00  0.00     0.037 A 
ATOM     45  C   UNL A   1      37.510  32.728  31.510  1.00  0.00     0.037 A 
ATOM     46  C   UNL A   1      42.255  30.314  35.295  1.00  0.00     0.049 A 
ATOM     47  C   UNL A   1      38.102  33.162  32.825  1.00  0.00     0.074 A 
ATOM     48  C   UNL A   1      42.783  30.867  36.448  1.00  0.00     0.029 A 
ATOM     49  N   UNL A   1      41.237  31.159  34.877  1.00  0.00    -0.354 N 
ATOM     50  N   UNL A   1      39.087  32.621  33.503  1.00  0.00    -0.248 NA
ATOM     51  C   UNL A   1      37.518  34.352  33.460  1.00  0.00     0.031 C 
ATOM     52  C   UNL A   1      42.039  32.005  36.766  1.00  0.00     0.029 A 
ATOM     53  C   UNL A   1      41.093  32.205  35.773  1.00  0.00     0.049 A 
ATOM     54  H   UNL A   1      40.697  31.033  34.063  1.00  0.00     0.167 HD
ATOM     55  C   UNL A   1      39.252  33.416  34.633  1.00  0.00     0.074 A 
ATOM     56  C   UNL A   1      38.283  34.486  34.535  1.00  0.00     0.031 C 
ATOM     57  C   UNL A   1      40.125  33.269  35.661  1.00  0.00     0.037 A 
BRANCH  44  58
ATOM     58  C   UNL A   1      43.700  28.240  35.275  1.00  0.00     0.058 A 
ATOM     59  C   UNL A   1      43.384  27.244  36.212  1.00  0.00     0.135 A 
ATOM     60  C   UNL A   1      45.047  28.383  34.905  1.00  0.00     0.135 A 
ATOM     61  F   UNL A   1      42.115  27.072  36.617  1.00  0.00    -0.206 F 
ATOM     62  C   UNL A   1      44.366  26.436  36.775  1.00  0.00     0.059 A 
ATOM     63  C   UNL A   1      46.042  27.563  35.429  1.00  0.00     0.059 A 
ATOM     64  F   UNL A   1      45.407  29.323  34.016  1.00  0.00    -0.206 F 
ATOM     65  C   UNL A   1      45.692  26.600  36.373  1.00  0.00     0.060 A 
BRANCH  65  66
ATOM     66  S   UNL A   1      46.948  25.525  37.096  1.00  0.00     0.124 S 
ATOM     67  O   UNL A   1      48.130  25.898  36.324  1.00  0.00    -0.237 OA
ATOM     68  O   UNL A   1      46.945  25.943  38.494  1.00  0.00    -0.237 OA
ATOM     69  O   UNL A   1      46.435  24.182  36.843  1.00  0.00    -0.744 OA
ENDBRANCH  65  66
ENDBRANCH  44  58
BRANCH  45  70
ATOM     70  C   UNL A   1      36.383  33.482  30.893  1.00  0.00     0.058 A 
ATOM     71  C   UNL A   1      36.562  34.224  29.715  1.00  0.00     0.135 A 
ATOM     72  C   UNL A   1      35.103  33.478  31.470  1.00  0.00     0.135 A 
ATOM     73  F   UNL A   1      37.767  34.270  29.129  1.00  0.00    -0.206 F 
ATOM     74  C   UNL A   1      35.521  34.948  29.143  1.00  0.00     0.059 A 
ATOM     75  C   UNL A   1      34.037  34.166  30.897  1.00  0.00     0.059 A 
ATOM     76  F   UNL A   1      34.870  32.774  32.589  1.00  0.00    -0.206 F 
ATOM     77  C   UNL A   1      34.259  34.909  29.739  1.00  0.00     0.060 A 
BRANCH  77  78
ATOM     78  S   UNL A   1      32.905  35.816  28.962  1.00  0.00     0.124 S 
ATOM     79  O   UNL A   1      32.051  36.108  30.107  1.00  0.00    -0.237 OA
ATOM     80  O   UNL A   1      33.603  36.957  28.377  1.00  0.00    -0.237 OA
ATOM     81  O   UNL A   1      32.368  34.858  28.000  1.00  0.00    -0.744 OA
ENDBRANCH  77  78
ENDBRANCH  45  70
BRANCH  57  82
ATOM     82  C   UNL A   1      40.093  34.297  36.759  1.00  0.00     0.058 A 
ATOM     83  C   UNL A   1      39.265  34.150  37.882  1.00  0.00     0.135 A 
ATOM     84  C   UNL A   1      40.961  35.401  36.725  1.00  0.00     0.135 A 
ATOM     85  F   UNL A   1      38.409  33.120  37.962  1.00  0.00    -0.206 F 
ATOM     86  C   UNL A   1      39.291  35.067  38.928  1.00  0.00     0.059 A 
ATOM     87  C   UNL A   1      41.029  36.310  37.775  1.00  0.00     0.059 A 
ATOM     88  F   UNL A   1      41.780  35.586  35.677  1.00  0.00    -0.206 F 
ATOM     89  C   UNL A   1      40.185  36.138  38.871  1.00  0.00     0.060 A 
BRANCH  89  90
ATOM     90  S   UNL A   1      40.251  37.280  40.267  1.00  0.00     0.124 S 
ATOM     91  O   UNL A   1      38.835  37.539  40.504  1.00  0.00    -0.237 OA
ATOM     92  O   UNL A   1      40.929  36.484  41.285  1.00  0.00    -0.237 OA
ATOM     93  O   UNL A   1      41.016  38.409  39.748  1.00  0.00    -0.744 OA
ENDBRANCH  89  90
ENDBRANCH  57  82
ENDBRANCH  31  32
ENDBRANCH  23  26
ENDBRANCH  21  22
ENDBRANCH  20  21
ENDBRANCH  19  20
ENDBRANCH   1  19
TORSDOF 19
ENDMDL
