MODEL 1
REMARK VINA RESULT:     -10.9      0.000      0.000
REMARK SMILES O=C(NCCCCNC(=O)[C@H](O)Cc1ccc(O)cc1)c1ccc(-c2c3nc(c(-c4c(F)cc(S(=O)(=O)[O-])cc4F)c4ccc([nH]4)c(-c4c(F)cc(S(=O)(=O)[O-])cc4F)c4nc(c(-c5c(F)cc(S(=O)(=O)[O-])cc5F)c5ccc2[nH]5)C=C4)C=C3)cc1
REMARK SMILES IDX 5 1 4 2 3 3 1 4 2 5 21 7 22 8 86 9 23 10 85 11 24 12 25 13
REMARK SMILES IDX 26 14 79 15 27 16 84 17 78 18 80 19 28 20 83 21 77 22 76 23
REMARK SMILES IDX 29 25 63 26 42 27 62 28 43 29 46 30 61 31 81 32 44 33 45 34
REMARK SMILES IDX 60 36 82 37 47 38 30 39 31 40 40 41 32 42 33 43 39 44 41 45
REMARK SMILES IDX 34 46 35 47 36 48 37 49 38 50 64 51 65 52 74 53 66 54 67 55
REMARK SMILES IDX 73 56 75 57 68 58 69 59 70 60 71 61 72 62 48 63 49 64 58 65
REMARK SMILES IDX 50 66 51 67 57 68 59 69 52 70 53 71 54 72 55 73 56 74 6 75
REMARK SMILES IDX 7 76 8 77 9 78 10 80 11 81 13 82 14 83 15 84 20 85 16 86
REMARK SMILES IDX 19 87 17 88 18 89 12 91
REMARK H PARENT 3 6 80 24 46 35 8 79 18 90 12 92
REMARK Flexibility Score: inf
ROOT
ATOM      1  C   UNL A   1      41.220  21.535  27.528  1.00  0.00     0.023 C 
ENDROOT
BRANCH   1   2
ATOM      2  C   UNL A   1      41.032  23.042  27.674  1.00  0.00     0.116 C 
BRANCH   2   3
ATOM      3  N   UNL A   1      41.207  23.759  26.422  1.00  0.00    -0.352 N 
ATOM      4  O   UNL A   1      41.160  25.524  25.024  1.00  0.00    -0.269 OA
ATOM      5  C   UNL A   1      41.118  25.109  26.180  1.00  0.00     0.251 C 
ATOM      6  H   UNL A   1      41.418  23.201  25.640  1.00  0.00     0.163 HD
BRANCH   5   7
ATOM      7  C   UNL A   1      40.943  26.056  27.305  1.00  0.00     0.039 A 
ATOM      8  C   UNL A   1      41.800  27.148  27.463  1.00  0.00     0.014 A 
ATOM      9  C   UNL A   1      39.898  25.849  28.212  1.00  0.00     0.014 A 
ATOM     10  C   UNL A   1      41.692  27.956  28.591  1.00  0.00     0.010 A 
ATOM     11  C   UNL A   1      39.747  26.705  29.306  1.00  0.00     0.010 A 
ATOM     12  C   UNL A   1      40.659  27.749  29.521  1.00  0.00    -0.014 A 
BRANCH  12  13
ATOM     13  C   UNL A   1      40.520  28.673  30.675  1.00  0.00     0.031 A 
ATOM     14  C   UNL A   1      41.416  28.560  31.879  1.00  0.00     0.074 A 
ATOM     15  C   UNL A   1      39.582  29.640  30.620  1.00  0.00     0.049 A 
ATOM     16  N   UNL A   1      41.436  29.295  32.962  1.00  0.00    -0.248 NA
ATOM     17  C   UNL A   1      42.416  27.481  31.869  1.00  0.00     0.031 C 
ATOM     18  C   UNL A   1      38.643  29.837  29.512  1.00  0.00     0.029 A 
ATOM     19  N   UNL A   1      39.270  30.643  31.500  1.00  0.00    -0.354 N 
ATOM     20  C   UNL A   1      42.433  28.761  33.769  1.00  0.00     0.074 A 
ATOM     21  C   UNL A   1      42.984  27.625  33.060  1.00  0.00     0.031 C 
ATOM     22  C   UNL A   1      37.887  30.916  29.764  1.00  0.00     0.029 A 
ATOM     23  C   UNL A   1      38.249  31.456  31.068  1.00  0.00     0.049 A 
ATOM     24  H   UNL A   1      39.733  30.769  32.360  1.00  0.00     0.167 HD
ATOM     25  C   UNL A   1      42.853  29.186  34.986  1.00  0.00     0.037 A 
ATOM     26  C   UNL A   1      37.658  32.510  31.662  1.00  0.00     0.037 A 
ATOM     27  C   UNL A   1      42.311  30.329  35.678  1.00  0.00     0.049 A 
ATOM     28  C   UNL A   1      38.140  32.956  33.011  1.00  0.00     0.074 A 
ATOM     29  C   UNL A   1      42.696  30.857  36.899  1.00  0.00     0.029 A 
ATOM     30  N   UNL A   1      41.270  31.117  35.214  1.00  0.00    -0.354 N 
ATOM     31  N   UNL A   1      39.105  32.456  33.744  1.00  0.00    -0.248 NA
ATOM     32  C   UNL A   1      37.453  34.105  33.615  1.00  0.00     0.031 C 
ATOM     33  C   UNL A   1      41.863  31.944  37.188  1.00  0.00     0.029 A 
ATOM     34  C   UNL A   1      40.986  32.117  36.130  1.00  0.00     0.049 A 
ATOM     35  H   UNL A   1      40.799  30.987  34.358  1.00  0.00     0.167 HD
ATOM     36  C   UNL A   1      39.150  33.238  34.893  1.00  0.00     0.074 A 
ATOM     37  C   UNL A   1      38.127  34.253  34.748  1.00  0.00     0.031 C 
ATOM     38  C   UNL A   1      39.964  33.121  35.971  1.00  0.00     0.037 A 
BRANCH  25  39
ATOM     39  C   UNL A   1      43.950  28.408  35.660  1.00  0.00     0.058 A 
ATOM     40  C   UNL A   1      43.671  27.355  36.544  1.00  0.00     0.135 A 
ATOM     41  C   UNL A   1      45.298  28.682  35.373  1.00  0.00     0.135 A 
ATOM     42  F   UNL A   1      42.401  27.059  36.864  1.00  0.00    -0.206 F 
ATOM     43  C   UNL A   1      44.688  26.614  37.138  1.00  0.00     0.059 A 
ATOM     44  C   UNL A   1      46.332  27.940  35.939  1.00  0.00     0.059 A 
ATOM     45  F   UNL A   1      45.621  29.678  34.533  1.00  0.00    -0.206 F 
ATOM     46  C   UNL A   1      46.016  26.914  36.830  1.00  0.00     0.060 A 
BRANCH  46  47
ATOM     47  S   UNL A   1      47.326  25.939  37.601  1.00  0.00     0.124 S 
ATOM     48  O   UNL A   1      46.635  25.396  38.766  1.00  0.00    -0.237 OA
ATOM     49  O   UNL A   1      47.656  24.976  36.555  1.00  0.00    -0.237 OA
ATOM     50  O   UNL A   1      48.361  26.927  37.888  1.00  0.00    -0.744 OA
ENDBRANCH  46  47
ENDBRANCH  25  39
BRANCH  26  51
ATOM     51  C   UNL A   1      36.543  33.209  30.972  1.00  0.00     0.058 A 
ATOM     52  C   UNL A   1      35.221  33.078  31.419  1.00  0.00     0.135 A 
ATOM     53  C   UNL A   1      36.786  34.048  29.874  1.00  0.00     0.135 A 
ATOM     54  F   UNL A   1      34.941  32.284  32.463  1.00  0.00    -0.206 F 
ATOM     55  C   UNL A   1      34.173  33.747  30.795  1.00  0.00     0.059 A 
ATOM     56  C   UNL A   1      35.759  34.747  29.250  1.00  0.00     0.059 A 
ATOM     57  F   UNL A   1      38.038  34.220  29.422  1.00  0.00    -0.206 F 
ATOM     58  C   UNL A   1      34.454  34.583  29.711  1.00  0.00     0.060 A 
BRANCH  58  59
ATOM     59  S   UNL A   1      33.099  35.497  28.943  1.00  0.00     0.124 S 
ATOM     60  O   UNL A   1      32.373  35.979  30.112  1.00  0.00    -0.237 OA
ATOM     61  O   UNL A   1      33.809  36.511  28.170  1.00  0.00    -0.237 OA
ATOM     62  O   UNL A   1      32.418  34.479  28.149  1.00  0.00    -0.744 OA
ENDBRANCH  58  59
ENDBRANCH  26  51
BRANCH  38  63
ATOM     63  C   UNL A   1      39.795  34.133  37.068  1.00  0.00     0.058 A 
ATOM     64  C   UNL A   1      40.394  35.400  36.995  1.00  0.00     0.135 A 
ATOM     65  C   UNL A   1      38.996  33.845  38.185  1.00  0.00     0.135 A 
ATOM     66  F   UNL A   1      41.175  35.720  35.951  1.00  0.00    -0.206 F 
ATOM     67  C   UNL A   1      40.224  36.340  38.006  1.00  0.00     0.059 A 
ATOM     68  C   UNL A   1      38.794  34.778  39.196  1.00  0.00     0.059 A 
ATOM     69  F   UNL A   1      38.395  32.649  38.296  1.00  0.00    -0.206 F 
ATOM     70  C   UNL A   1      39.423  36.019  39.103  1.00  0.00     0.060 A 
BRANCH  70  71
ATOM     71  S   UNL A   1      39.186  37.256  40.396  1.00  0.00     0.124 S 
ATOM     72  O   UNL A   1      40.557  37.694  40.639  1.00  0.00    -0.237 OA
ATOM     73  O   UNL A   1      38.315  38.230  39.745  1.00  0.00    -0.237 OA
ATOM     74  O   UNL A   1      38.566  36.499  41.480  1.00  0.00    -0.744 OA
ENDBRANCH  70  71
ENDBRANCH  38  63
ENDBRANCH  12  13
ENDBRANCH   5   7
ENDBRANCH   2   3
ENDBRANCH   1   2
BRANCH   1  75
ATOM     75  C   UNL A   1      42.580  21.090  26.981  1.00  0.00     0.023 C 
BRANCH  75  76
ATOM     76  C   UNL A   1      42.520  20.006  25.905  1.00  0.00     0.116 C 
BRANCH  76  77
ATOM     77  N   UNL A   1      43.525  18.980  26.112  1.00  0.00    -0.354 N 
ATOM     78  C   UNL A   1      44.663  18.742  25.405  1.00  0.00     0.249 C 
ATOM     79  H   UNL A   1      43.361  18.373  26.870  1.00  0.00     0.163 HD
ATOM     80  O   UNL A   1      45.350  17.755  25.685  1.00  0.00    -0.272 OA
BRANCH  78  81
ATOM     81  C   UNL A   1      45.097  19.688  24.279  1.00  0.00     0.207 C 
BRANCH  81  82
ATOM     82  C   UNL A   1      46.171  20.643  24.815  1.00  0.00     0.077 C 
BRANCH  82  83
ATOM     83  C   UNL A   1      45.678  22.066  24.940  1.00  0.00    -0.045 A 
ATOM     84  C   UNL A   1      44.538  22.479  24.235  1.00  0.00     0.007 A 
ATOM     85  C   UNL A   1      46.334  22.984  25.772  1.00  0.00     0.007 A 
ATOM     86  C   UNL A   1      44.064  23.785  24.352  1.00  0.00     0.046 A 
ATOM     87  C   UNL A   1      45.859  24.291  25.891  1.00  0.00     0.046 A 
ATOM     88  C   UNL A   1      44.730  24.682  25.181  1.00  0.00     0.115 A 
BRANCH  88  89
ATOM     89  O   UNL A   1      44.295  25.966  25.329  1.00  0.00    -0.508 OA
ATOM     90  H   UNL A   1      43.531  26.258  24.872  1.00  0.00     0.293 HD
ENDBRANCH  88  89
ENDBRANCH  82  83
ENDBRANCH  81  82
BRANCH  81  91
ATOM     91  O   UNL A   1      45.639  18.905  23.205  1.00  0.00    -0.383 OA
ATOM     92  H   UNL A   1      46.148  18.165  23.569  1.00  0.00     0.211 HD
ENDBRANCH  81  91
ENDBRANCH  78  81
ENDBRANCH  76  77
ENDBRANCH  75  76
ENDBRANCH   1  75
TORSDOF 18
ENDMDL
MODEL 2
REMARK VINA RESULT:     -10.8      6.096     14.367
REMARK SMILES O=C(NCCCCNC(=O)[C@H](O)Cc1ccc(O)cc1)c1ccc(-c2c3nc(c(-c4c(F)cc(S(=O)(=O)[O-])cc4F)c4ccc([nH]4)c(-c4c(F)cc(S(=O)(=O)[O-])cc4F)c4nc(c(-c5c(F)cc(S(=O)(=O)[O-])cc5F)c5ccc2[nH]5)C=C4)C=C3)cc1
REMARK SMILES IDX 5 1 4 2 3 3 1 4 2 5 21 7 22 8 86 9 23 10 85 11 24 12 25 13
REMARK SMILES IDX 26 14 79 15 27 16 84 17 78 18 80 19 28 20 83 21 77 22 76 23
REMARK SMILES IDX 29 25 63 26 42 27 62 28 43 29 46 30 61 31 81 32 44 33 45 34
REMARK SMILES IDX 60 36 82 37 47 38 30 39 31 40 40 41 32 42 33 43 39 44 41 45
REMARK SMILES IDX 34 46 35 47 36 48 37 49 38 50 64 51 65 52 74 53 66 54 67 55
REMARK SMILES IDX 73 56 75 57 68 58 69 59 70 60 71 61 72 62 48 63 49 64 58 65
REMARK SMILES IDX 50 66 51 67 57 68 59 69 52 70 53 71 54 72 55 73 56 74 6 75
REMARK SMILES IDX 7 76 8 77 9 78 10 80 11 81 13 82 14 83 15 84 20 85 16 86
REMARK SMILES IDX 19 87 17 88 18 89 12 91
REMARK H PARENT 3 6 80 24 46 35 8 79 18 90 12 92
REMARK Flexibility Score: inf
ROOT
ATOM      1  C   UNL A   1      37.108  34.202  30.142  1.00  0.00     0.023 C 
ENDROOT
BRANCH   1   2
ATOM      2  C   UNL A   1      36.640  32.919  29.461  1.00  0.00     0.116 C 
BRANCH   2   3
ATOM      3  N   UNL A   1      36.093  31.950  30.396  1.00  0.00    -0.352 N 
ATOM      4  O   UNL A   1      35.917  29.973  31.460  1.00  0.00    -0.269 OA
ATOM      5  C   UNL A   1      36.591  30.720  30.755  1.00  0.00     0.251 C 
ATOM      6  H   UNL A   1      35.250  32.210  30.831  1.00  0.00     0.163 HD
BRANCH   5   7
ATOM      7  C   UNL A   1      37.921  30.287  30.270  1.00  0.00     0.039 A 
ATOM      8  C   UNL A   1      38.980  30.092  31.161  1.00  0.00     0.014 A 
ATOM      9  C   UNL A   1      38.107  30.065  28.902  1.00  0.00     0.014 A 
ATOM     10  C   UNL A   1      40.251  29.800  30.672  1.00  0.00     0.010 A 
ATOM     11  C   UNL A   1      39.368  29.701  28.421  1.00  0.00     0.010 A 
ATOM     12  C   UNL A   1      40.458  29.593  29.299  1.00  0.00    -0.014 A 
BRANCH  12  13
ATOM     13  C   UNL A   1      41.807  29.207  28.813  1.00  0.00     0.031 A 
ATOM     14  C   UNL A   1      42.937  30.200  28.775  1.00  0.00     0.074 A 
ATOM     15  C   UNL A   1      42.013  27.934  28.422  1.00  0.00     0.049 A 
ATOM     16  N   UNL A   1      44.176  30.022  28.394  1.00  0.00    -0.248 NA
ATOM     17  C   UNL A   1      42.638  31.572  29.217  1.00  0.00     0.031 C 
ATOM     18  C   UNL A   1      40.990  26.886  28.398  1.00  0.00     0.029 A 
ATOM     19  N   UNL A   1      43.147  27.299  27.985  1.00  0.00    -0.354 N 
ATOM     20  C   UNL A   1      44.801  31.256  28.532  1.00  0.00     0.074 A 
ATOM     21  C   UNL A   1      43.798  32.182  29.013  1.00  0.00     0.031 C 
ATOM     22  C   UNL A   1      41.550  25.732  28.004  1.00  0.00     0.029 A 
ATOM     23  C   UNL A   1      42.956  25.968  27.699  1.00  0.00     0.049 A 
ATOM     24  H   UNL A   1      44.015  27.753  27.885  1.00  0.00     0.167 HD
ATOM     25  C   UNL A   1      46.094  31.581  28.287  1.00  0.00     0.037 A 
ATOM     26  C   UNL A   1      43.812  25.042  27.229  1.00  0.00     0.037 A 
ATOM     27  C   UNL A   1      47.091  30.649  27.824  1.00  0.00     0.049 A 
ATOM     28  C   UNL A   1      45.237  25.430  26.961  1.00  0.00     0.074 A 
ATOM     29  C   UNL A   1      48.435  30.877  27.581  1.00  0.00     0.029 A 
ATOM     30  N   UNL A   1      46.855  29.313  27.534  1.00  0.00    -0.354 N 
ATOM     31  N   UNL A   1      45.815  26.595  27.127  1.00  0.00    -0.248 NA
ATOM     32  C   UNL A   1      46.124  24.382  26.440  1.00  0.00     0.031 C 
ATOM     33  C   UNL A   1      49.003  29.688  27.110  1.00  0.00     0.029 A 
ATOM     34  C   UNL A   1      48.023  28.709  27.097  1.00  0.00     0.049 A 
ATOM     35  H   UNL A   1      45.985  28.860  27.624  1.00  0.00     0.167 HD
ATOM     36  C   UNL A   1      47.139  26.418  26.742  1.00  0.00     0.074 A 
ATOM     37  C   UNL A   1      47.279  25.030  26.352  1.00  0.00     0.031 C 
ATOM     38  C   UNL A   1      48.146  27.325  26.713  1.00  0.00     0.037 A 
BRANCH  25  39
ATOM     39  C   UNL A   1      46.511  33.010  28.503  1.00  0.00     0.058 A 
ATOM     40  C   UNL A   1      46.413  33.969  27.484  1.00  0.00     0.135 A 
ATOM     41  C   UNL A   1      46.961  33.438  29.763  1.00  0.00     0.135 A 
ATOM     42  F   UNL A   1      46.001  33.612  26.257  1.00  0.00    -0.206 F 
ATOM     43  C   UNL A   1      46.765  35.298  27.698  1.00  0.00     0.059 A 
ATOM     44  C   UNL A   1      47.299  34.767  30.007  1.00  0.00     0.059 A 
ATOM     45  F   UNL A   1      47.073  32.562  30.774  1.00  0.00    -0.206 F 
ATOM     46  C   UNL A   1      47.208  35.688  28.964  1.00  0.00     0.060 A 
BRANCH  46  47
ATOM     47  S   UNL A   1      47.654  37.417  29.230  1.00  0.00     0.124 S 
ATOM     48  O   UNL A   1      49.068  37.411  28.868  1.00  0.00    -0.237 OA
ATOM     49  O   UNL A   1      46.767  38.115  28.305  1.00  0.00    -0.237 OA
ATOM     50  O   UNL A   1      47.369  37.628  30.646  1.00  0.00    -0.744 OA
ENDBRANCH  46  47
ENDBRANCH  25  39
BRANCH  26  51
ATOM     51  C   UNL A   1      43.332  23.657  26.984  1.00  0.00     0.058 A 
ATOM     52  C   UNL A   1      43.047  23.209  25.686  1.00  0.00     0.135 A 
ATOM     53  C   UNL A   1      43.182  22.747  28.041  1.00  0.00     0.135 A 
ATOM     54  F   UNL A   1      43.174  24.046  24.645  1.00  0.00    -0.206 F 
ATOM     55  C   UNL A   1      42.620  21.908  25.444  1.00  0.00     0.059 A 
ATOM     56  C   UNL A   1      42.781  21.434  27.821  1.00  0.00     0.059 A 
ATOM     57  F   UNL A   1      43.461  23.124  29.298  1.00  0.00    -0.206 F 
ATOM     58  C   UNL A   1      42.493  21.026  26.519  1.00  0.00     0.060 A 
BRANCH  58  59
ATOM     59  S   UNL A   1      41.997  19.321  26.193  1.00  0.00     0.124 S 
ATOM     60  O   UNL A   1      42.308  18.678  27.465  1.00  0.00    -0.237 OA
ATOM     61  O   UNL A   1      40.578  19.465  25.881  1.00  0.00    -0.237 OA
ATOM     62  O   UNL A   1      42.841  18.938  25.066  1.00  0.00    -0.744 OA
ENDBRANCH  58  59
ENDBRANCH  26  51
BRANCH  38  63
ATOM     63  C   UNL A   1      49.493  26.836  26.263  1.00  0.00     0.058 A 
ATOM     64  C   UNL A   1      49.934  27.012  24.943  1.00  0.00     0.135 A 
ATOM     65  C   UNL A   1      50.366  26.219  27.173  1.00  0.00     0.135 A 
ATOM     66  F   UNL A   1      49.132  27.588  24.034  1.00  0.00    -0.206 F 
ATOM     67  C   UNL A   1      51.187  26.571  24.533  1.00  0.00     0.059 A 
ATOM     68  C   UNL A   1      51.633  25.791  26.790  1.00  0.00     0.059 A 
ATOM     69  F   UNL A   1      49.994  26.035  28.450  1.00  0.00    -0.206 F 
ATOM     70  C   UNL A   1      52.030  25.960  25.464  1.00  0.00     0.060 A 
BRANCH  70  71
ATOM     71  S   UNL A   1      53.666  25.417  24.929  1.00  0.00     0.124 S 
ATOM     72  O   UNL A   1      53.605  25.672  23.494  1.00  0.00    -0.237 OA
ATOM     73  O   UNL A   1      54.553  26.290  25.692  1.00  0.00    -0.237 OA
ATOM     74  O   UNL A   1      53.699  24.010  25.317  1.00  0.00    -0.744 OA
ENDBRANCH  70  71
ENDBRANCH  38  63
ENDBRANCH  12  13
ENDBRANCH   5   7
ENDBRANCH   2   3
ENDBRANCH   1   2
BRANCH   1  75
ATOM     75  C   UNL A   1      38.467  34.120  30.844  1.00  0.00     0.023 C 
BRANCH  75  76
ATOM     76  C   UNL A   1      38.420  34.275  32.363  1.00  0.00     0.116 C 
BRANCH  76  77
ATOM     77  N   UNL A   1      38.093  33.026  33.025  1.00  0.00    -0.354 N 
ATOM     78  C   UNL A   1      37.094  32.762  33.911  1.00  0.00     0.249 C 
ATOM     79  H   UNL A   1      38.674  32.263  32.803  1.00  0.00     0.163 HD
ATOM     80  O   UNL A   1      37.035  31.647  34.437  1.00  0.00    -0.272 OA
BRANCH  78  81
ATOM     81  C   UNL A   1      36.045  33.829  34.249  1.00  0.00     0.207 C 
BRANCH  81  82
ATOM     82  C   UNL A   1      34.801  33.599  33.382  1.00  0.00     0.077 C 
BRANCH  82  83
ATOM     83  C   UNL A   1      34.300  34.868  32.731  1.00  0.00    -0.045 A 
ATOM     84  C   UNL A   1      34.398  36.091  33.409  1.00  0.00     0.007 A 
ATOM     85  C   UNL A   1      33.751  34.846  31.441  1.00  0.00     0.007 A 
ATOM     86  C   UNL A   1      33.952  37.272  32.816  1.00  0.00     0.046 A 
ATOM     87  C   UNL A   1      33.306  36.028  30.845  1.00  0.00     0.046 A 
ATOM     88  C   UNL A   1      33.409  37.229  31.536  1.00  0.00     0.115 A 
BRANCH  88  89
ATOM     89  O   UNL A   1      32.967  38.361  30.916  1.00  0.00    -0.508 OA
ATOM     90  H   UNL A   1      33.582  38.991  30.596  1.00  0.00     0.293 HD
ENDBRANCH  88  89
ENDBRANCH  82  83
ENDBRANCH  81  82
BRANCH  81  91
ATOM     91  O   UNL A   1      35.698  33.708  35.636  1.00  0.00    -0.383 OA
ATOM     92  H   UNL A   1      36.216  32.995  36.038  1.00  0.00     0.211 HD
ENDBRANCH  81  91
ENDBRANCH  78  81
ENDBRANCH  76  77
ENDBRANCH  75  76
ENDBRANCH   1  75
TORSDOF 18
ENDMDL
MODEL 3
REMARK VINA RESULT:     -10.7      4.673      5.664
REMARK SMILES O=C(NCCCCNC(=O)[C@H](O)Cc1ccc(O)cc1)c1ccc(-c2c3nc(c(-c4c(F)cc(S(=O)(=O)[O-])cc4F)c4ccc([nH]4)c(-c4c(F)cc(S(=O)(=O)[O-])cc4F)c4nc(c(-c5c(F)cc(S(=O)(=O)[O-])cc5F)c5ccc2[nH]5)C=C4)C=C3)cc1
REMARK SMILES IDX 5 1 4 2 3 3 1 4 2 5 21 7 22 8 86 9 23 10 85 11 24 12 25 13
REMARK SMILES IDX 26 14 79 15 27 16 84 17 78 18 80 19 28 20 83 21 77 22 76 23
REMARK SMILES IDX 29 25 63 26 42 27 62 28 43 29 46 30 61 31 81 32 44 33 45 34
REMARK SMILES IDX 60 36 82 37 47 38 30 39 31 40 40 41 32 42 33 43 39 44 41 45
REMARK SMILES IDX 34 46 35 47 36 48 37 49 38 50 64 51 65 52 74 53 66 54 67 55
REMARK SMILES IDX 73 56 75 57 68 58 69 59 70 60 71 61 72 62 48 63 49 64 58 65
REMARK SMILES IDX 50 66 51 67 57 68 59 69 52 70 53 71 54 72 55 73 56 74 6 75
REMARK SMILES IDX 7 76 8 77 9 78 10 80 11 81 13 82 14 83 15 84 20 85 16 86
REMARK SMILES IDX 19 87 17 88 18 89 12 91
REMARK H PARENT 3 6 80 24 46 35 8 79 18 90 12 92
REMARK Flexibility Score: inf
ROOT
ATOM      1  C   UNL A   1      40.781  20.730  27.338  1.00  0.00     0.023 C 
ENDROOT
BRANCH   1   2
ATOM      2  C   UNL A   1      40.631  21.621  26.109  1.00  0.00     0.116 C 
BRANCH   2   3
ATOM      3  N   UNL A   1      39.248  21.962  25.822  1.00  0.00    -0.352 N 
ATOM      4  O   UNL A   1      37.347  23.165  25.933  1.00  0.00    -0.269 OA
ATOM      5  C   UNL A   1      38.558  23.109  26.136  1.00  0.00     0.251 C 
ATOM      6  H   UNL A   1      38.735  21.278  25.336  1.00  0.00     0.163 HD
BRANCH   5   7
ATOM      7  C   UNL A   1      39.266  24.259  26.742  1.00  0.00     0.039 A 
ATOM      8  C   UNL A   1      39.238  24.472  28.123  1.00  0.00     0.014 A 
ATOM      9  C   UNL A   1      39.976  25.134  25.912  1.00  0.00     0.014 A 
ATOM     10  C   UNL A   1      39.811  25.623  28.657  1.00  0.00     0.010 A 
ATOM     11  C   UNL A   1      40.612  26.251  26.462  1.00  0.00     0.010 A 
ATOM     12  C   UNL A   1      40.511  26.521  27.835  1.00  0.00    -0.014 A 
BRANCH  12  13
ATOM     13  C   UNL A   1      41.178  27.700  28.443  1.00  0.00     0.031 A 
ATOM     14  C   UNL A   1      42.677  27.811  28.490  1.00  0.00     0.074 A 
ATOM     15  C   UNL A   1      40.411  28.692  28.938  1.00  0.00     0.049 A 
ATOM     16  N   UNL A   1      43.416  28.778  28.971  1.00  0.00    -0.248 NA
ATOM     17  C   UNL A   1      43.449  26.690  27.931  1.00  0.00     0.031 C 
ATOM     18  C   UNL A   1      38.946  28.689  28.964  1.00  0.00     0.029 A 
ATOM     19  N   UNL A   1      40.749  29.896  29.500  1.00  0.00    -0.354 N 
ATOM     20  C   UNL A   1      44.735  28.380  28.790  1.00  0.00     0.074 A 
ATOM     21  C   UNL A   1      44.697  27.071  28.173  1.00  0.00     0.031 C 
ATOM     22  C   UNL A   1      38.512  29.849  29.479  1.00  0.00     0.029 A 
ATOM     23  C   UNL A   1      39.663  30.656  29.866  1.00  0.00     0.049 A 
ATOM     24  H   UNL A   1      41.680  30.189  29.629  1.00  0.00     0.167 HD
ATOM     25  C   UNL A   1      45.871  29.050  29.103  1.00  0.00     0.037 A 
ATOM     26  C   UNL A   1      39.599  31.861  30.462  1.00  0.00     0.037 A 
ATOM     27  C   UNL A   1      45.901  30.361  29.702  1.00  0.00     0.049 A 
ATOM     28  C   UNL A   1      40.872  32.578  30.803  1.00  0.00     0.074 A 
ATOM     29  C   UNL A   1      47.003  31.135  30.024  1.00  0.00     0.029 A 
ATOM     30  N   UNL A   1      44.781  31.092  30.070  1.00  0.00    -0.354 N 
ATOM     31  N   UNL A   1      42.110  32.198  30.595  1.00  0.00    -0.248 NA
ATOM     32  C   UNL A   1      40.743  33.885  31.460  1.00  0.00     0.031 C 
ATOM     33  C   UNL A   1      46.550  32.318  30.619  1.00  0.00     0.029 A 
ATOM     34  C   UNL A   1      45.165  32.299  30.632  1.00  0.00     0.049 A 
ATOM     35  H   UNL A   1      43.849  30.796  29.951  1.00  0.00     0.167 HD
ATOM     36  C   UNL A   1      42.908  33.225  31.086  1.00  0.00     0.074 A 
ATOM     37  C   UNL A   1      42.013  34.249  31.583  1.00  0.00     0.031 C 
ATOM     38  C   UNL A   1      44.260  33.308  31.123  1.00  0.00     0.037 A 
BRANCH  25  39
ATOM     39  C   UNL A   1      47.184  28.376  28.816  1.00  0.00     0.058 A 
ATOM     40  C   UNL A   1      47.811  27.549  29.759  1.00  0.00     0.135 A 
ATOM     41  C   UNL A   1      47.797  28.515  27.558  1.00  0.00     0.135 A 
ATOM     42  F   UNL A   1      47.277  27.391  30.981  1.00  0.00    -0.206 F 
ATOM     43  C   UNL A   1      49.008  26.898  29.477  1.00  0.00     0.059 A 
ATOM     44  C   UNL A   1      48.983  27.856  27.245  1.00  0.00     0.059 A 
ATOM     45  F   UNL A   1      47.239  29.295  26.618  1.00  0.00    -0.206 F 
ATOM     46  C   UNL A   1      49.588  27.059  28.216  1.00  0.00     0.060 A 
BRANCH  46  47
ATOM     47  S   UNL A   1      51.137  26.201  27.859  1.00  0.00     0.124 S 
ATOM     48  O   UNL A   1      50.660  24.856  27.557  1.00  0.00    -0.237 OA
ATOM     49  O   UNL A   1      51.659  26.957  26.726  1.00  0.00    -0.237 OA
ATOM     50  O   UNL A   1      51.893  26.336  29.101  1.00  0.00    -0.744 OA
ENDBRANCH  46  47
ENDBRANCH  25  39
BRANCH  26  51
ATOM     51  C   UNL A   1      38.273  32.456  30.771  1.00  0.00     0.058 A 
ATOM     52  C   UNL A   1      37.654  32.240  32.010  1.00  0.00     0.135 A 
ATOM     53  C   UNL A   1      37.617  33.280  29.843  1.00  0.00     0.135 A 
ATOM     54  F   UNL A   1      38.243  31.457  32.927  1.00  0.00    -0.206 F 
ATOM     55  C   UNL A   1      36.424  32.812  32.318  1.00  0.00     0.059 A 
ATOM     56  C   UNL A   1      36.399  33.883  30.137  1.00  0.00     0.059 A 
ATOM     57  F   UNL A   1      38.179  33.531  28.651  1.00  0.00    -0.206 F 
ATOM     58  C   UNL A   1      35.806  33.636  31.374  1.00  0.00     0.060 A 
BRANCH  58  59
ATOM     59  S   UNL A   1      34.239  34.425  31.801  1.00  0.00     0.124 S 
ATOM     60  O   UNL A   1      33.669  33.457  32.731  1.00  0.00    -0.237 OA
ATOM     61  O   UNL A   1      34.678  35.689  32.384  1.00  0.00    -0.237 OA
ATOM     62  O   UNL A   1      33.562  34.541  30.513  1.00  0.00    -0.744 OA
ENDBRANCH  58  59
ENDBRANCH  26  51
BRANCH  38  63
ATOM     63  C   UNL A   1      44.852  34.562  31.701  1.00  0.00     0.058 A 
ATOM     64  C   UNL A   1      45.096  35.692  30.906  1.00  0.00     0.135 A 
ATOM     65  C   UNL A   1      45.144  34.644  33.071  1.00  0.00     0.135 A 
ATOM     66  F   UNL A   1      44.843  35.659  29.588  1.00  0.00    -0.206 F 
ATOM     67  C   UNL A   1      45.631  36.856  31.447  1.00  0.00     0.059 A 
ATOM     68  C   UNL A   1      45.658  35.806  33.638  1.00  0.00     0.059 A 
ATOM     69  F   UNL A   1      44.920  33.592  33.875  1.00  0.00    -0.206 F 
ATOM     70  C   UNL A   1      45.910  36.903  32.814  1.00  0.00     0.060 A 
BRANCH  70  71
ATOM     71  S   UNL A   1      46.579  38.428  33.512  1.00  0.00     0.124 S 
ATOM     72  O   UNL A   1      47.592  38.783  32.524  1.00  0.00    -0.237 OA
ATOM     73  O   UNL A   1      45.405  39.295  33.557  1.00  0.00    -0.237 OA
ATOM     74  O   UNL A   1      47.089  38.009  34.814  1.00  0.00    -0.744 OA
ENDBRANCH  70  71
ENDBRANCH  38  63
ENDBRANCH  12  13
ENDBRANCH   5   7
ENDBRANCH   2   3
ENDBRANCH   1   2
BRANCH   1  75
ATOM     75  C   UNL A   1      42.044  19.863  27.376  1.00  0.00     0.023 C 
BRANCH  75  76
ATOM     76  C   UNL A   1      42.524  19.362  26.015  1.00  0.00     0.116 C 
BRANCH  76  77
ATOM     77  N   UNL A   1      43.713  18.540  26.129  1.00  0.00    -0.354 N 
ATOM     78  C   UNL A   1      44.864  18.593  25.403  1.00  0.00     0.249 C 
ATOM     79  H   UNL A   1      43.685  17.848  26.828  1.00  0.00     0.163 HD
ATOM     80  O   UNL A   1      45.735  17.740  25.593  1.00  0.00    -0.272 OA
BRANCH  78  81
ATOM     81  C   UNL A   1      45.085  19.702  24.367  1.00  0.00     0.207 C 
BRANCH  81  82
ATOM     82  C   UNL A   1      46.022  20.761  24.960  1.00  0.00     0.077 C 
BRANCH  82  83
ATOM     83  C   UNL A   1      45.433  22.152  24.917  1.00  0.00    -0.045 A 
ATOM     84  C   UNL A   1      44.043  22.325  24.857  1.00  0.00     0.007 A 
ATOM     85  C   UNL A   1      46.259  23.285  24.957  1.00  0.00     0.007 A 
ATOM     86  C   UNL A   1      43.485  23.603  24.831  1.00  0.00     0.046 A 
ATOM     87  C   UNL A   1      45.702  24.564  24.932  1.00  0.00     0.046 A 
ATOM     88  C   UNL A   1      44.322  24.714  24.869  1.00  0.00     0.115 A 
BRANCH  88  89
ATOM     89  O   UNL A   1      43.817  25.981  24.852  1.00  0.00    -0.508 OA
ATOM     90  H   UNL A   1      42.931  26.136  25.114  1.00  0.00     0.293 HD
ENDBRANCH  88  89
ENDBRANCH  82  83
ENDBRANCH  81  82
BRANCH  81  91
ATOM     91  O   UNL A   1      45.687  19.124  23.198  1.00  0.00    -0.383 OA
ATOM     92  H   UNL A   1      45.055  19.148  22.464  1.00  0.00     0.211 HD
ENDBRANCH  81  91
ENDBRANCH  78  81
ENDBRANCH  76  77
ENDBRANCH  75  76
ENDBRANCH   1  75
TORSDOF 18
ENDMDL
