MODEL 1
REMARK VINA RESULT:     -12.2      0.000      0.000
REMARK SMILES C[C@@H](C(=O)NCCCCNC(=O)c1ccc(-c2c3nc(c(-c4c(F)cc(S(=O)(=O)[O-])cc4F)c4ccc([nH]4)c(-c4c(F)cc(S(=O)(=O)[O-])cc4F)c4nc(c(-c5c(F)cc(S(=O)(=O)[O-])cc5F)c5ccc2[nH]5)C=C4)C=C3)cc1)c1cc(/C=C/S(C)(=O)=O)cc(C(=O)c2ccccc2)c1
REMARK SMILES IDX 7 1 6 2 5 3 3 4 4 5 2 7 1 8 79 9 80 10 98 11 81 12 89 13
REMARK SMILES IDX 88 14 82 15 83 16 84 17 85 18 86 19 87 20 90 21 91 22 92 23
REMARK SMILES IDX 93 24 97 25 94 26 96 27 95 28 8 29 9 30 10 31 11 32 12 34
REMARK SMILES IDX 13 35 14 36 78 37 15 38 77 39 16 40 17 41 18 42 71 43 19 44
REMARK SMILES IDX 76 45 70 46 72 47 20 48 75 49 69 50 68 51 21 53 55 54 34 55
REMARK SMILES IDX 54 56 35 57 38 58 53 59 73 60 36 61 37 62 52 64 74 65 39 66
REMARK SMILES IDX 22 67 23 68 32 69 24 70 25 71 31 72 33 73 26 74 27 75 28 76
REMARK SMILES IDX 29 77 30 78 56 79 57 80 66 81 58 82 59 83 65 84 67 85 60 86
REMARK SMILES IDX 61 87 62 88 63 89 64 90 40 91 41 92 50 93 42 94 43 95 49 96
REMARK SMILES IDX 51 97 44 98 45 99 46 100 47 101 48 102
REMARK H PARENT 5 6 10 33 72 52 38 63
REMARK Flexibility Score: inf
ROOT
ATOM      1  C   UNL A   1      36.089  23.554  26.332  1.00  0.00     0.023 C 
ENDROOT
BRANCH   1   2
ATOM      2  C   UNL A   1      34.923  24.264  25.646  1.00  0.00     0.116 C 
BRANCH   2   3
ATOM      3  N   UNL A   1      33.808  23.370  25.424  1.00  0.00    -0.356 N 
ATOM      4  C   UNL A   1      32.782  23.432  24.531  1.00  0.00     0.227 C 
ATOM      5  O   UNL A   1      32.036  22.451  24.505  1.00  0.00    -0.274 OA
ATOM      6  H   UNL A   1      33.787  22.586  26.019  1.00  0.00     0.163 HD
BRANCH   4   7
ATOM      7  C   UNL A   1      32.640  24.636  23.580  1.00  0.00     0.105 C 
ATOM      8  C   UNL A   1      33.979  25.158  23.042  1.00  0.00     0.023 C 
BRANCH   7   9
ATOM      9  C   UNL A   1      31.943  25.861  24.179  1.00  0.00    -0.035 A 
ATOM     10  C   UNL A   1      31.041  26.593  23.390  1.00  0.00     0.012 A 
ATOM     11  C   UNL A   1      32.319  26.388  25.420  1.00  0.00     0.016 A 
ATOM     12  C   UNL A   1      30.553  27.845  23.795  1.00  0.00    -0.024 A 
ATOM     13  C   UNL A   1      31.835  27.621  25.865  1.00  0.00     0.023 A 
ATOM     14  C   UNL A   1      30.948  28.341  25.049  1.00  0.00     0.020 A 
BRANCH  12  15
ATOM     15  C   UNL A   1      29.703  28.684  22.924  1.00  0.00     0.020 C 
ATOM     16  C   UNL A   1      29.667  30.027  22.957  1.00  0.00     0.106 C 
BRANCH  16  17
ATOM     17  S   UNL A   1      28.551  30.911  21.966  1.00  0.00     0.168 S 
ATOM     18  C   UNL A   1      27.259  31.261  23.138  1.00  0.00     0.163 C 
ATOM     19  O   UNL A   1      29.156  32.179  21.613  1.00  0.00    -0.225 OA
ATOM     20  O   UNL A   1      27.977  30.052  20.946  1.00  0.00    -0.225 OA
ENDBRANCH  16  17
ENDBRANCH  12  15
BRANCH  13  21
ATOM     21  C   UNL A   1      32.254  28.184  27.186  1.00  0.00     0.193 C 
ATOM     22  O   UNL A   1      31.712  27.804  28.219  1.00  0.00    -0.289 OA
BRANCH  21  23
ATOM     23  C   UNL A   1      33.354  29.177  27.276  1.00  0.00     0.022 A 
ATOM     24  C   UNL A   1      33.026  30.526  27.442  1.00  0.00     0.012 A 
ATOM     25  C   UNL A   1      34.697  28.779  27.239  1.00  0.00     0.012 A 
ATOM     26  C   UNL A   1      34.041  31.468  27.626  1.00  0.00     0.001 A 
ATOM     27  C   UNL A   1      35.706  29.724  27.433  1.00  0.00     0.001 A 
ATOM     28  C   UNL A   1      35.377  31.064  27.634  1.00  0.00     0.000 A 
ENDBRANCH  21  23
ENDBRANCH  13  21
ENDBRANCH   7   9
ENDBRANCH   4   7
ENDBRANCH   2   3
ENDBRANCH   1   2
BRANCH   1  29
ATOM     29  C   UNL A   1      37.440  23.710  25.628  1.00  0.00     0.023 C 
BRANCH  29  30
ATOM     30  C   UNL A   1      38.574  24.230  26.503  1.00  0.00     0.116 C 
BRANCH  30  31
ATOM     31  N   UNL A   1      39.811  24.421  25.762  1.00  0.00    -0.352 N 
ATOM     32  C   UNL A   1      40.867  25.256  26.037  1.00  0.00     0.251 C 
ATOM     33  H   UNL A   1      39.905  23.876  24.949  1.00  0.00     0.163 HD
ATOM     34  O   UNL A   1      41.766  25.395  25.215  1.00  0.00    -0.269 OA
BRANCH  32  35
ATOM     35  C   UNL A   1      40.890  26.012  27.307  1.00  0.00     0.039 A 
ATOM     36  C   UNL A   1      41.984  26.836  27.579  1.00  0.00     0.014 A 
ATOM     37  C   UNL A   1      39.820  25.941  28.205  1.00  0.00     0.014 A 
ATOM     38  C   UNL A   1      41.965  27.657  28.708  1.00  0.00     0.010 A 
ATOM     39  C   UNL A   1      39.772  26.811  29.292  1.00  0.00     0.010 A 
ATOM     40  C   UNL A   1      40.836  27.691  29.544  1.00  0.00    -0.014 A 
BRANCH  40  41
ATOM     41  C   UNL A   1      40.727  28.686  30.642  1.00  0.00     0.031 A 
ATOM     42  C   UNL A   1      41.571  28.558  31.880  1.00  0.00     0.074 A 
ATOM     43  C   UNL A   1      39.806  29.668  30.548  1.00  0.00     0.049 A 
ATOM     44  N   UNL A   1      41.560  29.293  32.962  1.00  0.00    -0.248 NA
ATOM     45  C   UNL A   1      42.540  27.451  31.917  1.00  0.00     0.031 C 
ATOM     46  C   UNL A   1      38.890  29.863  29.419  1.00  0.00     0.029 A 
ATOM     47  N   UNL A   1      39.473  30.677  31.417  1.00  0.00    -0.354 N 
ATOM     48  C   UNL A   1      42.509  28.736  33.810  1.00  0.00     0.074 A 
ATOM     49  C   UNL A   1      43.049  27.575  33.136  1.00  0.00     0.031 C 
ATOM     50  C   UNL A   1      38.115  30.932  29.659  1.00  0.00     0.029 A 
ATOM     51  C   UNL A   1      38.440  31.472  30.974  1.00  0.00     0.049 A 
ATOM     52  H   UNL A   1      39.931  30.819  32.277  1.00  0.00     0.167 HD
ATOM     53  C   UNL A   1      42.903  29.166  35.033  1.00  0.00     0.037 A 
ATOM     54  C   UNL A   1      37.809  32.505  31.568  1.00  0.00     0.037 A 
ATOM     55  C   UNL A   1      42.375  30.335  35.688  1.00  0.00     0.049 A 
ATOM     56  C   UNL A   1      38.258  32.947  32.935  1.00  0.00     0.074 A 
ATOM     57  C   UNL A   1      42.766  30.892  36.893  1.00  0.00     0.029 A 
ATOM     58  N   UNL A   1      41.339  31.120  35.205  1.00  0.00    -0.354 N 
ATOM     59  N   UNL A   1      39.220  32.461  33.683  1.00  0.00    -0.248 NA
ATOM     60  C   UNL A   1      37.538  34.075  33.540  1.00  0.00     0.031 C 
ATOM     61  C   UNL A   1      41.927  31.976  37.168  1.00  0.00     0.029 A 
ATOM     62  C   UNL A   1      41.052  32.133  36.105  1.00  0.00     0.049 A 
ATOM     63  H   UNL A   1      40.875  30.978  34.347  1.00  0.00     0.167 HD
ATOM     64  C   UNL A   1      39.233  33.238  34.836  1.00  0.00     0.074 A 
ATOM     65  C   UNL A   1      38.202  34.240  34.676  1.00  0.00     0.031 C 
ATOM     66  C   UNL A   1      40.023  33.127  35.932  1.00  0.00     0.037 A 
BRANCH  53  67
ATOM     67  C   UNL A   1      43.963  28.379  35.756  1.00  0.00     0.058 A 
ATOM     68  C   UNL A   1      43.636  27.338  36.638  1.00  0.00     0.135 A 
ATOM     69  C   UNL A   1      45.323  28.607  35.486  1.00  0.00     0.135 A 
ATOM     70  F   UNL A   1      42.353  27.088  36.944  1.00  0.00    -0.206 F 
ATOM     71  C   UNL A   1      44.619  26.552  37.231  1.00  0.00     0.059 A 
ATOM     72  C   UNL A   1      46.322  27.816  36.046  1.00  0.00     0.059 A 
ATOM     73  F   UNL A   1      45.690  29.592  34.652  1.00  0.00    -0.206 F 
ATOM     74  C   UNL A   1      45.959  26.793  36.921  1.00  0.00     0.060 A 
BRANCH  74  75
ATOM     75  S   UNL A   1      47.217  25.729  37.661  1.00  0.00     0.124 S 
ATOM     76  O   UNL A   1      48.238  26.703  38.035  1.00  0.00    -0.237 OA
ATOM     77  O   UNL A   1      46.490  25.115  38.768  1.00  0.00    -0.237 OA
ATOM     78  O   UNL A   1      47.581  24.824  36.575  1.00  0.00    -0.744 OA
ENDBRANCH  74  75
ENDBRANCH  53  67
BRANCH  54  79
ATOM     79  C   UNL A   1      36.674  33.186  30.885  1.00  0.00     0.058 A 
ATOM     80  C   UNL A   1      36.891  34.056  29.807  1.00  0.00     0.135 A 
ATOM     81  C   UNL A   1      35.352  33.002  31.317  1.00  0.00     0.135 A 
ATOM     82  F   UNL A   1      38.138  34.272  29.359  1.00  0.00    -0.206 F 
ATOM     83  C   UNL A   1      35.843  34.746  29.203  1.00  0.00     0.059 A 
ATOM     84  C   UNL A   1      34.285  33.653  30.709  1.00  0.00     0.059 A 
ATOM     85  F   UNL A   1      35.085  32.165  32.333  1.00  0.00    -0.206 F 
ATOM     86  C   UNL A   1      34.543  34.539  29.665  1.00  0.00     0.060 A 
BRANCH  86  87
ATOM     87  S   UNL A   1      33.188  35.426  28.867  1.00  0.00     0.124 S 
ATOM     88  O   UNL A   1      33.913  36.388  28.045  1.00  0.00    -0.237 OA
ATOM     89  O   UNL A   1      32.504  34.356  28.147  1.00  0.00    -0.237 OA
ATOM     90  O   UNL A   1      32.446  35.987  29.992  1.00  0.00    -0.744 OA
ENDBRANCH  86  87
ENDBRANCH  54  79
BRANCH  66  91
ATOM     91  C   UNL A   1      39.818  34.127  37.039  1.00  0.00     0.058 A 
ATOM     92  C   UNL A   1      40.323  35.434  36.951  1.00  0.00     0.135 A 
ATOM     93  C   UNL A   1      39.066  33.790  38.176  1.00  0.00     0.135 A 
ATOM     94  F   UNL A   1      41.055  35.807  35.890  1.00  0.00    -0.206 F 
ATOM     95  C   UNL A   1      40.111  36.364  37.964  1.00  0.00     0.059 A 
ATOM     96  C   UNL A   1      38.815  34.712  39.185  1.00  0.00     0.059 A 
ATOM     97  F   UNL A   1      38.552  32.556  38.305  1.00  0.00    -0.206 F 
ATOM     98  C   UNL A   1      39.352  35.994  39.076  1.00  0.00     0.060 A 
BRANCH  98  99
ATOM     99  S   UNL A   1      39.055  37.224  40.364  1.00  0.00     0.124 S 
ATOM    100  O   UNL A   1      38.399  38.287  39.610  1.00  0.00    -0.237 OA
ATOM    101  O   UNL A   1      38.207  36.495  41.302  1.00  0.00    -0.237 OA
ATOM    102  O   UNL A   1      40.396  37.536  40.852  1.00  0.00    -0.744 OA
ENDBRANCH  98  99
ENDBRANCH  66  91
ENDBRANCH  40  41
ENDBRANCH  32  35
ENDBRANCH  30  31
ENDBRANCH  29  30
ENDBRANCH   1  29
TORSDOF 19
ENDMDL
MODEL 2
REMARK VINA RESULT:     -12.2      4.714      5.898
REMARK SMILES C[C@@H](C(=O)NCCCCNC(=O)c1ccc(-c2c3nc(c(-c4c(F)cc(S(=O)(=O)[O-])cc4F)c4ccc([nH]4)c(-c4c(F)cc(S(=O)(=O)[O-])cc4F)c4nc(c(-c5c(F)cc(S(=O)(=O)[O-])cc5F)c5ccc2[nH]5)C=C4)C=C3)cc1)c1cc(/C=C/S(C)(=O)=O)cc(C(=O)c2ccccc2)c1
REMARK SMILES IDX 7 1 6 2 5 3 3 4 4 5 2 7 1 8 79 9 80 10 98 11 81 12 89 13
REMARK SMILES IDX 88 14 82 15 83 16 84 17 85 18 86 19 87 20 90 21 91 22 92 23
REMARK SMILES IDX 93 24 97 25 94 26 96 27 95 28 8 29 9 30 10 31 11 32 12 34
REMARK SMILES IDX 13 35 14 36 78 37 15 38 77 39 16 40 17 41 18 42 71 43 19 44
REMARK SMILES IDX 76 45 70 46 72 47 20 48 75 49 69 50 68 51 21 53 55 54 34 55
REMARK SMILES IDX 54 56 35 57 38 58 53 59 73 60 36 61 37 62 52 64 74 65 39 66
REMARK SMILES IDX 22 67 23 68 32 69 24 70 25 71 31 72 33 73 26 74 27 75 28 76
REMARK SMILES IDX 29 77 30 78 56 79 57 80 66 81 58 82 59 83 65 84 67 85 60 86
REMARK SMILES IDX 61 87 62 88 63 89 64 90 40 91 41 92 50 93 42 94 43 95 49 96
REMARK SMILES IDX 51 97 44 98 45 99 46 100 47 101 48 102
REMARK H PARENT 5 6 10 33 72 52 38 63
REMARK Flexibility Score: inf
ROOT
ATOM      1  C   UNL A   1      35.541  23.130  23.499  1.00  0.00     0.023 C 
ENDROOT
BRANCH   1   2
ATOM      2  C   UNL A   1      34.434  24.180  23.579  1.00  0.00     0.116 C 
BRANCH   2   3
ATOM      3  N   UNL A   1      33.123  23.572  23.637  1.00  0.00    -0.356 N 
ATOM      4  C   UNL A   1      31.923  23.996  23.154  1.00  0.00     0.227 C 
ATOM      5  O   UNL A   1      30.990  23.197  23.260  1.00  0.00    -0.274 OA
ATOM      6  H   UNL A   1      33.094  22.706  24.105  1.00  0.00     0.163 HD
BRANCH   4   7
ATOM      7  C   UNL A   1      31.797  25.367  22.460  1.00  0.00     0.105 C 
ATOM      8  C   UNL A   1      33.101  25.852  21.812  1.00  0.00     0.023 C 
BRANCH   7   9
ATOM      9  C   UNL A   1      31.344  26.517  23.364  1.00  0.00    -0.035 A 
ATOM     10  C   UNL A   1      30.545  27.539  22.827  1.00  0.00     0.012 A 
ATOM     11  C   UNL A   1      31.858  26.683  24.655  1.00  0.00     0.016 A 
ATOM     12  C   UNL A   1      30.295  28.727  23.532  1.00  0.00    -0.024 A 
ATOM     13  C   UNL A   1      31.609  27.842  25.394  1.00  0.00     0.023 A 
ATOM     14  C   UNL A   1      30.823  28.857  24.828  1.00  0.00     0.020 A 
BRANCH  12  15
ATOM     15  C   UNL A   1      29.562  29.863  22.935  1.00  0.00     0.020 C 
ATOM     16  C   UNL A   1      29.319  31.028  23.559  1.00  0.00     0.106 C 
BRANCH  16  17
ATOM     17  S   UNL A   1      28.352  32.256  22.806  1.00  0.00     0.168 S 
ATOM     18  C   UNL A   1      28.339  31.691  21.120  1.00  0.00     0.163 C 
ATOM     19  O   UNL A   1      26.996  32.140  23.302  1.00  0.00    -0.225 OA
ATOM     20  O   UNL A   1      29.041  33.534  22.820  1.00  0.00    -0.225 OA
ENDBRANCH  16  17
ENDBRANCH  12  15
BRANCH  13  21
ATOM     21  C   UNL A   1      32.176  28.019  26.767  1.00  0.00     0.193 C 
ATOM     22  O   UNL A   1      31.795  27.304  27.689  1.00  0.00    -0.289 OA
BRANCH  21  23
ATOM     23  C   UNL A   1      33.231  29.029  27.032  1.00  0.00     0.022 A 
ATOM     24  C   UNL A   1      32.845  30.340  27.326  1.00  0.00     0.012 A 
ATOM     25  C   UNL A   1      34.588  28.679  27.031  1.00  0.00     0.012 A 
ATOM     26  C   UNL A   1      33.812  31.286  27.673  1.00  0.00     0.001 A 
ATOM     27  C   UNL A   1      35.549  29.627  27.388  1.00  0.00     0.001 A 
ATOM     28  C   UNL A   1      35.160  30.926  27.716  1.00  0.00     0.000 A 
ENDBRANCH  21  23
ENDBRANCH  13  21
ENDBRANCH   7   9
ENDBRANCH   4   7
ENDBRANCH   2   3
ENDBRANCH   1   2
BRANCH   1  29
ATOM     29  C   UNL A   1      35.887  22.457  24.830  1.00  0.00     0.023 C 
BRANCH  29  30
ATOM     30  C   UNL A   1      36.987  23.136  25.636  1.00  0.00     0.116 C 
BRANCH  30  31
ATOM     31  N   UNL A   1      38.054  22.221  26.010  1.00  0.00    -0.352 N 
ATOM     32  C   UNL A   1      39.298  22.501  26.523  1.00  0.00     0.251 C 
ATOM     33  H   UNL A   1      37.857  21.266  25.877  1.00  0.00     0.163 HD
ATOM     34  O   UNL A   1      40.126  21.604  26.638  1.00  0.00    -0.269 OA
BRANCH  32  35
ATOM     35  C   UNL A   1      39.640  23.890  26.892  1.00  0.00     0.039 A 
ATOM     36  C   UNL A   1      39.563  24.267  28.234  1.00  0.00     0.014 A 
ATOM     37  C   UNL A   1      40.074  24.804  25.926  1.00  0.00     0.014 A 
ATOM     38  C   UNL A   1      40.006  25.533  28.621  1.00  0.00     0.010 A 
ATOM     39  C   UNL A   1      40.580  26.040  26.324  1.00  0.00     0.010 A 
ATOM     40  C   UNL A   1      40.569  26.410  27.677  1.00  0.00    -0.014 A 
BRANCH  40  41
ATOM     41  C   UNL A   1      41.207  27.683  28.100  1.00  0.00     0.031 A 
ATOM     42  C   UNL A   1      42.701  27.848  28.047  1.00  0.00     0.074 A 
ATOM     43  C   UNL A   1      40.433  28.669  28.603  1.00  0.00     0.049 A 
ATOM     44  N   UNL A   1      43.430  28.861  28.438  1.00  0.00    -0.248 NA
ATOM     45  C   UNL A   1      43.478  26.723  27.503  1.00  0.00     0.031 C 
ATOM     46  C   UNL A   1      38.977  28.605  28.756  1.00  0.00     0.029 A 
ATOM     47  N   UNL A   1      40.760  29.908  29.095  1.00  0.00    -0.354 N 
ATOM     48  C   UNL A   1      44.749  28.495  28.196  1.00  0.00     0.074 A 
ATOM     49  C   UNL A   1      44.724  27.150  27.664  1.00  0.00     0.031 C 
ATOM     50  C   UNL A   1      38.537  29.757  29.286  1.00  0.00     0.029 A 
ATOM     51  C   UNL A   1      39.679  30.623  29.557  1.00  0.00     0.049 A 
ATOM     52  H   UNL A   1      41.682  30.253  29.114  1.00  0.00     0.167 HD
ATOM     53  C   UNL A   1      45.875  29.224  28.388  1.00  0.00     0.037 A 
ATOM     54  C   UNL A   1      39.614  31.830  30.154  1.00  0.00     0.037 A 
ATOM     55  C   UNL A   1      45.889  30.571  28.899  1.00  0.00     0.049 A 
ATOM     56  C   UNL A   1      40.885  32.608  30.369  1.00  0.00     0.074 A 
ATOM     57  C   UNL A   1      46.973  31.417  29.056  1.00  0.00     0.029 A 
ATOM     58  N   UNL A   1      44.775  31.265  29.346  1.00  0.00    -0.354 N 
ATOM     59  N   UNL A   1      42.115  32.281  30.051  1.00  0.00    -0.248 NA
ATOM     60  C   UNL A   1      40.762  33.917  31.025  1.00  0.00     0.031 C 
ATOM     61  C   UNL A   1      46.525  32.598  29.654  1.00  0.00     0.029 A 
ATOM     62  C   UNL A   1      45.151  32.514  29.814  1.00  0.00     0.049 A 
ATOM     63  H   UNL A   1      43.852  30.922  29.333  1.00  0.00     0.167 HD
ATOM     64  C   UNL A   1      42.907  33.352  30.448  1.00  0.00     0.074 A 
ATOM     65  C   UNL A   1      42.016  34.346  31.006  1.00  0.00     0.031 C 
ATOM     66  C   UNL A   1      44.253  33.497  30.365  1.00  0.00     0.037 A 
BRANCH  53  67
ATOM     67  C   UNL A   1      47.197  28.594  28.042  1.00  0.00     0.058 A 
ATOM     68  C   UNL A   1      47.953  27.895  28.995  1.00  0.00     0.135 A 
ATOM     69  C   UNL A   1      47.664  28.609  26.716  1.00  0.00     0.135 A 
ATOM     70  F   UNL A   1      47.561  27.863  30.278  1.00  0.00    -0.206 F 
ATOM     71  C   UNL A   1      49.127  27.234  28.648  1.00  0.00     0.059 A 
ATOM     72  C   UNL A   1      48.822  27.933  26.342  1.00  0.00     0.059 A 
ATOM     73  F   UNL A   1      46.981  29.267  25.767  1.00  0.00    -0.206 F 
ATOM     74  C   UNL A   1      49.548  27.251  27.318  1.00  0.00     0.060 A 
BRANCH  74  75
ATOM     75  S   UNL A   1      51.048  26.345  26.878  1.00  0.00     0.124 S 
ATOM     76  O   UNL A   1      52.074  27.139  27.548  1.00  0.00    -0.237 OA
ATOM     77  O   UNL A   1      50.791  25.028  27.451  1.00  0.00    -0.237 OA
ATOM     78  O   UNL A   1      51.065  26.400  25.420  1.00  0.00    -0.744 OA
ENDBRANCH  74  75
ENDBRANCH  53  67
BRANCH  54  79
ATOM     79  C   UNL A   1      38.305  32.377  30.606  1.00  0.00     0.058 A 
ATOM     80  C   UNL A   1      37.487  33.117  29.740  1.00  0.00     0.135 A 
ATOM     81  C   UNL A   1      37.858  32.194  31.924  1.00  0.00     0.135 A 
ATOM     82  F   UNL A   1      37.870  33.326  28.470  1.00  0.00    -0.206 F 
ATOM     83  C   UNL A   1      36.292  33.685  30.171  1.00  0.00     0.059 A 
ATOM     84  C   UNL A   1      36.652  32.723  32.370  1.00  0.00     0.059 A 
ATOM     85  F   UNL A   1      38.592  31.477  32.791  1.00  0.00    -0.206 F 
ATOM     86  C   UNL A   1      35.885  33.484  31.490  1.00  0.00     0.060 A 
BRANCH  86  87
ATOM     87  S   UNL A   1      34.325  34.212  32.037  1.00  0.00     0.124 S 
ATOM     88  O   UNL A   1      33.661  34.468  30.765  1.00  0.00    -0.237 OA
ATOM     89  O   UNL A   1      33.758  33.141  32.852  1.00  0.00    -0.237 OA
ATOM     90  O   UNL A   1      34.751  35.395  32.779  1.00  0.00    -0.744 OA
ENDBRANCH  86  87
ENDBRANCH  54  79
BRANCH  66  91
ATOM     91  C   UNL A   1      44.844  34.785  30.871  1.00  0.00     0.058 A 
ATOM     92  C   UNL A   1      45.316  34.910  32.188  1.00  0.00     0.135 A 
ATOM     93  C   UNL A   1      44.987  35.890  30.016  1.00  0.00     0.135 A 
ATOM     94  F   UNL A   1      45.197  33.888  33.049  1.00  0.00    -0.206 F 
ATOM     95  C   UNL A   1      45.885  36.095  32.645  1.00  0.00     0.059 A 
ATOM     96  C   UNL A   1      45.582  37.072  30.442  1.00  0.00     0.059 A 
ATOM     97  F   UNL A   1      44.562  35.820  28.744  1.00  0.00    -0.206 F 
ATOM     98  C   UNL A   1      46.017  37.169  31.763  1.00  0.00     0.060 A 
BRANCH  98  99
ATOM     99  S   UNL A   1      46.791  38.686  32.362  1.00  0.00     0.124 S 
ATOM    100  O   UNL A   1      48.076  38.190  32.844  1.00  0.00    -0.237 OA
ATOM    101  O   UNL A   1      46.839  39.508  31.158  1.00  0.00    -0.237 OA
ATOM    102  O   UNL A   1      45.871  39.151  33.397  1.00  0.00    -0.744 OA
ENDBRANCH  98  99
ENDBRANCH  66  91
ENDBRANCH  40  41
ENDBRANCH  32  35
ENDBRANCH  30  31
ENDBRANCH  29  30
ENDBRANCH   1  29
TORSDOF 19
ENDMDL
MODEL 3
REMARK VINA RESULT:     -12.1      2.614      8.378
REMARK SMILES C[C@@H](C(=O)NCCCCNC(=O)c1ccc(-c2c3nc(c(-c4c(F)cc(S(=O)(=O)[O-])cc4F)c4ccc([nH]4)c(-c4c(F)cc(S(=O)(=O)[O-])cc4F)c4nc(c(-c5c(F)cc(S(=O)(=O)[O-])cc5F)c5ccc2[nH]5)C=C4)C=C3)cc1)c1cc(/C=C/S(C)(=O)=O)cc(C(=O)c2ccccc2)c1
REMARK SMILES IDX 7 1 6 2 5 3 3 4 4 5 2 7 1 8 79 9 80 10 98 11 81 12 89 13
REMARK SMILES IDX 88 14 82 15 83 16 84 17 85 18 86 19 87 20 90 21 91 22 92 23
REMARK SMILES IDX 93 24 97 25 94 26 96 27 95 28 8 29 9 30 10 31 11 32 12 34
REMARK SMILES IDX 13 35 14 36 78 37 15 38 77 39 16 40 17 41 18 42 71 43 19 44
REMARK SMILES IDX 76 45 70 46 72 47 20 48 75 49 69 50 68 51 21 53 55 54 34 55
REMARK SMILES IDX 54 56 35 57 38 58 53 59 73 60 36 61 37 62 52 64 74 65 39 66
REMARK SMILES IDX 22 67 23 68 32 69 24 70 25 71 31 72 33 73 26 74 27 75 28 76
REMARK SMILES IDX 29 77 30 78 56 79 57 80 66 81 58 82 59 83 65 84 67 85 60 86
REMARK SMILES IDX 61 87 62 88 63 89 64 90 40 91 41 92 50 93 42 94 43 95 49 96
REMARK SMILES IDX 51 97 44 98 45 99 46 100 47 101 48 102
REMARK H PARENT 5 6 10 33 72 52 38 63
REMARK Flexibility Score: inf
ROOT
ATOM      1  C   UNL A   1      35.678  23.068  23.602  1.00  0.00     0.023 C 
ENDROOT
BRANCH   1   2
ATOM      2  C   UNL A   1      34.513  23.965  23.183  1.00  0.00     0.116 C 
BRANCH   2   3
ATOM      3  N   UNL A   1      33.235  23.354  23.477  1.00  0.00    -0.356 N 
ATOM      4  C   UNL A   1      31.969  23.742  23.160  1.00  0.00     0.227 C 
ATOM      5  O   UNL A   1      31.076  22.946  23.455  1.00  0.00    -0.274 OA
ATOM      6  H   UNL A   1      33.291  22.517  23.993  1.00  0.00     0.163 HD
BRANCH   4   7
ATOM      7  C   UNL A   1      31.719  25.068  22.415  1.00  0.00     0.105 C 
ATOM      8  C   UNL A   1      32.947  25.592  21.659  1.00  0.00     0.023 C 
BRANCH   7   9
ATOM      9  C   UNL A   1      31.260  26.234  23.296  1.00  0.00    -0.035 A 
ATOM     10  C   UNL A   1      30.453  27.239  22.740  1.00  0.00     0.012 A 
ATOM     11  C   UNL A   1      31.778  26.433  24.581  1.00  0.00     0.016 A 
ATOM     12  C   UNL A   1      30.196  28.440  23.419  1.00  0.00    -0.024 A 
ATOM     13  C   UNL A   1      31.523  27.606  25.296  1.00  0.00     0.023 A 
ATOM     14  C   UNL A   1      30.727  28.603  24.710  1.00  0.00     0.020 A 
BRANCH  12  15
ATOM     15  C   UNL A   1      29.453  29.558  22.800  1.00  0.00     0.020 C 
ATOM     16  C   UNL A   1      29.259  30.757  23.374  1.00  0.00     0.106 C 
BRANCH  16  17
ATOM     17  S   UNL A   1      28.276  31.962  22.606  1.00  0.00     0.168 S 
ATOM     18  C   UNL A   1      28.115  31.279  20.972  1.00  0.00     0.163 C 
ATOM     19  O   UNL A   1      26.959  31.933  23.209  1.00  0.00    -0.225 OA
ATOM     20  O   UNL A   1      29.005  33.211  22.474  1.00  0.00    -0.225 OA
ENDBRANCH  16  17
ENDBRANCH  12  15
BRANCH  13  21
ATOM     21  C   UNL A   1      32.092  27.816  26.663  1.00  0.00     0.193 C 
ATOM     22  O   UNL A   1      31.790  27.060  27.581  1.00  0.00    -0.289 OA
BRANCH  21  23
ATOM     23  C   UNL A   1      33.058  28.913  26.926  1.00  0.00     0.022 A 
ATOM     24  C   UNL A   1      32.562  30.177  27.260  1.00  0.00     0.012 A 
ATOM     25  C   UNL A   1      34.441  28.689  26.883  1.00  0.00     0.012 A 
ATOM     26  C   UNL A   1      33.448  31.199  27.605  1.00  0.00     0.001 A 
ATOM     27  C   UNL A   1      35.321  29.713  27.238  1.00  0.00     0.001 A 
ATOM     28  C   UNL A   1      34.824  30.963  27.606  1.00  0.00     0.000 A 
ENDBRANCH  21  23
ENDBRANCH  13  21
ENDBRANCH   7   9
ENDBRANCH   4   7
ENDBRANCH   2   3
ENDBRANCH   1   2
BRANCH   1  29
ATOM     29  C   UNL A   1      35.919  22.993  25.113  1.00  0.00     0.023 C 
BRANCH  29  30
ATOM     30  C   UNL A   1      37.102  23.807  25.623  1.00  0.00     0.116 C 
BRANCH  30  31
ATOM     31  N   UNL A   1      38.327  23.026  25.702  1.00  0.00    -0.352 N 
ATOM     32  C   UNL A   1      39.537  23.364  26.260  1.00  0.00     0.251 C 
ATOM     33  H   UNL A   1      38.283  22.129  25.300  1.00  0.00     0.163 HD
ATOM     34  O   UNL A   1      40.508  22.631  26.099  1.00  0.00    -0.269 OA
BRANCH  32  35
ATOM     35  C   UNL A   1      39.667  24.628  27.013  1.00  0.00     0.039 A 
ATOM     36  C   UNL A   1      39.085  24.719  28.279  1.00  0.00     0.014 A 
ATOM     37  C   UNL A   1      40.394  25.703  26.491  1.00  0.00     0.014 A 
ATOM     38  C   UNL A   1      39.307  25.855  29.059  1.00  0.00     0.010 A 
ATOM     39  C   UNL A   1      40.671  26.804  27.298  1.00  0.00     0.010 A 
ATOM     40  C   UNL A   1      40.146  26.883  28.597  1.00  0.00    -0.014 A 
BRANCH  40  41
ATOM     41  C   UNL A   1      40.535  28.010  29.484  1.00  0.00     0.031 A 
ATOM     42  C   UNL A   1      39.624  29.193  29.667  1.00  0.00     0.074 A 
ATOM     43  C   UNL A   1      41.752  27.994  30.069  1.00  0.00     0.049 A 
ATOM     44  N   UNL A   1      39.830  30.291  30.347  1.00  0.00    -0.248 NA
ATOM     45  C   UNL A   1      38.322  29.146  28.983  1.00  0.00     0.031 C 
ATOM     46  C   UNL A   1      42.746  26.927  29.922  1.00  0.00     0.029 A 
ATOM     47  N   UNL A   1      42.369  28.906  30.889  1.00  0.00    -0.354 N 
ATOM     48  C   UNL A   1      38.692  31.068  30.168  1.00  0.00     0.074 A 
ATOM     49  C   UNL A   1      37.815  30.334  29.281  1.00  0.00     0.031 C 
ATOM     50  C   UNL A   1      43.837  27.238  30.641  1.00  0.00     0.029 A 
ATOM     51  C   UNL A   1      43.644  28.544  31.259  1.00  0.00     0.049 A 
ATOM     52  H   UNL A   1      41.939  29.741  31.185  1.00  0.00     0.167 HD
ATOM     53  C   UNL A   1      38.401  32.276  30.708  1.00  0.00     0.037 A 
ATOM     54  C   UNL A   1      44.565  29.199  31.994  1.00  0.00     0.037 A 
ATOM     55  C   UNL A   1      39.272  32.989  31.608  1.00  0.00     0.049 A 
ATOM     56  C   UNL A   1      44.219  30.548  32.566  1.00  0.00     0.074 A 
ATOM     57  C   UNL A   1      39.031  34.182  32.267  1.00  0.00     0.029 A 
ATOM     58  N   UNL A   1      40.549  32.587  31.968  1.00  0.00    -0.354 N 
ATOM     59  N   UNL A   1      43.101  31.226  32.458  1.00  0.00    -0.248 NA
ATOM     60  C   UNL A   1      45.256  31.223  33.358  1.00  0.00     0.031 C 
ATOM     61  C   UNL A   1      40.184  34.533  32.975  1.00  0.00     0.029 A 
ATOM     62  C   UNL A   1      41.123  33.528  32.808  1.00  0.00     0.049 A 
ATOM     63  H   UNL A   1      40.984  31.755  31.670  1.00  0.00     0.167 HD
ATOM     64  C   UNL A   1      43.294  32.395  33.185  1.00  0.00     0.074 A 
ATOM     65  C   UNL A   1      44.625  32.321  33.749  1.00  0.00     0.031 C 
ATOM     66  C   UNL A   1      42.449  33.440  33.365  1.00  0.00     0.037 A 
BRANCH  53  67
ATOM     67  C   UNL A   1      37.086  32.915  30.355  1.00  0.00     0.058 A 
ATOM     68  C   UNL A   1      35.965  32.807  31.193  1.00  0.00     0.135 A 
ATOM     69  C   UNL A   1      36.976  33.727  29.213  1.00  0.00     0.135 A 
ATOM     70  F   UNL A   1      36.011  32.032  32.288  1.00  0.00    -0.206 F 
ATOM     71  C   UNL A   1      34.780  33.478  30.910  1.00  0.00     0.059 A 
ATOM     72  C   UNL A   1      35.808  34.429  28.925  1.00  0.00     0.059 A 
ATOM     73  F   UNL A   1      38.017  33.861  28.377  1.00  0.00    -0.206 F 
ATOM     74  C   UNL A   1      34.714  34.294  29.779  1.00  0.00     0.060 A 
BRANCH  74  75
ATOM     75  S   UNL A   1      33.184  35.197  29.457  1.00  0.00     0.124 S 
ATOM     76  O   UNL A   1      32.545  34.340  28.462  1.00  0.00    -0.237 OA
ATOM     77  O   UNL A   1      32.554  35.217  30.774  1.00  0.00    -0.237 OA
ATOM     78  O   UNL A   1      33.647  36.491  28.966  1.00  0.00    -0.744 OA
ENDBRANCH  74  75
ENDBRANCH  53  67
BRANCH  54  79
ATOM     79  C   UNL A   1      45.910  28.602  32.222  1.00  0.00     0.058 A 
ATOM     80  C   UNL A   1      46.164  27.784  33.333  1.00  0.00     0.135 A 
ATOM     81  C   UNL A   1      46.977  28.861  31.347  1.00  0.00     0.135 A 
ATOM     82  F   UNL A   1      45.179  27.510  34.203  1.00  0.00    -0.206 F 
ATOM     83  C   UNL A   1      47.433  27.273  33.588  1.00  0.00     0.059 A 
ATOM     84  C   UNL A   1      48.245  28.335  31.562  1.00  0.00     0.059 A 
ATOM     85  F   UNL A   1      46.786  29.622  30.257  1.00  0.00    -0.206 F 
ATOM     86  C   UNL A   1      48.469  27.557  32.697  1.00  0.00     0.060 A 
BRANCH  86  87
ATOM     87  S   UNL A   1      50.108  26.877  33.027  1.00  0.00     0.124 S 
ATOM     88  O   UNL A   1      49.807  25.861  34.029  1.00  0.00    -0.237 OA
ATOM     89  O   UNL A   1      50.505  26.382  31.713  1.00  0.00    -0.237 OA
ATOM     90  O   UNL A   1      50.860  28.034  33.506  1.00  0.00    -0.744 OA
ENDBRANCH  86  87
ENDBRANCH  54  79
BRANCH  66  91
ATOM     91  C   UNL A   1      42.928  34.581  34.222  1.00  0.00     0.058 A 
ATOM     92  C   UNL A   1      42.868  34.523  35.623  1.00  0.00     0.135 A 
ATOM     93  C   UNL A   1      43.501  35.722  33.637  1.00  0.00     0.135 A 
ATOM     94  F   UNL A   1      42.323  33.459  36.234  1.00  0.00    -0.206 F 
ATOM     95  C   UNL A   1      43.335  35.569  36.414  1.00  0.00     0.059 A 
ATOM     96  C   UNL A   1      44.003  36.764  34.408  1.00  0.00     0.059 A 
ATOM     97  F   UNL A   1      43.593  35.824  32.301  1.00  0.00    -0.206 F 
ATOM     98  C   UNL A   1      43.905  36.684  35.796  1.00  0.00     0.060 A 
BRANCH  98  99
ATOM     99  S   UNL A   1      44.539  38.015  36.838  1.00  0.00     0.124 S 
ATOM    100  O   UNL A   1      44.552  39.137  35.905  1.00  0.00    -0.237 OA
ATOM    101  O   UNL A   1      43.540  38.084  37.899  1.00  0.00    -0.237 OA
ATOM    102  O   UNL A   1      45.852  37.528  37.251  1.00  0.00    -0.744 OA
ENDBRANCH  98  99
ENDBRANCH  66  91
ENDBRANCH  40  41
ENDBRANCH  32  35
ENDBRANCH  30  31
ENDBRANCH  29  30
ENDBRANCH   1  29
TORSDOF 19
ENDMDL
