MODEL 1
REMARK VINA RESULT:     -12.2      0.000      0.000
REMARK SMILES O=C(CSc1nc(O)cc(=O)[nH]1)Nc1cccc(C(=O)NCCCCNC(=O)c2ccc(-c3c4nc(c(-c5c(F)cc(S(=O)(=O)[O-])cc5F)c5ccc([nH]5)c(-c5c(F)cc(S(=O)(=O)[O-])cc5F)c5nc(c(-c6c(F)cc(S(=O)(=O)[O-])cc6F)c6ccc3[nH]6)C=C5)C=C4)cc2)c1
REMARK SMILES IDX 22 1 21 2 19 3 20 4 18 6 14 7 15 8 95 9 16 10 17 11 13 12
REMARK SMILES IDX 1 13 2 14 3 16 4 17 5 18 6 19 12 20 7 21 10 22 9 24 11 25
REMARK SMILES IDX 8 26 23 28 24 29 25 30 26 31 27 32 28 34 29 35 30 36 94 37
REMARK SMILES IDX 31 38 93 39 32 40 33 41 34 42 87 43 35 44 92 45 86 46 88 47
REMARK SMILES IDX 36 48 91 49 85 50 84 51 37 53 71 54 50 55 70 56 51 57 54 58
REMARK SMILES IDX 69 59 89 60 52 61 53 62 68 64 90 65 55 66 38 67 39 68 48 69
REMARK SMILES IDX 40 70 41 71 47 72 49 73 42 74 43 75 44 76 45 77 46 78 72 79
REMARK SMILES IDX 73 80 82 81 74 82 75 83 81 84 83 85 76 86 77 87 78 88 79 89
REMARK SMILES IDX 80 90 56 91 57 92 66 93 58 94 59 95 65 96 67 97 60 98 61 99
REMARK SMILES IDX 62 100 63 101 64 102
REMARK H PARENT 21 5 13 15 12 23 8 27 26 33 88 52 54 63
REMARK Flexibility Score: inf
ROOT
ATOM      1  C   UNL A   1      32.297  28.951  23.449  1.00  0.00     0.116 C 
ENDROOT
BRANCH   1   2
ATOM      2  N   UNL A   1      32.956  28.219  22.374  1.00  0.00    -0.352 N 
ATOM      3  C   UNL A   1      33.008  26.861  22.128  1.00  0.00     0.251 C 
ATOM      4  O   UNL A   1      33.645  26.435  21.167  1.00  0.00    -0.269 OA
ATOM      5  H   UNL A   1      33.438  28.778  21.723  1.00  0.00     0.163 HD
BRANCH   3   6
ATOM      6  C   UNL A   1      32.372  25.896  23.061  1.00  0.00     0.041 A 
ATOM      7  C   UNL A   1      32.605  24.030  24.576  1.00  0.00     0.041 A 
ATOM      8  C   UNL A   1      31.237  23.764  24.438  1.00  0.00     0.026 A 
ATOM      9  C   UNL A   1      33.131  25.174  23.983  1.00  0.00     0.040 A 
ATOM     10  C   UNL A   1      30.429  24.596  23.656  1.00  0.00     0.003 A 
ATOM     11  C   UNL A   1      31.003  25.643  22.937  1.00  0.00     0.014 A 
BRANCH   7  12
ATOM     12  N   UNL A   1      33.414  23.047  25.184  1.00  0.00    -0.325 N 
ATOM     13  O   UNL A   1      34.704  22.293  23.396  1.00  0.00    -0.274 OA
ATOM     14  C   UNL A   1      34.324  22.203  24.559  1.00  0.00     0.234 C 
ATOM     15  H   UNL A   1      33.324  22.948  26.159  1.00  0.00     0.169 HD
BRANCH  14  16
ATOM     16  C   UNL A   1      34.755  21.016  25.410  1.00  0.00     0.178 C 
BRANCH  16  17
ATOM     17  S   UNL A   1      33.344  20.090  26.085  1.00  0.00    -0.078 SA
BRANCH  17  18
ATOM     18  C   UNL A   1      33.336  18.789  24.937  1.00  0.00     0.172 A 
ATOM     19  N   UNL A   1      32.649  18.838  23.849  1.00  0.00    -0.189 NA
ATOM     20  N   UNL A   1      34.124  17.754  25.318  1.00  0.00    -0.301 N 
ATOM     21  C   UNL A   1      32.745  17.741  23.041  1.00  0.00     0.218 A 
ATOM     22  C   UNL A   1      34.269  16.653  24.537  1.00  0.00     0.255 A 
ATOM     23  H   UNL A   1      34.599  17.801  26.178  1.00  0.00     0.172 HD
ATOM     24  C   UNL A   1      33.499  16.667  23.290  1.00  0.00     0.139 A 
ATOM     25  O   UNL A   1      34.983  15.707  24.854  1.00  0.00    -0.269 OA
BRANCH  21  26
ATOM     26  O   UNL A   1      31.994  17.783  21.897  1.00  0.00    -0.493 OA
ATOM     27  H   UNL A   1      31.117  17.449  21.899  1.00  0.00     0.295 HD
ENDBRANCH  21  26
ENDBRANCH  17  18
ENDBRANCH  16  17
ENDBRANCH  14  16
ENDBRANCH   7  12
ENDBRANCH   3   6
ENDBRANCH   1   2
BRANCH   1  28
ATOM     28  C   UNL A   1      33.120  29.093  24.722  1.00  0.00     0.023 C 
BRANCH  28  29
ATOM     29  C   UNL A   1      32.628  28.311  25.933  1.00  0.00     0.023 C 
BRANCH  29  30
ATOM     30  C   UNL A   1      33.384  28.548  27.235  1.00  0.00     0.116 C 
BRANCH  30  31
ATOM     31  N   UNL A   1      33.387  29.938  27.672  1.00  0.00    -0.352 N 
ATOM     32  C   UNL A   1      34.402  30.682  28.234  1.00  0.00     0.251 C 
ATOM     33  H   UNL A   1      32.536  30.417  27.547  1.00  0.00     0.163 HD
ATOM     34  O   UNL A   1      34.182  31.824  28.618  1.00  0.00    -0.269 OA
BRANCH  32  35
ATOM     35  C   UNL A   1      35.745  30.083  28.413  1.00  0.00     0.039 A 
ATOM     36  C   UNL A   1      36.625  30.061  27.327  1.00  0.00     0.014 A 
ATOM     37  C   UNL A   1      36.149  29.579  29.652  1.00  0.00     0.014 A 
ATOM     38  C   UNL A   1      37.942  29.630  27.512  1.00  0.00     0.010 A 
ATOM     39  C   UNL A   1      37.481  29.228  29.852  1.00  0.00     0.010 A 
ATOM     40  C   UNL A   1      38.396  29.262  28.789  1.00  0.00    -0.014 A 
BRANCH  40  41
ATOM     41  C   UNL A   1      39.823  28.932  29.041  1.00  0.00     0.031 A 
ATOM     42  C   UNL A   1      40.756  29.976  29.588  1.00  0.00     0.074 A 
ATOM     43  C   UNL A   1      40.298  27.719  28.694  1.00  0.00     0.049 A 
ATOM     44  N   UNL A   1      42.049  29.910  29.782  1.00  0.00    -0.248 NA
ATOM     45  C   UNL A   1      40.164  31.278  29.934  1.00  0.00     0.031 C 
ATOM     46  C   UNL A   1      39.509  26.636  28.102  1.00  0.00     0.029 A 
ATOM     47  N   UNL A   1      41.565  27.194  28.776  1.00  0.00    -0.354 N 
ATOM     48  C   UNL A   1      42.427  31.163  30.251  1.00  0.00     0.074 A 
ATOM     49  C   UNL A   1      41.235  31.983  30.266  1.00  0.00     0.031 C 
ATOM     50  C   UNL A   1      40.302  25.572  27.896  1.00  0.00     0.029 A 
ATOM     51  C   UNL A   1      41.662  25.907  28.304  1.00  0.00     0.049 A 
ATOM     52  H   UNL A   1      42.332  27.695  29.139  1.00  0.00     0.167 HD
ATOM     53  C   UNL A   1      43.650  31.584  30.653  1.00  0.00     0.037 A 
ATOM     54  C   UNL A   1      42.728  25.088  28.205  1.00  0.00     0.037 A 
ATOM     55  C   UNL A   1      44.826  30.755  30.666  1.00  0.00     0.049 A 
ATOM     56  C   UNL A   1      44.074  25.572  28.673  1.00  0.00     0.074 A 
ATOM     57  C   UNL A   1      46.097  31.071  31.115  1.00  0.00     0.029 A 
ATOM     58  N   UNL A   1      44.877  29.446  30.211  1.00  0.00    -0.354 N 
ATOM     59  N   UNL A   1      44.400  26.741  29.170  1.00  0.00    -0.248 NA
ATOM     60  C   UNL A   1      45.194  24.627  28.569  1.00  0.00     0.031 C 
ATOM     61  C   UNL A   1      46.924  29.962  30.901  1.00  0.00     0.029 A 
ATOM     62  C   UNL A   1      46.160  28.944  30.354  1.00  0.00     0.049 A 
ATOM     63  H   UNL A   1      44.114  28.947  29.839  1.00  0.00     0.167 HD
ATOM     64  C   UNL A   1      45.758  26.664  29.462  1.00  0.00     0.074 A 
ATOM     65  C   UNL A   1      46.189  25.330  29.093  1.00  0.00     0.031 C 
ATOM     66  C   UNL A   1      46.572  27.611  29.989  1.00  0.00     0.037 A 
BRANCH  53  67
ATOM     67  C   UNL A   1      43.768  33.008  31.122  1.00  0.00     0.058 A 
ATOM     68  C   UNL A   1      44.031  34.058  30.227  1.00  0.00     0.135 A 
ATOM     69  C   UNL A   1      43.610  33.331  32.480  1.00  0.00     0.135 A 
ATOM     70  F   UNL A   1      44.206  33.803  28.920  1.00  0.00    -0.206 F 
ATOM     71  C   UNL A   1      44.172  35.370  30.665  1.00  0.00     0.059 A 
ATOM     72  C   UNL A   1      43.719  34.642  32.937  1.00  0.00     0.059 A 
ATOM     73  F   UNL A   1      43.355  32.367  33.379  1.00  0.00    -0.206 F 
ATOM     74  C   UNL A   1      44.020  35.652  32.023  1.00  0.00     0.060 A 
BRANCH  74  75
ATOM     75  S   UNL A   1      44.221  37.356  32.579  1.00  0.00     0.124 S 
ATOM     76  O   UNL A   1      43.143  37.471  33.556  1.00  0.00    -0.237 OA
ATOM     77  O   UNL A   1      45.573  37.350  33.129  1.00  0.00    -0.237 OA
ATOM     78  O   UNL A   1      44.048  38.135  31.358  1.00  0.00    -0.744 OA
ENDBRANCH  74  75
ENDBRANCH  53  67
BRANCH  54  79
ATOM     79  C   UNL A   1      42.557  23.711  27.670  1.00  0.00     0.058 A 
ATOM     80  C   UNL A   1      42.591  23.470  26.288  1.00  0.00     0.135 A 
ATOM     81  C   UNL A   1      42.382  22.612  28.523  1.00  0.00     0.135 A 
ATOM     82  F   UNL A   1      42.749  24.492  25.434  1.00  0.00    -0.206 F 
ATOM     83  C   UNL A   1      42.450  22.187  25.769  1.00  0.00     0.059 A 
ATOM     84  C   UNL A   1      42.261  21.316  28.029  1.00  0.00     0.059 A 
ATOM     85  F   UNL A   1      42.358  22.789  29.853  1.00  0.00    -0.206 F 
ATOM     86  C   UNL A   1      42.290  21.115  26.648  1.00  0.00     0.060 A 
BRANCH  86  87
ATOM     87  S   UNL A   1      42.173  19.447  25.967  1.00  0.00     0.124 S 
ATOM     88  O   UNL A   1      40.740  19.329  25.724  1.00  0.00    -0.237 OA
ATOM     89  O   UNL A   1      43.017  19.539  24.780  1.00  0.00    -0.237 OA
ATOM     90  O   UNL A   1      42.703  18.610  27.039  1.00  0.00    -0.744 OA
ENDBRANCH  86  87
ENDBRANCH  54  79
BRANCH  66  91
ATOM     91  C   UNL A   1      48.007  27.234  30.228  1.00  0.00     0.058 A 
ATOM     92  C   UNL A   1      49.009  27.517  29.289  1.00  0.00     0.135 A 
ATOM     93  C   UNL A   1      48.390  26.630  31.437  1.00  0.00     0.135 A 
ATOM     94  F   UNL A   1      48.694  28.086  28.114  1.00  0.00    -0.206 F 
ATOM     95  C   UNL A   1      50.341  27.199  29.530  1.00  0.00     0.059 A 
ATOM     96  C   UNL A   1      49.719  26.325  31.710  1.00  0.00     0.059 A 
ATOM     97  F   UNL A   1      47.469  26.347  32.372  1.00  0.00    -0.206 F 
ATOM     98  C   UNL A   1      50.687  26.603  30.746  1.00  0.00     0.060 A 
BRANCH  98  99
ATOM     99  S   UNL A   1      52.425  26.232  31.067  1.00  0.00     0.124 S 
ATOM    100  O   UNL A   1      52.326  24.972  31.796  1.00  0.00    -0.237 OA
ATOM    101  O   UNL A   1      52.982  26.143  29.720  1.00  0.00    -0.237 OA
ATOM    102  O   UNL A   1      52.876  27.379  31.850  1.00  0.00    -0.744 OA
ENDBRANCH  98  99
ENDBRANCH  66  91
ENDBRANCH  40  41
ENDBRANCH  32  35
ENDBRANCH  30  31
ENDBRANCH  29  30
ENDBRANCH  28  29
ENDBRANCH   1  28
TORSDOF 19
ENDMDL
MODEL 2
REMARK VINA RESULT:     -11.5      1.277      2.096
REMARK SMILES O=C(CSc1nc(O)cc(=O)[nH]1)Nc1cccc(C(=O)NCCCCNC(=O)c2ccc(-c3c4nc(c(-c5c(F)cc(S(=O)(=O)[O-])cc5F)c5ccc([nH]5)c(-c5c(F)cc(S(=O)(=O)[O-])cc5F)c5nc(c(-c6c(F)cc(S(=O)(=O)[O-])cc6F)c6ccc3[nH]6)C=C5)C=C4)cc2)c1
REMARK SMILES IDX 22 1 21 2 19 3 20 4 18 6 14 7 15 8 95 9 16 10 17 11 13 12
REMARK SMILES IDX 1 13 2 14 3 16 4 17 5 18 6 19 12 20 7 21 10 22 9 24 11 25
REMARK SMILES IDX 8 26 23 28 24 29 25 30 26 31 27 32 28 34 29 35 30 36 94 37
REMARK SMILES IDX 31 38 93 39 32 40 33 41 34 42 87 43 35 44 92 45 86 46 88 47
REMARK SMILES IDX 36 48 91 49 85 50 84 51 37 53 71 54 50 55 70 56 51 57 54 58
REMARK SMILES IDX 69 59 89 60 52 61 53 62 68 64 90 65 55 66 38 67 39 68 48 69
REMARK SMILES IDX 40 70 41 71 47 72 49 73 42 74 43 75 44 76 45 77 46 78 72 79
REMARK SMILES IDX 73 80 82 81 74 82 75 83 81 84 83 85 76 86 77 87 78 88 79 89
REMARK SMILES IDX 80 90 56 91 57 92 66 93 58 94 59 95 65 96 67 97 60 98 61 99
REMARK SMILES IDX 62 100 63 101 64 102
REMARK H PARENT 21 5 13 15 12 23 8 27 26 33 88 52 54 63
REMARK Flexibility Score: inf
ROOT
ATOM      1  C   UNL A   1      33.770  29.023  23.170  1.00  0.00     0.116 C 
ENDROOT
BRANCH   1   2
ATOM      2  N   UNL A   1      33.844  28.054  22.084  1.00  0.00    -0.352 N 
ATOM      3  C   UNL A   1      33.046  26.960  21.814  1.00  0.00     0.251 C 
ATOM      4  O   UNL A   1      33.292  26.243  20.847  1.00  0.00    -0.269 OA
ATOM      5  H   UNL A   1      34.578  28.201  21.444  1.00  0.00     0.163 HD
BRANCH   3   6
ATOM      6  C   UNL A   1      31.936  26.587  22.728  1.00  0.00     0.041 A 
ATOM      7  C   UNL A   1      30.884  24.922  24.124  1.00  0.00     0.041 A 
ATOM      8  C   UNL A   1      29.683  25.638  24.051  1.00  0.00     0.026 A 
ATOM      9  C   UNL A   1      32.032  25.474  23.565  1.00  0.00     0.040 A 
ATOM     10  C   UNL A   1      29.624  26.853  23.363  1.00  0.00     0.003 A 
ATOM     11  C   UNL A   1      30.743  27.312  22.669  1.00  0.00     0.014 A 
BRANCH   7  12
ATOM     12  N   UNL A   1      30.842  23.606  24.631  1.00  0.00    -0.325 N 
ATOM     13  O   UNL A   1      31.938  23.828  26.676  1.00  0.00    -0.274 OA
ATOM     14  C   UNL A   1      31.431  23.135  25.798  1.00  0.00     0.234 C 
ATOM     15  H   UNL A   1      30.340  22.948  24.099  1.00  0.00     0.169 HD
BRANCH  14  16
ATOM     16  C   UNL A   1      31.528  21.618  25.877  1.00  0.00     0.178 C 
BRANCH  16  17
ATOM     17  S   UNL A   1      32.223  20.882  24.366  1.00  0.00    -0.078 SA
BRANCH  17  18
ATOM     18  C   UNL A   1      33.902  21.022  24.779  1.00  0.00     0.172 A 
ATOM     19  N   UNL A   1      34.703  20.015  24.746  1.00  0.00    -0.189 NA
ATOM     20  N   UNL A   1      34.248  22.287  25.122  1.00  0.00    -0.301 N 
ATOM     21  C   UNL A   1      35.998  20.280  25.093  1.00  0.00     0.218 A 
ATOM     22  C   UNL A   1      35.528  22.602  25.452  1.00  0.00     0.255 A 
ATOM     23  H   UNL A   1      33.560  22.989  25.134  1.00  0.00     0.172 HD
ATOM     24  C   UNL A   1      36.472  21.482  25.431  1.00  0.00     0.139 A 
ATOM     25  O   UNL A   1      35.870  23.740  25.757  1.00  0.00    -0.269 OA
BRANCH  21  26
ATOM     26  O   UNL A   1      36.843  19.203  25.082  1.00  0.00    -0.493 OA
ATOM     27  H   UNL A   1      36.727  18.522  24.449  1.00  0.00     0.295 HD
ENDBRANCH  21  26
ENDBRANCH  17  18
ENDBRANCH  16  17
ENDBRANCH  14  16
ENDBRANCH   7  12
ENDBRANCH   3   6
ENDBRANCH   1   2
BRANCH   1  28
ATOM     28  C   UNL A   1      34.114  28.468  24.545  1.00  0.00     0.023 C 
BRANCH  28  29
ATOM     29  C   UNL A   1      33.025  28.572  25.606  1.00  0.00     0.023 C 
BRANCH  29  30
ATOM     30  C   UNL A   1      33.504  28.682  27.048  1.00  0.00     0.116 C 
BRANCH  30  31
ATOM     31  N   UNL A   1      33.488  30.040  27.574  1.00  0.00    -0.352 N 
ATOM     32  C   UNL A   1      34.482  30.749  28.212  1.00  0.00     0.251 C 
ATOM     33  H   UNL A   1      32.638  30.524  27.456  1.00  0.00     0.163 HD
ATOM     34  O   UNL A   1      34.246  31.863  28.663  1.00  0.00    -0.269 OA
BRANCH  32  35
ATOM     35  C   UNL A   1      35.823  30.144  28.390  1.00  0.00     0.039 A 
ATOM     36  C   UNL A   1      36.731  30.191  27.329  1.00  0.00     0.014 A 
ATOM     37  C   UNL A   1      36.197  29.567  29.606  1.00  0.00     0.014 A 
ATOM     38  C   UNL A   1      38.044  29.753  27.521  1.00  0.00     0.010 A 
ATOM     39  C   UNL A   1      37.525  29.209  29.820  1.00  0.00     0.010 A 
ATOM     40  C   UNL A   1      38.466  29.309  28.785  1.00  0.00    -0.014 A 
BRANCH  40  41
ATOM     41  C   UNL A   1      39.888  28.968  29.054  1.00  0.00     0.031 A 
ATOM     42  C   UNL A   1      40.821  30.004  29.618  1.00  0.00     0.074 A 
ATOM     43  C   UNL A   1      40.359  27.753  28.709  1.00  0.00     0.049 A 
ATOM     44  N   UNL A   1      42.111  29.928  29.828  1.00  0.00    -0.248 NA
ATOM     45  C   UNL A   1      40.234  31.308  29.961  1.00  0.00     0.031 C 
ATOM     46  C   UNL A   1      39.570  26.678  28.102  1.00  0.00     0.029 A 
ATOM     47  N   UNL A   1      41.621  27.220  28.805  1.00  0.00    -0.354 N 
ATOM     48  C   UNL A   1      42.491  31.176  30.307  1.00  0.00     0.074 A 
ATOM     49  C   UNL A   1      41.305  32.005  30.309  1.00  0.00     0.031 C 
ATOM     50  C   UNL A   1      40.359  25.610  27.902  1.00  0.00     0.029 A 
ATOM     51  C   UNL A   1      41.716  25.933  28.329  1.00  0.00     0.049 A 
ATOM     52  H   UNL A   1      42.387  27.714  29.180  1.00  0.00     0.167 HD
ATOM     53  C   UNL A   1      43.712  31.588  30.726  1.00  0.00     0.037 A 
ATOM     54  C   UNL A   1      42.777  25.107  28.241  1.00  0.00     0.037 A 
ATOM     55  C   UNL A   1      44.882  30.750  30.751  1.00  0.00     0.049 A 
ATOM     56  C   UNL A   1      44.120  25.580  28.728  1.00  0.00     0.074 A 
ATOM     57  C   UNL A   1      46.149  31.055  31.218  1.00  0.00     0.029 A 
ATOM     58  N   UNL A   1      44.930  29.442  30.291  1.00  0.00    -0.354 N 
ATOM     59  N   UNL A   1      44.448  26.745  29.233  1.00  0.00    -0.248 NA
ATOM     60  C   UNL A   1      45.235  24.627  28.635  1.00  0.00     0.031 C 
ATOM     61  C   UNL A   1      46.971  29.942  31.009  1.00  0.00     0.029 A 
ATOM     62  C   UNL A   1      46.207  28.931  30.449  1.00  0.00     0.049 A 
ATOM     63  H   UNL A   1      44.168  28.951  29.908  1.00  0.00     0.167 HD
ATOM     64  C   UNL A   1      45.801  26.658  29.543  1.00  0.00     0.074 A 
ATOM     65  C   UNL A   1      46.227  25.322  29.175  1.00  0.00     0.031 C 
ATOM     66  C   UNL A   1      46.615  27.596  30.084  1.00  0.00     0.037 A 
BRANCH  53  67
ATOM     67  C   UNL A   1      43.834  33.009  31.202  1.00  0.00     0.058 A 
ATOM     68  C   UNL A   1      43.528  33.371  32.523  1.00  0.00     0.135 A 
ATOM     69  C   UNL A   1      44.270  34.020  30.330  1.00  0.00     0.135 A 
ATOM     70  F   UNL A   1      43.092  32.447  33.394  1.00  0.00    -0.206 F 
ATOM     71  C   UNL A   1      43.611  34.691  32.954  1.00  0.00     0.059 A 
ATOM     72  C   UNL A   1      44.388  35.344  30.747  1.00  0.00     0.059 A 
ATOM     73  F   UNL A   1      44.579  33.729  29.056  1.00  0.00    -0.206 F 
ATOM     74  C   UNL A   1      44.036  35.672  32.057  1.00  0.00     0.060 A 
BRANCH  74  75
ATOM     75  S   UNL A   1      44.124  37.382  32.625  1.00  0.00     0.124 S 
ATOM     76  O   UNL A   1      45.485  37.444  33.148  1.00  0.00    -0.237 OA
ATOM     77  O   UNL A   1      43.884  38.134  31.397  1.00  0.00    -0.237 OA
ATOM     78  O   UNL A   1      43.062  37.464  33.622  1.00  0.00    -0.744 OA
ENDBRANCH  74  75
ENDBRANCH  53  67
BRANCH  54  79
ATOM     79  C   UNL A   1      42.603  23.734  27.699  1.00  0.00     0.058 A 
ATOM     80  C   UNL A   1      42.639  23.499  26.316  1.00  0.00     0.135 A 
ATOM     81  C   UNL A   1      42.424  22.630  28.545  1.00  0.00     0.135 A 
ATOM     82  F   UNL A   1      42.801  24.525  25.467  1.00  0.00    -0.206 F 
ATOM     83  C   UNL A   1      42.496  22.220  25.790  1.00  0.00     0.059 A 
ATOM     84  C   UNL A   1      42.301  21.338  28.044  1.00  0.00     0.059 A 
ATOM     85  F   UNL A   1      42.398  22.800  29.876  1.00  0.00    -0.206 F 
ATOM     86  C   UNL A   1      42.331  21.144  26.663  1.00  0.00     0.060 A 
BRANCH  86  87
ATOM     87  S   UNL A   1      42.211  19.479  25.973  1.00  0.00     0.124 S 
ATOM     88  O   UNL A   1      43.109  19.571  24.827  1.00  0.00    -0.237 OA
ATOM     89  O   UNL A   1      42.674  18.652  27.082  1.00  0.00    -0.237 OA
ATOM     90  O   UNL A   1      40.792  19.350  25.656  1.00  0.00    -0.744 OA
ENDBRANCH  86  87
ENDBRANCH  54  79
BRANCH  66  91
ATOM     91  C   UNL A   1      48.044  27.209  30.340  1.00  0.00     0.058 A 
ATOM     92  C   UNL A   1      49.045  27.410  29.379  1.00  0.00     0.135 A 
ATOM     93  C   UNL A   1      48.423  26.678  31.584  1.00  0.00     0.135 A 
ATOM     94  F   UNL A   1      48.733  27.906  28.171  1.00  0.00    -0.206 F 
ATOM     95  C   UNL A   1      50.373  27.083  29.634  1.00  0.00     0.059 A 
ATOM     96  C   UNL A   1      49.748  26.366  31.870  1.00  0.00     0.059 A 
ATOM     97  F   UNL A   1      47.503  26.475  32.540  1.00  0.00    -0.206 F 
ATOM     98  C   UNL A   1      50.715  26.562  30.885  1.00  0.00     0.060 A 
BRANCH  98  99
ATOM     99  S   UNL A   1      52.448  26.180  31.220  1.00  0.00     0.124 S 
ATOM    100  O   UNL A   1      52.341  24.874  31.863  1.00  0.00    -0.237 OA
ATOM    101  O   UNL A   1      53.035  26.182  29.884  1.00  0.00    -0.237 OA
ATOM    102  O   UNL A   1      52.873  27.274  32.088  1.00  0.00    -0.744 OA
ENDBRANCH  98  99
ENDBRANCH  66  91
ENDBRANCH  40  41
ENDBRANCH  32  35
ENDBRANCH  30  31
ENDBRANCH  29  30
ENDBRANCH  28  29
ENDBRANCH   1  28
TORSDOF 19
ENDMDL
MODEL 3
REMARK VINA RESULT:     -11.3      3.549      9.878
REMARK SMILES O=C(CSc1nc(O)cc(=O)[nH]1)Nc1cccc(C(=O)NCCCCNC(=O)c2ccc(-c3c4nc(c(-c5c(F)cc(S(=O)(=O)[O-])cc5F)c5ccc([nH]5)c(-c5c(F)cc(S(=O)(=O)[O-])cc5F)c5nc(c(-c6c(F)cc(S(=O)(=O)[O-])cc6F)c6ccc3[nH]6)C=C5)C=C4)cc2)c1
REMARK SMILES IDX 22 1 21 2 19 3 20 4 18 6 14 7 15 8 95 9 16 10 17 11 13 12
REMARK SMILES IDX 1 13 2 14 3 16 4 17 5 18 6 19 12 20 7 21 10 22 9 24 11 25
REMARK SMILES IDX 8 26 23 28 24 29 25 30 26 31 27 32 28 34 29 35 30 36 94 37
REMARK SMILES IDX 31 38 93 39 32 40 33 41 34 42 87 43 35 44 92 45 86 46 88 47
REMARK SMILES IDX 36 48 91 49 85 50 84 51 37 53 71 54 50 55 70 56 51 57 54 58
REMARK SMILES IDX 69 59 89 60 52 61 53 62 68 64 90 65 55 66 38 67 39 68 48 69
REMARK SMILES IDX 40 70 41 71 47 72 49 73 42 74 43 75 44 76 45 77 46 78 72 79
REMARK SMILES IDX 73 80 82 81 74 82 75 83 81 84 83 85 76 86 77 87 78 88 79 89
REMARK SMILES IDX 80 90 56 91 57 92 66 93 58 94 59 95 65 96 67 97 60 98 61 99
REMARK SMILES IDX 62 100 63 101 64 102
REMARK H PARENT 21 5 13 15 12 23 8 27 26 33 88 52 54 63
REMARK Flexibility Score: inf
ROOT
ATOM      1  C   UNL A   1      34.202  24.322  22.930  1.00  0.00     0.116 C 
ENDROOT
BRANCH   1   2
ATOM      2  N   UNL A   1      33.528  23.060  22.648  1.00  0.00    -0.352 N 
ATOM      3  C   UNL A   1      32.303  22.593  23.079  1.00  0.00     0.251 C 
ATOM      4  O   UNL A   1      31.919  21.475  22.743  1.00  0.00    -0.269 OA
ATOM      5  H   UNL A   1      34.024  22.446  22.060  1.00  0.00     0.163 HD
BRANCH   3   6
ATOM      6  C   UNL A   1      31.472  23.392  24.017  1.00  0.00     0.041 A 
ATOM      7  C   UNL A   1      30.162  25.376  24.434  1.00  0.00     0.041 A 
ATOM      8  C   UNL A   1      30.319  25.174  25.811  1.00  0.00     0.026 A 
ATOM      9  C   UNL A   1      30.635  24.408  23.554  1.00  0.00     0.040 A 
ATOM     10  C   UNL A   1      31.005  24.053  26.289  1.00  0.00     0.003 A 
ATOM     11  C   UNL A   1      31.614  23.178  25.390  1.00  0.00     0.014 A 
BRANCH   7  12
ATOM     12  N   UNL A   1      29.664  26.623  23.999  1.00  0.00    -0.325 N 
ATOM     13  O   UNL A   1      27.364  26.355  24.258  1.00  0.00    -0.274 OA
ATOM     14  C   UNL A   1      28.333  26.993  23.858  1.00  0.00     0.234 C 
ATOM     15  H   UNL A   1      30.335  27.305  23.770  1.00  0.00     0.169 HD
BRANCH  14  16
ATOM     16  C   UNL A   1      28.123  28.249  23.022  1.00  0.00     0.178 C 
BRANCH  16  17
ATOM     17  S   UNL A   1      29.673  29.147  22.707  1.00  0.00    -0.078 SA
BRANCH  17  18
ATOM     18  C   UNL A   1      28.986  30.581  22.015  1.00  0.00     0.172 A 
ATOM     19  N   UNL A   1      28.376  30.572  20.882  1.00  0.00    -0.189 NA
ATOM     20  N   UNL A   1      29.166  31.673  22.798  1.00  0.00    -0.301 N 
ATOM     21  C   UNL A   1      27.884  31.778  20.467  1.00  0.00     0.218 A 
ATOM     22  C   UNL A   1      28.674  32.887  22.439  1.00  0.00     0.255 A 
ATOM     23  H   UNL A   1      29.662  31.585  23.643  1.00  0.00     0.172 HD
ATOM     24  C   UNL A   1      27.975  32.921  21.151  1.00  0.00     0.139 A 
ATOM     25  O   UNL A   1      28.814  33.889  23.133  1.00  0.00    -0.269 OA
BRANCH  21  26
ATOM     26  O   UNL A   1      27.258  31.772  19.249  1.00  0.00    -0.493 OA
ATOM     27  H   UNL A   1      26.547  31.181  19.091  1.00  0.00     0.295 HD
ENDBRANCH  21  26
ENDBRANCH  17  18
ENDBRANCH  16  17
ENDBRANCH  14  16
ENDBRANCH   7  12
ENDBRANCH   3   6
ENDBRANCH   1   2
BRANCH   1  28
ATOM     28  C   UNL A   1      34.896  24.386  24.284  1.00  0.00     0.023 C 
BRANCH  28  29
ATOM     29  C   UNL A   1      35.995  23.359  24.527  1.00  0.00     0.023 C 
BRANCH  29  30
ATOM     30  C   UNL A   1      36.604  23.349  25.924  1.00  0.00     0.116 C 
BRANCH  30  31
ATOM     31  N   UNL A   1      37.722  22.428  26.074  1.00  0.00    -0.352 N 
ATOM     32  C   UNL A   1      39.023  22.676  26.454  1.00  0.00     0.251 C 
ATOM     33  H   UNL A   1      37.516  21.486  25.875  1.00  0.00     0.163 HD
ATOM     34  O   UNL A   1      39.848  21.770  26.437  1.00  0.00    -0.269 OA
BRANCH  32  35
ATOM     35  C   UNL A   1      39.432  24.047  26.837  1.00  0.00     0.039 A 
ATOM     36  C   UNL A   1      39.289  24.446  28.169  1.00  0.00     0.014 A 
ATOM     37  C   UNL A   1      39.987  24.922  25.901  1.00  0.00     0.014 A 
ATOM     38  C   UNL A   1      39.796  25.682  28.581  1.00  0.00     0.010 A 
ATOM     39  C   UNL A   1      40.565  26.115  26.328  1.00  0.00     0.010 A 
ATOM     40  C   UNL A   1      40.487  26.503  27.674  1.00  0.00    -0.014 A 
BRANCH  40  41
ATOM     41  C   UNL A   1      41.156  27.755  28.113  1.00  0.00     0.031 A 
ATOM     42  C   UNL A   1      42.652  27.887  28.024  1.00  0.00     0.074 A 
ATOM     43  C   UNL A   1      40.426  28.740  28.674  1.00  0.00     0.049 A 
ATOM     44  N   UNL A   1      43.423  28.856  28.447  1.00  0.00    -0.248 NA
ATOM     45  C   UNL A   1      43.380  26.766  27.408  1.00  0.00     0.031 C 
ATOM     46  C   UNL A   1      38.974  28.712  28.870  1.00  0.00     0.029 A 
ATOM     47  N   UNL A   1      40.805  29.952  29.197  1.00  0.00    -0.354 N 
ATOM     48  C   UNL A   1      44.724  28.454  28.167  1.00  0.00     0.074 A 
ATOM     49  C   UNL A   1      44.640  27.133  27.583  1.00  0.00     0.031 C 
ATOM     50  C   UNL A   1      38.585  29.861  29.448  1.00  0.00     0.029 A 
ATOM     51  C   UNL A   1      39.758  30.690  29.698  1.00  0.00     0.049 A 
ATOM     52  H   UNL A   1      41.739  30.263  29.212  1.00  0.00     0.167 HD
ATOM     53  C   UNL A   1      45.881  29.133  28.357  1.00  0.00     0.037 A 
ATOM     54  C   UNL A   1      39.745  31.897  30.298  1.00  0.00     0.037 A 
ATOM     55  C   UNL A   1      45.957  30.461  28.909  1.00  0.00     0.049 A 
ATOM     56  C   UNL A   1      41.040  32.639  30.485  1.00  0.00     0.074 A 
ATOM     57  C   UNL A   1      47.075  31.257  29.083  1.00  0.00     0.029 A 
ATOM     58  N   UNL A   1      44.872  31.188  29.375  1.00  0.00    -0.354 N 
ATOM     59  N   UNL A   1      42.255  32.269  30.159  1.00  0.00    -0.248 NA
ATOM     60  C   UNL A   1      40.963  33.963  31.118  1.00  0.00     0.031 C 
ATOM     61  C   UNL A   1      46.669  32.454  29.685  1.00  0.00     0.029 A 
ATOM     62  C   UNL A   1      45.294  32.418  29.850  1.00  0.00     0.049 A 
ATOM     63  H   UNL A   1      43.938  30.875  29.369  1.00  0.00     0.167 HD
ATOM     64  C   UNL A   1      43.085  33.324  30.524  1.00  0.00     0.074 A 
ATOM     65  C   UNL A   1      42.231  34.350  31.087  1.00  0.00     0.031 C 
ATOM     66  C   UNL A   1      44.430  33.433  30.402  1.00  0.00     0.037 A 
BRANCH  53  67
ATOM     67  C   UNL A   1      47.157  28.448  27.954  1.00  0.00     0.058 A 
ATOM     68  C   UNL A   1      47.638  28.504  26.636  1.00  0.00     0.135 A 
ATOM     69  C   UNL A   1      47.913  27.732  28.897  1.00  0.00     0.135 A 
ATOM     70  F   UNL A   1      46.946  29.162  25.692  1.00  0.00    -0.206 F 
ATOM     71  C   UNL A   1      48.801  27.844  26.257  1.00  0.00     0.059 A 
ATOM     72  C   UNL A   1      49.097  27.087  28.546  1.00  0.00     0.059 A 
ATOM     73  F   UNL A   1      47.502  27.648  30.172  1.00  0.00    -0.206 F 
ATOM     74  C   UNL A   1      49.521  27.132  27.217  1.00  0.00     0.060 A 
BRANCH  74  75
ATOM     75  S   UNL A   1      51.020  26.267  26.708  1.00  0.00     0.124 S 
ATOM     76  O   UNL A   1      51.028  26.523  25.271  1.00  0.00    -0.237 OA
ATOM     77  O   UNL A   1      52.055  26.951  27.478  1.00  0.00    -0.237 OA
ATOM     78  O   UNL A   1      50.764  24.885  27.099  1.00  0.00    -0.744 OA
ENDBRANCH  74  75
ENDBRANCH  53  67
BRANCH  54  79
ATOM     79  C   UNL A   1      38.455  32.492  30.734  1.00  0.00     0.058 A 
ATOM     80  C   UNL A   1      37.635  33.174  29.822  1.00  0.00     0.135 A 
ATOM     81  C   UNL A   1      38.002  32.371  32.056  1.00  0.00     0.135 A 
ATOM     82  F   UNL A   1      38.030  33.320  28.548  1.00  0.00    -0.206 F 
ATOM     83  C   UNL A   1      36.416  33.722  30.206  1.00  0.00     0.059 A 
ATOM     84  C   UNL A   1      36.777  32.892  32.460  1.00  0.00     0.059 A 
ATOM     85  F   UNL A   1      38.743  31.715  32.963  1.00  0.00    -0.206 F 
ATOM     86  C   UNL A   1      35.993  33.573  31.527  1.00  0.00     0.060 A 
BRANCH  86  87
ATOM     87  S   UNL A   1      34.380  34.232  32.000  1.00  0.00     0.124 S 
ATOM     88  O   UNL A   1      33.799  33.102  32.716  1.00  0.00    -0.237 OA
ATOM     89  O   UNL A   1      34.746  35.385  32.816  1.00  0.00    -0.237 OA
ATOM     90  O   UNL A   1      33.761  34.554  30.718  1.00  0.00    -0.744 OA
ENDBRANCH  86  87
ENDBRANCH  54  79
BRANCH  66  91
ATOM     91  C   UNL A   1      45.064  34.717  30.857  1.00  0.00     0.058 A 
ATOM     92  C   UNL A   1      45.196  35.818  30.000  1.00  0.00     0.135 A 
ATOM     93  C   UNL A   1      45.497  34.862  32.186  1.00  0.00     0.135 A 
ATOM     94  F   UNL A   1      44.805  35.728  28.718  1.00  0.00    -0.206 F 
ATOM     95  C   UNL A   1      45.751  37.017  30.437  1.00  0.00     0.059 A 
ATOM     96  C   UNL A   1      46.033  36.058  32.651  1.00  0.00     0.059 A 
ATOM     97  F   UNL A   1      45.386  33.839  33.048  1.00  0.00    -0.206 F 
ATOM     98  C   UNL A   1      46.166  37.127  31.766  1.00  0.00     0.060 A 
BRANCH  98  99
ATOM     99  S   UNL A   1      46.847  38.700  32.334  1.00  0.00     0.124 S 
ATOM    100  O   UNL A   1      46.905  38.491  33.777  1.00  0.00    -0.237 OA
ATOM    101  O   UNL A   1      48.135  38.752  31.649  1.00  0.00    -0.237 OA
ATOM    102  O   UNL A   1      45.863  39.678  31.879  1.00  0.00    -0.744 OA
ENDBRANCH  98  99
ENDBRANCH  66  91
ENDBRANCH  40  41
ENDBRANCH  32  35
ENDBRANCH  30  31
ENDBRANCH  29  30
ENDBRANCH  28  29
ENDBRANCH   1  28
TORSDOF 19
ENDMDL
