MODEL 1
REMARK VINA RESULT:     -12.6      0.000      0.000
REMARK SMILES C[C@H](Sc1ccccn1)C(=O)N[C@H](C(=O)NCCCCNC(=O)c1ccc(-c2c3nc(c(-c4c(F)cc(S(=O)(=O)[O-])cc4F)c4ccc([nH]4)c(-c4c(F)cc(S(=O)(=O)[O-])cc4F)c4nc(c(-c5c(F)cc(S(=O)(=O)[O-])cc5F)c5ccc2[nH]5)C=C4)C=C3)cc1)c1ccc(F)cc1
REMARK SMILES IDX 18 1 17 2 16 3 14 4 15 5 13 7 12 8 10 9 11 10 2 12 1 13 3 14
REMARK SMILES IDX 4 15 5 16 9 17 6 18 8 19 7 20 90 21 91 22 96 23 92 24 95 25
REMARK SMILES IDX 93 26 94 27 19 28 20 29 21 30 22 31 23 33 24 34 25 35 89 36
REMARK SMILES IDX 26 37 88 38 27 39 28 40 29 41 82 42 30 43 87 44 81 45 83 46
REMARK SMILES IDX 31 47 86 48 80 49 79 50 32 52 66 53 45 54 65 55 46 56 49 57
REMARK SMILES IDX 64 58 84 59 47 60 48 61 63 63 85 64 50 65 33 66 34 67 43 68
REMARK SMILES IDX 35 69 36 70 42 71 44 72 37 73 38 74 39 75 40 76 41 77 67 78
REMARK SMILES IDX 68 79 77 80 69 81 70 82 76 83 78 84 71 85 72 86 73 87 74 88
REMARK SMILES IDX 75 89 51 90 52 91 61 92 53 93 54 94 60 95 62 96 55 97 56 98
REMARK SMILES IDX 57 99 58 100 59 101
REMARK H PARENT 16 6 12 11 21 32 83 51 49 62
REMARK Flexibility Score: inf
ROOT
ATOM      1  C   UNL A   1      35.795  24.458  25.780  1.00  0.00     0.023 C 
ENDROOT
BRANCH   1   2
ATOM      2  C   UNL A   1      34.518  23.696  25.401  1.00  0.00     0.116 C 
BRANCH   2   3
ATOM      3  N   UNL A   1      33.433  23.708  26.361  1.00  0.00    -0.354 N 
ATOM      4  C   UNL A   1      32.285  24.440  26.452  1.00  0.00     0.247 C 
ATOM      5  O   UNL A   1      31.449  24.041  27.274  1.00  0.00    -0.272 OA
ATOM      6  H   UNL A   1      33.546  23.059  27.094  1.00  0.00     0.163 HD
BRANCH   4   7
ATOM      7  C   UNL A   1      31.941  25.646  25.524  1.00  0.00     0.202 C 
BRANCH   7   8
ATOM      8  N   UNL A   1      30.568  25.756  25.036  1.00  0.00    -0.340 N 
ATOM      9  C   UNL A   1      30.054  26.367  23.928  1.00  0.00     0.234 C 
ATOM     10  O   UNL A   1      28.817  26.437  23.894  1.00  0.00    -0.274 OA
ATOM     11  H   UNL A   1      29.898  25.311  25.604  1.00  0.00     0.164 HD
BRANCH   9  12
ATOM     12  C   UNL A   1      30.881  26.908  22.738  1.00  0.00     0.139 C 
ATOM     13  C   UNL A   1      31.966  25.971  22.259  1.00  0.00     0.030 C 
BRANCH  12  14
ATOM     14  S   UNL A   1      31.536  28.577  23.103  1.00  0.00    -0.093 SA
BRANCH  14  15
ATOM     15  C   UNL A   1      30.100  29.634  22.900  1.00  0.00     0.097 A 
ATOM     16  C   UNL A   1      29.659  30.545  23.859  1.00  0.00     0.035 A 
ATOM     17  N   UNL A   1      29.387  29.410  21.775  1.00  0.00    -0.250 NA
ATOM     18  C   UNL A   1      28.487  31.269  23.649  1.00  0.00     0.004 A 
ATOM     19  C   UNL A   1      28.231  30.099  21.609  1.00  0.00     0.112 A 
ATOM     20  C   UNL A   1      27.747  31.035  22.506  1.00  0.00     0.020 A 
ENDBRANCH  14  15
ENDBRANCH  12  14
ENDBRANCH   9  12
ENDBRANCH   7   8
BRANCH   7  21
ATOM     21  C   UNL A   1      32.458  26.912  26.223  1.00  0.00    -0.016 A 
ATOM     22  C   UNL A   1      31.531  27.685  26.955  1.00  0.00     0.009 A 
ATOM     23  C   UNL A   1      33.746  27.440  26.023  1.00  0.00     0.009 A 
ATOM     24  C   UNL A   1      31.862  28.957  27.426  1.00  0.00     0.039 A 
ATOM     25  C   UNL A   1      34.076  28.714  26.498  1.00  0.00     0.039 A 
ATOM     26  C   UNL A   1      33.128  29.466  27.181  1.00  0.00     0.123 A 
ATOM     27  F   UNL A   1      33.434  30.705  27.588  1.00  0.00    -0.207 F 
ENDBRANCH   7  21
ENDBRANCH   4   7
ENDBRANCH   2   3
ENDBRANCH   1   2
BRANCH   1  28
ATOM     28  C   UNL A   1      37.130  23.710  25.804  1.00  0.00     0.023 C 
BRANCH  28  29
ATOM     29  C   UNL A   1      38.221  24.304  26.668  1.00  0.00     0.116 C 
BRANCH  29  30
ATOM     30  N   UNL A   1      39.444  24.487  25.921  1.00  0.00    -0.352 N 
ATOM     31  C   UNL A   1      40.420  25.435  26.107  1.00  0.00     0.251 C 
ATOM     32  H   UNL A   1      39.598  23.852  25.186  1.00  0.00     0.163 HD
ATOM     33  O   UNL A   1      41.262  25.604  25.229  1.00  0.00    -0.269 OA
BRANCH  31  34
ATOM     34  C   UNL A   1      40.459  26.251  27.347  1.00  0.00     0.039 A 
ATOM     35  C   UNL A   1      39.614  25.900  28.404  1.00  0.00     0.014 A 
ATOM     36  C   UNL A   1      41.256  27.398  27.449  1.00  0.00     0.014 A 
ATOM     37  C   UNL A   1      39.553  26.703  29.545  1.00  0.00     0.010 A 
ATOM     38  C   UNL A   1      41.257  28.151  28.621  1.00  0.00     0.010 A 
ATOM     39  C   UNL A   1      40.365  27.842  29.657  1.00  0.00    -0.014 A 
BRANCH  39  40
ATOM     40  C   UNL A   1      40.204  28.779  30.795  1.00  0.00     0.031 A 
ATOM     41  C   UNL A   1      41.092  28.632  32.007  1.00  0.00     0.074 A 
ATOM     42  C   UNL A   1      39.266  29.743  30.749  1.00  0.00     0.049 A 
ATOM     43  N   UNL A   1      41.112  29.335  33.109  1.00  0.00    -0.248 NA
ATOM     44  C   UNL A   1      42.062  27.524  31.989  1.00  0.00     0.031 C 
ATOM     45  C   UNL A   1      38.314  29.945  29.655  1.00  0.00     0.029 A 
ATOM     46  N   UNL A   1      38.960  30.734  31.645  1.00  0.00    -0.354 N 
ATOM     47  C   UNL A   1      42.075  28.743  33.919  1.00  0.00     0.074 A 
ATOM     48  C   UNL A   1      42.575  27.588  33.208  1.00  0.00     0.031 C 
ATOM     49  C   UNL A   1      37.550  31.017  29.932  1.00  0.00     0.029 A 
ATOM     50  C   UNL A   1      37.948  31.564  31.225  1.00  0.00     0.049 A 
ATOM     51  H   UNL A   1      39.422  30.843  32.508  1.00  0.00     0.167 HD
ATOM     52  C   UNL A   1      42.527  29.142  35.132  1.00  0.00     0.037 A 
ATOM     53  C   UNL A   1      37.414  32.652  31.814  1.00  0.00     0.037 A 
ATOM     54  C   UNL A   1      42.065  30.326  35.806  1.00  0.00     0.049 A 
ATOM     55  C   UNL A   1      37.978  33.117  33.129  1.00  0.00     0.074 A 
ATOM     56  C   UNL A   1      42.497  30.862  37.005  1.00  0.00     0.029 A 
ATOM     57  N   UNL A   1      41.069  31.164  35.326  1.00  0.00    -0.354 N 
ATOM     58  N   UNL A   1      38.929  32.577  33.855  1.00  0.00    -0.248 NA
ATOM     59  C   UNL A   1      37.410  34.346  33.697  1.00  0.00     0.031 C 
ATOM     60  C   UNL A   1      41.748  32.016  37.261  1.00  0.00     0.029 A 
ATOM     61  C   UNL A   1      40.870  32.213  36.206  1.00  0.00     0.049 A 
ATOM     62  H   UNL A   1      40.578  31.033  34.484  1.00  0.00     0.167 HD
ATOM     63  C   UNL A   1      39.084  33.409  34.957  1.00  0.00     0.074 A 
ATOM     64  C   UNL A   1      38.143  34.499  34.791  1.00  0.00     0.031 C 
ATOM     65  C   UNL A   1      39.925  33.285  36.014  1.00  0.00     0.037 A 
BRANCH  52  66
ATOM     66  C   UNL A   1      43.585  28.299  35.791  1.00  0.00     0.058 A 
ATOM     67  C   UNL A   1      44.953  28.512  35.550  1.00  0.00     0.135 A 
ATOM     68  C   UNL A   1      43.232  27.267  36.674  1.00  0.00     0.135 A 
ATOM     69  F   UNL A   1      45.347  29.474  34.700  1.00  0.00    -0.206 F 
ATOM     70  C   UNL A   1      45.929  27.709  36.130  1.00  0.00     0.059 A 
ATOM     71  C   UNL A   1      44.194  26.467  37.287  1.00  0.00     0.059 A 
ATOM     72  F   UNL A   1      41.939  27.016  36.940  1.00  0.00    -0.206 F 
ATOM     73  C   UNL A   1      45.539  26.685  36.994  1.00  0.00     0.060 A 
BRANCH  73  74
ATOM     74  S   UNL A   1      46.814  25.640  37.732  1.00  0.00     0.124 S 
ATOM     75  O   UNL A   1      46.092  25.060  38.862  1.00  0.00    -0.237 OA
ATOM     76  O   UNL A   1      47.131  24.716  36.645  1.00  0.00    -0.237 OA
ATOM     77  O   UNL A   1      47.868  26.582  38.077  1.00  0.00    -0.744 OA
ENDBRANCH  73  74
ENDBRANCH  52  66
BRANCH  53  78
ATOM     78  C   UNL A   1      36.324  33.401  31.137  1.00  0.00     0.058 A 
ATOM     79  C   UNL A   1      36.571  34.126  29.962  1.00  0.00     0.135 A 
ATOM     80  C   UNL A   1      35.011  33.385  31.632  1.00  0.00     0.135 A 
ATOM     81  F   UNL A   1      37.811  34.174  29.452  1.00  0.00    -0.206 F 
ATOM     82  C   UNL A   1      35.560  34.822  29.308  1.00  0.00     0.059 A 
ATOM     83  C   UNL A   1      33.979  34.055  30.984  1.00  0.00     0.059 A 
ATOM     84  F   UNL A   1      34.720  32.688  32.742  1.00  0.00    -0.206 F 
ATOM     85  C   UNL A   1      34.264  34.778  29.826  1.00  0.00     0.060 A 
BRANCH  85  86
ATOM     86  S   UNL A   1      32.942  35.633  28.938  1.00  0.00     0.124 S 
ATOM     87  O   UNL A   1      32.423  34.568  28.089  1.00  0.00    -0.237 OA
ATOM     88  O   UNL A   1      32.070  36.066  30.026  1.00  0.00    -0.237 OA
ATOM     89  O   UNL A   1      33.648  36.708  28.246  1.00  0.00    -0.744 OA
ENDBRANCH  85  86
ENDBRANCH  53  78
BRANCH  65  90
ATOM     90  C   UNL A   1      39.871  34.361  37.058  1.00  0.00     0.058 A 
ATOM     91  C   UNL A   1      40.591  35.557  36.912  1.00  0.00     0.135 A 
ATOM     92  C   UNL A   1      39.067  34.210  38.198  1.00  0.00     0.135 A 
ATOM     93  F   UNL A   1      41.377  35.746  35.840  1.00  0.00    -0.206 F 
ATOM     94  C   UNL A   1      40.541  36.555  37.878  1.00  0.00     0.059 A 
ATOM     95  C   UNL A   1      38.983  35.205  39.166  1.00  0.00     0.059 A 
ATOM     96  F   UNL A   1      38.349  33.090  38.376  1.00  0.00    -0.206 F 
ATOM     97  C   UNL A   1      39.736  36.368  39.004  1.00  0.00     0.060 A 
BRANCH  97  98
ATOM     98  S   UNL A   1      39.665  37.674  40.247  1.00  0.00     0.124 S 
ATOM     99  O   UNL A   1      41.079  37.997  40.412  1.00  0.00    -0.237 OA
ATOM    100  O   UNL A   1      38.855  38.694  39.589  1.00  0.00    -0.237 OA
ATOM    101  O   UNL A   1      39.032  37.021  41.389  1.00  0.00    -0.744 OA
ENDBRANCH  97  98
ENDBRANCH  65  90
ENDBRANCH  39  40
ENDBRANCH  31  34
ENDBRANCH  29  30
ENDBRANCH  28  29
ENDBRANCH   1  28
TORSDOF 19
ENDMDL
MODEL 2
REMARK VINA RESULT:     -12.4      2.857      3.611
REMARK SMILES C[C@H](Sc1ccccn1)C(=O)N[C@H](C(=O)NCCCCNC(=O)c1ccc(-c2c3nc(c(-c4c(F)cc(S(=O)(=O)[O-])cc4F)c4ccc([nH]4)c(-c4c(F)cc(S(=O)(=O)[O-])cc4F)c4nc(c(-c5c(F)cc(S(=O)(=O)[O-])cc5F)c5ccc2[nH]5)C=C4)C=C3)cc1)c1ccc(F)cc1
REMARK SMILES IDX 18 1 17 2 16 3 14 4 15 5 13 7 12 8 10 9 11 10 2 12 1 13 3 14
REMARK SMILES IDX 4 15 5 16 9 17 6 18 8 19 7 20 90 21 91 22 96 23 92 24 95 25
REMARK SMILES IDX 93 26 94 27 19 28 20 29 21 30 22 31 23 33 24 34 25 35 89 36
REMARK SMILES IDX 26 37 88 38 27 39 28 40 29 41 82 42 30 43 87 44 81 45 83 46
REMARK SMILES IDX 31 47 86 48 80 49 79 50 32 52 66 53 45 54 65 55 46 56 49 57
REMARK SMILES IDX 64 58 84 59 47 60 48 61 63 63 85 64 50 65 33 66 34 67 43 68
REMARK SMILES IDX 35 69 36 70 42 71 44 72 37 73 38 74 39 75 40 76 41 77 67 78
REMARK SMILES IDX 68 79 77 80 69 81 70 82 76 83 78 84 71 85 72 86 73 87 74 88
REMARK SMILES IDX 75 89 51 90 52 91 61 92 53 93 54 94 60 95 62 96 55 97 56 98
REMARK SMILES IDX 57 99 58 100 59 101
REMARK H PARENT 16 6 12 11 21 32 83 51 49 62
REMARK Flexibility Score: inf
ROOT
ATOM      1  C   UNL A   1      34.598  23.036  25.885  1.00  0.00     0.023 C 
ENDROOT
BRANCH   1   2
ATOM      2  C   UNL A   1      33.176  22.648  25.462  1.00  0.00     0.116 C 
BRANCH   2   3
ATOM      3  N   UNL A   1      32.105  22.948  26.392  1.00  0.00    -0.354 N 
ATOM      4  C   UNL A   1      31.170  23.939  26.438  1.00  0.00     0.247 C 
ATOM      5  O   UNL A   1      30.244  23.777  27.245  1.00  0.00    -0.272 OA
ATOM      6  H   UNL A   1      32.041  22.309  27.139  1.00  0.00     0.163 HD
BRANCH   4   7
ATOM      7  C   UNL A   1      31.151  25.170  25.480  1.00  0.00     0.202 C 
BRANCH   7   8
ATOM      8  N   UNL A   1      29.856  25.609  24.965  1.00  0.00    -0.340 N 
ATOM      9  C   UNL A   1      29.534  26.424  23.917  1.00  0.00     0.234 C 
ATOM     10  O   UNL A   1      28.340  26.748  23.852  1.00  0.00    -0.274 OA
ATOM     11  H   UNL A   1      29.081  25.254  25.458  1.00  0.00     0.164 HD
BRANCH   9  12
ATOM     12  C   UNL A   1      30.515  26.904  22.821  1.00  0.00     0.139 C 
ATOM     13  C   UNL A   1      31.555  25.880  22.427  1.00  0.00     0.030 C 
BRANCH  12  14
ATOM     14  S   UNL A   1      31.273  28.504  23.278  1.00  0.00    -0.093 SA
BRANCH  14  15
ATOM     15  C   UNL A   1      29.983  29.692  22.904  1.00  0.00     0.097 A 
ATOM     16  C   UNL A   1      29.434  30.569  23.839  1.00  0.00     0.035 A 
ATOM     17  N   UNL A   1      29.482  29.608  21.652  1.00  0.00    -0.250 NA
ATOM     18  C   UNL A   1      28.378  31.405  23.478  1.00  0.00     0.004 A 
ATOM     19  C   UNL A   1      28.431  30.404  21.335  1.00  0.00     0.112 A 
ATOM     20  C   UNL A   1      27.854  31.314  22.202  1.00  0.00     0.020 A 
ENDBRANCH  14  15
ENDBRANCH  12  14
ENDBRANCH   9  12
ENDBRANCH   7   8
BRANCH   7  21
ATOM     21  C   UNL A   1      31.961  26.283  26.162  1.00  0.00    -0.016 A 
ATOM     22  C   UNL A   1      31.262  27.204  26.972  1.00  0.00     0.009 A 
ATOM     23  C   UNL A   1      33.312  26.546  25.878  1.00  0.00     0.009 A 
ATOM     24  C   UNL A   1      31.876  28.367  27.440  1.00  0.00     0.039 A 
ATOM     25  C   UNL A   1      33.927  27.712  26.350  1.00  0.00     0.039 A 
ATOM     26  C   UNL A   1      33.200  28.617  27.112  1.00  0.00     0.123 A 
ATOM     27  F   UNL A   1      33.778  29.755  27.518  1.00  0.00    -0.207 F 
ENDBRANCH   7  21
ENDBRANCH   4   7
ENDBRANCH   2   3
ENDBRANCH   1   2
BRANCH   1  28
ATOM     28  C   UNL A   1      35.731  22.945  24.860  1.00  0.00     0.023 C 
BRANCH  28  29
ATOM     29  C   UNL A   1      37.003  23.696  25.192  1.00  0.00     0.116 C 
BRANCH  29  30
ATOM     30  N   UNL A   1      38.092  22.790  25.476  1.00  0.00    -0.352 N 
ATOM     31  C   UNL A   1      39.277  23.058  26.114  1.00  0.00     0.251 C 
ATOM     32  H   UNL A   1      37.968  21.862  25.172  1.00  0.00     0.163 HD
ATOM     33  O   UNL A   1      40.190  22.239  26.045  1.00  0.00    -0.269 OA
BRANCH  31  34
ATOM     34  C   UNL A   1      39.461  24.320  26.874  1.00  0.00     0.039 A 
ATOM     35  C   UNL A   1      40.213  25.346  26.291  1.00  0.00     0.014 A 
ATOM     36  C   UNL A   1      38.973  24.474  28.177  1.00  0.00     0.014 A 
ATOM     37  C   UNL A   1      40.489  26.507  27.017  1.00  0.00     0.010 A 
ATOM     38  C   UNL A   1      39.178  25.667  28.868  1.00  0.00     0.010 A 
ATOM     39  C   UNL A   1      39.984  26.670  28.316  1.00  0.00    -0.014 A 
BRANCH  39  40
ATOM     40  C   UNL A   1      40.390  27.830  29.147  1.00  0.00     0.031 A 
ATOM     41  C   UNL A   1      41.750  27.832  29.800  1.00  0.00     0.074 A 
ATOM     42  C   UNL A   1      39.545  28.863  29.326  1.00  0.00     0.049 A 
ATOM     43  N   UNL A   1      42.298  28.735  30.571  1.00  0.00    -0.248 NA
ATOM     44  C   UNL A   1      42.592  26.642  29.587  1.00  0.00     0.031 C 
ATOM     45  C   UNL A   1      38.185  28.945  28.790  1.00  0.00     0.029 A 
ATOM     46  N   UNL A   1      39.708  30.042  30.005  1.00  0.00    -0.354 N 
ATOM     47  C   UNL A   1      43.531  28.215  30.948  1.00  0.00     0.074 A 
ATOM     48  C   UNL A   1      43.627  26.893  30.373  1.00  0.00     0.031 C 
ATOM     49  C   UNL A   1      37.649  30.128  29.137  1.00  0.00     0.029 A 
ATOM     50  C   UNL A   1      38.619  30.876  29.929  1.00  0.00     0.049 A 
ATOM     51  H   UNL A   1      40.528  30.270  30.501  1.00  0.00     0.167 HD
ATOM     52  C   UNL A   1      44.511  28.797  31.680  1.00  0.00     0.037 A 
ATOM     53  C   UNL A   1      38.435  32.114  30.431  1.00  0.00     0.037 A 
ATOM     54  C   UNL A   1      44.430  30.137  32.200  1.00  0.00     0.049 A 
ATOM     55  C   UNL A   1      39.561  32.768  31.184  1.00  0.00     0.074 A 
ATOM     56  C   UNL A   1      45.386  30.852  32.898  1.00  0.00     0.029 A 
ATOM     57  N   UNL A   1      43.327  30.966  32.063  1.00  0.00    -0.354 N 
ATOM     58  N   UNL A   1      40.743  32.283  31.483  1.00  0.00    -0.248 NA
ATOM     59  C   UNL A   1      39.336  34.142  31.651  1.00  0.00     0.031 C 
ATOM     60  C   UNL A   1      44.852  32.110  33.202  1.00  0.00     0.029 A 
ATOM     61  C   UNL A   1      43.575  32.186  32.666  1.00  0.00     0.049 A 
ATOM     62  H   UNL A   1      42.491  30.724  31.604  1.00  0.00     0.167 HD
ATOM     63  C   UNL A   1      41.410  33.297  32.160  1.00  0.00     0.074 A 
ATOM     64  C   UNL A   1      40.505  34.429  32.207  1.00  0.00     0.031 C 
ATOM     65  C   UNL A   1      42.655  33.295  32.698  1.00  0.00     0.037 A 
BRANCH  52  66
ATOM     66  C   UNL A   1      45.755  27.992  31.942  1.00  0.00     0.058 A 
ATOM     67  C   UNL A   1      45.893  27.204  33.095  1.00  0.00     0.135 A 
ATOM     68  C   UNL A   1      46.822  28.006  31.029  1.00  0.00     0.135 A 
ATOM     69  F   UNL A   1      44.911  27.168  34.011  1.00  0.00    -0.206 F 
ATOM     70  C   UNL A   1      47.058  26.489  33.356  1.00  0.00     0.059 A 
ATOM     71  C   UNL A   1      47.987  27.277  31.256  1.00  0.00     0.059 A 
ATOM     72  F   UNL A   1      46.746  28.743  29.909  1.00  0.00    -0.206 F 
ATOM     73  C   UNL A   1      48.102  26.536  32.432  1.00  0.00     0.060 A 
BRANCH  73  74
ATOM     74  S   UNL A   1      49.615  25.614  32.784  1.00  0.00     0.124 S 
ATOM     75  O   UNL A   1      49.095  24.498  33.570  1.00  0.00    -0.237 OA
ATOM     76  O   UNL A   1      50.094  25.274  31.445  1.00  0.00    -0.237 OA
ATOM     77  O   UNL A   1      50.434  26.570  33.515  1.00  0.00    -0.744 OA
ENDBRANCH  73  74
ENDBRANCH  52  66
BRANCH  53  78
ATOM     78  C   UNL A   1      37.154  32.827  30.191  1.00  0.00     0.058 A 
ATOM     79  C   UNL A   1      36.080  32.698  31.083  1.00  0.00     0.135 A 
ATOM     80  C   UNL A   1      36.987  33.674  29.084  1.00  0.00     0.135 A 
ATOM     81  F   UNL A   1      36.191  31.897  32.154  1.00  0.00    -0.206 F 
ATOM     82  C   UNL A   1      34.879  33.369  30.880  1.00  0.00     0.059 A 
ATOM     83  C   UNL A   1      35.803  34.373  28.872  1.00  0.00     0.059 A 
ATOM     84  F   UNL A   1      37.994  33.847  28.213  1.00  0.00    -0.206 F 
ATOM     85  C   UNL A   1      34.751  34.208  29.772  1.00  0.00     0.060 A 
BRANCH  85  86
ATOM     86  S   UNL A   1      33.210  35.125  29.547  1.00  0.00     0.124 S 
ATOM     87  O   UNL A   1      32.624  35.043  30.879  1.00  0.00    -0.237 OA
ATOM     88  O   UNL A   1      33.691  36.442  29.140  1.00  0.00    -0.237 OA
ATOM     89  O   UNL A   1      32.522  34.369  28.505  1.00  0.00    -0.744 OA
ENDBRANCH  85  86
ENDBRANCH  53  78
BRANCH  65  90
ATOM     90  C   UNL A   1      43.110  34.560  33.367  1.00  0.00     0.058 A 
ATOM     91  C   UNL A   1      43.605  35.642  32.624  1.00  0.00     0.135 A 
ATOM     92  C   UNL A   1      43.020  34.702  34.760  1.00  0.00     0.135 A 
ATOM     93  F   UNL A   1      43.714  35.552  31.288  1.00  0.00    -0.206 F 
ATOM     94  C   UNL A   1      44.025  36.814  33.242  1.00  0.00     0.059 A 
ATOM     95  C   UNL A   1      43.413  35.873  35.399  1.00  0.00     0.059 A 
ATOM     96  F   UNL A   1      42.540  33.699  35.513  1.00  0.00    -0.206 F 
ATOM     97  C   UNL A   1      43.929  36.918  34.632  1.00  0.00     0.060 A 
BRANCH  97  98
ATOM     98  S   UNL A   1      44.464  38.447  35.427  1.00  0.00     0.124 S 
ATOM     99  O   UNL A   1      45.916  38.331  35.336  1.00  0.00    -0.237 OA
ATOM    100  O   UNL A   1      43.856  39.472  34.583  1.00  0.00    -0.237 OA
ATOM    101  O   UNL A   1      43.908  38.341  36.772  1.00  0.00    -0.744 OA
ENDBRANCH  97  98
ENDBRANCH  65  90
ENDBRANCH  39  40
ENDBRANCH  31  34
ENDBRANCH  29  30
ENDBRANCH  28  29
ENDBRANCH   1  28
TORSDOF 19
ENDMDL
MODEL 3
REMARK VINA RESULT:     -12.3      7.028     12.390
REMARK SMILES C[C@H](Sc1ccccn1)C(=O)N[C@H](C(=O)NCCCCNC(=O)c1ccc(-c2c3nc(c(-c4c(F)cc(S(=O)(=O)[O-])cc4F)c4ccc([nH]4)c(-c4c(F)cc(S(=O)(=O)[O-])cc4F)c4nc(c(-c5c(F)cc(S(=O)(=O)[O-])cc5F)c5ccc2[nH]5)C=C4)C=C3)cc1)c1ccc(F)cc1
REMARK SMILES IDX 18 1 17 2 16 3 14 4 15 5 13 7 12 8 10 9 11 10 2 12 1 13 3 14
REMARK SMILES IDX 4 15 5 16 9 17 6 18 8 19 7 20 90 21 91 22 96 23 92 24 95 25
REMARK SMILES IDX 93 26 94 27 19 28 20 29 21 30 22 31 23 33 24 34 25 35 89 36
REMARK SMILES IDX 26 37 88 38 27 39 28 40 29 41 82 42 30 43 87 44 81 45 83 46
REMARK SMILES IDX 31 47 86 48 80 49 79 50 32 52 66 53 45 54 65 55 46 56 49 57
REMARK SMILES IDX 64 58 84 59 47 60 48 61 63 63 85 64 50 65 33 66 34 67 43 68
REMARK SMILES IDX 35 69 36 70 42 71 44 72 37 73 38 74 39 75 40 76 41 77 67 78
REMARK SMILES IDX 68 79 77 80 69 81 70 82 76 83 78 84 71 85 72 86 73 87 74 88
REMARK SMILES IDX 75 89 51 90 52 91 61 92 53 93 54 94 60 95 62 96 55 97 56 98
REMARK SMILES IDX 57 99 58 100 59 101
REMARK H PARENT 16 6 12 11 21 32 83 51 49 62
REMARK Flexibility Score: inf
ROOT
ATOM      1  C   UNL A   1      34.162  27.518  26.093  1.00  0.00     0.023 C 
ENDROOT
BRANCH   1   2
ATOM      2  C   UNL A   1      33.123  27.149  25.027  1.00  0.00     0.116 C 
BRANCH   2   3
ATOM      3  N   UNL A   1      33.621  26.822  23.705  1.00  0.00    -0.354 N 
ATOM      4  C   UNL A   1      33.812  25.639  23.054  1.00  0.00     0.247 C 
ATOM      5  O   UNL A   1      34.036  25.717  21.838  1.00  0.00    -0.272 OA
ATOM      6  H   UNL A   1      33.872  27.611  23.172  1.00  0.00     0.163 HD
BRANCH   4   7
ATOM      7  C   UNL A   1      33.659  24.238  23.723  1.00  0.00     0.202 C 
BRANCH   7   8
ATOM      8  N   UNL A   1      32.958  23.200  22.969  1.00  0.00    -0.340 N 
ATOM      9  C   UNL A   1      32.196  22.145  23.386  1.00  0.00     0.234 C 
ATOM     10  O   UNL A   1      31.890  21.336  22.499  1.00  0.00    -0.274 OA
ATOM     11  H   UNL A   1      33.051  23.275  21.992  1.00  0.00     0.164 HD
BRANCH   9  12
ATOM     12  C   UNL A   1      31.669  21.935  24.825  1.00  0.00     0.139 C 
ATOM     13  C   UNL A   1      30.970  23.139  25.413  1.00  0.00     0.030 C 
BRANCH  12  14
ATOM     14  S   UNL A   1      32.994  21.314  25.923  1.00  0.00    -0.093 SA
BRANCH  14  15
ATOM     15  C   UNL A   1      33.322  19.671  25.282  1.00  0.00     0.097 A 
ATOM     16  C   UNL A   1      34.502  19.306  24.635  1.00  0.00     0.035 A 
ATOM     17  N   UNL A   1      32.282  18.812  25.368  1.00  0.00    -0.250 NA
ATOM     18  C   UNL A   1      34.639  18.027  24.099  1.00  0.00     0.004 A 
ATOM     19  C   UNL A   1      32.425  17.586  24.807  1.00  0.00     0.112 A 
ATOM     20  C   UNL A   1      33.574  17.149  24.174  1.00  0.00     0.020 A 
ENDBRANCH  14  15
ENDBRANCH  12  14
ENDBRANCH   9  12
ENDBRANCH   7   8
BRANCH   7  21
ATOM     21  C   UNL A   1      35.053  23.819  24.213  1.00  0.00    -0.016 A 
ATOM     22  C   UNL A   1      35.812  22.961  23.387  1.00  0.00     0.009 A 
ATOM     23  C   UNL A   1      35.534  24.086  25.507  1.00  0.00     0.009 A 
ATOM     24  C   UNL A   1      36.979  22.355  23.854  1.00  0.00     0.039 A 
ATOM     25  C   UNL A   1      36.707  23.479  25.971  1.00  0.00     0.039 A 
ATOM     26  C   UNL A   1      37.409  22.609  25.147  1.00  0.00     0.123 A 
ATOM     27  F   UNL A   1      38.502  21.992  25.615  1.00  0.00    -0.207 F 
ENDBRANCH   7  21
ENDBRANCH   4   7
ENDBRANCH   2   3
ENDBRANCH   1   2
BRANCH   1  28
ATOM     28  C   UNL A   1      34.053  28.870  26.803  1.00  0.00     0.023 C 
BRANCH  28  29
ATOM     29  C   UNL A   1      35.341  29.454  27.344  1.00  0.00     0.116 C 
BRANCH  29  30
ATOM     30  N   UNL A   1      35.222  29.783  28.746  1.00  0.00    -0.352 N 
ATOM     31  C   UNL A   1      36.188  29.718  29.718  1.00  0.00     0.251 C 
ATOM     32  H   UNL A   1      34.336  30.093  29.041  1.00  0.00     0.163 HD
ATOM     33  O   UNL A   1      35.853  29.790  30.898  1.00  0.00    -0.269 OA
BRANCH  31  34
ATOM     34  C   UNL A   1      37.620  29.558  29.358  1.00  0.00     0.039 A 
ATOM     35  C   UNL A   1      37.982  29.648  28.010  1.00  0.00     0.014 A 
ATOM     36  C   UNL A   1      38.590  29.242  30.316  1.00  0.00     0.014 A 
ATOM     37  C   UNL A   1      39.302  29.405  27.624  1.00  0.00     0.010 A 
ATOM     38  C   UNL A   1      39.922  29.082  29.940  1.00  0.00     0.010 A 
ATOM     39  C   UNL A   1      40.279  29.107  28.586  1.00  0.00    -0.014 A 
BRANCH  39  40
ATOM     40  C   UNL A   1      41.648  28.704  28.177  1.00  0.00     0.031 A 
ATOM     41  C   UNL A   1      42.743  29.740  28.136  1.00  0.00     0.074 A 
ATOM     42  C   UNL A   1      41.902  27.427  27.834  1.00  0.00     0.049 A 
ATOM     43  N   UNL A   1      44.000  29.604  27.801  1.00  0.00    -0.248 NA
ATOM     44  C   UNL A   1      42.366  31.121  28.486  1.00  0.00     0.031 C 
ATOM     45  C   UNL A   1      40.910  26.352  27.782  1.00  0.00     0.029 A 
ATOM     46  N   UNL A   1      43.074  26.818  27.467  1.00  0.00    -0.354 N 
ATOM     47  C   UNL A   1      44.553  30.878  27.878  1.00  0.00     0.074 A 
ATOM     48  C   UNL A   1      43.484  31.784  28.233  1.00  0.00     0.031 C 
ATOM     49  C   UNL A   1      41.522  25.207  27.434  1.00  0.00     0.029 A 
ATOM     50  C   UNL A   1      42.942  25.472  27.225  1.00  0.00     0.049 A 
ATOM     51  H   UNL A   1      43.929  27.299  27.385  1.00  0.00     0.167 HD
ATOM     52  C   UNL A   1      45.842  31.257  27.701  1.00  0.00     0.037 A 
ATOM     53  C   UNL A   1      43.870  24.554  26.887  1.00  0.00     0.037 A 
ATOM     54  C   UNL A   1      46.910  30.339  27.405  1.00  0.00     0.049 A 
ATOM     55  C   UNL A   1      45.306  24.984  26.763  1.00  0.00     0.074 A 
ATOM     56  C   UNL A   1      48.261  30.601  27.270  1.00  0.00     0.029 A 
ATOM     57  N   UNL A   1      46.742  28.976  27.211  1.00  0.00    -0.354 N 
ATOM     58  N   UNL A   1      45.821  26.184  26.895  1.00  0.00    -0.248 NA
ATOM     59  C   UNL A   1      46.289  23.936  26.461  1.00  0.00     0.031 C 
ATOM     60  C   UNL A   1      48.910  29.397  26.974  1.00  0.00     0.029 A 
ATOM     61  C   UNL A   1      47.965  28.382  26.954  1.00  0.00     0.049 A 
ATOM     62  H   UNL A   1      45.881  28.502  27.251  1.00  0.00     0.167 HD
ATOM     63  C   UNL A   1      47.190  26.033  26.708  1.00  0.00     0.074 A 
ATOM     64  C   UNL A   1      47.423  24.622  26.474  1.00  0.00     0.031 C 
ATOM     65  C   UNL A   1      48.167  26.973  26.724  1.00  0.00     0.037 A 
BRANCH  52  66
ATOM     66  C   UNL A   1      46.161  32.720  27.843  1.00  0.00     0.058 A 
ATOM     67  C   UNL A   1      46.673  33.250  29.039  1.00  0.00     0.135 A 
ATOM     68  C   UNL A   1      45.956  33.606  26.773  1.00  0.00     0.135 A 
ATOM     69  F   UNL A   1      46.872  32.452  30.101  1.00  0.00    -0.206 F 
ATOM     70  C   UNL A   1      46.933  34.609  29.183  1.00  0.00     0.059 A 
ATOM     71  C   UNL A   1      46.235  34.966  26.885  1.00  0.00     0.059 A 
ATOM     72  F   UNL A   1      45.467  33.155  25.606  1.00  0.00    -0.206 F 
ATOM     73  C   UNL A   1      46.706  35.460  28.101  1.00  0.00     0.060 A 
BRANCH  73  74
ATOM     74  S   UNL A   1      47.036  37.225  28.301  1.00  0.00     0.124 S 
ATOM     75  O   UNL A   1      48.340  37.201  28.959  1.00  0.00    -0.237 OA
ATOM     76  O   UNL A   1      47.035  37.703  26.919  1.00  0.00    -0.237 OA
ATOM     77  O   UNL A   1      45.927  37.688  29.122  1.00  0.00    -0.744 OA
ENDBRANCH  73  74
ENDBRANCH  52  66
BRANCH  53  78
ATOM     78  C   UNL A   1      43.473  23.135  26.697  1.00  0.00     0.058 A 
ATOM     79  C   UNL A   1      43.451  22.559  25.419  1.00  0.00     0.135 A 
ATOM     80  C   UNL A   1      43.137  22.319  27.789  1.00  0.00     0.135 A 
ATOM     81  F   UNL A   1      43.762  23.300  24.344  1.00  0.00    -0.206 F 
ATOM     82  C   UNL A   1      43.096  21.228  25.225  1.00  0.00     0.059 A 
ATOM     83  C   UNL A   1      42.799  20.980  27.622  1.00  0.00     0.059 A 
ATOM     84  F   UNL A   1      43.163  22.819  29.034  1.00  0.00    -0.206 F 
ATOM     85  C   UNL A   1      42.773  20.445  26.334  1.00  0.00     0.060 A 
BRANCH  85  86
ATOM     86  S   UNL A   1      42.372  18.702  26.082  1.00  0.00     0.124 S 
ATOM     87  O   UNL A   1      40.955  18.773  25.745  1.00  0.00    -0.237 OA
ATOM     88  O   UNL A   1      43.270  18.333  24.992  1.00  0.00    -0.237 OA
ATOM     89  O   UNL A   1      42.686  18.097  27.373  1.00  0.00    -0.744 OA
ENDBRANCH  85  86
ENDBRANCH  53  78
BRANCH  65  90
ATOM     90  C   UNL A   1      49.573  26.499  26.497  1.00  0.00     0.058 A 
ATOM     91  C   UNL A   1      50.110  26.399  25.205  1.00  0.00     0.135 A 
ATOM     92  C   UNL A   1      50.399  26.172  27.583  1.00  0.00     0.135 A 
ATOM     93  F   UNL A   1      49.356  26.697  24.134  1.00  0.00    -0.206 F 
ATOM     94  C   UNL A   1      51.412  25.961  24.993  1.00  0.00     0.059 A 
ATOM     95  C   UNL A   1      51.713  25.753  27.397  1.00  0.00     0.059 A 
ATOM     96  F   UNL A   1      49.935  26.264  28.839  1.00  0.00    -0.206 F 
ATOM     97  C   UNL A   1      52.205  25.636  26.097  1.00  0.00     0.060 A 
BRANCH  97  98
ATOM     98  S   UNL A   1      53.899  25.080  25.816  1.00  0.00     0.124 S 
ATOM     99  O   UNL A   1      54.453  25.139  27.165  1.00  0.00    -0.237 OA
ATOM    100  O   UNL A   1      53.706  23.741  25.267  1.00  0.00    -0.237 OA
ATOM    101  O   UNL A   1      54.426  26.065  24.876  1.00  0.00    -0.744 OA
ENDBRANCH  97  98
ENDBRANCH  65  90
ENDBRANCH  39  40
ENDBRANCH  31  34
ENDBRANCH  29  30
ENDBRANCH  28  29
ENDBRANCH   1  28
TORSDOF 19
ENDMDL
