MODEL 1
REMARK VINA RESULT:     -12.1      0.000      0.000
REMARK SMILES CC(C)n1ccc(C[C@@H](C(=O)NCCCCNC(=O)c2ccc(-c3c4nc(c(-c5c(F)cc(S(=O)(=O)[O-])cc5F)c5ccc([nH]5)c(-c5c(F)cc(S(=O)(=O)[O-])cc5F)c5nc(c(-c6c(F)cc(S(=O)(=O)[O-])cc6F)c6ccc3[nH]6)C=C5)C=C4)cc2)c2cccc(Cl)c2)n1
REMARK SMILES IDX 14 1 13 2 12 3 10 4 11 5 9 7 8 8 7 9 4 10 5 11 93 12 6 13
REMARK SMILES IDX 2 14 1 15 3 16 86 17 87 18 92 19 88 20 90 21 89 22 91 23
REMARK SMILES IDX 15 24 16 25 17 26 18 27 19 29 20 30 21 31 85 32 22 33 84 34
REMARK SMILES IDX 23 35 24 36 25 37 78 38 26 39 83 40 77 41 79 42 27 43 82 44
REMARK SMILES IDX 76 45 75 46 28 48 62 49 41 50 61 51 42 52 45 53 60 54 80 55
REMARK SMILES IDX 43 56 44 57 59 59 81 60 46 61 29 62 30 63 39 64 31 65 32 66
REMARK SMILES IDX 38 67 40 68 33 69 34 70 35 71 36 72 37 73 63 74 64 75 73 76
REMARK SMILES IDX 65 77 66 78 72 79 74 80 67 81 68 82 69 83 70 84 71 85 47 86
REMARK SMILES IDX 48 87 57 88 49 89 50 90 56 91 58 92 51 93 52 94 53 95 54 96
REMARK SMILES IDX 55 97
REMARK H PARENT 12 6 17 28 79 47 45 58
REMARK Flexibility Score: inf
ROOT
ATOM      1  C   UNL A   1      34.116  30.035  26.776  1.00  0.00     0.023 C 
ENDROOT
BRANCH   1   2
ATOM      2  C   UNL A   1      33.380  29.017  25.893  1.00  0.00     0.116 C 
BRANCH   2   3
ATOM      3  N   UNL A   1      33.081  29.606  24.599  1.00  0.00    -0.356 N 
ATOM      4  C   UNL A   1      32.187  29.083  23.699  1.00  0.00     0.227 C 
ATOM      5  O   UNL A   1      32.596  28.895  22.550  1.00  0.00    -0.274 OA
ATOM      6  H   UNL A   1      33.549  30.436  24.350  1.00  0.00     0.163 HD
BRANCH   4   7
ATOM      7  C   UNL A   1      30.728  28.794  24.118  1.00  0.00     0.114 C 
BRANCH   7   8
ATOM      8  C   UNL A   1      30.337  27.359  23.697  1.00  0.00     0.076 C 
BRANCH   8   9
ATOM      9  C   UNL A   1      30.814  26.217  24.534  1.00  0.00     0.064 A 
ATOM     10  N   UNL A   1      31.963  24.541  25.165  1.00  0.00    -0.270 N 
ATOM     11  C   UNL A   1      31.220  24.894  26.261  1.00  0.00     0.109 A 
ATOM     12  N   UNL A   1      31.724  25.334  24.094  1.00  0.00    -0.178 NA
ATOM     13  C   UNL A   1      30.476  25.983  25.889  1.00  0.00     0.045 A 
BRANCH  10  14
ATOM     14  C   UNL A   1      32.940  23.454  25.133  1.00  0.00     0.101 C 
ATOM     15  C   UNL A   1      33.882  23.499  26.337  1.00  0.00     0.033 C 
ATOM     16  C   UNL A   1      32.320  22.062  24.995  1.00  0.00     0.033 C 
ENDBRANCH  10  14
ENDBRANCH   8   9
ENDBRANCH   7   8
BRANCH   7  17
ATOM     17  C   UNL A   1      29.700  29.752  23.437  1.00  0.00    -0.034 A 
ATOM     18  C   UNL A   1      28.842  29.246  22.438  1.00  0.00     0.004 A 
ATOM     19  C   UNL A   1      29.647  31.136  23.683  1.00  0.00     0.025 A 
ATOM     20  C   UNL A   1      28.055  30.096  21.649  1.00  0.00     0.002 A 
ATOM     21  C   UNL A   1      28.857  31.982  22.896  1.00  0.00     0.041 A 
ATOM     22  C   UNL A   1      28.078  31.470  21.866  1.00  0.00     0.020 A 
ATOM     23  Cl  UNL A   1      28.886  33.683  23.169  1.00  0.00    -0.084 Cl
ENDBRANCH   7  17
ENDBRANCH   4   7
ENDBRANCH   2   3
ENDBRANCH   1   2
BRANCH   1  24
ATOM     24  C   UNL A   1      33.278  31.060  27.544  1.00  0.00     0.023 C 
BRANCH  24  25
ATOM     25  C   UNL A   1      34.020  32.340  27.894  1.00  0.00     0.116 C 
BRANCH  25  26
ATOM     26  N   UNL A   1      34.099  32.587  29.338  1.00  0.00    -0.352 N 
ATOM     27  C   UNL A   1      35.004  32.055  30.246  1.00  0.00     0.251 C 
ATOM     28  H   UNL A   1      33.429  33.206  29.708  1.00  0.00     0.163 HD
ATOM     29  O   UNL A   1      34.835  32.134  31.447  1.00  0.00    -0.269 OA
BRANCH  27  30
ATOM     30  C   UNL A   1      36.184  31.384  29.675  1.00  0.00     0.039 A 
ATOM     31  C   UNL A   1      37.305  32.125  29.301  1.00  0.00     0.014 A 
ATOM     32  C   UNL A   1      36.234  30.002  29.811  1.00  0.00     0.014 A 
ATOM     33  C   UNL A   1      38.535  31.472  29.204  1.00  0.00     0.010 A 
ATOM     34  C   UNL A   1      37.473  29.398  29.852  1.00  0.00     0.010 A 
ATOM     35  C   UNL A   1      38.638  30.114  29.547  1.00  0.00    -0.014 A 
BRANCH  35  36
ATOM     36  C   UNL A   1      39.960  29.490  29.718  1.00  0.00     0.031 A 
ATOM     37  C   UNL A   1      40.416  29.183  31.118  1.00  0.00     0.074 A 
ATOM     38  C   UNL A   1      40.684  28.967  28.704  1.00  0.00     0.049 A 
ATOM     39  N   UNL A   1      41.446  29.653  31.748  1.00  0.00    -0.248 NA
ATOM     40  C   UNL A   1      39.605  28.262  31.931  1.00  0.00     0.031 C 
ATOM     41  C   UNL A   1      40.338  28.850  27.282  1.00  0.00     0.029 A 
ATOM     42  N   UNL A   1      41.876  28.310  28.776  1.00  0.00    -0.354 N 
ATOM     43  C   UNL A   1      41.523  28.971  32.966  1.00  0.00     0.074 A 
ATOM     44  C   UNL A   1      40.301  28.213  33.069  1.00  0.00     0.031 C 
ATOM     45  C   UNL A   1      41.159  27.958  26.688  1.00  0.00     0.029 A 
ATOM     46  C   UNL A   1      42.210  27.617  27.624  1.00  0.00     0.049 A 
ATOM     47  H   UNL A   1      42.451  28.327  29.576  1.00  0.00     0.167 HD
ATOM     48  C   UNL A   1      42.655  28.958  33.732  1.00  0.00     0.037 A 
ATOM     49  C   UNL A   1      43.281  26.819  27.428  1.00  0.00     0.037 A 
ATOM     50  C   UNL A   1      43.595  29.962  33.306  1.00  0.00     0.049 A 
ATOM     51  C   UNL A   1      44.318  27.228  28.405  1.00  0.00     0.074 A 
ATOM     52  C   UNL A   1      43.579  31.339  33.205  1.00  0.00     0.029 A 
ATOM     53  N   UNL A   1      44.686  29.557  32.575  1.00  0.00    -0.354 N 
ATOM     54  N   UNL A   1      44.905  28.395  28.397  1.00  0.00    -0.248 NA
ATOM     55  C   UNL A   1      44.432  26.484  29.648  1.00  0.00     0.031 C 
ATOM     56  C   UNL A   1      44.328  31.630  32.026  1.00  0.00     0.029 A 
ATOM     57  C   UNL A   1      44.785  30.415  31.510  1.00  0.00     0.049 A 
ATOM     58  H   UNL A   1      45.280  28.799  32.778  1.00  0.00     0.167 HD
ATOM     59  C   UNL A   1      45.098  28.707  29.733  1.00  0.00     0.074 A 
ATOM     60  C   UNL A   1      44.903  27.446  30.444  1.00  0.00     0.031 C 
ATOM     61  C   UNL A   1      45.134  30.004  30.166  1.00  0.00     0.037 A 
BRANCH  48  62
ATOM     62  C   UNL A   1      43.064  27.863  34.697  1.00  0.00     0.058 A 
ATOM     63  C   UNL A   1      43.272  28.168  36.062  1.00  0.00     0.135 A 
ATOM     64  C   UNL A   1      43.527  26.595  34.287  1.00  0.00     0.135 A 
ATOM     65  F   UNL A   1      42.877  29.347  36.569  1.00  0.00    -0.206 F 
ATOM     66  C   UNL A   1      43.957  27.313  36.931  1.00  0.00     0.059 A 
ATOM     67  C   UNL A   1      44.166  25.704  35.149  1.00  0.00     0.059 A 
ATOM     68  F   UNL A   1      43.470  26.203  33.008  1.00  0.00    -0.206 F 
ATOM     69  C   UNL A   1      44.420  26.091  36.456  1.00  0.00     0.060 A 
BRANCH  69  70
ATOM     70  S   UNL A   1      45.424  25.044  37.529  1.00  0.00     0.124 S 
ATOM     71  O   UNL A   1      46.768  25.515  37.214  1.00  0.00    -0.237 OA
ATOM     72  O   UNL A   1      44.921  25.389  38.855  1.00  0.00    -0.237 OA
ATOM     73  O   UNL A   1      45.102  23.695  37.076  1.00  0.00    -0.744 OA
ENDBRANCH  69  70
ENDBRANCH  48  62
BRANCH  49  74
ATOM     74  C   UNL A   1      43.325  25.571  26.635  1.00  0.00     0.058 A 
ATOM     75  C   UNL A   1      44.148  25.450  25.506  1.00  0.00     0.135 A 
ATOM     76  C   UNL A   1      42.745  24.380  27.122  1.00  0.00     0.135 A 
ATOM     77  F   UNL A   1      44.754  26.532  24.995  1.00  0.00    -0.206 F 
ATOM     78  C   UNL A   1      44.419  24.212  24.919  1.00  0.00     0.059 A 
ATOM     79  C   UNL A   1      42.991  23.136  26.548  1.00  0.00     0.059 A 
ATOM     80  F   UNL A   1      41.989  24.383  28.232  1.00  0.00    -0.206 F 
ATOM     81  C   UNL A   1      43.852  23.058  25.460  1.00  0.00     0.060 A 
BRANCH  81  82
ATOM     82  S   UNL A   1      44.348  21.442  24.817  1.00  0.00     0.124 S 
ATOM     83  O   UNL A   1      43.254  20.590  25.273  1.00  0.00    -0.237 OA
ATOM     84  O   UNL A   1      44.408  21.691  23.381  1.00  0.00    -0.237 OA
ATOM     85  O   UNL A   1      45.637  21.204  25.460  1.00  0.00    -0.744 OA
ENDBRANCH  81  82
ENDBRANCH  49  74
BRANCH  61  86
ATOM     86  C   UNL A   1      45.267  31.103  29.140  1.00  0.00     0.058 A 
ATOM     87  C   UNL A   1      46.485  31.488  28.552  1.00  0.00     0.135 A 
ATOM     88  C   UNL A   1      44.099  31.670  28.607  1.00  0.00     0.135 A 
ATOM     89  F   UNL A   1      47.638  30.918  28.920  1.00  0.00    -0.206 F 
ATOM     90  C   UNL A   1      46.544  32.418  27.513  1.00  0.00     0.059 A 
ATOM     91  C   UNL A   1      44.130  32.578  27.550  1.00  0.00     0.059 A 
ATOM     92  F   UNL A   1      42.896  31.297  29.077  1.00  0.00    -0.206 F 
ATOM     93  C   UNL A   1      45.360  32.957  27.014  1.00  0.00     0.060 A 
BRANCH  93  94
ATOM     94  S   UNL A   1      45.436  34.086  25.607  1.00  0.00     0.124 S 
ATOM     95  O   UNL A   1      44.786  33.311  24.556  1.00  0.00    -0.237 OA
ATOM     96  O   UNL A   1      44.693  35.248  26.089  1.00  0.00    -0.237 OA
ATOM     97  O   UNL A   1      46.868  34.308  25.426  1.00  0.00    -0.744 OA
ENDBRANCH  93  94
ENDBRANCH  61  86
ENDBRANCH  35  36
ENDBRANCH  27  30
ENDBRANCH  25  26
ENDBRANCH  24  25
ENDBRANCH   1  24
TORSDOF 18
ENDMDL
MODEL 2
REMARK VINA RESULT:     -11.8      3.249      9.216
REMARK SMILES CC(C)n1ccc(C[C@@H](C(=O)NCCCCNC(=O)c2ccc(-c3c4nc(c(-c5c(F)cc(S(=O)(=O)[O-])cc5F)c5ccc([nH]5)c(-c5c(F)cc(S(=O)(=O)[O-])cc5F)c5nc(c(-c6c(F)cc(S(=O)(=O)[O-])cc6F)c6ccc3[nH]6)C=C5)C=C4)cc2)c2cccc(Cl)c2)n1
REMARK SMILES IDX 14 1 13 2 12 3 10 4 11 5 9 7 8 8 7 9 4 10 5 11 93 12 6 13
REMARK SMILES IDX 2 14 1 15 3 16 86 17 87 18 92 19 88 20 90 21 89 22 91 23
REMARK SMILES IDX 15 24 16 25 17 26 18 27 19 29 20 30 21 31 85 32 22 33 84 34
REMARK SMILES IDX 23 35 24 36 25 37 78 38 26 39 83 40 77 41 79 42 27 43 82 44
REMARK SMILES IDX 76 45 75 46 28 48 62 49 41 50 61 51 42 52 45 53 60 54 80 55
REMARK SMILES IDX 43 56 44 57 59 59 81 60 46 61 29 62 30 63 39 64 31 65 32 66
REMARK SMILES IDX 38 67 40 68 33 69 34 70 35 71 36 72 37 73 63 74 64 75 73 76
REMARK SMILES IDX 65 77 66 78 72 79 74 80 67 81 68 82 69 83 70 84 71 85 47 86
REMARK SMILES IDX 48 87 57 88 49 89 50 90 56 91 58 92 51 93 52 94 53 95 54 96
REMARK SMILES IDX 55 97
REMARK H PARENT 12 6 17 28 79 47 45 58
REMARK Flexibility Score: inf
ROOT
ATOM      1  C   UNL A   1      37.441  22.895  24.952  1.00  0.00     0.023 C 
ENDROOT
BRANCH   1   2
ATOM      2  C   UNL A   1      36.451  23.621  25.874  1.00  0.00     0.116 C 
BRANCH   2   3
ATOM      3  N   UNL A   1      35.629  22.654  26.581  1.00  0.00    -0.356 N 
ATOM      4  C   UNL A   1      34.294  22.823  26.848  1.00  0.00     0.227 C 
ATOM      5  O   UNL A   1      33.938  22.688  28.023  1.00  0.00    -0.274 OA
ATOM      6  H   UNL A   1      36.057  21.822  26.888  1.00  0.00     0.163 HD
BRANCH   4   7
ATOM      7  C   UNL A   1      33.295  23.123  25.708  1.00  0.00     0.114 C 
BRANCH   7   8
ATOM      8  C   UNL A   1      33.785  22.465  24.398  1.00  0.00     0.076 C 
BRANCH   8   9
ATOM      9  C   UNL A   1      33.449  21.030  24.153  1.00  0.00     0.064 A 
ATOM     10  N   UNL A   1      33.520  18.907  24.285  1.00  0.00    -0.270 N 
ATOM     11  C   UNL A   1      32.355  19.182  23.617  1.00  0.00     0.109 A 
ATOM     12  N   UNL A   1      34.209  20.025  24.616  1.00  0.00    -0.178 NA
ATOM     13  C   UNL A   1      32.275  20.547  23.527  1.00  0.00     0.045 A 
BRANCH  10  14
ATOM     14  C   UNL A   1      33.980  17.567  24.645  1.00  0.00     0.101 C 
ATOM     15  C   UNL A   1      33.022  16.879  25.620  1.00  0.00     0.033 C 
ATOM     16  C   UNL A   1      34.261  16.660  23.446  1.00  0.00     0.033 C 
ENDBRANCH  10  14
ENDBRANCH   8   9
ENDBRANCH   7   8
BRANCH   7  17
ATOM     17  C   UNL A   1      33.153  24.649  25.412  1.00  0.00    -0.034 A 
ATOM     18  C   UNL A   1      33.510  25.143  24.140  1.00  0.00     0.004 A 
ATOM     19  C   UNL A   1      32.785  25.598  26.384  1.00  0.00     0.025 A 
ATOM     20  C   UNL A   1      33.606  26.517  23.887  1.00  0.00     0.002 A 
ATOM     21  C   UNL A   1      32.877  26.971  26.127  1.00  0.00     0.041 A 
ATOM     22  C   UNL A   1      33.307  27.434  24.890  1.00  0.00     0.020 A 
ATOM     23  Cl  UNL A   1      32.505  28.103  27.372  1.00  0.00    -0.084 Cl
ENDBRANCH   7  17
ENDBRANCH   4   7
ENDBRANCH   2   3
ENDBRANCH   1   2
BRANCH   1  24
ATOM     24  C   UNL A   1      38.085  21.604  25.462  1.00  0.00     0.023 C 
BRANCH  24  25
ATOM     25  C   UNL A   1      39.401  21.809  26.197  1.00  0.00     0.116 C 
BRANCH  25  26
ATOM     26  N   UNL A   1      40.281  20.636  26.146  1.00  0.00    -0.352 N 
ATOM     27  C   UNL A   1      41.667  20.606  26.203  1.00  0.00     0.251 C 
ATOM     28  H   UNL A   1      39.834  19.763  26.061  1.00  0.00     0.163 HD
ATOM     29  O   UNL A   1      42.305  19.613  25.911  1.00  0.00    -0.269 OA
BRANCH  27  30
ATOM     30  C   UNL A   1      42.330  21.849  26.634  1.00  0.00     0.039 A 
ATOM     31  C   UNL A   1      42.551  22.883  25.725  1.00  0.00     0.014 A 
ATOM     32  C   UNL A   1      42.441  22.045  28.005  1.00  0.00     0.014 A 
ATOM     33  C   UNL A   1      42.744  24.175  26.217  1.00  0.00     0.010 A 
ATOM     34  C   UNL A   1      42.489  23.341  28.473  1.00  0.00     0.010 A 
ATOM     35  C   UNL A   1      42.646  24.423  27.596  1.00  0.00    -0.014 A 
BRANCH  35  36
ATOM     36  C   UNL A   1      42.570  25.804  28.098  1.00  0.00     0.031 A 
ATOM     37  C   UNL A   1      43.640  26.769  27.666  1.00  0.00     0.074 A 
ATOM     38  C   UNL A   1      41.490  26.321  28.724  1.00  0.00     0.049 A 
ATOM     39  N   UNL A   1      44.498  27.399  28.404  1.00  0.00    -0.248 NA
ATOM     40  C   UNL A   1      43.797  27.040  26.228  1.00  0.00     0.031 C 
ATOM     41  C   UNL A   1      40.190  25.695  28.998  1.00  0.00     0.029 A 
ATOM     42  N   UNL A   1      41.302  27.599  29.156  1.00  0.00    -0.354 N 
ATOM     43  C   UNL A   1      45.190  28.276  27.563  1.00  0.00     0.074 A 
ATOM     44  C   UNL A   1      44.795  27.927  26.221  1.00  0.00     0.031 C 
ATOM     45  C   UNL A   1      39.285  26.647  29.307  1.00  0.00     0.029 A 
ATOM     46  C   UNL A   1      39.987  27.904  29.466  1.00  0.00     0.049 A 
ATOM     47  H   UNL A   1      42.036  28.250  29.242  1.00  0.00     0.167 HD
ATOM     48  C   UNL A   1      45.923  29.328  28.038  1.00  0.00     0.037 A 
ATOM     49  C   UNL A   1      39.488  29.102  29.841  1.00  0.00     0.037 A 
ATOM     50  C   UNL A   1      46.148  29.219  29.456  1.00  0.00     0.049 A 
ATOM     51  C   UNL A   1      40.610  29.887  30.406  1.00  0.00     0.074 A 
ATOM     52  C   UNL A   1      46.772  28.304  30.281  1.00  0.00     0.029 A 
ATOM     53  N   UNL A   1      45.399  30.009  30.293  1.00  0.00    -0.354 N 
ATOM     54  N   UNL A   1      41.251  29.560  31.497  1.00  0.00    -0.248 NA
ATOM     55  C   UNL A   1      41.295  30.836  29.545  1.00  0.00     0.031 C 
ATOM     56  C   UNL A   1      45.974  28.270  31.463  1.00  0.00     0.029 A 
ATOM     57  C   UNL A   1      44.940  29.195  31.297  1.00  0.00     0.049 A 
ATOM     58  H   UNL A   1      45.225  30.973  30.191  1.00  0.00     0.167 HD
ATOM     59  C   UNL A   1      42.567  29.927  31.263  1.00  0.00     0.074 A 
ATOM     60  C   UNL A   1      42.507  30.815  30.105  1.00  0.00     0.031 C 
ATOM     61  C   UNL A   1      43.608  29.270  31.858  1.00  0.00     0.037 A 
BRANCH  48  62
ATOM     62  C   UNL A   1      46.211  30.619  27.297  1.00  0.00     0.058 A 
ATOM     63  C   UNL A   1      47.540  31.092  27.198  1.00  0.00     0.135 A 
ATOM     64  C   UNL A   1      45.214  31.544  26.925  1.00  0.00     0.135 A 
ATOM     65  F   UNL A   1      48.575  30.303  27.528  1.00  0.00    -0.206 F 
ATOM     66  C   UNL A   1      47.848  32.406  26.833  1.00  0.00     0.059 A 
ATOM     67  C   UNL A   1      45.500  32.843  26.508  1.00  0.00     0.059 A 
ATOM     68  F   UNL A   1      43.910  31.261  27.044  1.00  0.00    -0.206 F 
ATOM     69  C   UNL A   1      46.816  33.282  26.513  1.00  0.00     0.060 A 
BRANCH  69  70
ATOM     70  S   UNL A   1      47.192  35.013  26.178  1.00  0.00     0.124 S 
ATOM     71  O   UNL A   1      45.893  35.511  25.739  1.00  0.00    -0.237 OA
ATOM     72  O   UNL A   1      47.651  35.487  27.480  1.00  0.00    -0.237 OA
ATOM     73  O   UNL A   1      48.223  34.938  25.147  1.00  0.00    -0.744 OA
ENDBRANCH  69  70
ENDBRANCH  48  62
BRANCH  49  74
ATOM     74  C   UNL A   1      38.170  29.667  29.479  1.00  0.00     0.058 A 
ATOM     75  C   UNL A   1      37.287  30.149  30.455  1.00  0.00     0.135 A 
ATOM     76  C   UNL A   1      37.858  29.979  28.138  1.00  0.00     0.135 A 
ATOM     77  F   UNL A   1      37.525  29.914  31.754  1.00  0.00    -0.206 F 
ATOM     78  C   UNL A   1      36.180  30.935  30.126  1.00  0.00     0.059 A 
ATOM     79  C   UNL A   1      36.755  30.751  27.785  1.00  0.00     0.059 A 
ATOM     80  F   UNL A   1      38.672  29.613  27.135  1.00  0.00    -0.206 F 
ATOM     81  C   UNL A   1      35.934  31.248  28.789  1.00  0.00     0.060 A 
BRANCH  81  82
ATOM     82  S   UNL A   1      34.614  32.414  28.381  1.00  0.00     0.124 S 
ATOM     83  O   UNL A   1      33.687  31.568  27.637  1.00  0.00    -0.237 OA
ATOM     84  O   UNL A   1      34.167  32.844  29.702  1.00  0.00    -0.237 OA
ATOM     85  O   UNL A   1      35.297  33.437  27.594  1.00  0.00    -0.744 OA
ENDBRANCH  81  82
ENDBRANCH  49  74
BRANCH  61  86
ATOM     86  C   UNL A   1      43.310  28.340  33.010  1.00  0.00     0.058 A 
ATOM     87  C   UNL A   1      43.313  26.938  32.910  1.00  0.00     0.135 A 
ATOM     88  C   UNL A   1      43.187  28.884  34.297  1.00  0.00     0.135 A 
ATOM     89  F   UNL A   1      43.535  26.331  31.739  1.00  0.00    -0.206 F 
ATOM     90  C   UNL A   1      43.162  26.116  34.028  1.00  0.00     0.059 A 
ATOM     91  C   UNL A   1      43.064  28.084  35.432  1.00  0.00     0.059 A 
ATOM     92  F   UNL A   1      43.243  30.215  34.473  1.00  0.00    -0.206 F 
ATOM     93  C   UNL A   1      43.041  26.698  35.289  1.00  0.00     0.060 A 
BRANCH  93  94
ATOM     94  S   UNL A   1      42.943  25.629  36.741  1.00  0.00     0.124 S 
ATOM     95  O   UNL A   1      41.591  25.092  36.637  1.00  0.00    -0.237 OA
ATOM     96  O   UNL A   1      44.024  24.673  36.509  1.00  0.00    -0.237 OA
ATOM     97  O   UNL A   1      43.167  26.546  37.855  1.00  0.00    -0.744 OA
ENDBRANCH  93  94
ENDBRANCH  61  86
ENDBRANCH  35  36
ENDBRANCH  27  30
ENDBRANCH  25  26
ENDBRANCH  24  25
ENDBRANCH   1  24
TORSDOF 18
ENDMDL
MODEL 3
REMARK VINA RESULT:     -11.8      3.499      9.719
REMARK SMILES CC(C)n1ccc(C[C@@H](C(=O)NCCCCNC(=O)c2ccc(-c3c4nc(c(-c5c(F)cc(S(=O)(=O)[O-])cc5F)c5ccc([nH]5)c(-c5c(F)cc(S(=O)(=O)[O-])cc5F)c5nc(c(-c6c(F)cc(S(=O)(=O)[O-])cc6F)c6ccc3[nH]6)C=C5)C=C4)cc2)c2cccc(Cl)c2)n1
REMARK SMILES IDX 14 1 13 2 12 3 10 4 11 5 9 7 8 8 7 9 4 10 5 11 93 12 6 13
REMARK SMILES IDX 2 14 1 15 3 16 86 17 87 18 92 19 88 20 90 21 89 22 91 23
REMARK SMILES IDX 15 24 16 25 17 26 18 27 19 29 20 30 21 31 85 32 22 33 84 34
REMARK SMILES IDX 23 35 24 36 25 37 78 38 26 39 83 40 77 41 79 42 27 43 82 44
REMARK SMILES IDX 76 45 75 46 28 48 62 49 41 50 61 51 42 52 45 53 60 54 80 55
REMARK SMILES IDX 43 56 44 57 59 59 81 60 46 61 29 62 30 63 39 64 31 65 32 66
REMARK SMILES IDX 38 67 40 68 33 69 34 70 35 71 36 72 37 73 63 74 64 75 73 76
REMARK SMILES IDX 65 77 66 78 72 79 74 80 67 81 68 82 69 83 70 84 71 85 47 86
REMARK SMILES IDX 48 87 57 88 49 89 50 90 56 91 58 92 51 93 52 94 53 95 54 96
REMARK SMILES IDX 55 97
REMARK H PARENT 12 6 17 28 79 47 45 58
REMARK Flexibility Score: inf
ROOT
ATOM      1  C   UNL A   1      37.460  23.034  25.272  1.00  0.00     0.023 C 
ENDROOT
BRANCH   1   2
ATOM      2  C   UNL A   1      36.064  23.149  25.900  1.00  0.00     0.116 C 
BRANCH   2   3
ATOM      3  N   UNL A   1      35.624  21.848  26.376  1.00  0.00    -0.356 N 
ATOM      4  C   UNL A   1      34.336  21.386  26.281  1.00  0.00     0.227 C 
ATOM      5  O   UNL A   1      33.810  20.980  27.322  1.00  0.00    -0.274 OA
ATOM      6  H   UNL A   1      36.294  21.259  26.792  1.00  0.00     0.163 HD
BRANCH   4   7
ATOM      7  C   UNL A   1      33.613  21.342  24.916  1.00  0.00     0.114 C 
BRANCH   7   8
ATOM      8  C   UNL A   1      32.148  21.805  25.085  1.00  0.00     0.076 C 
BRANCH   8   9
ATOM      9  C   UNL A   1      31.813  23.230  24.789  1.00  0.00     0.064 A 
ATOM     10  N   UNL A   1      31.883  25.356  24.845  1.00  0.00    -0.270 N 
ATOM     11  C   UNL A   1      31.072  25.057  23.782  1.00  0.00     0.109 A 
ATOM     12  N   UNL A   1      32.341  24.251  25.481  1.00  0.00    -0.178 NA
ATOM     13  C   UNL A   1      31.018  23.689  23.711  1.00  0.00     0.045 A 
BRANCH  10  14
ATOM     14  C   UNL A   1      32.258  26.708  25.255  1.00  0.00     0.101 C 
ATOM     15  C   UNL A   1      31.242  27.311  26.227  1.00  0.00     0.033 C 
ATOM     16  C   UNL A   1      33.672  26.818  25.828  1.00  0.00     0.033 C 
ENDBRANCH  10  14
ENDBRANCH   8   9
ENDBRANCH   7   8
BRANCH   7  17
ATOM     17  C   UNL A   1      33.558  19.907  24.304  1.00  0.00    -0.034 A 
ATOM     18  C   UNL A   1      32.551  19.593  23.368  1.00  0.00     0.004 A 
ATOM     19  C   UNL A   1      34.399  18.856  24.713  1.00  0.00     0.025 A 
ATOM     20  C   UNL A   1      32.323  18.276  22.951  1.00  0.00     0.002 A 
ATOM     21  C   UNL A   1      34.172  17.541  24.291  1.00  0.00     0.041 A 
ATOM     22  C   UNL A   1      33.124  17.243  23.429  1.00  0.00     0.020 A 
ATOM     23  Cl  UNL A   1      35.167  16.265  24.884  1.00  0.00    -0.084 Cl
ENDBRANCH   7  17
ENDBRANCH   4   7
ENDBRANCH   2   3
ENDBRANCH   1   2
BRANCH   1  24
ATOM     24  C   UNL A   1      38.213  21.711  25.429  1.00  0.00     0.023 C 
BRANCH  24  25
ATOM     25  C   UNL A   1      39.401  21.775  26.377  1.00  0.00     0.116 C 
BRANCH  25  26
ATOM     26  N   UNL A   1      40.302  20.623  26.255  1.00  0.00    -0.352 N 
ATOM     27  C   UNL A   1      41.688  20.627  26.202  1.00  0.00     0.251 C 
ATOM     28  H   UNL A   1      39.870  19.740  26.204  1.00  0.00     0.163 HD
ATOM     29  O   UNL A   1      42.324  19.649  25.859  1.00  0.00    -0.269 OA
BRANCH  27  30
ATOM     30  C   UNL A   1      42.353  21.886  26.581  1.00  0.00     0.039 A 
ATOM     31  C   UNL A   1      42.461  22.931  25.664  1.00  0.00     0.014 A 
ATOM     32  C   UNL A   1      42.584  22.077  27.938  1.00  0.00     0.014 A 
ATOM     33  C   UNL A   1      42.663  24.225  26.147  1.00  0.00     0.010 A 
ATOM     34  C   UNL A   1      42.639  23.371  28.410  1.00  0.00     0.010 A 
ATOM     35  C   UNL A   1      42.685  24.462  27.532  1.00  0.00    -0.014 A 
BRANCH  35  36
ATOM     36  C   UNL A   1      42.616  25.838  28.050  1.00  0.00     0.031 A 
ATOM     37  C   UNL A   1      43.685  26.805  27.620  1.00  0.00     0.074 A 
ATOM     38  C   UNL A   1      41.544  26.350  28.692  1.00  0.00     0.049 A 
ATOM     39  N   UNL A   1      44.551  27.424  28.357  1.00  0.00    -0.248 NA
ATOM     40  C   UNL A   1      43.830  27.092  26.184  1.00  0.00     0.031 C 
ATOM     41  C   UNL A   1      40.244  25.724  28.970  1.00  0.00     0.029 A 
ATOM     42  N   UNL A   1      41.362  27.624  29.140  1.00  0.00    -0.354 N 
ATOM     43  C   UNL A   1      45.239  28.309  27.521  1.00  0.00     0.074 A 
ATOM     44  C   UNL A   1      44.831  27.976  26.179  1.00  0.00     0.031 C 
ATOM     45  C   UNL A   1      39.344  26.675  29.298  1.00  0.00     0.029 A 
ATOM     46  C   UNL A   1      40.051  27.928  29.465  1.00  0.00     0.049 A 
ATOM     47  H   UNL A   1      42.099  28.272  29.227  1.00  0.00     0.167 HD
ATOM     48  C   UNL A   1      45.978  29.354  28.002  1.00  0.00     0.037 A 
ATOM     49  C   UNL A   1      39.559  29.122  29.858  1.00  0.00     0.037 A 
ATOM     50  C   UNL A   1      46.215  29.227  29.416  1.00  0.00     0.049 A 
ATOM     51  C   UNL A   1      40.688  29.898  30.422  1.00  0.00     0.074 A 
ATOM     52  C   UNL A   1      46.845  28.302  30.225  1.00  0.00     0.029 A 
ATOM     53  N   UNL A   1      45.476  30.010  30.268  1.00  0.00    -0.354 N 
ATOM     54  N   UNL A   1      41.337  29.557  31.504  1.00  0.00    -0.248 NA
ATOM     55  C   UNL A   1      41.368  30.856  29.566  1.00  0.00     0.031 C 
ATOM     56  C   UNL A   1      46.056  28.256  31.413  1.00  0.00     0.029 A 
ATOM     57  C   UNL A   1      45.024  29.185  31.267  1.00  0.00     0.049 A 
ATOM     58  H   UNL A   1      45.303  30.975  30.179  1.00  0.00     0.167 HD
ATOM     59  C   UNL A   1      42.652  29.923  31.263  1.00  0.00     0.074 A 
ATOM     60  C   UNL A   1      42.584  30.825  30.116  1.00  0.00     0.031 C 
ATOM     61  C   UNL A   1      43.697  29.257  31.841  1.00  0.00     0.037 A 
BRANCH  48  62
ATOM     62  C   UNL A   1      46.263  30.652  27.273  1.00  0.00     0.058 A 
ATOM     63  C   UNL A   1      47.588  31.141  27.198  1.00  0.00     0.135 A 
ATOM     64  C   UNL A   1      45.261  31.567  26.890  1.00  0.00     0.135 A 
ATOM     65  F   UNL A   1      48.627  30.362  27.540  1.00  0.00    -0.206 F 
ATOM     66  C   UNL A   1      47.886  32.461  26.846  1.00  0.00     0.059 A 
ATOM     67  C   UNL A   1      45.539  32.873  26.486  1.00  0.00     0.059 A 
ATOM     68  F   UNL A   1      43.959  31.269  26.987  1.00  0.00    -0.206 F 
ATOM     69  C   UNL A   1      46.849  33.326  26.514  1.00  0.00     0.060 A 
BRANCH  69  70
ATOM     70  S   UNL A   1      47.211  35.064  26.196  1.00  0.00     0.124 S 
ATOM     71  O   UNL A   1      47.600  35.024  24.790  1.00  0.00    -0.237 OA
ATOM     72  O   UNL A   1      45.932  35.704  26.486  1.00  0.00    -0.237 OA
ATOM     73  O   UNL A   1      48.282  35.361  27.141  1.00  0.00    -0.744 OA
ENDBRANCH  69  70
ENDBRANCH  48  62
BRANCH  49  74
ATOM     74  C   UNL A   1      38.239  29.696  29.514  1.00  0.00     0.058 A 
ATOM     75  C   UNL A   1      37.384  30.207  30.500  1.00  0.00     0.135 A 
ATOM     76  C   UNL A   1      37.900  29.984  28.174  1.00  0.00     0.135 A 
ATOM     77  F   UNL A   1      37.649  29.996  31.798  1.00  0.00    -0.206 F 
ATOM     78  C   UNL A   1      36.278  30.999  30.180  1.00  0.00     0.059 A 
ATOM     79  C   UNL A   1      36.798  30.761  27.830  1.00  0.00     0.059 A 
ATOM     80  F   UNL A   1      38.688  29.588  27.161  1.00  0.00    -0.206 F 
ATOM     81  C   UNL A   1      36.005  31.287  28.843  1.00  0.00     0.060 A 
BRANCH  81  82
ATOM     82  S   UNL A   1      34.689  32.460  28.440  1.00  0.00     0.124 S 
ATOM     83  O   UNL A   1      35.405  33.452  27.645  1.00  0.00    -0.237 OA
ATOM     84  O   UNL A   1      33.743  31.620  27.714  1.00  0.00    -0.237 OA
ATOM     85  O   UNL A   1      34.232  32.918  29.749  1.00  0.00    -0.744 OA
ENDBRANCH  81  82
ENDBRANCH  49  74
BRANCH  61  86
ATOM     86  C   UNL A   1      43.407  28.314  32.984  1.00  0.00     0.058 A 
ATOM     87  C   UNL A   1      43.334  26.917  32.853  1.00  0.00     0.135 A 
ATOM     88  C   UNL A   1      43.371  28.832  34.288  1.00  0.00     0.135 A 
ATOM     89  F   UNL A   1      43.470  26.329  31.659  1.00  0.00    -0.206 F 
ATOM     90  C   UNL A   1      43.194  26.076  33.958  1.00  0.00     0.059 A 
ATOM     91  C   UNL A   1      43.261  28.011  35.409  1.00  0.00     0.059 A 
ATOM     92  F   UNL A   1      43.502  30.154  34.491  1.00  0.00    -0.206 F 
ATOM     93  C   UNL A   1      43.162  26.632  35.236  1.00  0.00     0.060 A 
BRANCH  93  94
ATOM     94  S   UNL A   1      43.078  25.533  36.667  1.00  0.00     0.124 S 
ATOM     95  O   UNL A   1      41.995  26.124  37.445  1.00  0.00    -0.237 OA
ATOM     96  O   UNL A   1      42.787  24.237  36.058  1.00  0.00    -0.237 OA
ATOM     97  O   UNL A   1      44.408  25.645  37.260  1.00  0.00    -0.744 OA
ENDBRANCH  93  94
ENDBRANCH  61  86
ENDBRANCH  35  36
ENDBRANCH  27  30
ENDBRANCH  25  26
ENDBRANCH  24  25
ENDBRANCH   1  24
TORSDOF 18
ENDMDL
