MODEL 1
REMARK VINA RESULT:     -11.3      0.000      0.000
REMARK SMILES C[C@@H](C(=O)NCCCCNC(=O)c1ccc(-c2c3nc(c(-c4c(F)cc(S(=O)(=O)[O-])cc4F)c4ccc([nH]4)c(-c4c(F)cc(S(=O)(=O)[O-])cc4F)c4nc(c(-c5c(F)cc(S(=O)(=O)[O-])cc5F)c5ccc2[nH]5)C=C4)C=C3)cc1)c1cc(C(=O)c2ccccc2)ccc1O
REMARK SMILES IDX 7 1 6 2 5 3 3 4 4 5 2 7 1 8 79 9 80 10 92 11 81 12 91 13
REMARK SMILES IDX 90 14 93 15 82 17 83 18 84 19 85 20 89 21 86 22 88 23 87 24
REMARK SMILES IDX 8 25 9 26 10 27 11 28 12 30 13 31 14 32 78 33 15 34 77 35
REMARK SMILES IDX 16 36 17 37 18 38 71 39 19 40 76 41 70 42 72 43 20 44 75 45
REMARK SMILES IDX 69 46 68 47 21 49 55 50 34 51 54 52 35 53 38 54 53 55 73 56
REMARK SMILES IDX 36 57 37 58 52 60 74 61 39 62 22 63 23 64 32 65 24 66 25 67
REMARK SMILES IDX 31 68 33 69 26 70 27 71 28 72 29 73 30 74 56 75 57 76 66 77
REMARK SMILES IDX 58 78 59 79 65 80 67 81 60 82 61 83 62 84 63 85 64 86 40 87
REMARK SMILES IDX 41 88 50 89 42 90 43 91 49 92 51 93 44 94 45 95 46 96 47 97
REMARK SMILES IDX 48 98
REMARK H PARENT 5 6 93 16 10 29 72 48 38 59
REMARK Flexibility Score: inf
ROOT
ATOM      1  C   UNL A   1      35.109  22.518  24.324  1.00  0.00     0.023 C 
ENDROOT
BRANCH   1   2
ATOM      2  C   UNL A   1      33.867  22.569  23.434  1.00  0.00     0.116 C 
BRANCH   2   3
ATOM      3  N   UNL A   1      33.917  23.699  22.532  1.00  0.00    -0.356 N 
ATOM      4  C   UNL A   1      33.102  24.788  22.434  1.00  0.00     0.227 C 
ATOM      5  O   UNL A   1      33.364  25.590  21.536  1.00  0.00    -0.274 OA
ATOM      6  H   UNL A   1      34.658  23.679  21.884  1.00  0.00     0.163 HD
BRANCH   4   7
ATOM      7  C   UNL A   1      31.965  24.992  23.455  1.00  0.00     0.109 C 
ATOM      8  C   UNL A   1      30.647  24.341  23.021  1.00  0.00     0.023 C 
BRANCH   7   9
ATOM      9  C   UNL A   1      31.700  26.463  23.773  1.00  0.00     0.007 A 
ATOM     10  C   UNL A   1      31.934  26.921  25.090  1.00  0.00     0.020 A 
ATOM     11  C   UNL A   1      31.289  27.408  22.825  1.00  0.00     0.119 A 
ATOM     12  C   UNL A   1      31.739  28.259  25.456  1.00  0.00     0.023 A 
ATOM     13  C   UNL A   1      31.112  28.748  23.177  1.00  0.00     0.047 A 
ATOM     14  C   UNL A   1      31.346  29.178  24.483  1.00  0.00     0.016 A 
BRANCH  11  15
ATOM     15  O   UNL A   1      31.053  27.138  21.507  1.00  0.00    -0.508 OA
ATOM     16  H   UNL A   1      30.915  26.255  21.227  1.00  0.00     0.293 HD
ENDBRANCH  11  15
BRANCH  12  17
ATOM     17  C   UNL A   1      32.025  28.653  26.863  1.00  0.00     0.193 C 
ATOM     18  O   UNL A   1      31.300  28.250  27.770  1.00  0.00    -0.289 OA
BRANCH  17  19
ATOM     19  C   UNL A   1      33.204  29.478  27.212  1.00  0.00     0.022 A 
ATOM     20  C   UNL A   1      34.451  28.849  27.274  1.00  0.00     0.012 A 
ATOM     21  C   UNL A   1      33.095  30.848  27.476  1.00  0.00     0.012 A 
ATOM     22  C   UNL A   1      35.596  29.599  27.542  1.00  0.00     0.001 A 
ATOM     23  C   UNL A   1      34.244  31.596  27.739  1.00  0.00     0.001 A 
ATOM     24  C   UNL A   1      35.493  30.972  27.761  1.00  0.00     0.000 A 
ENDBRANCH  17  19
ENDBRANCH  12  17
ENDBRANCH   7   9
ENDBRANCH   4   7
ENDBRANCH   2   3
ENDBRANCH   1   2
BRANCH   1  25
ATOM     25  C   UNL A   1      35.647  23.887  24.747  1.00  0.00     0.023 C 
BRANCH  25  26
ATOM     26  C   UNL A   1      36.462  23.891  26.032  1.00  0.00     0.116 C 
BRANCH  26  27
ATOM     27  N   UNL A   1      37.424  22.803  26.088  1.00  0.00    -0.352 N 
ATOM     28  C   UNL A   1      38.767  22.852  26.361  1.00  0.00     0.251 C 
ATOM     29  H   UNL A   1      37.062  21.906  25.903  1.00  0.00     0.163 HD
ATOM     30  O   UNL A   1      39.452  21.841  26.207  1.00  0.00    -0.269 OA
BRANCH  28  31
ATOM     31  C   UNL A   1      39.390  24.114  26.814  1.00  0.00     0.039 A 
ATOM     32  C   UNL A   1      39.398  24.406  28.180  1.00  0.00     0.014 A 
ATOM     33  C   UNL A   1      39.945  25.015  25.902  1.00  0.00     0.014 A 
ATOM     34  C   UNL A   1      39.991  25.587  28.631  1.00  0.00     0.010 A 
ATOM     35  C   UNL A   1      40.613  26.147  26.360  1.00  0.00     0.010 A 
ATOM     36  C   UNL A   1      40.619  26.460  27.727  1.00  0.00    -0.014 A 
BRANCH  36  37
ATOM     37  C   UNL A   1      41.241  27.726  28.196  1.00  0.00     0.031 A 
ATOM     38  C   UNL A   1      42.730  27.920  28.082  1.00  0.00     0.074 A 
ATOM     39  C   UNL A   1      40.471  28.685  28.747  1.00  0.00     0.049 A 
ATOM     40  N   UNL A   1      43.458  28.952  28.429  1.00  0.00    -0.248 NA
ATOM     41  C   UNL A   1      43.511  26.800  27.532  1.00  0.00     0.031 C 
ATOM     42  C   UNL A   1      39.025  28.592  28.960  1.00  0.00     0.029 A 
ATOM     43  N   UNL A   1      40.796  29.929  29.225  1.00  0.00    -0.354 N 
ATOM     44  C   UNL A   1      44.775  28.598  28.155  1.00  0.00     0.074 A 
ATOM     45  C   UNL A   1      44.754  27.236  27.672  1.00  0.00     0.031 C 
ATOM     46  C   UNL A   1      38.583  29.744  29.489  1.00  0.00     0.029 A 
ATOM     47  C   UNL A   1      39.715  30.644  29.686  1.00  0.00     0.049 A 
ATOM     48  H   UNL A   1      41.717  30.277  29.239  1.00  0.00     0.167 HD
ATOM     49  C   UNL A   1      45.897  29.348  28.268  1.00  0.00     0.037 A 
ATOM     50  C   UNL A   1      39.645  31.887  30.200  1.00  0.00     0.037 A 
ATOM     51  C   UNL A   1      45.904  30.714  28.722  1.00  0.00     0.049 A 
ATOM     52  C   UNL A   1      40.905  32.706  30.304  1.00  0.00     0.074 A 
ATOM     53  C   UNL A   1      46.976  31.585  28.813  1.00  0.00     0.029 A 
ATOM     54  N   UNL A   1      44.787  31.409  29.165  1.00  0.00    -0.354 N 
ATOM     55  N   UNL A   1      42.131  32.383  29.968  1.00  0.00    -0.248 NA
ATOM     56  C   UNL A   1      40.767  34.066  30.842  1.00  0.00     0.031 C 
ATOM     57  C   UNL A   1      46.517  32.788  29.360  1.00  0.00     0.029 A 
ATOM     58  C   UNL A   1      45.148  32.690  29.550  1.00  0.00     0.049 A 
ATOM     59  H   UNL A   1      43.873  31.045  29.200  1.00  0.00     0.167 HD
ATOM     60  C   UNL A   1      42.905  33.512  30.219  1.00  0.00     0.074 A 
ATOM     61  C   UNL A   1      42.003  34.528  30.724  1.00  0.00     0.031 C 
ATOM     62  C   UNL A   1      44.237  33.694  30.042  1.00  0.00     0.037 A 
BRANCH  49  63
ATOM     63  C   UNL A   1      47.208  28.707  27.898  1.00  0.00     0.058 A 
ATOM     64  C   UNL A   1      48.016  28.067  28.852  1.00  0.00     0.135 A 
ATOM     65  C   UNL A   1      47.649  28.707  26.565  1.00  0.00     0.135 A 
ATOM     66  F   UNL A   1      47.654  28.048  30.144  1.00  0.00    -0.206 F 
ATOM     67  C   UNL A   1      49.230  27.481  28.504  1.00  0.00     0.059 A 
ATOM     68  C   UNL A   1      48.843  28.099  26.188  1.00  0.00     0.059 A 
ATOM     69  F   UNL A   1      46.918  29.304  25.610  1.00  0.00    -0.206 F 
ATOM     70  C   UNL A   1      49.635  27.502  27.169  1.00  0.00     0.060 A 
BRANCH  70  71
ATOM     71  S   UNL A   1      51.211  26.737  26.734  1.00  0.00     0.124 S 
ATOM     72  O   UNL A   1      50.841  25.960  25.555  1.00  0.00    -0.237 OA
ATOM     73  O   UNL A   1      52.062  27.895  26.488  1.00  0.00    -0.237 OA
ATOM     74  O   UNL A   1      51.548  25.954  27.920  1.00  0.00    -0.744 OA
ENDBRANCH  70  71
ENDBRANCH  49  63
BRANCH  50  75
ATOM     75  C   UNL A   1      38.331  32.451  30.613  1.00  0.00     0.058 A 
ATOM     76  C   UNL A   1      37.825  32.228  31.904  1.00  0.00     0.135 A 
ATOM     77  C   UNL A   1      37.560  33.225  29.735  1.00  0.00     0.135 A 
ATOM     78  F   UNL A   1      38.523  31.490  32.780  1.00  0.00    -0.206 F 
ATOM     79  C   UNL A   1      36.590  32.732  32.300  1.00  0.00     0.059 A 
ATOM     80  C   UNL A   1      36.334  33.763  30.116  1.00  0.00     0.059 A 
ATOM     81  F   UNL A   1      38.007  33.484  28.496  1.00  0.00    -0.206 F 
ATOM     82  C   UNL A   1      35.852  33.500  31.398  1.00  0.00     0.060 A 
BRANCH  82  83
ATOM     83  S   UNL A   1      34.269  34.183  31.937  1.00  0.00     0.124 S 
ATOM     84  O   UNL A   1      33.584  34.377  30.664  1.00  0.00    -0.237 OA
ATOM     85  O   UNL A   1      33.749  33.114  32.785  1.00  0.00    -0.237 OA
ATOM     86  O   UNL A   1      34.652  35.402  32.642  1.00  0.00    -0.744 OA
ENDBRANCH  82  83
ENDBRANCH  50  75
BRANCH  62  87
ATOM     87  C   UNL A   1      44.795  35.059  30.342  1.00  0.00     0.058 A 
ATOM     88  C   UNL A   1      45.293  35.400  31.609  1.00  0.00     0.135 A 
ATOM     89  C   UNL A   1      44.856  36.034  29.331  1.00  0.00     0.135 A 
ATOM     90  F   UNL A   1      45.256  34.509  32.612  1.00  0.00    -0.206 F 
ATOM     91  C   UNL A   1      45.795  36.670  31.875  1.00  0.00     0.059 A 
ATOM     92  C   UNL A   1      45.386  37.298  29.566  1.00  0.00     0.059 A 
ATOM     93  F   UNL A   1      44.408  35.757  28.096  1.00  0.00    -0.206 F 
ATOM     94  C   UNL A   1      45.835  37.614  30.846  1.00  0.00     0.060 A 
BRANCH  94  95
ATOM     95  S   UNL A   1      46.495  39.256  31.201  1.00  0.00     0.124 S 
ATOM     96  O   UNL A   1      46.610  39.822  29.861  1.00  0.00    -0.237 OA
ATOM     97  O   UNL A   1      45.455  39.834  32.047  1.00  0.00    -0.237 OA
ATOM     98  O   UNL A   1      47.759  38.976  31.876  1.00  0.00    -0.744 OA
ENDBRANCH  94  95
ENDBRANCH  62  87
ENDBRANCH  36  37
ENDBRANCH  28  31
ENDBRANCH  26  27
ENDBRANCH  25  26
ENDBRANCH   1  25
TORSDOF 18
ENDMDL
MODEL 2
REMARK VINA RESULT:     -11.3      4.992      6.426
REMARK SMILES C[C@@H](C(=O)NCCCCNC(=O)c1ccc(-c2c3nc(c(-c4c(F)cc(S(=O)(=O)[O-])cc4F)c4ccc([nH]4)c(-c4c(F)cc(S(=O)(=O)[O-])cc4F)c4nc(c(-c5c(F)cc(S(=O)(=O)[O-])cc5F)c5ccc2[nH]5)C=C4)C=C3)cc1)c1cc(C(=O)c2ccccc2)ccc1O
REMARK SMILES IDX 7 1 6 2 5 3 3 4 4 5 2 7 1 8 79 9 80 10 92 11 81 12 91 13
REMARK SMILES IDX 90 14 93 15 82 17 83 18 84 19 85 20 89 21 86 22 88 23 87 24
REMARK SMILES IDX 8 25 9 26 10 27 11 28 12 30 13 31 14 32 78 33 15 34 77 35
REMARK SMILES IDX 16 36 17 37 18 38 71 39 19 40 76 41 70 42 72 43 20 44 75 45
REMARK SMILES IDX 69 46 68 47 21 49 55 50 34 51 54 52 35 53 38 54 53 55 73 56
REMARK SMILES IDX 36 57 37 58 52 60 74 61 39 62 22 63 23 64 32 65 24 66 25 67
REMARK SMILES IDX 31 68 33 69 26 70 27 71 28 72 29 73 30 74 56 75 57 76 66 77
REMARK SMILES IDX 58 78 59 79 65 80 67 81 60 82 61 83 62 84 63 85 64 86 40 87
REMARK SMILES IDX 41 88 50 89 42 90 43 91 49 92 51 93 44 94 45 95 46 96 47 97
REMARK SMILES IDX 48 98
REMARK H PARENT 5 6 93 16 10 29 72 48 38 59
REMARK Flexibility Score: inf
ROOT
ATOM      1  C   UNL A   1      38.978  21.436  25.932  1.00  0.00     0.023 C 
ENDROOT
BRANCH   1   2
ATOM      2  C   UNL A   1      37.794  22.401  25.861  1.00  0.00     0.116 C 
BRANCH   2   3
ATOM      3  N   UNL A   1      37.537  22.812  24.498  1.00  0.00    -0.356 N 
ATOM      4  C   UNL A   1      36.363  22.909  23.811  1.00  0.00     0.227 C 
ATOM      5  O   UNL A   1      36.444  23.259  22.632  1.00  0.00    -0.274 OA
ATOM      6  H   UNL A   1      38.338  23.062  23.983  1.00  0.00     0.163 HD
BRANCH   4   7
ATOM      7  C   UNL A   1      35.025  22.645  24.532  1.00  0.00     0.109 C 
ATOM      8  C   UNL A   1      34.446  21.259  24.228  1.00  0.00     0.023 C 
BRANCH   7   9
ATOM      9  C   UNL A   1      33.960  23.697  24.226  1.00  0.00     0.007 A 
ATOM     10  C   UNL A   1      33.466  24.486  25.289  1.00  0.00     0.020 A 
ATOM     11  C   UNL A   1      33.476  23.970  22.940  1.00  0.00     0.119 A 
ATOM     12  C   UNL A   1      32.507  25.487  25.087  1.00  0.00     0.023 A 
ATOM     13  C   UNL A   1      32.536  24.981  22.727  1.00  0.00     0.047 A 
ATOM     14  C   UNL A   1      32.059  25.745  23.792  1.00  0.00     0.016 A 
BRANCH  11  15
ATOM     15  O   UNL A   1      33.874  23.325  21.803  1.00  0.00    -0.508 OA
ATOM     16  H   UNL A   1      34.357  23.788  21.147  1.00  0.00     0.293 HD
ENDBRANCH  11  15
BRANCH  12  17
ATOM     17  C   UNL A   1      32.056  26.278  26.265  1.00  0.00     0.193 C 
ATOM     18  O   UNL A   1      31.234  25.799  27.044  1.00  0.00    -0.289 OA
BRANCH  17  19
ATOM     19  C   UNL A   1      32.617  27.615  26.561  1.00  0.00     0.022 A 
ATOM     20  C   UNL A   1      33.992  27.804  26.389  1.00  0.00     0.012 A 
ATOM     21  C   UNL A   1      31.813  28.672  27.003  1.00  0.00     0.012 A 
ATOM     22  C   UNL A   1      34.553  29.063  26.601  1.00  0.00     0.001 A 
ATOM     23  C   UNL A   1      32.379  29.932  27.208  1.00  0.00     0.001 A 
ATOM     24  C   UNL A   1      33.745  30.127  26.998  1.00  0.00     0.000 A 
ENDBRANCH  17  19
ENDBRANCH  12  17
ENDBRANCH   7   9
ENDBRANCH   4   7
ENDBRANCH   2   3
ENDBRANCH   1   2
BRANCH   1  25
ATOM     25  C   UNL A   1      40.113  21.887  26.856  1.00  0.00     0.023 C 
BRANCH  25  26
ATOM     26  C   UNL A   1      40.198  23.388  27.088  1.00  0.00     0.116 C 
BRANCH  26  27
ATOM     27  N   UNL A   1      41.020  24.062  26.097  1.00  0.00    -0.352 N 
ATOM     28  C   UNL A   1      41.453  25.363  26.075  1.00  0.00     0.251 C 
ATOM     29  H   UNL A   1      41.306  23.508  25.335  1.00  0.00     0.163 HD
ATOM     30  O   UNL A   1      42.013  25.797  25.069  1.00  0.00    -0.269 OA
BRANCH  28  31
ATOM     31  C   UNL A   1      41.227  26.243  27.242  1.00  0.00     0.039 A 
ATOM     32  C   UNL A   1      42.045  27.363  27.408  1.00  0.00     0.014 A 
ATOM     33  C   UNL A   1      40.229  25.960  28.179  1.00  0.00     0.014 A 
ATOM     34  C   UNL A   1      41.841  28.213  28.496  1.00  0.00     0.010 A 
ATOM     35  C   UNL A   1      39.971  26.856  29.212  1.00  0.00     0.010 A 
ATOM     36  C   UNL A   1      40.792  27.977  29.399  1.00  0.00    -0.014 A 
BRANCH  36  37
ATOM     37  C   UNL A   1      40.576  28.868  30.568  1.00  0.00     0.031 A 
ATOM     38  C   UNL A   1      41.435  28.719  31.797  1.00  0.00     0.074 A 
ATOM     39  C   UNL A   1      39.592  29.789  30.534  1.00  0.00     0.049 A 
ATOM     40  N   UNL A   1      41.404  29.402  32.914  1.00  0.00    -0.248 NA
ATOM     41  C   UNL A   1      42.442  27.645  31.783  1.00  0.00     0.031 C 
ATOM     42  C   UNL A   1      38.661  29.993  29.422  1.00  0.00     0.029 A 
ATOM     43  N   UNL A   1      39.214  30.730  31.459  1.00  0.00    -0.354 N 
ATOM     44  C   UNL A   1      42.371  28.832  33.735  1.00  0.00     0.074 A 
ATOM     45  C   UNL A   1      42.928  27.709  33.013  1.00  0.00     0.031 C 
ATOM     46  C   UNL A   1      37.847  31.020  29.714  1.00  0.00     0.029 A 
ATOM     47  C   UNL A   1      38.172  31.525  31.044  1.00  0.00     0.049 A 
ATOM     48  H   UNL A   1      39.648  30.825  32.338  1.00  0.00     0.167 HD
ATOM     49  C   UNL A   1      42.779  29.224  34.965  1.00  0.00     0.037 A 
ATOM     50  C   UNL A   1      37.555  32.551  31.663  1.00  0.00     0.037 A 
ATOM     51  C   UNL A   1      42.240  30.362  35.663  1.00  0.00     0.049 A 
ATOM     52  C   UNL A   1      38.036  32.976  33.026  1.00  0.00     0.074 A 
ATOM     53  C   UNL A   1      42.626  30.884  36.885  1.00  0.00     0.029 A 
ATOM     54  N   UNL A   1      41.195  31.152  35.203  1.00  0.00    -0.354 N 
ATOM     55  N   UNL A   1      39.003  32.473  33.755  1.00  0.00    -0.248 NA
ATOM     56  C   UNL A   1      37.350  34.119  33.642  1.00  0.00     0.031 C 
ATOM     57  C   UNL A   1      41.781  31.957  37.189  1.00  0.00     0.029 A 
ATOM     58  C   UNL A   1      40.910  32.144  36.127  1.00  0.00     0.049 A 
ATOM     59  H   UNL A   1      40.727  31.026  34.346  1.00  0.00     0.167 HD
ATOM     60  C   UNL A   1      39.067  33.263  34.899  1.00  0.00     0.074 A 
ATOM     61  C   UNL A   1      38.046  34.281  34.757  1.00  0.00     0.031 C 
ATOM     62  C   UNL A   1      39.898  33.158  35.967  1.00  0.00     0.037 A 
BRANCH  49  63
ATOM     63  C   UNL A   1      43.858  28.415  35.635  1.00  0.00     0.058 A 
ATOM     64  C   UNL A   1      43.558  27.358  36.510  1.00  0.00     0.135 A 
ATOM     65  C   UNL A   1      45.212  28.682  35.377  1.00  0.00     0.135 A 
ATOM     66  F   UNL A   1      42.282  27.065  36.806  1.00  0.00    -0.206 F 
ATOM     67  C   UNL A   1      44.561  26.618  37.130  1.00  0.00     0.059 A 
ATOM     68  C   UNL A   1      46.232  27.935  35.960  1.00  0.00     0.059 A 
ATOM     69  F   UNL A   1      45.560  29.682  34.551  1.00  0.00    -0.206 F 
ATOM     70  C   UNL A   1      45.895  26.914  36.850  1.00  0.00     0.060 A 
BRANCH  70  71
ATOM     71  S   UNL A   1      47.183  25.944  37.661  1.00  0.00     0.124 S 
ATOM     72  O   UNL A   1      48.146  25.776  36.578  1.00  0.00    -0.237 OA
ATOM     73  O   UNL A   1      47.599  26.826  38.747  1.00  0.00    -0.237 OA
ATOM     74  O   UNL A   1      46.485  24.730  38.074  1.00  0.00    -0.744 OA
ENDBRANCH  70  71
ENDBRANCH  49  63
BRANCH  50  75
ATOM     75  C   UNL A   1      36.448  33.276  30.983  1.00  0.00     0.058 A 
ATOM     76  C   UNL A   1      36.701  34.111  29.884  1.00  0.00     0.135 A 
ATOM     77  C   UNL A   1      35.119  33.146  31.411  1.00  0.00     0.135 A 
ATOM     78  F   UNL A   1      37.956  34.273  29.439  1.00  0.00    -0.206 F 
ATOM     79  C   UNL A   1      35.680  34.811  29.249  1.00  0.00     0.059 A 
ATOM     80  C   UNL A   1      34.076  33.813  30.775  1.00  0.00     0.059 A 
ATOM     81  F   UNL A   1      34.819  32.344  32.445  1.00  0.00    -0.206 F 
ATOM     82  C   UNL A   1      34.369  34.654  29.701  1.00  0.00     0.060 A 
BRANCH  82  83
ATOM     83  S   UNL A   1      33.047  35.536  28.843  1.00  0.00     0.124 S 
ATOM     84  O   UNL A   1      33.801  36.508  28.060  1.00  0.00    -0.237 OA
ATOM     85  O   UNL A   1      32.407  34.464  28.086  1.00  0.00    -0.237 OA
ATOM     86  O   UNL A   1      32.248  36.086  29.934  1.00  0.00    -0.744 OA
ENDBRANCH  82  83
ENDBRANCH  50  75
BRANCH  62  87
ATOM     87  C   UNL A   1      39.778  34.205  37.041  1.00  0.00     0.058 A 
ATOM     88  C   UNL A   1      39.064  33.978  38.228  1.00  0.00     0.135 A 
ATOM     89  C   UNL A   1      40.417  35.448  36.890  1.00  0.00     0.135 A 
ATOM     90  F   UNL A   1      38.432  32.810  38.424  1.00  0.00    -0.206 F 
ATOM     91  C   UNL A   1      38.952  34.960  39.208  1.00  0.00     0.059 A 
ATOM     92  C   UNL A   1      40.347  36.430  37.871  1.00  0.00     0.059 A 
ATOM     93  F   UNL A   1      41.127  35.713  35.781  1.00  0.00    -0.206 F 
ATOM     94  C   UNL A   1      39.596  36.184  39.018  1.00  0.00     0.060 A 
BRANCH  94  95
ATOM     95  S   UNL A   1      39.449  37.448  40.299  1.00  0.00     0.124 S 
ATOM     96  O   UNL A   1      38.663  38.469  39.615  1.00  0.00    -0.237 OA
ATOM     97  O   UNL A   1      38.764  36.730  41.369  1.00  0.00    -0.237 OA
ATOM     98  O   UNL A   1      40.836  37.808  40.582  1.00  0.00    -0.744 OA
ENDBRANCH  94  95
ENDBRANCH  62  87
ENDBRANCH  36  37
ENDBRANCH  28  31
ENDBRANCH  26  27
ENDBRANCH  25  26
ENDBRANCH   1  25
TORSDOF 18
ENDMDL
MODEL 3
REMARK VINA RESULT:     -11.2      5.155      7.080
REMARK SMILES C[C@@H](C(=O)NCCCCNC(=O)c1ccc(-c2c3nc(c(-c4c(F)cc(S(=O)(=O)[O-])cc4F)c4ccc([nH]4)c(-c4c(F)cc(S(=O)(=O)[O-])cc4F)c4nc(c(-c5c(F)cc(S(=O)(=O)[O-])cc5F)c5ccc2[nH]5)C=C4)C=C3)cc1)c1cc(C(=O)c2ccccc2)ccc1O
REMARK SMILES IDX 7 1 6 2 5 3 3 4 4 5 2 7 1 8 79 9 80 10 92 11 81 12 91 13
REMARK SMILES IDX 90 14 93 15 82 17 83 18 84 19 85 20 89 21 86 22 88 23 87 24
REMARK SMILES IDX 8 25 9 26 10 27 11 28 12 30 13 31 14 32 78 33 15 34 77 35
REMARK SMILES IDX 16 36 17 37 18 38 71 39 19 40 76 41 70 42 72 43 20 44 75 45
REMARK SMILES IDX 69 46 68 47 21 49 55 50 34 51 54 52 35 53 38 54 53 55 73 56
REMARK SMILES IDX 36 57 37 58 52 60 74 61 39 62 22 63 23 64 32 65 24 66 25 67
REMARK SMILES IDX 31 68 33 69 26 70 27 71 28 72 29 73 30 74 56 75 57 76 66 77
REMARK SMILES IDX 58 78 59 79 65 80 67 81 60 82 61 83 62 84 63 85 64 86 40 87
REMARK SMILES IDX 41 88 50 89 42 90 43 91 49 92 51 93 44 94 45 95 46 96 47 97
REMARK SMILES IDX 48 98
REMARK H PARENT 5 6 93 16 10 29 72 48 38 59
REMARK Flexibility Score: inf
ROOT
ATOM      1  C   UNL A   1      40.365  21.195  26.876  1.00  0.00     0.023 C 
ENDROOT
BRANCH   1   2
ATOM      2  C   UNL A   1      39.275  21.369  25.818  1.00  0.00     0.116 C 
BRANCH   2   3
ATOM      3  N   UNL A   1      38.372  22.444  26.171  1.00  0.00    -0.356 N 
ATOM      4  C   UNL A   1      37.265  22.914  25.529  1.00  0.00     0.227 C 
ATOM      5  O   UNL A   1      36.699  23.878  26.047  1.00  0.00    -0.274 OA
ATOM      6  H   UNL A   1      38.592  22.911  27.009  1.00  0.00     0.163 HD
BRANCH   4   7
ATOM      7  C   UNL A   1      36.753  22.205  24.259  1.00  0.00     0.109 C 
ATOM      8  C   UNL A   1      36.764  23.111  23.023  1.00  0.00     0.023 C 
BRANCH   7   9
ATOM      9  C   UNL A   1      35.351  21.619  24.422  1.00  0.00     0.007 A 
ATOM     10  C   UNL A   1      34.242  22.405  24.035  1.00  0.00     0.020 A 
ATOM     11  C   UNL A   1      35.093  20.322  24.883  1.00  0.00     0.119 A 
ATOM     12  C   UNL A   1      32.928  21.932  24.130  1.00  0.00     0.023 A 
ATOM     13  C   UNL A   1      33.787  19.834  24.961  1.00  0.00     0.047 A 
ATOM     14  C   UNL A   1      32.707  20.629  24.578  1.00  0.00     0.016 A 
BRANCH  11  15
ATOM     15  O   UNL A   1      36.051  19.425  25.263  1.00  0.00    -0.508 OA
ATOM     16  H   UNL A   1      36.918  19.489  24.913  1.00  0.00     0.293 HD
ENDBRANCH  11  15
BRANCH  12  17
ATOM     17  C   UNL A   1      31.823  22.825  23.686  1.00  0.00     0.193 C 
ATOM     18  O   UNL A   1      31.217  22.576  22.646  1.00  0.00    -0.289 OA
BRANCH  17  19
ATOM     19  C   UNL A   1      31.390  23.984  24.498  1.00  0.00     0.022 A 
ATOM     20  C   UNL A   1      31.734  25.265  24.053  1.00  0.00     0.012 A 
ATOM     21  C   UNL A   1      30.657  23.826  25.680  1.00  0.00     0.012 A 
ATOM     22  C   UNL A   1      31.297  26.387  24.757  1.00  0.00     0.001 A 
ATOM     23  C   UNL A   1      30.216  24.952  26.377  1.00  0.00     0.001 A 
ATOM     24  C   UNL A   1      30.529  26.230  25.910  1.00  0.00     0.000 A 
ENDBRANCH  17  19
ENDBRANCH  12  17
ENDBRANCH   7   9
ENDBRANCH   4   7
ENDBRANCH   2   3
ENDBRANCH   1   2
BRANCH   1  25
ATOM     25  C   UNL A   1      40.525  22.382  27.829  1.00  0.00     0.023 C 
BRANCH  25  26
ATOM     26  C   UNL A   1      41.773  23.225  27.605  1.00  0.00     0.116 C 
BRANCH  26  27
ATOM     27  N   UNL A   1      41.734  23.961  26.352  1.00  0.00    -0.352 N 
ATOM     28  C   UNL A   1      41.421  25.278  26.134  1.00  0.00     0.251 C 
ATOM     29  H   UNL A   1      41.963  23.441  25.547  1.00  0.00     0.163 HD
ATOM     30  O   UNL A   1      41.289  25.684  24.980  1.00  0.00    -0.269 OA
BRANCH  28  31
ATOM     31  C   UNL A   1      41.223  26.195  27.277  1.00  0.00     0.039 A 
ATOM     32  C   UNL A   1      40.086  26.040  28.073  1.00  0.00     0.014 A 
ATOM     33  C   UNL A   1      42.138  27.214  27.553  1.00  0.00     0.014 A 
ATOM     34  C   UNL A   1      39.886  26.888  29.164  1.00  0.00     0.010 A 
ATOM     35  C   UNL A   1      41.982  28.000  28.691  1.00  0.00     0.010 A 
ATOM     36  C   UNL A   1      40.840  27.865  29.493  1.00  0.00    -0.014 A 
BRANCH  36  37
ATOM     37  C   UNL A   1      40.629  28.781  30.644  1.00  0.00     0.031 A 
ATOM     38  C   UNL A   1      41.485  28.651  31.877  1.00  0.00     0.074 A 
ATOM     39  C   UNL A   1      39.652  29.708  30.590  1.00  0.00     0.049 A 
ATOM     40  N   UNL A   1      41.457  29.356  32.980  1.00  0.00    -0.248 NA
ATOM     41  C   UNL A   1      42.484  27.570  31.887  1.00  0.00     0.031 C 
ATOM     42  C   UNL A   1      38.724  29.897  29.472  1.00  0.00     0.029 A 
ATOM     43  N   UNL A   1      39.279  30.670  31.495  1.00  0.00    -0.354 N 
ATOM     44  C   UNL A   1      42.419  28.795  33.814  1.00  0.00     0.074 A 
ATOM     45  C   UNL A   1      42.969  27.655  33.116  1.00  0.00     0.031 C 
ATOM     46  C   UNL A   1      37.917  30.935  29.742  1.00  0.00     0.029 A 
ATOM     47  C   UNL A   1      38.244  31.465  31.062  1.00  0.00     0.049 A 
ATOM     48  H   UNL A   1      39.712  30.780  32.373  1.00  0.00     0.167 HD
ATOM     49  C   UNL A   1      42.828  29.209  35.037  1.00  0.00     0.037 A 
ATOM     50  C   UNL A   1      37.633  32.506  31.660  1.00  0.00     0.037 A 
ATOM     51  C   UNL A   1      42.295  30.364  35.711  1.00  0.00     0.049 A 
ATOM     52  C   UNL A   1      38.114  32.955  33.014  1.00  0.00     0.074 A 
ATOM     53  C   UNL A   1      42.683  30.908  36.923  1.00  0.00     0.029 A 
ATOM     54  N   UNL A   1      41.257  31.153  35.233  1.00  0.00    -0.354 N 
ATOM     55  N   UNL A   1      39.077  32.460  33.756  1.00  0.00    -0.248 NA
ATOM     56  C   UNL A   1      37.436  34.116  33.606  1.00  0.00     0.031 C 
ATOM     57  C   UNL A   1      41.846  31.993  37.204  1.00  0.00     0.029 A 
ATOM     58  C   UNL A   1      40.978  32.165  36.137  1.00  0.00     0.049 A 
ATOM     59  H   UNL A   1      40.790  31.013  34.379  1.00  0.00     0.167 HD
ATOM     60  C   UNL A   1      39.145  33.272  34.884  1.00  0.00     0.074 A 
ATOM     61  C   UNL A   1      38.132  34.295  34.720  1.00  0.00     0.031 C 
ATOM     62  C   UNL A   1      39.973  33.183  35.954  1.00  0.00     0.037 A 
BRANCH  49  63
ATOM     63  C   UNL A   1      43.900  28.406  35.725  1.00  0.00     0.058 A 
ATOM     64  C   UNL A   1      45.265  28.668  35.527  1.00  0.00     0.135 A 
ATOM     65  C   UNL A   1      43.557  27.379  36.619  1.00  0.00     0.135 A 
ATOM     66  F   UNL A   1      45.654  29.628  34.672  1.00  0.00    -0.206 F 
ATOM     67  C   UNL A   1      46.251  27.919  36.162  1.00  0.00     0.059 A 
ATOM     68  C   UNL A   1      44.525  26.638  37.291  1.00  0.00     0.059 A 
ATOM     69  F   UNL A   1      42.267  27.083  36.848  1.00  0.00    -0.206 F 
ATOM     70  C   UNL A   1      45.871  26.905  37.043  1.00  0.00     0.060 A 
BRANCH  70  71
ATOM     71  S   UNL A   1      47.162  25.944  37.859  1.00  0.00     0.124 S 
ATOM     72  O   UNL A   1      46.485  25.529  39.084  1.00  0.00    -0.237 OA
ATOM     73  O   UNL A   1      47.422  24.885  36.890  1.00  0.00    -0.237 OA
ATOM     74  O   UNL A   1      48.244  26.908  38.037  1.00  0.00    -0.744 OA
ENDBRANCH  70  71
ENDBRANCH  49  63
BRANCH  50  75
ATOM     75  C   UNL A   1      36.532  33.226  30.964  1.00  0.00     0.058 A 
ATOM     76  C   UNL A   1      35.194  33.039  31.346  1.00  0.00     0.135 A 
ATOM     77  C   UNL A   1      36.791  34.114  29.910  1.00  0.00     0.135 A 
ATOM     78  F   UNL A   1      34.893  32.196  32.345  1.00  0.00    -0.206 F 
ATOM     79  C   UNL A   1      34.151  33.689  30.693  1.00  0.00     0.059 A 
ATOM     80  C   UNL A   1      35.768  34.798  29.259  1.00  0.00     0.059 A 
ATOM     81  F   UNL A   1      38.055  34.343  29.518  1.00  0.00    -0.206 F 
ATOM     82  C   UNL A   1      34.449  34.568  29.651  1.00  0.00     0.060 A 
BRANCH  82  83
ATOM     83  S   UNL A   1      33.090  35.437  28.838  1.00  0.00     0.124 S 
ATOM     84  O   UNL A   1      32.363  35.980  29.979  1.00  0.00    -0.237 OA
ATOM     85  O   UNL A   1      33.801  36.409  28.012  1.00  0.00    -0.237 OA
ATOM     86  O   UNL A   1      32.409  34.378  28.100  1.00  0.00    -0.744 OA
ENDBRANCH  82  83
ENDBRANCH  50  75
BRANCH  62  87
ATOM     87  C   UNL A   1      39.859  34.252  37.008  1.00  0.00     0.058 A 
ATOM     88  C   UNL A   1      39.093  34.076  38.170  1.00  0.00     0.135 A 
ATOM     89  C   UNL A   1      40.555  35.464  36.861  1.00  0.00     0.135 A 
ATOM     90  F   UNL A   1      38.405  32.939  38.361  1.00  0.00    -0.206 F 
ATOM     91  C   UNL A   1      38.988  35.078  39.130  1.00  0.00     0.059 A 
ATOM     92  C   UNL A   1      40.492  36.465  37.824  1.00  0.00     0.059 A 
ATOM     93  F   UNL A   1      41.316  35.680  35.776  1.00  0.00    -0.206 F 
ATOM     94  C   UNL A   1      39.690  36.271  38.946  1.00  0.00     0.060 A 
BRANCH  94  95
ATOM     95  S   UNL A   1      39.551  37.561  40.201  1.00  0.00     0.124 S 
ATOM     96  O   UNL A   1      38.607  38.480  39.573  1.00  0.00    -0.237 OA
ATOM     97  O   UNL A   1      39.045  36.822  41.354  1.00  0.00    -0.237 OA
ATOM     98  O   UNL A   1      40.918  38.057  40.332  1.00  0.00    -0.744 OA
ENDBRANCH  94  95
ENDBRANCH  62  87
ENDBRANCH  36  37
ENDBRANCH  28  31
ENDBRANCH  26  27
ENDBRANCH  25  26
ENDBRANCH   1  25
TORSDOF 18
ENDMDL
