MODEL 1
REMARK VINA RESULT:     -13.1      0.000      0.000
REMARK SMILES O=C(NCCCCNC(=O)[C@@H]1CCCN1S(=O)(=O)c1ccc2[nH]c(=O)c(=O)[nH]c2c1)c1ccc(-c2c3nc(c(-c4c(F)cc(S(=O)(=O)[O-])cc4F)c4ccc([nH]4)c(-c4c(F)cc(S(=O)(=O)[O-])cc4F)c4nc(c(-c5c(F)cc(S(=O)(=O)[O-])cc5F)c5ccc2[nH]5)C=C4)C=C3)cc1
REMARK SMILES IDX 5 1 4 2 3 3 1 4 2 5 31 7 32 8 96 9 33 10 95 11 34 12 35 13
REMARK SMILES IDX 36 14 89 15 37 16 94 17 88 18 90 19 38 20 93 21 87 22 86 23
REMARK SMILES IDX 39 25 73 26 52 27 72 28 53 29 56 30 71 31 91 32 54 33 55 34
REMARK SMILES IDX 70 36 92 37 57 38 40 39 41 40 50 41 42 42 43 43 49 44 51 45
REMARK SMILES IDX 44 46 45 47 46 48 47 49 48 50 74 51 75 52 84 53 76 54 77 55
REMARK SMILES IDX 83 56 85 57 78 58 79 59 80 60 81 61 82 62 58 63 59 64 68 65
REMARK SMILES IDX 60 66 61 67 67 68 69 69 62 70 63 71 64 72 65 73 66 74 6 75
REMARK SMILES IDX 7 76 8 77 9 78 10 80 11 81 12 82 15 83 13 84 14 85 16 86
REMARK SMILES IDX 17 87 18 88 19 89 20 90 30 91 21 92 29 93 22 94 28 95 23 96
REMARK SMILES IDX 26 97 24 99 27 101 25 102
REMARK H PARENT 3 6 90 24 56 35 8 79 28 98 23 100
REMARK Flexibility Score: inf
ROOT
ATOM      1  C   UNL A   1      37.476  23.538  26.075  1.00  0.00     0.023 C 
ENDROOT
BRANCH   1   2
ATOM      2  C   UNL A   1      38.687  24.096  26.809  1.00  0.00     0.116 C 
BRANCH   2   3
ATOM      3  N   UNL A   1      39.776  24.493  25.931  1.00  0.00    -0.352 N 
ATOM      4  O   UNL A   1      41.552  25.706  25.251  1.00  0.00    -0.269 OA
ATOM      5  C   UNL A   1      40.738  25.455  26.134  1.00  0.00     0.251 C 
ATOM      6  H   UNL A   1      39.833  24.008  25.075  1.00  0.00     0.163 HD
BRANCH   5   7
ATOM      7  C   UNL A   1      40.746  26.211  27.404  1.00  0.00     0.039 A 
ATOM      8  C   UNL A   1      39.819  25.927  28.406  1.00  0.00     0.014 A 
ATOM      9  C   UNL A   1      41.657  27.260  27.562  1.00  0.00     0.014 A 
ATOM     10  C   UNL A   1      39.685  26.796  29.483  1.00  0.00     0.010 A 
ATOM     11  C   UNL A   1      41.579  28.079  28.691  1.00  0.00     0.010 A 
ATOM     12  C   UNL A   1      40.560  27.885  29.635  1.00  0.00    -0.014 A 
BRANCH  12  13
ATOM     13  C   UNL A   1      40.389  28.794  30.798  1.00  0.00     0.031 A 
ATOM     14  C   UNL A   1      41.304  28.709  31.992  1.00  0.00     0.074 A 
ATOM     15  C   UNL A   1      39.427  29.737  30.748  1.00  0.00     0.049 A 
ATOM     16  N   UNL A   1      41.323  29.452  33.069  1.00  0.00    -0.248 NA
ATOM     17  C   UNL A   1      42.323  27.648  31.982  1.00  0.00     0.031 C 
ATOM     18  C   UNL A   1      38.476  29.910  29.647  1.00  0.00     0.029 A 
ATOM     19  N   UNL A   1      39.104  30.739  31.626  1.00  0.00    -0.354 N 
ATOM     20  C   UNL A   1      42.329  28.934  33.876  1.00  0.00     0.074 A 
ATOM     21  C   UNL A   1      42.887  27.799  33.173  1.00  0.00     0.031 C 
ATOM     22  C   UNL A   1      37.717  30.989  29.887  1.00  0.00     0.029 A 
ATOM     23  C   UNL A   1      38.085  31.547  31.183  1.00  0.00     0.049 A 
ATOM     24  H   UNL A   1      39.560  30.868  32.489  1.00  0.00     0.167 HD
ATOM     25  C   UNL A   1      42.750  29.367  35.090  1.00  0.00     0.037 A 
ATOM     26  C   UNL A   1      37.504  32.617  31.758  1.00  0.00     0.037 A 
ATOM     27  C   UNL A   1      42.207  30.517  35.770  1.00  0.00     0.049 A 
ATOM     28  C   UNL A   1      37.994  33.081  33.099  1.00  0.00     0.074 A 
ATOM     29  C   UNL A   1      42.592  31.062  36.984  1.00  0.00     0.029 A 
ATOM     30  N   UNL A   1      41.161  31.297  35.300  1.00  0.00    -0.354 N 
ATOM     31  N   UNL A   1      38.965  32.593  33.834  1.00  0.00    -0.248 NA
ATOM     32  C   UNL A   1      37.312  34.239  33.688  1.00  0.00     0.031 C 
ATOM     33  C   UNL A   1      41.754  32.147  37.264  1.00  0.00     0.029 A 
ATOM     34  C   UNL A   1      40.877  32.308  36.204  1.00  0.00     0.049 A 
ATOM     35  H   UNL A   1      40.689  31.153  34.447  1.00  0.00     0.167 HD
ATOM     36  C   UNL A   1      39.027  33.401  34.962  1.00  0.00     0.074 A 
ATOM     37  C   UNL A   1      38.002  34.414  34.806  1.00  0.00     0.031 C 
ATOM     38  C   UNL A   1      39.858  33.313  36.030  1.00  0.00     0.037 A 
BRANCH  25  39
ATOM     39  C   UNL A   1      43.836  28.583  35.776  1.00  0.00     0.058 A 
ATOM     40  C   UNL A   1      43.550  27.527  36.656  1.00  0.00     0.135 A 
ATOM     41  C   UNL A   1      45.187  28.875  35.523  1.00  0.00     0.135 A 
ATOM     42  F   UNL A   1      42.278  27.214  36.945  1.00  0.00    -0.206 F 
ATOM     43  C   UNL A   1      44.564  26.809  37.285  1.00  0.00     0.059 A 
ATOM     44  C   UNL A   1      46.217  28.155  36.122  1.00  0.00     0.059 A 
ATOM     45  F   UNL A   1      45.518  29.873  34.689  1.00  0.00    -0.206 F 
ATOM     46  C   UNL A   1      45.895  27.134  37.015  1.00  0.00     0.060 A 
BRANCH  46  47
ATOM     47  S   UNL A   1      47.200  26.206  37.849  1.00  0.00     0.124 S 
ATOM     48  O   UNL A   1      46.429  25.425  38.812  1.00  0.00    -0.237 OA
ATOM     49  O   UNL A   1      47.796  25.448  36.752  1.00  0.00    -0.237 OA
ATOM     50  O   UNL A   1      48.047  27.247  38.421  1.00  0.00    -0.744 OA
ENDBRANCH  46  47
ENDBRANCH  25  39
BRANCH  26  51
ATOM     51  C   UNL A   1      36.406  33.326  31.051  1.00  0.00     0.058 A 
ATOM     52  C   UNL A   1      35.085  33.251  31.515  1.00  0.00     0.135 A 
ATOM     53  C   UNL A   1      36.663  34.121  29.924  1.00  0.00     0.135 A 
ATOM     54  F   UNL A   1      34.792  32.502  32.588  1.00  0.00    -0.206 F 
ATOM     55  C   UNL A   1      34.052  33.933  30.880  1.00  0.00     0.059 A 
ATOM     56  C   UNL A   1      35.651  34.834  29.288  1.00  0.00     0.059 A 
ATOM     57  F   UNL A   1      37.915  34.241  29.455  1.00  0.00    -0.206 F 
ATOM     58  C   UNL A   1      34.348  34.726  29.769  1.00  0.00     0.060 A 
BRANCH  58  59
ATOM     59  S   UNL A   1      33.011  35.658  28.989  1.00  0.00     0.124 S 
ATOM     60  O   UNL A   1      32.372  34.629  28.178  1.00  0.00    -0.237 OA
ATOM     61  O   UNL A   1      32.252  36.129  30.143  1.00  0.00    -0.237 OA
ATOM     62  O   UNL A   1      33.719  36.698  28.249  1.00  0.00    -0.744 OA
ENDBRANCH  58  59
ENDBRANCH  26  51
BRANCH  38  63
ATOM     63  C   UNL A   1      39.721  34.369  37.091  1.00  0.00     0.058 A 
ATOM     64  C   UNL A   1      38.962  34.157  38.252  1.00  0.00     0.135 A 
ATOM     65  C   UNL A   1      40.378  35.602  36.950  1.00  0.00     0.135 A 
ATOM     66  F   UNL A   1      38.308  32.998  38.430  1.00  0.00    -0.206 F 
ATOM     67  C   UNL A   1      38.832  35.145  39.223  1.00  0.00     0.059 A 
ATOM     68  C   UNL A   1      40.283  36.594  37.920  1.00  0.00     0.059 A 
ATOM     69  F   UNL A   1      41.125  35.850  35.863  1.00  0.00    -0.206 F 
ATOM     70  C   UNL A   1      39.493  36.361  39.047  1.00  0.00     0.060 A 
BRANCH  70  71
ATOM     71  S   UNL A   1      39.328  37.632  40.317  1.00  0.00     0.124 S 
ATOM     72  O   UNL A   1      38.332  38.516  39.720  1.00  0.00    -0.237 OA
ATOM     73  O   UNL A   1      38.881  36.864  41.475  1.00  0.00    -0.237 OA
ATOM     74  O   UNL A   1      40.676  38.183  40.422  1.00  0.00    -0.744 OA
ENDBRANCH  70  71
ENDBRANCH  38  63
ENDBRANCH  12  13
ENDBRANCH   5   7
ENDBRANCH   2   3
ENDBRANCH   1   2
BRANCH   1  75
ATOM     75  C   UNL A   1      37.712  22.252  25.284  1.00  0.00     0.023 C 
BRANCH  75  76
ATOM     76  C   UNL A   1      36.720  21.122  25.542  1.00  0.00     0.116 C 
BRANCH  76  77
ATOM     77  N   UNL A   1      35.603  21.505  26.385  1.00  0.00    -0.355 N 
ATOM     78  C   UNL A   1      34.310  21.100  26.463  1.00  0.00     0.238 C 
ATOM     79  H   UNL A   1      35.830  22.206  27.037  1.00  0.00     0.163 HD
ATOM     80  O   UNL A   1      33.674  21.549  27.428  1.00  0.00    -0.273 OA
BRANCH  78  81
ATOM     81  C   UNL A   1      33.605  20.156  25.499  1.00  0.00     0.162 C 
ATOM     82  C   UNL A   1      34.369  19.148  24.661  1.00  0.00     0.032 C 
ATOM     83  N   UNL A   1      32.580  20.711  24.541  1.00  0.00    -0.185 NA
ATOM     84  C   UNL A   1      33.273  18.478  23.856  1.00  0.00     0.019 C 
ATOM     85  C   UNL A   1      32.203  19.549  23.663  1.00  0.00     0.103 C 
BRANCH  83  86
ATOM     86  S   UNL A   1      32.924  22.119  23.629  1.00  0.00     0.243 S 
ATOM     87  O   UNL A   1      34.366  22.217  23.512  1.00  0.00    -0.207 OA
ATOM     88  O   UNL A   1      32.110  22.051  22.434  1.00  0.00    -0.207 OA
BRANCH  86  89
ATOM     89  C   UNL A   1      32.346  23.530  24.539  1.00  0.00     0.084 A 
ATOM     90  C   UNL A   1      31.101  23.492  25.174  1.00  0.00     0.024 A 
ATOM     91  C   UNL A   1      33.218  24.599  24.780  1.00  0.00     0.050 A 
ATOM     92  C   UNL A   1      30.650  24.583  25.917  1.00  0.00     0.030 A 
ATOM     93  C   UNL A   1      32.793  25.654  25.588  1.00  0.00     0.066 A 
ATOM     94  C   UNL A   1      31.498  25.668  26.116  1.00  0.00     0.065 A 
ATOM     95  N   UNL A   1      33.677  26.690  25.900  1.00  0.00    -0.316 N 
ATOM     96  N   UNL A   1      31.055  26.765  26.859  1.00  0.00    -0.316 N 
ATOM     97  C   UNL A   1      33.329  27.769  26.685  1.00  0.00     0.314 A 
ATOM     98  H   UNL A   1      34.594  26.647  25.543  1.00  0.00     0.170 HD
ATOM     99  C   UNL A   1      31.854  27.849  27.147  1.00  0.00     0.314 A 
ATOM    100  H   UNL A   1      30.129  26.763  27.192  1.00  0.00     0.170 HD
ATOM    101  O   UNL A   1      34.146  28.627  26.993  1.00  0.00    -0.263 OA
ATOM    102  O   UNL A   1      31.424  28.831  27.738  1.00  0.00    -0.263 OA
ENDBRANCH  86  89
ENDBRANCH  83  86
ENDBRANCH  78  81
ENDBRANCH  76  77
ENDBRANCH  75  76
ENDBRANCH   1  75
TORSDOF 16
ENDMDL
MODEL 2
REMARK VINA RESULT:     -13.0      4.360      7.396
REMARK SMILES O=C(NCCCCNC(=O)[C@@H]1CCCN1S(=O)(=O)c1ccc2[nH]c(=O)c(=O)[nH]c2c1)c1ccc(-c2c3nc(c(-c4c(F)cc(S(=O)(=O)[O-])cc4F)c4ccc([nH]4)c(-c4c(F)cc(S(=O)(=O)[O-])cc4F)c4nc(c(-c5c(F)cc(S(=O)(=O)[O-])cc5F)c5ccc2[nH]5)C=C4)C=C3)cc1
REMARK SMILES IDX 5 1 4 2 3 3 1 4 2 5 31 7 32 8 96 9 33 10 95 11 34 12 35 13
REMARK SMILES IDX 36 14 89 15 37 16 94 17 88 18 90 19 38 20 93 21 87 22 86 23
REMARK SMILES IDX 39 25 73 26 52 27 72 28 53 29 56 30 71 31 91 32 54 33 55 34
REMARK SMILES IDX 70 36 92 37 57 38 40 39 41 40 50 41 42 42 43 43 49 44 51 45
REMARK SMILES IDX 44 46 45 47 46 48 47 49 48 50 74 51 75 52 84 53 76 54 77 55
REMARK SMILES IDX 83 56 85 57 78 58 79 59 80 60 81 61 82 62 58 63 59 64 68 65
REMARK SMILES IDX 60 66 61 67 67 68 69 69 62 70 63 71 64 72 65 73 66 74 6 75
REMARK SMILES IDX 7 76 8 77 9 78 10 80 11 81 12 82 15 83 13 84 14 85 16 86
REMARK SMILES IDX 17 87 18 88 19 89 20 90 30 91 21 92 29 93 22 94 28 95 23 96
REMARK SMILES IDX 26 97 24 99 27 101 25 102
REMARK H PARENT 3 6 90 24 56 35 8 79 28 98 23 100
REMARK Flexibility Score: inf
ROOT
ATOM      1  C   UNL A   1      42.675  23.603  28.519  1.00  0.00     0.023 C 
ENDROOT
BRANCH   1   2
ATOM      2  C   UNL A   1      41.524  23.032  27.703  1.00  0.00     0.116 C 
BRANCH   2   3
ATOM      3  N   UNL A   1      41.160  23.842  26.552  1.00  0.00    -0.352 N 
ATOM      4  O   UNL A   1      40.459  25.682  25.451  1.00  0.00    -0.269 OA
ATOM      5  C   UNL A   1      40.801  25.169  26.512  1.00  0.00     0.251 C 
ATOM      6  H   UNL A   1      41.172  23.378  25.683  1.00  0.00     0.163 HD
BRANCH   5   7
ATOM      7  C   UNL A   1      40.785  25.951  27.766  1.00  0.00     0.039 A 
ATOM      8  C   UNL A   1      39.749  25.796  28.687  1.00  0.00     0.014 A 
ATOM      9  C   UNL A   1      41.790  26.897  27.987  1.00  0.00     0.014 A 
ATOM     10  C   UNL A   1      39.622  26.701  29.735  1.00  0.00     0.010 A 
ATOM     11  C   UNL A   1      41.708  27.748  29.093  1.00  0.00     0.010 A 
ATOM     12  C   UNL A   1      40.596  27.691  29.947  1.00  0.00    -0.014 A 
BRANCH  12  13
ATOM     13  C   UNL A   1      40.429  28.642  31.075  1.00  0.00     0.031 A 
ATOM     14  C   UNL A   1      41.326  28.579  32.284  1.00  0.00     0.074 A 
ATOM     15  C   UNL A   1      39.487  29.601  30.982  1.00  0.00     0.049 A 
ATOM     16  N   UNL A   1      41.347  29.358  33.335  1.00  0.00    -0.248 NA
ATOM     17  C   UNL A   1      42.324  27.499  32.323  1.00  0.00     0.031 C 
ATOM     18  C   UNL A   1      38.553  29.756  29.863  1.00  0.00     0.029 A 
ATOM     19  N   UNL A   1      39.173  30.639  31.820  1.00  0.00    -0.354 N 
ATOM     20  C   UNL A   1      42.332  28.848  34.173  1.00  0.00     0.074 A 
ATOM     21  C   UNL A   1      42.876  27.679  33.516  1.00  0.00     0.031 C 
ATOM     22  C   UNL A   1      37.814  30.857  30.056  1.00  0.00     0.029 A 
ATOM     23  C   UNL A   1      38.176  31.451  31.338  1.00  0.00     0.049 A 
ATOM     24  H   UNL A   1      39.621  30.787  32.685  1.00  0.00     0.167 HD
ATOM     25  C   UNL A   1      42.746  29.314  35.377  1.00  0.00     0.037 A 
ATOM     26  C   UNL A   1      37.610  32.551  31.868  1.00  0.00     0.037 A 
ATOM     27  C   UNL A   1      42.218  30.496  36.011  1.00  0.00     0.049 A 
ATOM     28  C   UNL A   1      38.092  33.051  33.199  1.00  0.00     0.074 A 
ATOM     29  C   UNL A   1      42.599  31.074  37.210  1.00  0.00     0.029 A 
ATOM     30  N   UNL A   1      41.194  31.280  35.500  1.00  0.00    -0.354 N 
ATOM     31  N   UNL A   1      39.043  32.569  33.963  1.00  0.00    -0.248 NA
ATOM     32  C   UNL A   1      37.426  34.241  33.740  1.00  0.00     0.031 C 
ATOM     33  C   UNL A   1      41.780  32.185  37.443  1.00  0.00     0.029 A 
ATOM     34  C   UNL A   1      40.919  32.327  36.366  1.00  0.00     0.049 A 
ATOM     35  H   UNL A   1      40.730  31.117  34.647  1.00  0.00     0.167 HD
ATOM     36  C   UNL A   1      39.108  33.413  35.064  1.00  0.00     0.074 A 
ATOM     37  C   UNL A   1      38.106  34.441  34.860  1.00  0.00     0.031 C 
ATOM     38  C   UNL A   1      39.923  33.345  36.145  1.00  0.00     0.037 A 
BRANCH  25  39
ATOM     39  C   UNL A   1      43.808  28.532  36.103  1.00  0.00     0.058 A 
ATOM     40  C   UNL A   1      45.167  28.878  36.035  1.00  0.00     0.135 A 
ATOM     41  C   UNL A   1      43.453  27.434  36.907  1.00  0.00     0.135 A 
ATOM     42  F   UNL A   1      45.564  29.908  35.271  1.00  0.00    -0.206 F 
ATOM     43  C   UNL A   1      46.139  28.146  36.710  1.00  0.00     0.059 A 
ATOM     44  C   UNL A   1      44.407  26.703  37.610  1.00  0.00     0.059 A 
ATOM     45  F   UNL A   1      42.169  27.060  37.010  1.00  0.00    -0.206 F 
ATOM     46  C   UNL A   1      45.749  27.056  37.492  1.00  0.00     0.060 A 
BRANCH  46  47
ATOM     47  S   UNL A   1      47.022  26.106  38.351  1.00  0.00     0.124 S 
ATOM     48  O   UNL A   1      47.689  27.149  39.125  1.00  0.00    -0.237 OA
ATOM     49  O   UNL A   1      46.233  25.151  39.123  1.00  0.00    -0.237 OA
ATOM     50  O   UNL A   1      47.809  25.531  37.265  1.00  0.00    -0.744 OA
ENDBRANCH  46  47
ENDBRANCH  25  39
BRANCH  26  51
ATOM     51  C   UNL A   1      36.536  33.258  31.123  1.00  0.00     0.058 A 
ATOM     52  C   UNL A   1      36.835  34.040  29.999  1.00  0.00     0.135 A 
ATOM     53  C   UNL A   1      35.189  33.132  31.496  1.00  0.00     0.135 A 
ATOM     54  F   UNL A   1      38.109  34.190  29.605  1.00  0.00    -0.206 F 
ATOM     55  C   UNL A   1      35.837  34.683  29.274  1.00  0.00     0.059 A 
ATOM     56  C   UNL A   1      34.171  33.744  30.772  1.00  0.00     0.059 A 
ATOM     57  F   UNL A   1      34.851  32.376  32.552  1.00  0.00    -0.206 F 
ATOM     58  C   UNL A   1      34.506  34.524  29.667  1.00  0.00     0.060 A 
BRANCH  58  59
ATOM     59  S   UNL A   1      33.212  35.311  28.684  1.00  0.00     0.124 S 
ATOM     60  O   UNL A   1      33.996  36.152  27.787  1.00  0.00    -0.237 OA
ATOM     61  O   UNL A   1      32.550  34.163  28.072  1.00  0.00    -0.237 OA
ATOM     62  O   UNL A   1      32.420  36.020  29.684  1.00  0.00    -0.744 OA
ENDBRANCH  58  59
ENDBRANCH  26  51
BRANCH  38  63
ATOM     63  C   UNL A   1      39.794  34.439  37.168  1.00  0.00     0.058 A 
ATOM     64  C   UNL A   1      39.022  34.279  38.329  1.00  0.00     0.135 A 
ATOM     65  C   UNL A   1      40.472  35.656  36.992  1.00  0.00     0.135 A 
ATOM     66  F   UNL A   1      38.348  33.137  38.541  1.00  0.00    -0.206 F 
ATOM     67  C   UNL A   1      38.900  35.301  39.264  1.00  0.00     0.059 A 
ATOM     68  C   UNL A   1      40.385  36.682  37.926  1.00  0.00     0.059 A 
ATOM     69  F   UNL A   1      41.232  35.854  35.903  1.00  0.00    -0.206 F 
ATOM     70  C   UNL A   1      39.582  36.501  39.053  1.00  0.00     0.060 A 
BRANCH  70  71
ATOM     71  S   UNL A   1      39.426  37.817  40.277  1.00  0.00     0.124 S 
ATOM     72  O   UNL A   1      40.764  38.397  40.257  1.00  0.00    -0.237 OA
ATOM     73  O   UNL A   1      38.367  38.647  39.713  1.00  0.00    -0.237 OA
ATOM     74  O   UNL A   1      39.068  37.102  41.499  1.00  0.00    -0.744 OA
ENDBRANCH  70  71
ENDBRANCH  38  63
ENDBRANCH  12  13
ENDBRANCH   5   7
ENDBRANCH   2   3
ENDBRANCH   1   2
BRANCH   1  75
ATOM     75  C   UNL A   1      44.049  22.991  28.249  1.00  0.00     0.023 C 
BRANCH  75  76
ATOM     76  C   UNL A   1      45.243  23.914  28.475  1.00  0.00     0.116 C 
BRANCH  76  77
ATOM     77  N   UNL A   1      44.947  25.317  28.263  1.00  0.00    -0.355 N 
ATOM     78  C   UNL A   1      45.659  26.357  27.759  1.00  0.00     0.238 C 
ATOM     79  H   UNL A   1      44.037  25.569  28.542  1.00  0.00     0.163 HD
ATOM     80  O   UNL A   1      45.016  27.402  27.583  1.00  0.00    -0.273 OA
BRANCH  78  81
ATOM     81  C   UNL A   1      47.136  26.338  27.390  1.00  0.00     0.162 C 
ATOM     82  C   UNL A   1      47.900  27.610  27.074  1.00  0.00     0.032 C 
ATOM     83  N   UNL A   1      47.623  25.362  26.348  1.00  0.00    -0.185 NA
ATOM     84  C   UNL A   1      49.288  27.097  26.742  1.00  0.00     0.019 C 
ATOM     85  C   UNL A   1      49.071  25.713  26.138  1.00  0.00     0.103 C 
BRANCH  83  86
ATOM     86  S   UNL A   1      46.783  25.191  24.866  1.00  0.00     0.243 S 
ATOM     87  O   UNL A   1      45.925  26.350  24.718  1.00  0.00    -0.207 OA
ATOM     88  O   UNL A   1      47.777  24.900  23.854  1.00  0.00    -0.207 OA
BRANCH  86  89
ATOM     89  C   UNL A   1      45.752  23.748  24.971  1.00  0.00     0.084 A 
ATOM     90  C   UNL A   1      44.395  23.834  24.649  1.00  0.00     0.024 A 
ATOM     91  C   UNL A   1      46.340  22.495  25.183  1.00  0.00     0.050 A 
ATOM     92  C   UNL A   1      43.581  22.701  24.698  1.00  0.00     0.030 A 
ATOM     93  C   UNL A   1      45.537  21.354  25.154  1.00  0.00     0.066 A 
ATOM     94  C   UNL A   1      44.156  21.461  24.959  1.00  0.00     0.065 A 
ATOM     95  N   UNL A   1      46.120  20.092  25.288  1.00  0.00    -0.316 N 
ATOM     96  N   UNL A   1      43.351  20.321  25.008  1.00  0.00    -0.316 N 
ATOM     97  C   UNL A   1      45.393  18.919  25.277  1.00  0.00     0.314 A 
ATOM     98  H   UNL A   1      47.097  20.035  25.395  1.00  0.00     0.170 HD
ATOM     99  C   UNL A   1      43.853  19.053  25.203  1.00  0.00     0.314 A 
ATOM    100  H   UNL A   1      42.379  20.429  24.899  1.00  0.00     0.170 HD
ATOM    101  O   UNL A   1      45.941  17.826  25.332  1.00  0.00    -0.263 OA
ATOM    102  O   UNL A   1      43.123  18.079  25.315  1.00  0.00    -0.263 OA
ENDBRANCH  86  89
ENDBRANCH  83  86
ENDBRANCH  78  81
ENDBRANCH  76  77
ENDBRANCH  75  76
ENDBRANCH   1  75
TORSDOF 16
ENDMDL
MODEL 3
REMARK VINA RESULT:     -12.9      4.700     10.466
REMARK SMILES O=C(NCCCCNC(=O)[C@@H]1CCCN1S(=O)(=O)c1ccc2[nH]c(=O)c(=O)[nH]c2c1)c1ccc(-c2c3nc(c(-c4c(F)cc(S(=O)(=O)[O-])cc4F)c4ccc([nH]4)c(-c4c(F)cc(S(=O)(=O)[O-])cc4F)c4nc(c(-c5c(F)cc(S(=O)(=O)[O-])cc5F)c5ccc2[nH]5)C=C4)C=C3)cc1
REMARK SMILES IDX 5 1 4 2 3 3 1 4 2 5 31 7 32 8 96 9 33 10 95 11 34 12 35 13
REMARK SMILES IDX 36 14 89 15 37 16 94 17 88 18 90 19 38 20 93 21 87 22 86 23
REMARK SMILES IDX 39 25 73 26 52 27 72 28 53 29 56 30 71 31 91 32 54 33 55 34
REMARK SMILES IDX 70 36 92 37 57 38 40 39 41 40 50 41 42 42 43 43 49 44 51 45
REMARK SMILES IDX 44 46 45 47 46 48 47 49 48 50 74 51 75 52 84 53 76 54 77 55
REMARK SMILES IDX 83 56 85 57 78 58 79 59 80 60 81 61 82 62 58 63 59 64 68 65
REMARK SMILES IDX 60 66 61 67 67 68 69 69 62 70 63 71 64 72 65 73 66 74 6 75
REMARK SMILES IDX 7 76 8 77 9 78 10 80 11 81 12 82 15 83 13 84 14 85 16 86
REMARK SMILES IDX 17 87 18 88 19 89 20 90 30 91 21 92 29 93 22 94 28 95 23 96
REMARK SMILES IDX 26 97 24 99 27 101 25 102
REMARK H PARENT 3 6 90 24 56 35 8 79 28 98 23 100
REMARK Flexibility Score: inf
ROOT
ATOM      1  C   UNL A   1      33.890  28.284  25.703  1.00  0.00     0.023 C 
ENDROOT
BRANCH   1   2
ATOM      2  C   UNL A   1      33.562  28.431  27.182  1.00  0.00     0.116 C 
BRANCH   2   3
ATOM      3  N   UNL A   1      33.475  29.811  27.632  1.00  0.00    -0.352 N 
ATOM      4  O   UNL A   1      34.192  31.736  28.565  1.00  0.00    -0.269 OA
ATOM      5  C   UNL A   1      34.459  30.602  28.178  1.00  0.00     0.251 C 
ATOM      6  H   UNL A   1      32.593  30.238  27.532  1.00  0.00     0.163 HD
BRANCH   5   7
ATOM      7  C   UNL A   1      35.822  30.054  28.338  1.00  0.00     0.039 A 
ATOM      8  C   UNL A   1      36.248  29.555  29.569  1.00  0.00     0.014 A 
ATOM      9  C   UNL A   1      36.702  30.099  27.253  1.00  0.00     0.014 A 
ATOM     10  C   UNL A   1      37.594  29.268  29.764  1.00  0.00     0.010 A 
ATOM     11  C   UNL A   1      38.036  29.724  27.428  1.00  0.00     0.010 A 
ATOM     12  C   UNL A   1      38.505  29.355  28.699  1.00  0.00    -0.014 A 
BRANCH  12  13
ATOM     13  C   UNL A   1      39.936  29.041  28.942  1.00  0.00     0.031 A 
ATOM     14  C   UNL A   1      40.843  30.031  29.626  1.00  0.00     0.074 A 
ATOM     15  C   UNL A   1      40.406  27.830  28.582  1.00  0.00     0.049 A 
ATOM     16  N   UNL A   1      42.103  29.902  29.955  1.00  0.00    -0.248 NA
ATOM     17  C   UNL A   1      40.266  31.337  29.980  1.00  0.00     0.031 C 
ATOM     18  C   UNL A   1      39.623  26.793  27.905  1.00  0.00     0.029 A 
ATOM     19  N   UNL A   1      41.638  27.256  28.755  1.00  0.00    -0.354 N 
ATOM     20  C   UNL A   1      42.478  31.114  30.523  1.00  0.00     0.074 A 
ATOM     21  C   UNL A   1      41.316  31.975  30.479  1.00  0.00     0.031 C 
ATOM     22  C   UNL A   1      40.374  25.690  27.774  1.00  0.00     0.029 A 
ATOM     23  C   UNL A   1      41.707  25.961  28.300  1.00  0.00     0.049 A 
ATOM     24  H   UNL A   1      42.398  27.725  29.167  1.00  0.00     0.167 HD
ATOM     25  C   UNL A   1      43.680  31.473  31.038  1.00  0.00     0.037 A 
ATOM     26  C   UNL A   1      42.731  25.087  28.300  1.00  0.00     0.037 A 
ATOM     27  C   UNL A   1      44.824  30.598  31.105  1.00  0.00     0.049 A 
ATOM     28  C   UNL A   1      44.049  25.507  28.883  1.00  0.00     0.074 A 
ATOM     29  C   UNL A   1      46.074  30.854  31.645  1.00  0.00     0.029 A 
ATOM     30  N   UNL A   1      44.862  29.301  30.614  1.00  0.00    -0.354 N 
ATOM     31  N   UNL A   1      44.375  26.649  29.440  1.00  0.00    -0.248 NA
ATOM     32  C   UNL A   1      45.136  24.522  28.838  1.00  0.00     0.031 C 
ATOM     33  C   UNL A   1      46.877  29.725  31.446  1.00  0.00     0.029 A 
ATOM     34  C   UNL A   1      46.115  28.749  30.824  1.00  0.00     0.049 A 
ATOM     35  H   UNL A   1      44.108  28.840  30.180  1.00  0.00     0.167 HD
ATOM     36  C   UNL A   1      45.700  26.511  29.835  1.00  0.00     0.074 A 
ATOM     37  C   UNL A   1      46.109  25.171  29.463  1.00  0.00     0.031 C 
ATOM     38  C   UNL A   1      46.504  27.411  30.453  1.00  0.00     0.037 A 
BRANCH  25  39
ATOM     39  C   UNL A   1      43.831  32.880  31.550  1.00  0.00     0.058 A 
ATOM     40  C   UNL A   1      43.578  33.217  32.889  1.00  0.00     0.135 A 
ATOM     41  C   UNL A   1      44.265  33.903  30.690  1.00  0.00     0.135 A 
ATOM     42  F   UNL A   1      43.147  32.283  33.751  1.00  0.00    -0.206 F 
ATOM     43  C   UNL A   1      43.720  34.523  33.350  1.00  0.00     0.059 A 
ATOM     44  C   UNL A   1      44.437  35.211  31.135  1.00  0.00     0.059 A 
ATOM     45  F   UNL A   1      44.523  33.638  29.400  1.00  0.00    -0.206 F 
ATOM     46  C   UNL A   1      44.145  35.515  32.464  1.00  0.00     0.060 A 
BRANCH  46  47
ATOM     47  S   UNL A   1      44.310  37.208  33.071  1.00  0.00     0.124 S 
ATOM     48  O   UNL A   1      45.623  37.159  33.709  1.00  0.00    -0.237 OA
ATOM     49  O   UNL A   1      44.233  37.990  31.841  1.00  0.00    -0.237 OA
ATOM     50  O   UNL A   1      43.178  37.357  33.978  1.00  0.00    -0.744 OA
ENDBRANCH  46  47
ENDBRANCH  25  39
BRANCH  26  51
ATOM     51  C   UNL A   1      42.534  23.724  27.742  1.00  0.00     0.058 A 
ATOM     52  C   UNL A   1      42.594  23.497  26.359  1.00  0.00     0.135 A 
ATOM     53  C   UNL A   1      42.323  22.619  28.580  1.00  0.00     0.135 A 
ATOM     54  F   UNL A   1      42.794  24.523  25.518  1.00  0.00    -0.206 F 
ATOM     55  C   UNL A   1      42.441  22.222  25.825  1.00  0.00     0.059 A 
ATOM     56  C   UNL A   1      42.193  21.331  28.071  1.00  0.00     0.059 A 
ATOM     57  F   UNL A   1      42.279  22.783  29.912  1.00  0.00    -0.206 F 
ATOM     58  C   UNL A   1      42.246  21.144  26.691  1.00  0.00     0.060 A 
BRANCH  58  59
ATOM     59  S   UNL A   1      42.110  19.484  25.993  1.00  0.00     0.124 S 
ATOM     60  O   UNL A   1      42.622  18.665  27.085  1.00  0.00    -0.237 OA
ATOM     61  O   UNL A   1      40.679  19.378  25.728  1.00  0.00    -0.237 OA
ATOM     62  O   UNL A   1      42.955  19.554  24.804  1.00  0.00    -0.744 OA
ENDBRANCH  58  59
ENDBRANCH  26  51
BRANCH  38  63
ATOM     63  C   UNL A   1      47.894  26.958  30.803  1.00  0.00     0.058 A 
ATOM     64  C   UNL A   1      48.991  27.220  29.968  1.00  0.00     0.135 A 
ATOM     65  C   UNL A   1      48.131  26.271  32.004  1.00  0.00     0.135 A 
ATOM     66  F   UNL A   1      48.815  27.867  28.805  1.00  0.00    -0.206 F 
ATOM     67  C   UNL A   1      50.271  26.786  30.296  1.00  0.00     0.059 A 
ATOM     68  C   UNL A   1      49.407  25.851  32.365  1.00  0.00     0.059 A 
ATOM     69  F   UNL A   1      47.117  26.005  32.844  1.00  0.00    -0.206 F 
ATOM     70  C   UNL A   1      50.469  26.099  31.495  1.00  0.00     0.060 A 
BRANCH  70  71
ATOM     71  S   UNL A   1      52.136  25.551  31.917  1.00  0.00     0.124 S 
ATOM     72  O   UNL A   1      52.870  25.878  30.700  1.00  0.00    -0.237 OA
ATOM     73  O   UNL A   1      52.449  26.368  33.085  1.00  0.00    -0.237 OA
ATOM     74  O   UNL A   1      51.965  24.126  32.185  1.00  0.00    -0.744 OA
ENDBRANCH  70  71
ENDBRANCH  38  63
ENDBRANCH  12  13
ENDBRANCH   5   7
ENDBRANCH   2   3
ENDBRANCH   1   2
BRANCH   1  75
ATOM     75  C   UNL A   1      32.869  28.880  24.734  1.00  0.00     0.023 C 
BRANCH  75  76
ATOM     76  C   UNL A   1      31.753  27.942  24.285  1.00  0.00     0.116 C 
BRANCH  76  77
ATOM     77  N   UNL A   1      32.109  27.110  23.152  1.00  0.00    -0.355 N 
ATOM     78  C   UNL A   1      32.818  25.959  23.024  1.00  0.00     0.238 C 
ATOM     79  H   UNL A   1      31.762  27.450  22.296  1.00  0.00     0.163 HD
ATOM     80  O   UNL A   1      32.785  25.441  21.898  1.00  0.00    -0.273 OA
BRANCH  78  81
ATOM     81  C   UNL A   1      33.615  25.269  24.122  1.00  0.00     0.162 C 
ATOM     82  C   UNL A   1      34.556  24.117  23.826  1.00  0.00     0.032 C 
ATOM     83  N   UNL A   1      32.910  24.838  25.384  1.00  0.00    -0.185 NA
ATOM     84  C   UNL A   1      35.082  23.749  25.200  1.00  0.00     0.019 C 
ATOM     85  C   UNL A   1      33.949  24.080  26.166  1.00  0.00     0.103 C 
BRANCH  83  86
ATOM     86  S   UNL A   1      31.427  23.988  25.297  1.00  0.00     0.243 S 
ATOM     87  O   UNL A   1      30.955  23.798  26.655  1.00  0.00    -0.207 OA
ATOM     88  O   UNL A   1      30.597  24.691  24.341  1.00  0.00    -0.207 OA
BRANCH  86  89
ATOM     89  C   UNL A   1      31.739  22.388  24.591  1.00  0.00     0.084 A 
ATOM     90  C   UNL A   1      31.886  22.250  23.208  1.00  0.00     0.024 A 
ATOM     91  C   UNL A   1      32.032  21.309  25.433  1.00  0.00     0.050 A 
ATOM     92  C   UNL A   1      32.163  21.004  22.645  1.00  0.00     0.030 A 
ATOM     93  C   UNL A   1      32.385  20.082  24.870  1.00  0.00     0.066 A 
ATOM     94  C   UNL A   1      32.404  19.918  23.480  1.00  0.00     0.065 A 
ATOM     95  N   UNL A   1      32.753  19.018  25.696  1.00  0.00    -0.316 N 
ATOM     96  N   UNL A   1      32.683  18.666  22.926  1.00  0.00    -0.316 N 
ATOM     97  C   UNL A   1      33.107  17.775  25.214  1.00  0.00     0.314 A 
ATOM     98  H   UNL A   1      32.762  19.162  26.670  1.00  0.00     0.170 HD
ATOM     99  C   UNL A   1      32.989  17.559  23.686  1.00  0.00     0.314 A 
ATOM    100  H   UNL A   1      32.659  18.572  21.947  1.00  0.00     0.170 HD
ATOM    101  O   UNL A   1      33.487  16.883  25.961  1.00  0.00    -0.263 OA
ATOM    102  O   UNL A   1      33.159  16.457  23.183  1.00  0.00    -0.263 OA
ENDBRANCH  86  89
ENDBRANCH  83  86
ENDBRANCH  78  81
ENDBRANCH  76  77
ENDBRANCH  75  76
ENDBRANCH   1  75
TORSDOF 16
ENDMDL
