MODEL 1
REMARK VINA RESULT:     -11.6      0.000      0.000
REMARK SMILES O=C(NCCCCNC(=O)c1ccc(N[C@@H]2CCCS(=O)(=O)C2)c(F)c1F)c1ccc(-c2c3nc(c(-c4c(F)cc(S(=O)(=O)[O-])cc4F)c4ccc([nH]4)c(-c4c(F)cc(S(=O)(=O)[O-])cc4F)c4nc(c(-c5c(F)cc(S(=O)(=O)[O-])cc5F)c5ccc2[nH]5)C=C4)C=C3)cc1
REMARK SMILES IDX 5 1 4 2 3 3 1 4 2 5 28 7 29 8 93 9 30 10 92 11 31 12 32 13
REMARK SMILES IDX 33 14 86 15 34 16 91 17 85 18 87 19 35 20 90 21 84 22 83 23
REMARK SMILES IDX 36 25 70 26 49 27 69 28 50 29 53 30 68 31 88 32 51 33 52 34
REMARK SMILES IDX 67 36 89 37 54 38 37 39 38 40 47 41 39 42 40 43 46 44 48 45
REMARK SMILES IDX 41 46 42 47 43 48 44 49 45 50 71 51 72 52 81 53 73 54 74 55
REMARK SMILES IDX 80 56 82 57 75 58 76 59 77 60 78 61 79 62 55 63 56 64 65 65
REMARK SMILES IDX 57 66 58 67 64 68 66 69 59 70 60 71 61 72 62 73 63 74 6 75
REMARK SMILES IDX 7 76 8 77 9 78 10 80 11 81 12 82 26 83 13 84 24 85 27 86
REMARK SMILES IDX 14 87 25 88 15 89 16 91 17 92 23 93 18 94 20 95 19 96 21 97
REMARK SMILES IDX 22 98
REMARK H PARENT 3 6 87 24 53 35 8 79 15 90
REMARK Flexibility Score: inf
ROOT
ATOM      1  C   UNL A   1      33.846  27.754  25.146  1.00  0.00     0.023 C 
ENDROOT
BRANCH   1   2
ATOM      2  C   UNL A   1      34.299  28.051  26.568  1.00  0.00     0.116 C 
BRANCH   2   3
ATOM      3  N   UNL A   1      33.866  29.359  27.042  1.00  0.00    -0.352 N 
ATOM      4  O   UNL A   1      33.972  31.260  28.254  1.00  0.00    -0.269 OA
ATOM      5  C   UNL A   1      34.545  30.262  27.828  1.00  0.00     0.251 C 
ATOM      6  H   UNL A   1      32.964  29.635  26.762  1.00  0.00     0.163 HD
BRANCH   5   7
ATOM      7  C   UNL A   1      35.958  30.003  28.177  1.00  0.00     0.039 A 
ATOM      8  C   UNL A   1      36.966  30.231  27.238  1.00  0.00     0.014 A 
ATOM      9  C   UNL A   1      36.274  29.499  29.441  1.00  0.00     0.014 A 
ATOM     10  C   UNL A   1      38.259  29.799  27.500  1.00  0.00     0.010 A 
ATOM     11  C   UNL A   1      37.599  29.162  29.740  1.00  0.00     0.010 A 
ATOM     12  C   UNL A   1      38.597  29.279  28.760  1.00  0.00    -0.014 A 
BRANCH  12  13
ATOM     13  C   UNL A   1      40.017  28.947  29.045  1.00  0.00     0.031 A 
ATOM     14  C   UNL A   1      40.607  27.618  28.663  1.00  0.00     0.074 A 
ATOM     15  C   UNL A   1      40.784  29.889  29.632  1.00  0.00     0.049 A 
ATOM     16  N   UNL A   1      41.832  27.186  28.828  1.00  0.00    -0.248 NA
ATOM     17  C   UNL A   1      39.712  26.643  28.021  1.00  0.00     0.031 C 
ATOM     18  C   UNL A   1      40.313  31.210  30.058  1.00  0.00     0.029 A 
ATOM     19  N   UNL A   1      42.116  29.893  29.955  1.00  0.00    -0.354 N 
ATOM     20  C   UNL A   1      41.853  25.889  28.328  1.00  0.00     0.074 A 
ATOM     21  C   UNL A   1      40.511  25.594  27.876  1.00  0.00     0.031 C 
ATOM     22  C   UNL A   1      41.346  31.913  30.540  1.00  0.00     0.029 A 
ATOM     23  C   UNL A   1      42.535  31.071  30.528  1.00  0.00     0.049 A 
ATOM     24  H   UNL A   1      42.713  29.129  29.794  1.00  0.00     0.167 HD
ATOM     25  C   UNL A   1      42.901  25.032  28.250  1.00  0.00     0.037 A 
ATOM     26  C   UNL A   1      43.738  31.430  31.013  1.00  0.00     0.037 A 
ATOM     27  C   UNL A   1      44.236  25.345  28.696  1.00  0.00     0.049 A 
ATOM     28  C   UNL A   1      44.871  30.450  30.939  1.00  0.00     0.074 A 
ATOM     29  C   UNL A   1      45.373  24.557  28.628  1.00  0.00     0.029 A 
ATOM     30  N   UNL A   1      44.616  26.537  29.298  1.00  0.00    -0.354 N 
ATOM     31  N   UNL A   1      44.880  29.240  30.432  1.00  0.00    -0.248 NA
ATOM     32  C   UNL A   1      46.156  30.879  31.503  1.00  0.00     0.031 C 
ATOM     33  C   UNL A   1      46.426  25.250  29.235  1.00  0.00     0.029 A 
ATOM     34  C   UNL A   1      45.961  26.495  29.629  1.00  0.00     0.049 A 
ATOM     35  H   UNL A   1      44.018  27.301  29.464  1.00  0.00     0.167 HD
ATOM     36  C   UNL A   1      46.176  28.768  30.602  1.00  0.00     0.074 A 
ATOM     37  C   UNL A   1      46.926  29.832  31.238  1.00  0.00     0.031 C 
ATOM     38  C   UNL A   1      46.695  27.562  30.264  1.00  0.00     0.037 A 
BRANCH  25  39
ATOM     39  C   UNL A   1      42.650  23.661  27.677  1.00  0.00     0.058 A 
ATOM     40  C   UNL A   1      42.740  23.405  26.299  1.00  0.00     0.135 A 
ATOM     41  C   UNL A   1      42.376  22.574  28.525  1.00  0.00     0.135 A 
ATOM     42  F   UNL A   1      42.988  24.406  25.440  1.00  0.00    -0.206 F 
ATOM     43  C   UNL A   1      42.545  22.128  25.781  1.00  0.00     0.059 A 
ATOM     44  C   UNL A   1      42.203  21.283  28.031  1.00  0.00     0.059 A 
ATOM     45  F   UNL A   1      42.280  22.759  29.851  1.00  0.00    -0.206 F 
ATOM     46  C   UNL A   1      42.278  21.073  26.655  1.00  0.00     0.060 A 
BRANCH  46  47
ATOM     47  S   UNL A   1      42.037  19.421  25.967  1.00  0.00     0.124 S 
ATOM     48  O   UNL A   1      42.567  18.579  27.036  1.00  0.00    -0.237 OA
ATOM     49  O   UNL A   1      40.591  19.369  25.778  1.00  0.00    -0.237 OA
ATOM     50  O   UNL A   1      42.825  19.444  24.738  1.00  0.00    -0.744 OA
ENDBRANCH  46  47
ENDBRANCH  25  39
BRANCH  26  51
ATOM     51  C   UNL A   1      43.915  32.773  31.624  1.00  0.00     0.058 A 
ATOM     52  C   UNL A   1      44.197  33.897  30.836  1.00  0.00     0.135 A 
ATOM     53  C   UNL A   1      43.777  32.963  33.009  1.00  0.00     0.135 A 
ATOM     54  F   UNL A   1      44.340  33.767  29.508  1.00  0.00    -0.206 F 
ATOM     55  C   UNL A   1      44.352  35.160  31.398  1.00  0.00     0.059 A 
ATOM     56  C   UNL A   1      43.896  34.219  33.591  1.00  0.00     0.059 A 
ATOM     57  F   UNL A   1      43.485  31.921  33.804  1.00  0.00    -0.206 F 
ATOM     58  C   UNL A   1      44.197  35.310  32.778  1.00  0.00     0.060 A 
BRANCH  58  59
ATOM     59  S   UNL A   1      44.355  36.959  33.494  1.00  0.00     0.124 S 
ATOM     60  O   UNL A   1      45.212  37.621  32.518  1.00  0.00    -0.237 OA
ATOM     61  O   UNL A   1      42.967  37.410  33.535  1.00  0.00    -0.237 OA
ATOM     62  O   UNL A   1      44.961  36.704  34.797  1.00  0.00    -0.744 OA
ENDBRANCH  58  59
ENDBRANCH  26  51
BRANCH  38  63
ATOM     63  C   UNL A   1      48.155  27.342  30.552  1.00  0.00     0.058 A 
ATOM     64  C   UNL A   1      48.594  26.832  31.784  1.00  0.00     0.135 A 
ATOM     65  C   UNL A   1      49.122  27.615  29.571  1.00  0.00     0.135 A 
ATOM     66  F   UNL A   1      47.712  26.564  32.759  1.00  0.00    -0.206 F 
ATOM     67  C   UNL A   1      49.946  26.628  32.044  1.00  0.00     0.059 A 
ATOM     68  C   UNL A   1      50.475  27.389  29.799  1.00  0.00     0.059 A 
ATOM     69  F   UNL A   1      48.753  28.096  28.373  1.00  0.00    -0.206 F 
ATOM     70  C   UNL A   1      50.879  26.908  31.043  1.00  0.00     0.060 A 
BRANCH  70  71
ATOM     71  S   UNL A   1      52.627  26.614  31.384  1.00  0.00     0.124 S 
ATOM     72  O   UNL A   1      52.601  25.248  31.895  1.00  0.00    -0.237 OA
ATOM     73  O   UNL A   1      53.236  26.788  30.069  1.00  0.00    -0.237 OA
ATOM     74  O   UNL A   1      52.960  27.645  32.363  1.00  0.00    -0.744 OA
ENDBRANCH  70  71
ENDBRANCH  38  63
ENDBRANCH  12  13
ENDBRANCH   5   7
ENDBRANCH   2   3
ENDBRANCH   1   2
BRANCH   1  75
ATOM     75  C   UNL A   1      33.455  28.976  24.327  1.00  0.00     0.023 C 
BRANCH  75  76
ATOM     76  C   UNL A   1      33.257  28.715  22.840  1.00  0.00     0.116 C 
BRANCH  76  77
ATOM     77  N   UNL A   1      31.996  29.240  22.327  1.00  0.00    -0.352 N 
ATOM     78  C   UNL A   1      30.752  28.652  22.336  1.00  0.00     0.254 C 
ATOM     79  H   UNL A   1      32.042  30.135  21.921  1.00  0.00     0.163 HD
ATOM     80  O   UNL A   1      29.783  29.197  21.825  1.00  0.00    -0.269 OA
BRANCH  78  81
ATOM     81  C   UNL A   1      30.598  27.361  23.016  1.00  0.00     0.078 A 
ATOM     82  C   UNL A   1      30.070  27.333  24.305  1.00  0.00     0.019 A 
ATOM     83  C   UNL A   1      31.046  26.191  22.420  1.00  0.00     0.173 A 
ATOM     84  C   UNL A   1      30.114  26.154  25.044  1.00  0.00     0.030 A 
ATOM     85  C   UNL A   1      31.038  25.008  23.156  1.00  0.00     0.182 A 
ATOM     86  F   UNL A   1      31.548  26.193  21.177  1.00  0.00    -0.203 F 
ATOM     87  C   UNL A   1      30.606  24.962  24.498  1.00  0.00     0.074 A 
ATOM     88  F   UNL A   1      31.507  23.882  22.589  1.00  0.00    -0.201 F 
BRANCH  87  89
ATOM     89  N   UNL A   1      30.708  23.776  25.208  1.00  0.00    -0.379 N 
ATOM     90  H   UNL A   1      29.873  23.264  25.312  1.00  0.00     0.160 HD
BRANCH  89  91
ATOM     91  C   UNL A   1      31.903  23.184  25.824  1.00  0.00     0.094 C 
ATOM     92  C   UNL A   1      33.033  24.234  25.895  1.00  0.00     0.027 C 
ATOM     93  C   UNL A   1      32.217  21.836  25.179  1.00  0.00     0.161 C 
ATOM     94  C   UNL A   1      34.394  23.710  26.346  1.00  0.00     0.018 C 
ATOM     95  S   UNL A   1      33.730  21.148  25.777  1.00  0.00     0.152 S 
ATOM     96  C   UNL A   1      34.849  22.508  25.542  1.00  0.00     0.137 C 
ATOM     97  O   UNL A   1      34.126  20.086  24.874  1.00  0.00    -0.229 OA
ATOM     98  O   UNL A   1      33.594  20.905  27.199  1.00  0.00    -0.229 OA
ENDBRANCH  89  91
ENDBRANCH  87  89
ENDBRANCH  78  81
ENDBRANCH  76  77
ENDBRANCH  75  76
ENDBRANCH   1  75
TORSDOF 16
ENDMDL
MODEL 2
REMARK VINA RESULT:     -11.6      1.914      2.835
REMARK SMILES O=C(NCCCCNC(=O)c1ccc(N[C@@H]2CCCS(=O)(=O)C2)c(F)c1F)c1ccc(-c2c3nc(c(-c4c(F)cc(S(=O)(=O)[O-])cc4F)c4ccc([nH]4)c(-c4c(F)cc(S(=O)(=O)[O-])cc4F)c4nc(c(-c5c(F)cc(S(=O)(=O)[O-])cc5F)c5ccc2[nH]5)C=C4)C=C3)cc1
REMARK SMILES IDX 5 1 4 2 3 3 1 4 2 5 28 7 29 8 93 9 30 10 92 11 31 12 32 13
REMARK SMILES IDX 33 14 86 15 34 16 91 17 85 18 87 19 35 20 90 21 84 22 83 23
REMARK SMILES IDX 36 25 70 26 49 27 69 28 50 29 53 30 68 31 88 32 51 33 52 34
REMARK SMILES IDX 67 36 89 37 54 38 37 39 38 40 47 41 39 42 40 43 46 44 48 45
REMARK SMILES IDX 41 46 42 47 43 48 44 49 45 50 71 51 72 52 81 53 73 54 74 55
REMARK SMILES IDX 80 56 82 57 75 58 76 59 77 60 78 61 79 62 55 63 56 64 65 65
REMARK SMILES IDX 57 66 58 67 64 68 66 69 59 70 60 71 61 72 62 73 63 74 6 75
REMARK SMILES IDX 7 76 8 77 9 78 10 80 11 81 12 82 26 83 13 84 24 85 27 86
REMARK SMILES IDX 14 87 25 88 15 89 16 91 17 92 23 93 18 94 20 95 19 96 21 97
REMARK SMILES IDX 22 98
REMARK H PARENT 3 6 87 24 53 35 8 79 15 90
REMARK Flexibility Score: inf
ROOT
ATOM      1  C   UNL A   1      32.561  27.401  26.718  1.00  0.00     0.023 C 
ENDROOT
BRANCH   1   2
ATOM      2  C   UNL A   1      33.849  28.190  26.908  1.00  0.00     0.116 C 
BRANCH   2   3
ATOM      3  N   UNL A   1      33.620  29.551  27.374  1.00  0.00    -0.352 N 
ATOM      4  O   UNL A   1      34.066  31.455  28.499  1.00  0.00    -0.269 OA
ATOM      5  C   UNL A   1      34.474  30.387  28.057  1.00  0.00     0.251 C 
ATOM      6  H   UNL A   1      32.732  29.925  27.172  1.00  0.00     0.163 HD
BRANCH   5   7
ATOM      7  C   UNL A   1      35.876  29.970  28.278  1.00  0.00     0.039 A 
ATOM      8  C   UNL A   1      36.279  29.498  29.529  1.00  0.00     0.014 A 
ATOM      9  C   UNL A   1      36.800  30.082  27.237  1.00  0.00     0.014 A 
ATOM     10  C   UNL A   1      37.628  29.300  29.786  1.00  0.00     0.010 A 
ATOM     11  C   UNL A   1      38.146  29.779  27.470  1.00  0.00     0.010 A 
ATOM     12  C   UNL A   1      38.576  29.417  28.756  1.00  0.00    -0.014 A 
BRANCH  12  13
ATOM     13  C   UNL A   1      39.993  29.073  29.040  1.00  0.00     0.031 A 
ATOM     14  C   UNL A   1      40.567  27.733  28.671  1.00  0.00     0.074 A 
ATOM     15  C   UNL A   1      40.773  30.012  29.613  1.00  0.00     0.049 A 
ATOM     16  N   UNL A   1      41.788  27.289  28.836  1.00  0.00    -0.248 NA
ATOM     17  C   UNL A   1      39.659  26.761  28.043  1.00  0.00     0.031 C 
ATOM     18  C   UNL A   1      40.318  31.343  30.026  1.00  0.00     0.029 A 
ATOM     19  N   UNL A   1      42.106  30.005  29.932  1.00  0.00    -0.354 N 
ATOM     20  C   UNL A   1      41.793  25.986  28.351  1.00  0.00     0.074 A 
ATOM     21  C   UNL A   1      40.446  25.701  27.907  1.00  0.00     0.031 C 
ATOM     22  C   UNL A   1      41.361  32.040  30.497  1.00  0.00     0.029 A 
ATOM     23  C   UNL A   1      42.541  31.184  30.490  1.00  0.00     0.049 A 
ATOM     24  H   UNL A   1      42.694  29.232  29.777  1.00  0.00     0.167 HD
ATOM     25  C   UNL A   1      42.831  25.116  28.279  1.00  0.00     0.037 A 
ATOM     26  C   UNL A   1      43.749  31.535  30.967  1.00  0.00     0.037 A 
ATOM     27  C   UNL A   1      44.171  25.420  28.717  1.00  0.00     0.049 A 
ATOM     28  C   UNL A   1      44.871  30.542  30.900  1.00  0.00     0.074 A 
ATOM     29  C   UNL A   1      45.298  24.618  28.654  1.00  0.00     0.029 A 
ATOM     30  N   UNL A   1      44.566  26.613  29.304  1.00  0.00    -0.354 N 
ATOM     31  N   UNL A   1      44.864  29.326  30.407  1.00  0.00    -0.248 NA
ATOM     32  C   UNL A   1      46.163  30.962  31.455  1.00  0.00     0.031 C 
ATOM     33  C   UNL A   1      46.361  25.306  29.249  1.00  0.00     0.029 A 
ATOM     34  C   UNL A   1      45.912  26.560  29.632  1.00  0.00     0.049 A 
ATOM     35  H   UNL A   1      43.978  27.386  29.464  1.00  0.00     0.167 HD
ATOM     36  C   UNL A   1      46.155  28.842  30.577  1.00  0.00     0.074 A 
ATOM     37  C   UNL A   1      46.920  29.904  31.199  1.00  0.00     0.031 C 
ATOM     38  C   UNL A   1      46.659  27.626  30.251  1.00  0.00     0.037 A 
BRANCH  25  39
ATOM     39  C   UNL A   1      42.562  23.742  27.723  1.00  0.00     0.058 A 
ATOM     40  C   UNL A   1      42.557  23.489  26.341  1.00  0.00     0.135 A 
ATOM     41  C   UNL A   1      42.368  22.649  28.585  1.00  0.00     0.135 A 
ATOM     42  F   UNL A   1      42.725  24.495  25.469  1.00  0.00    -0.206 F 
ATOM     43  C   UNL A   1      42.347  22.209  25.836  1.00  0.00     0.059 A 
ATOM     44  C   UNL A   1      42.182  21.357  28.102  1.00  0.00     0.059 A 
ATOM     45  F   UNL A   1      42.365  22.832  29.916  1.00  0.00    -0.206 F 
ATOM     46  C   UNL A   1      42.162  21.149  26.724  1.00  0.00     0.060 A 
BRANCH  46  47
ATOM     47  S   UNL A   1      41.899  19.494  26.051  1.00  0.00     0.124 S 
ATOM     48  O   UNL A   1      40.467  19.518  25.767  1.00  0.00    -0.237 OA
ATOM     49  O   UNL A   1      42.777  19.488  24.885  1.00  0.00    -0.237 OA
ATOM     50  O   UNL A   1      42.306  18.613  27.142  1.00  0.00    -0.744 OA
ENDBRANCH  46  47
ENDBRANCH  25  39
BRANCH  26  51
ATOM     51  C   UNL A   1      43.943  32.883  31.562  1.00  0.00     0.058 A 
ATOM     52  C   UNL A   1      44.235  33.995  30.761  1.00  0.00     0.135 A 
ATOM     53  C   UNL A   1      43.812  33.090  32.946  1.00  0.00     0.135 A 
ATOM     54  F   UNL A   1      44.371  33.848  29.433  1.00  0.00    -0.206 F 
ATOM     55  C   UNL A   1      44.406  35.262  31.308  1.00  0.00     0.059 A 
ATOM     56  C   UNL A   1      43.948  34.352  33.513  1.00  0.00     0.059 A 
ATOM     57  F   UNL A   1      43.512  32.061  33.754  1.00  0.00    -0.206 F 
ATOM     58  C   UNL A   1      44.258  35.430  32.687  1.00  0.00     0.060 A 
BRANCH  58  59
ATOM     59  S   UNL A   1      44.437  37.085  33.383  1.00  0.00     0.124 S 
ATOM     60  O   UNL A   1      45.148  37.776  32.315  1.00  0.00    -0.237 OA
ATOM     61  O   UNL A   1      43.047  37.484  33.588  1.00  0.00    -0.237 OA
ATOM     62  O   UNL A   1      45.200  36.854  34.606  1.00  0.00    -0.744 OA
ENDBRANCH  58  59
ENDBRANCH  26  51
BRANCH  38  63
ATOM     63  C   UNL A   1      48.118  27.393  30.537  1.00  0.00     0.058 A 
ATOM     64  C   UNL A   1      49.115  27.739  29.612  1.00  0.00     0.135 A 
ATOM     65  C   UNL A   1      48.523  26.845  31.765  1.00  0.00     0.135 A 
ATOM     66  F   UNL A   1      48.781  28.256  28.419  1.00  0.00    -0.206 F 
ATOM     67  C   UNL A   1      50.463  27.522  29.883  1.00  0.00     0.059 A 
ATOM     68  C   UNL A   1      49.866  26.649  32.069  1.00  0.00     0.059 A 
ATOM     69  F   UNL A   1      47.608  26.505  32.688  1.00  0.00    -0.206 F 
ATOM     70  C   UNL A   1      50.827  26.978  31.116  1.00  0.00     0.060 A 
BRANCH  70  71
ATOM     71  S   UNL A   1      52.581  26.727  31.465  1.00  0.00     0.124 S 
ATOM     72  O   UNL A   1      53.072  26.251  30.176  1.00  0.00    -0.237 OA
ATOM     73  O   UNL A   1      53.016  28.064  31.856  1.00  0.00    -0.237 OA
ATOM     74  O   UNL A   1      52.575  25.738  32.540  1.00  0.00    -0.744 OA
ENDBRANCH  70  71
ENDBRANCH  38  63
ENDBRANCH  12  13
ENDBRANCH   5   7
ENDBRANCH   2   3
ENDBRANCH   1   2
BRANCH   1  75
ATOM     75  C   UNL A   1      32.752  25.960  26.265  1.00  0.00     0.023 C 
BRANCH  75  76
ATOM     76  C   UNL A   1      31.954  25.566  25.029  1.00  0.00     0.116 C 
BRANCH  76  77
ATOM     77  N   UNL A   1      32.580  25.989  23.781  1.00  0.00    -0.352 N 
ATOM     78  C   UNL A   1      33.525  25.334  23.026  1.00  0.00     0.254 C 
ATOM     79  H   UNL A   1      32.286  26.862  23.433  1.00  0.00     0.163 HD
ATOM     80  O   UNL A   1      33.997  25.835  22.015  1.00  0.00    -0.269 OA
BRANCH  78  81
ATOM     81  C   UNL A   1      33.930  23.985  23.438  1.00  0.00     0.078 A 
ATOM     82  C   UNL A   1      33.213  22.888  22.966  1.00  0.00     0.019 A 
ATOM     83  C   UNL A   1      34.960  23.804  24.350  1.00  0.00     0.173 A 
ATOM     84  C   UNL A   1      33.442  21.626  23.509  1.00  0.00     0.030 A 
ATOM     85  C   UNL A   1      35.212  22.528  24.848  1.00  0.00     0.182 A 
ATOM     86  F   UNL A   1      35.670  24.845  24.810  1.00  0.00    -0.203 F 
ATOM     87  C   UNL A   1      34.439  21.410  24.469  1.00  0.00     0.074 A 
ATOM     88  F   UNL A   1      36.187  22.361  25.759  1.00  0.00    -0.201 F 
BRANCH  87  89
ATOM     89  N   UNL A   1      34.676  20.182  25.067  1.00  0.00    -0.379 N 
ATOM     90  H   UNL A   1      35.291  20.190  25.837  1.00  0.00     0.160 HD
BRANCH  89  91
ATOM     91  C   UNL A   1      34.126  18.870  24.702  1.00  0.00     0.094 C 
ATOM     92  C   UNL A   1      32.768  18.654  25.405  1.00  0.00     0.027 C 
ATOM     93  C   UNL A   1      35.193  17.788  24.855  1.00  0.00     0.161 C 
ATOM     94  C   UNL A   1      32.165  17.259  25.262  1.00  0.00     0.018 C 
ATOM     95  S   UNL A   1      34.545  16.170  24.573  1.00  0.00     0.152 S 
ATOM     96  C   UNL A   1      33.136  16.163  25.655  1.00  0.00     0.137 C 
ATOM     97  O   UNL A   1      35.503  15.210  25.085  1.00  0.00    -0.229 OA
ATOM     98  O   UNL A   1      34.075  16.095  23.204  1.00  0.00    -0.229 OA
ENDBRANCH  89  91
ENDBRANCH  87  89
ENDBRANCH  78  81
ENDBRANCH  76  77
ENDBRANCH  75  76
ENDBRANCH   1  75
TORSDOF 16
ENDMDL
MODEL 3
REMARK VINA RESULT:     -11.5      5.034      9.989
REMARK SMILES O=C(NCCCCNC(=O)c1ccc(N[C@@H]2CCCS(=O)(=O)C2)c(F)c1F)c1ccc(-c2c3nc(c(-c4c(F)cc(S(=O)(=O)[O-])cc4F)c4ccc([nH]4)c(-c4c(F)cc(S(=O)(=O)[O-])cc4F)c4nc(c(-c5c(F)cc(S(=O)(=O)[O-])cc5F)c5ccc2[nH]5)C=C4)C=C3)cc1
REMARK SMILES IDX 5 1 4 2 3 3 1 4 2 5 28 7 29 8 93 9 30 10 92 11 31 12 32 13
REMARK SMILES IDX 33 14 86 15 34 16 91 17 85 18 87 19 35 20 90 21 84 22 83 23
REMARK SMILES IDX 36 25 70 26 49 27 69 28 50 29 53 30 68 31 88 32 51 33 52 34
REMARK SMILES IDX 67 36 89 37 54 38 37 39 38 40 47 41 39 42 40 43 46 44 48 45
REMARK SMILES IDX 41 46 42 47 43 48 44 49 45 50 71 51 72 52 81 53 73 54 74 55
REMARK SMILES IDX 80 56 82 57 75 58 76 59 77 60 78 61 79 62 55 63 56 64 65 65
REMARK SMILES IDX 57 66 58 67 64 68 66 69 59 70 60 71 61 72 62 73 63 74 6 75
REMARK SMILES IDX 7 76 8 77 9 78 10 80 11 81 12 82 26 83 13 84 24 85 27 86
REMARK SMILES IDX 14 87 25 88 15 89 16 91 17 92 23 93 18 94 20 95 19 96 21 97
REMARK SMILES IDX 22 98
REMARK H PARENT 3 6 87 24 53 35 8 79 15 90
REMARK Flexibility Score: inf
ROOT
ATOM      1  C   UNL A   1      37.134  23.388  25.769  1.00  0.00     0.023 C 
ENDROOT
BRANCH   1   2
ATOM      2  C   UNL A   1      38.065  24.347  26.496  1.00  0.00     0.116 C 
BRANCH   2   3
ATOM      3  N   UNL A   1      39.460  24.194  26.105  1.00  0.00    -0.352 N 
ATOM      4  O   UNL A   1      41.645  24.740  25.981  1.00  0.00    -0.269 OA
ATOM      5  C   UNL A   1      40.559  24.909  26.523  1.00  0.00     0.251 C 
ATOM      6  H   UNL A   1      39.642  23.480  25.453  1.00  0.00     0.163 HD
BRANCH   5   7
ATOM      7  C   UNL A   1      40.409  25.903  27.609  1.00  0.00     0.039 A 
ATOM      8  C   UNL A   1      41.203  27.051  27.623  1.00  0.00     0.014 A 
ATOM      9  C   UNL A   1      39.491  25.669  28.635  1.00  0.00     0.014 A 
ATOM     10  C   UNL A   1      41.201  27.874  28.741  1.00  0.00     0.010 A 
ATOM     11  C   UNL A   1      39.416  26.558  29.712  1.00  0.00     0.010 A 
ATOM     12  C   UNL A   1      40.293  27.651  29.790  1.00  0.00    -0.014 A 
BRANCH  12  13
ATOM     13  C   UNL A   1      40.232  28.627  30.909  1.00  0.00     0.031 A 
ATOM     14  C   UNL A   1      41.154  28.525  32.092  1.00  0.00     0.074 A 
ATOM     15  C   UNL A   1      39.344  29.637  30.824  1.00  0.00     0.049 A 
ATOM     16  N   UNL A   1      41.235  29.308  33.139  1.00  0.00    -0.248 NA
ATOM     17  C   UNL A   1      42.102  27.400  32.114  1.00  0.00     0.031 C 
ATOM     18  C   UNL A   1      38.391  29.827  29.726  1.00  0.00     0.029 A 
ATOM     19  N   UNL A   1      39.106  30.701  31.654  1.00  0.00    -0.354 N 
ATOM     20  C   UNL A   1      42.226  28.765  33.950  1.00  0.00     0.074 A 
ATOM     21  C   UNL A   1      42.701  27.571  33.286  1.00  0.00     0.031 C 
ATOM     22  C   UNL A   1      37.707  30.961  29.925  1.00  0.00     0.029 A 
ATOM     23  C   UNL A   1      38.117  31.540  31.198  1.00  0.00     0.049 A 
ATOM     24  H   UNL A   1      39.593  30.849  32.495  1.00  0.00     0.167 HD
ATOM     25  C   UNL A   1      42.696  29.231  35.134  1.00  0.00     0.037 A 
ATOM     26  C   UNL A   1      37.579  32.643  31.751  1.00  0.00     0.037 A 
ATOM     27  C   UNL A   1      42.219  30.430  35.777  1.00  0.00     0.049 A 
ATOM     28  C   UNL A   1      38.100  33.118  33.075  1.00  0.00     0.074 A 
ATOM     29  C   UNL A   1      42.655  31.002  36.961  1.00  0.00     0.029 A 
ATOM     30  N   UNL A   1      41.196  31.237  35.300  1.00  0.00    -0.354 N 
ATOM     31  N   UNL A   1      39.061  32.610  33.810  1.00  0.00    -0.248 NA
ATOM     32  C   UNL A   1      37.466  34.310  33.648  1.00  0.00     0.031 C 
ATOM     33  C   UNL A   1      41.863  32.125  37.224  1.00  0.00     0.029 A 
ATOM     34  C   UNL A   1      40.970  32.287  36.176  1.00  0.00     0.049 A 
ATOM     35  H   UNL A   1      40.704  31.088  34.461  1.00  0.00     0.167 HD
ATOM     36  C   UNL A   1      39.157  33.432  34.926  1.00  0.00     0.074 A 
ATOM     37  C   UNL A   1      38.172  34.481  34.757  1.00  0.00     0.031 C 
ATOM     38  C   UNL A   1      39.985  33.324  35.995  1.00  0.00     0.037 A 
BRANCH  25  39
ATOM     39  C   UNL A   1      43.772  28.436  35.827  1.00  0.00     0.058 A 
ATOM     40  C   UNL A   1      45.136  28.706  35.633  1.00  0.00     0.135 A 
ATOM     41  C   UNL A   1      43.432  27.428  36.746  1.00  0.00     0.135 A 
ATOM     42  F   UNL A   1      45.521  29.649  34.758  1.00  0.00    -0.206 F 
ATOM     43  C   UNL A   1      46.124  27.993  36.306  1.00  0.00     0.059 A 
ATOM     44  C   UNL A   1      44.403  26.720  37.451  1.00  0.00     0.059 A 
ATOM     45  F   UNL A   1      42.144  27.128  36.973  1.00  0.00    -0.206 F 
ATOM     46  C   UNL A   1      45.747  27.002  37.215  1.00  0.00     0.060 A 
BRANCH  46  47
ATOM     47  S   UNL A   1      47.041  26.093  38.087  1.00  0.00     0.124 S 
ATOM     48  O   UNL A   1      48.179  26.275  37.191  1.00  0.00    -0.237 OA
ATOM     49  O   UNL A   1      47.117  26.802  39.360  1.00  0.00    -0.237 OA
ATOM     50  O   UNL A   1      46.514  24.734  38.160  1.00  0.00    -0.744 OA
ENDBRANCH  46  47
ENDBRANCH  25  39
BRANCH  26  51
ATOM     51  C   UNL A   1      36.477  33.355  31.052  1.00  0.00     0.058 A 
ATOM     52  C   UNL A   1      36.717  34.103  29.892  1.00  0.00     0.135 A 
ATOM     53  C   UNL A   1      35.154  33.277  31.519  1.00  0.00     0.135 A 
ATOM     54  F   UNL A   1      37.965  34.210  29.408  1.00  0.00    -0.206 F 
ATOM     55  C   UNL A   1      35.689  34.763  29.226  1.00  0.00     0.059 A 
ATOM     56  C   UNL A   1      34.106  33.900  30.853  1.00  0.00     0.059 A 
ATOM     57  F   UNL A   1      34.869  32.555  32.614  1.00  0.00    -0.206 F 
ATOM     58  C   UNL A   1      34.386  34.652  29.715  1.00  0.00     0.060 A 
BRANCH  58  59
ATOM     59  S   UNL A   1      33.051  35.473  28.818  1.00  0.00     0.124 S 
ATOM     60  O   UNL A   1      33.788  36.457  28.034  1.00  0.00    -0.237 OA
ATOM     61  O   UNL A   1      32.462  34.369  28.067  1.00  0.00    -0.237 OA
ATOM     62  O   UNL A   1      32.213  36.013  29.884  1.00  0.00    -0.744 OA
ENDBRANCH  58  59
ENDBRANCH  26  51
BRANCH  38  63
ATOM     63  C   UNL A   1      39.877  34.389  37.052  1.00  0.00     0.058 A 
ATOM     64  C   UNL A   1      39.069  34.221  38.188  1.00  0.00     0.135 A 
ATOM     65  C   UNL A   1      40.616  35.577  36.942  1.00  0.00     0.135 A 
ATOM     66  F   UNL A   1      38.334  33.107  38.337  1.00  0.00    -0.206 F 
ATOM     67  C   UNL A   1      38.975  35.208  39.164  1.00  0.00     0.059 A 
ATOM     68  C   UNL A   1      40.561  36.564  37.921  1.00  0.00     0.059 A 
ATOM     69  F   UNL A   1      41.411  35.784  35.879  1.00  0.00    -0.206 F 
ATOM     70  C   UNL A   1      39.728  36.376  39.021  1.00  0.00     0.060 A 
BRANCH  70  71
ATOM     71  S   UNL A   1      39.617  37.638  40.308  1.00  0.00     0.124 S 
ATOM     72  O   UNL A   1      39.001  36.890  41.400  1.00  0.00    -0.237 OA
ATOM     73  O   UNL A   1      41.014  38.010  40.502  1.00  0.00    -0.237 OA
ATOM     74  O   UNL A   1      38.778  38.668  39.701  1.00  0.00    -0.744 OA
ENDBRANCH  70  71
ENDBRANCH  38  63
ENDBRANCH  12  13
ENDBRANCH   5   7
ENDBRANCH   2   3
ENDBRANCH   1   2
BRANCH   1  75
ATOM     75  C   UNL A   1      36.066  24.055  24.912  1.00  0.00     0.023 C 
BRANCH  75  76
ATOM     76  C   UNL A   1      34.781  24.410  25.648  1.00  0.00     0.116 C 
BRANCH  76  77
ATOM     77  N   UNL A   1      33.628  23.641  25.195  1.00  0.00    -0.352 N 
ATOM     78  C   UNL A   1      32.396  24.096  24.785  1.00  0.00     0.254 C 
ATOM     79  H   UNL A   1      33.747  22.663  25.181  1.00  0.00     0.163 HD
ATOM     80  O   UNL A   1      31.500  23.325  24.472  1.00  0.00    -0.269 OA
BRANCH  78  81
ATOM     81  C   UNL A   1      32.188  25.546  24.689  1.00  0.00     0.078 A 
ATOM     82  C   UNL A   1      31.454  26.192  25.683  1.00  0.00     0.019 A 
ATOM     83  C   UNL A   1      32.641  26.254  23.586  1.00  0.00     0.173 A 
ATOM     84  C   UNL A   1      31.065  27.516  25.503  1.00  0.00     0.030 A 
ATOM     85  C   UNL A   1      32.285  27.593  23.444  1.00  0.00     0.182 A 
ATOM     86  F   UNL A   1      33.357  25.655  22.623  1.00  0.00    -0.203 F 
ATOM     87  C   UNL A   1      31.459  28.252  24.379  1.00  0.00     0.074 A 
ATOM     88  F   UNL A   1      32.696  28.268  22.356  1.00  0.00    -0.201 F 
BRANCH  87  89
ATOM     89  N   UNL A   1      31.062  29.558  24.138  1.00  0.00    -0.379 N 
ATOM     90  H   UNL A   1      31.733  30.254  24.327  1.00  0.00     0.160 HD
BRANCH  89  91
ATOM     91  C   UNL A   1      29.768  30.037  23.634  1.00  0.00     0.094 C 
ATOM     92  C   UNL A   1      29.481  29.418  22.248  1.00  0.00     0.027 C 
ATOM     93  C   UNL A   1      29.676  31.555  23.774  1.00  0.00     0.161 C 
ATOM     94  C   UNL A   1      28.256  29.967  21.522  1.00  0.00     0.018 C 
ATOM     95  S   UNL A   1      28.203  32.203  23.047  1.00  0.00     0.152 S 
ATOM     96  C   UNL A   1      28.266  31.480  21.425  1.00  0.00     0.137 C 
ATOM     97  O   UNL A   1      28.369  33.635  22.902  1.00  0.00    -0.229 OA
ATOM     98  O   UNL A   1      27.062  31.652  23.751  1.00  0.00    -0.229 OA
ENDBRANCH  89  91
ENDBRANCH  87  89
ENDBRANCH  78  81
ENDBRANCH  76  77
ENDBRANCH  75  76
ENDBRANCH   1  75
TORSDOF 16
ENDMDL
