MODEL 1
REMARK VINA RESULT:     -12.2      0.000      0.000
REMARK SMILES CC(/C=C1\SC(=S)N(CC(=O)NCC(=O)NCCCCNC(=O)c2ccc(-c3c4nc(c(-c5c(F)cc(S(=O)(=O)[O-])cc5F)c5ccc([nH]5)c(-c5c(F)cc(S(=O)(=O)[O-])cc5F)c5nc(c(-c6c(F)cc(S(=O)(=O)[O-])cc6F)c6ccc3[nH]6)C=C5)C=C4)cc2)C1=O)=C\c1ccccc1
REMARK SMILES IDX 17 1 16 2 14 3 15 4 13 6 12 7 10 8 11 9 9 11 8 12 3 13 4 14
REMARK SMILES IDX 5 15 90 16 6 17 91 18 7 19 2 20 1 21 92 22 93 23 94 24 98 25
REMARK SMILES IDX 95 26 97 27 96 28 18 29 19 30 20 31 21 32 22 33 23 35 24 36
REMARK SMILES IDX 25 37 89 38 26 39 88 40 27 41 28 42 29 43 82 44 30 45 87 46
REMARK SMILES IDX 81 47 83 48 31 49 86 50 80 51 79 52 32 54 66 55 45 56 65 57
REMARK SMILES IDX 46 58 49 59 64 60 84 61 47 62 48 63 63 65 85 66 50 67 33 68
REMARK SMILES IDX 34 69 43 70 35 71 36 72 42 73 44 74 37 75 38 76 39 77 40 78
REMARK SMILES IDX 41 79 67 80 68 81 77 82 69 83 70 84 76 85 78 86 71 87 72 88
REMARK SMILES IDX 73 89 74 90 75 91 51 92 52 93 61 94 53 95 54 96 60 97 62 98
REMARK SMILES IDX 55 99 56 100 57 101 58 102 59 103
REMARK H PARENT 16 5 12 10 21 34 83 53 49 64
REMARK Flexibility Score: inf
ROOT
ATOM      1  C   UNL A   1      34.079  31.183  27.716  1.00  0.00     0.116 C 
ENDROOT
BRANCH   1   2
ATOM      2  N   UNL A   1      32.944  31.081  26.827  1.00  0.00    -0.355 N 
ATOM      3  C   UNL A   1      32.624  30.050  25.985  1.00  0.00     0.239 C 
ATOM      4  O   UNL A   1      31.482  30.010  25.520  1.00  0.00    -0.273 OA
ATOM      5  H   UNL A   1      32.324  31.847  26.827  1.00  0.00     0.163 HD
BRANCH   3   6
ATOM      6  C   UNL A   1      33.604  28.884  25.765  1.00  0.00     0.216 C 
BRANCH   6   7
ATOM      7  N   UNL A   1      34.128  28.798  24.411  1.00  0.00    -0.345 N 
ATOM      8  C   UNL A   1      33.711  28.130  23.303  1.00  0.00     0.240 C 
ATOM      9  O   UNL A   1      34.273  28.439  22.246  1.00  0.00    -0.273 OA
ATOM     10  H   UNL A   1      34.945  29.328  24.269  1.00  0.00     0.164 HD
BRANCH   8  11
ATOM     11  C   UNL A   1      32.493  27.190  23.269  1.00  0.00     0.227 C 
BRANCH  11  12
ATOM     12  N   UNL A   1      32.621  25.880  23.914  1.00  0.00    -0.283 N 
ATOM     13  C   UNL A   1      34.282  22.675  23.774  1.00  0.00     0.024 C 
ATOM     14  C   UNL A   1      33.453  23.677  24.094  1.00  0.00     0.080 C 
ATOM     15  S   UNL A   1      32.442  23.829  25.469  1.00  0.00    -0.054 SA
ATOM     16  C   UNL A   1      33.373  24.913  23.264  1.00  0.00     0.266 C 
ATOM     17  C   UNL A   1      31.949  25.466  25.044  1.00  0.00     0.148 C 
ATOM     18  O   UNL A   1      33.948  25.054  22.202  1.00  0.00    -0.268 OA
ATOM     19  S   UNL A   1      30.827  26.313  25.944  1.00  0.00    -0.052 S 
BRANCH  13  20
ATOM     20  C   UNL A   1      34.493  21.411  24.471  1.00  0.00    -0.049 C 
ATOM     21  C   UNL A   1      35.177  21.511  25.806  1.00  0.00     0.044 C 
ATOM     22  C   UNL A   1      33.998  20.274  23.939  1.00  0.00     0.011 C 
BRANCH  22  23
ATOM     23  C   UNL A   1      33.830  18.958  24.593  1.00  0.00    -0.025 A 
ATOM     24  C   UNL A   1      34.744  17.928  24.331  1.00  0.00     0.008 A 
ATOM     25  C   UNL A   1      32.680  18.648  25.335  1.00  0.00     0.008 A 
ATOM     26  C   UNL A   1      34.543  16.643  24.850  1.00  0.00     0.001 A 
ATOM     27  C   UNL A   1      32.489  17.373  25.872  1.00  0.00     0.001 A 
ATOM     28  C   UNL A   1      33.425  16.372  25.636  1.00  0.00     0.000 A 
ENDBRANCH  22  23
ENDBRANCH  13  20
ENDBRANCH  11  12
ENDBRANCH   8  11
ENDBRANCH   6   7
ENDBRANCH   3   6
ENDBRANCH   1   2
BRANCH   1  29
ATOM     29  C   UNL A   1      34.309  32.583  28.277  1.00  0.00     0.023 C 
BRANCH  29  30
ATOM     30  C   UNL A   1      35.777  32.916  28.555  1.00  0.00     0.023 C 
BRANCH  30  31
ATOM     31  C   UNL A   1      36.225  32.771  30.011  1.00  0.00     0.116 C 
BRANCH  31  32
ATOM     32  N   UNL A   1      35.840  31.518  30.644  1.00  0.00    -0.352 N 
ATOM     33  C   UNL A   1      36.578  30.357  30.774  1.00  0.00     0.251 C 
ATOM     34  H   UNL A   1      34.935  31.494  31.030  1.00  0.00     0.163 HD
ATOM     35  O   UNL A   1      36.064  29.359  31.269  1.00  0.00    -0.269 OA
BRANCH  33  36
ATOM     36  C   UNL A   1      37.981  30.298  30.288  1.00  0.00     0.039 A 
ATOM     37  C   UNL A   1      39.033  30.406  31.201  1.00  0.00     0.014 A 
ATOM     38  C   UNL A   1      38.266  30.122  28.935  1.00  0.00     0.014 A 
ATOM     39  C   UNL A   1      40.353  30.230  30.765  1.00  0.00     0.010 A 
ATOM     40  C   UNL A   1      39.570  29.904  28.503  1.00  0.00     0.010 A 
ATOM     41  C   UNL A   1      40.625  29.924  29.420  1.00  0.00    -0.014 A 
BRANCH  41  42
ATOM     42  C   UNL A   1      41.970  29.483  28.976  1.00  0.00     0.031 A 
ATOM     43  C   UNL A   1      43.107  30.454  28.834  1.00  0.00     0.074 A 
ATOM     44  C   UNL A   1      42.117  28.205  28.571  1.00  0.00     0.049 A 
ATOM     45  N   UNL A   1      44.327  30.241  28.410  1.00  0.00    -0.248 NA
ATOM     46  C   UNL A   1      42.830  31.854  29.184  1.00  0.00     0.031 C 
ATOM     47  C   UNL A   1      41.051  27.200  28.558  1.00  0.00     0.029 A 
ATOM     48  N   UNL A   1      43.207  27.538  28.076  1.00  0.00    -0.354 N 
ATOM     49  C   UNL A   1      44.962  31.477  28.430  1.00  0.00     0.074 A 
ATOM     50  C   UNL A   1      43.976  32.443  28.870  1.00  0.00     0.031 C 
ATOM     51  C   UNL A   1      41.546  26.039  28.105  1.00  0.00     0.029 A 
ATOM     52  C   UNL A   1      42.954  26.221  27.773  1.00  0.00     0.049 A 
ATOM     53  H   UNL A   1      44.087  27.961  27.949  1.00  0.00     0.167 HD
ATOM     54  C   UNL A   1      46.249  31.772  28.126  1.00  0.00     0.037 A 
ATOM     55  C   UNL A   1      43.769  25.263  27.291  1.00  0.00     0.037 A 
ATOM     56  C   UNL A   1      47.223  30.790  27.716  1.00  0.00     0.049 A 
ATOM     57  C   UNL A   1      45.211  25.594  27.038  1.00  0.00     0.074 A 
ATOM     58  C   UNL A   1      48.575  30.964  27.474  1.00  0.00     0.029 A 
ATOM     59  N   UNL A   1      46.949  29.448  27.486  1.00  0.00    -0.354 N 
ATOM     60  N   UNL A   1      45.822  26.750  27.157  1.00  0.00    -0.248 NA
ATOM     61  C   UNL A   1      46.080  24.493  26.605  1.00  0.00     0.031 C 
ATOM     62  C   UNL A   1      49.111  29.738  27.064  1.00  0.00     0.029 A 
ATOM     63  C   UNL A   1      48.103  28.787  27.094  1.00  0.00     0.049 A 
ATOM     64  H   UNL A   1      46.065  29.028  27.587  1.00  0.00     0.167 HD
ATOM     65  C   UNL A   1      47.154  26.508  26.836  1.00  0.00     0.074 A 
ATOM     66  C   UNL A   1      47.259  25.095  26.535  1.00  0.00     0.031 C 
ATOM     67  C   UNL A   1      48.192  27.379  26.796  1.00  0.00     0.037 A 
BRANCH  54  68
ATOM     68  C   UNL A   1      46.694  33.208  28.240  1.00  0.00     0.058 A 
ATOM     69  C   UNL A   1      46.616  34.093  27.151  1.00  0.00     0.135 A 
ATOM     70  C   UNL A   1      47.148  33.725  29.465  1.00  0.00     0.135 A 
ATOM     71  F   UNL A   1      46.197  33.655  25.954  1.00  0.00    -0.206 F 
ATOM     72  C   UNL A   1      47.001  35.425  27.264  1.00  0.00     0.059 A 
ATOM     73  C   UNL A   1      47.508  35.064  29.609  1.00  0.00     0.059 A 
ATOM     74  F   UNL A   1      47.240  32.931  30.543  1.00  0.00    -0.206 F 
ATOM     75  C   UNL A   1      47.444  35.902  28.497  1.00  0.00     0.060 A 
BRANCH  75  76
ATOM     76  S   UNL A   1      47.930  37.637  28.626  1.00  0.00     0.124 S 
ATOM     77  O   UNL A   1      49.228  37.624  27.959  1.00  0.00    -0.237 OA
ATOM     78  O   UNL A   1      46.856  38.315  27.907  1.00  0.00    -0.237 OA
ATOM     79  O   UNL A   1      47.965  37.875  30.065  1.00  0.00    -0.744 OA
ENDBRANCH  75  76
ENDBRANCH  54  68
BRANCH  55  80
ATOM     80  C   UNL A   1      43.245  23.887  27.089  1.00  0.00     0.058 A 
ATOM     81  C   UNL A   1      42.913  23.431  25.805  1.00  0.00     0.135 A 
ATOM     82  C   UNL A   1      43.110  22.990  28.158  1.00  0.00     0.135 A 
ATOM     83  F   UNL A   1      43.028  24.253  24.750  1.00  0.00    -0.206 F 
ATOM     84  C   UNL A   1      42.452  22.137  25.588  1.00  0.00     0.059 A 
ATOM     85  C   UNL A   1      42.674  21.683  27.964  1.00  0.00     0.059 A 
ATOM     86  F   UNL A   1      43.440  23.371  29.402  1.00  0.00    -0.206 F 
ATOM     87  C   UNL A   1      42.338  21.269  26.674  1.00  0.00     0.060 A 
BRANCH  87  88
ATOM     88  S   UNL A   1      41.795  19.574  26.372  1.00  0.00     0.124 S 
ATOM     89  O   UNL A   1      42.524  19.246  25.152  1.00  0.00    -0.237 OA
ATOM     90  O   UNL A   1      42.234  18.890  27.583  1.00  0.00    -0.237 OA
ATOM     91  O   UNL A   1      40.348  19.707  26.227  1.00  0.00    -0.744 OA
ENDBRANCH  87  88
ENDBRANCH  55  80
BRANCH  67  92
ATOM     92  C   UNL A   1      49.541  26.821  26.435  1.00  0.00     0.058 A 
ATOM     93  C   UNL A   1      50.370  26.216  27.392  1.00  0.00     0.135 A 
ATOM     94  C   UNL A   1      49.995  26.864  25.107  1.00  0.00     0.135 A 
ATOM     95  F   UNL A   1      49.986  26.155  28.677  1.00  0.00    -0.206 F 
ATOM     96  C   UNL A   1      51.614  25.697  27.051  1.00  0.00     0.059 A 
ATOM     97  C   UNL A   1      51.224  26.327  24.738  1.00  0.00     0.059 A 
ATOM     98  F   UNL A   1      49.238  27.424  24.149  1.00  0.00    -0.206 F 
ATOM     99  C   UNL A   1      52.033  25.757  25.721  1.00  0.00     0.060 A 
BRANCH  99 100
ATOM    100  S   UNL A   1      53.640  25.059  25.287  1.00  0.00     0.124 S 
ATOM    101  O   UNL A   1      53.330  23.634  25.209  1.00  0.00    -0.237 OA
ATOM    102  O   UNL A   1      53.934  25.715  24.016  1.00  0.00    -0.237 OA
ATOM    103  O   UNL A   1      54.495  25.455  26.402  1.00  0.00    -0.744 OA
ENDBRANCH  99 100
ENDBRANCH  67  92
ENDBRANCH  41  42
ENDBRANCH  33  36
ENDBRANCH  31  32
ENDBRANCH  30  31
ENDBRANCH  29  30
ENDBRANCH   1  29
TORSDOF 19
ENDMDL
MODEL 2
REMARK VINA RESULT:     -12.0      6.357     12.236
REMARK SMILES CC(/C=C1\SC(=S)N(CC(=O)NCC(=O)NCCCCNC(=O)c2ccc(-c3c4nc(c(-c5c(F)cc(S(=O)(=O)[O-])cc5F)c5ccc([nH]5)c(-c5c(F)cc(S(=O)(=O)[O-])cc5F)c5nc(c(-c6c(F)cc(S(=O)(=O)[O-])cc6F)c6ccc3[nH]6)C=C5)C=C4)cc2)C1=O)=C\c1ccccc1
REMARK SMILES IDX 17 1 16 2 14 3 15 4 13 6 12 7 10 8 11 9 9 11 8 12 3 13 4 14
REMARK SMILES IDX 5 15 90 16 6 17 91 18 7 19 2 20 1 21 92 22 93 23 94 24 98 25
REMARK SMILES IDX 95 26 97 27 96 28 18 29 19 30 20 31 21 32 22 33 23 35 24 36
REMARK SMILES IDX 25 37 89 38 26 39 88 40 27 41 28 42 29 43 82 44 30 45 87 46
REMARK SMILES IDX 81 47 83 48 31 49 86 50 80 51 79 52 32 54 66 55 45 56 65 57
REMARK SMILES IDX 46 58 49 59 64 60 84 61 47 62 48 63 63 65 85 66 50 67 33 68
REMARK SMILES IDX 34 69 43 70 35 71 36 72 42 73 44 74 37 75 38 76 39 77 40 78
REMARK SMILES IDX 41 79 67 80 68 81 77 82 69 83 70 84 76 85 78 86 71 87 72 88
REMARK SMILES IDX 73 89 74 90 75 91 51 92 52 93 61 94 53 95 54 96 60 97 62 98
REMARK SMILES IDX 55 99 56 100 57 101 58 102 59 103
REMARK H PARENT 16 5 12 10 21 34 83 53 49 64
REMARK Flexibility Score: inf
ROOT
ATOM      1  C   UNL A   1      37.070  23.317  25.920  1.00  0.00     0.116 C 
ENDROOT
BRANCH   1   2
ATOM      2  N   UNL A   1      37.169  21.929  25.532  1.00  0.00    -0.355 N 
ATOM      3  C   UNL A   1      36.162  21.005  25.444  1.00  0.00     0.239 C 
ATOM      4  O   UNL A   1      36.381  19.959  24.829  1.00  0.00    -0.273 OA
ATOM      5  H   UNL A   1      38.071  21.608  25.301  1.00  0.00     0.163 HD
BRANCH   3   6
ATOM      6  C   UNL A   1      34.746  21.338  25.949  1.00  0.00     0.216 C 
BRANCH   6   7
ATOM      7  N   UNL A   1      33.783  20.264  25.762  1.00  0.00    -0.345 N 
ATOM      8  C   UNL A   1      32.668  20.151  24.994  1.00  0.00     0.240 C 
ATOM      9  O   UNL A   1      32.185  19.015  24.910  1.00  0.00    -0.273 OA
ATOM     10  H   UNL A   1      33.978  19.461  26.297  1.00  0.00     0.164 HD
BRANCH   8  11
ATOM     11  C   UNL A   1      32.114  21.279  24.105  1.00  0.00     0.227 C 
BRANCH  11  12
ATOM     12  N   UNL A   1      32.205  22.653  24.607  1.00  0.00    -0.283 N 
ATOM     13  C   UNL A   1      33.849  25.842  24.184  1.00  0.00     0.024 C 
ATOM     14  C   UNL A   1      33.111  24.834  24.666  1.00  0.00     0.080 C 
ATOM     15  S   UNL A   1      31.896  24.880  25.872  1.00  0.00    -0.054 SA
ATOM     16  C   UNL A   1      33.215  23.458  24.100  1.00  0.00     0.266 C 
ATOM     17  C   UNL A   1      31.468  23.186  25.642  1.00  0.00     0.148 C 
ATOM     18  O   UNL A   1      34.034  23.129  23.264  1.00  0.00    -0.268 OA
ATOM     19  S   UNL A   1      30.322  22.429  26.588  1.00  0.00    -0.052 S 
BRANCH  13  20
ATOM     20  C   UNL A   1      33.868  27.239  24.608  1.00  0.00    -0.049 C 
ATOM     21  C   UNL A   1      33.263  28.219  23.642  1.00  0.00     0.044 C 
ATOM     22  C   UNL A   1      34.328  27.548  25.839  1.00  0.00     0.011 C 
BRANCH  22  23
ATOM     23  C   UNL A   1      34.170  28.818  26.580  1.00  0.00    -0.025 A 
ATOM     24  C   UNL A   1      32.990  29.562  26.442  1.00  0.00     0.008 A 
ATOM     25  C   UNL A   1      35.237  29.395  27.284  1.00  0.00     0.008 A 
ATOM     26  C   UNL A   1      32.864  30.819  27.045  1.00  0.00     0.001 A 
ATOM     27  C   UNL A   1      35.104  30.639  27.904  1.00  0.00     0.001 A 
ATOM     28  C   UNL A   1      33.914  31.348  27.791  1.00  0.00     0.000 A 
ENDBRANCH  22  23
ENDBRANCH  13  20
ENDBRANCH  11  12
ENDBRANCH   8  11
ENDBRANCH   6   7
ENDBRANCH   3   6
ENDBRANCH   1   2
BRANCH   1  29
ATOM     29  C   UNL A   1      38.349  23.889  26.524  1.00  0.00     0.023 C 
BRANCH  29  30
ATOM     30  C   UNL A   1      39.432  22.847  26.808  1.00  0.00     0.023 C 
BRANCH  30  31
ATOM     31  C   UNL A   1      40.862  23.385  26.902  1.00  0.00     0.116 C 
BRANCH  31  32
ATOM     32  N   UNL A   1      41.217  24.352  25.875  1.00  0.00    -0.352 N 
ATOM     33  C   UNL A   1      41.401  25.716  26.003  1.00  0.00     0.251 C 
ATOM     34  H   UNL A   1      41.341  23.988  24.969  1.00  0.00     0.163 HD
ATOM     35  O   UNL A   1      41.620  26.398  25.007  1.00  0.00    -0.269 OA
BRANCH  33  36
ATOM     36  C   UNL A   1      41.305  26.367  27.335  1.00  0.00     0.039 A 
ATOM     37  C   UNL A   1      42.466  26.819  27.968  1.00  0.00     0.014 A 
ATOM     38  C   UNL A   1      40.073  26.547  27.959  1.00  0.00     0.014 A 
ATOM     39  C   UNL A   1      42.369  27.540  29.166  1.00  0.00     0.010 A 
ATOM     40  C   UNL A   1      39.966  27.299  29.125  1.00  0.00     0.010 A 
ATOM     41  C   UNL A   1      41.112  27.831  29.723  1.00  0.00    -0.014 A 
BRANCH  41  42
ATOM     42  C   UNL A   1      40.957  28.798  30.838  1.00  0.00     0.031 A 
ATOM     43  C   UNL A   1      41.784  28.695  32.087  1.00  0.00     0.074 A 
ATOM     44  C   UNL A   1      39.956  29.699  30.761  1.00  0.00     0.049 A 
ATOM     45  N   UNL A   1      41.736  29.427  33.171  1.00  0.00    -0.248 NA
ATOM     46  C   UNL A   1      42.773  27.609  32.139  1.00  0.00     0.031 C 
ATOM     47  C   UNL A   1      39.016  29.818  29.642  1.00  0.00     0.029 A 
ATOM     48  N   UNL A   1      39.548  30.668  31.640  1.00  0.00    -0.354 N 
ATOM     49  C   UNL A   1      42.677  28.886  34.040  1.00  0.00     0.074 A 
ATOM     50  C   UNL A   1      43.251  27.738  33.370  1.00  0.00     0.031 C 
ATOM     51  C   UNL A   1      38.160  30.820  29.891  1.00  0.00     0.029 A 
ATOM     52  C   UNL A   1      38.472  31.398  31.193  1.00  0.00     0.049 A 
ATOM     53  H   UNL A   1      39.984  30.826  32.509  1.00  0.00     0.167 HD
ATOM     54  C   UNL A   1      43.036  29.320  35.273  1.00  0.00     0.037 A 
ATOM     55  C   UNL A   1      37.816  32.426  31.763  1.00  0.00     0.037 A 
ATOM     56  C   UNL A   1      42.471  30.482  35.913  1.00  0.00     0.049 A 
ATOM     57  C   UNL A   1      38.285  32.939  33.094  1.00  0.00     0.074 A 
ATOM     58  C   UNL A   1      42.828  31.064  37.118  1.00  0.00     0.029 A 
ATOM     59  N   UNL A   1      41.428  31.243  35.399  1.00  0.00    -0.354 N 
ATOM     60  N   UNL A   1      39.245  32.479  33.862  1.00  0.00    -0.248 NA
ATOM     61  C   UNL A   1      37.599  34.121  33.630  1.00  0.00     0.031 C 
ATOM     62  C   UNL A   1      41.979  32.151  37.351  1.00  0.00     0.029 A 
ATOM     63  C   UNL A   1      41.122  32.279  36.269  1.00  0.00     0.049 A 
ATOM     64  H   UNL A   1      40.973  31.071  34.544  1.00  0.00     0.167 HD
ATOM     65  C   UNL A   1      39.294  33.330  34.960  1.00  0.00     0.074 A 
ATOM     66  C   UNL A   1      38.278  34.341  34.748  1.00  0.00     0.031 C 
ATOM     67  C   UNL A   1      40.106  33.277  36.044  1.00  0.00     0.037 A 
BRANCH  54  68
ATOM     68  C   UNL A   1      44.103  28.551  36.011  1.00  0.00     0.058 A 
ATOM     69  C   UNL A   1      43.786  27.463  36.842  1.00  0.00     0.135 A 
ATOM     70  C   UNL A   1      45.463  28.865  35.844  1.00  0.00     0.135 A 
ATOM     71  F   UNL A   1      42.505  27.120  37.047  1.00  0.00    -0.206 F 
ATOM     72  C   UNL A   1      44.772  26.737  37.502  1.00  0.00     0.059 A 
ATOM     73  C   UNL A   1      46.469  28.131  36.470  1.00  0.00     0.059 A 
ATOM     74  F   UNL A   1      45.828  29.891  35.059  1.00  0.00    -0.206 F 
ATOM     75  C   UNL A   1      46.111  27.077  37.309  1.00  0.00     0.060 A 
BRANCH  75  76
ATOM     76  S   UNL A   1      47.377  26.117  38.166  1.00  0.00     0.124 S 
ATOM     77  O   UNL A   1      48.191  25.649  37.048  1.00  0.00    -0.237 OA
ATOM     78  O   UNL A   1      48.000  27.118  39.026  1.00  0.00    -0.237 OA
ATOM     79  O   UNL A   1      46.612  25.086  38.861  1.00  0.00    -0.744 OA
ENDBRANCH  75  76
ENDBRANCH  54  68
BRANCH  55  80
ATOM     80  C   UNL A   1      36.694  33.074  31.037  1.00  0.00     0.058 A 
ATOM     81  C   UNL A   1      35.371  32.907  31.471  1.00  0.00     0.135 A 
ATOM     82  C   UNL A   1      36.920  33.906  29.931  1.00  0.00     0.135 A 
ATOM     83  F   UNL A   1      35.105  32.122  32.527  1.00  0.00    -0.206 F 
ATOM     84  C   UNL A   1      34.308  33.530  30.826  1.00  0.00     0.059 A 
ATOM     85  C   UNL A   1      35.876  34.560  29.284  1.00  0.00     0.059 A 
ATOM     86  F   UNL A   1      38.171  34.119  29.494  1.00  0.00    -0.206 F 
ATOM     87  C   UNL A   1      34.571  34.358  29.734  1.00  0.00     0.060 A 
BRANCH  87  88
ATOM     88  S   UNL A   1      33.189  35.208  28.942  1.00  0.00     0.124 S 
ATOM     89  O   UNL A   1      32.275  35.387  30.063  1.00  0.00    -0.237 OA
ATOM     90  O   UNL A   1      33.825  36.419  28.434  1.00  0.00    -0.237 OA
ATOM     91  O   UNL A   1      32.756  34.261  27.919  1.00  0.00    -0.744 OA
ENDBRANCH  87  88
ENDBRANCH  55  80
BRANCH  67  92
ATOM     92  C   UNL A   1      39.945  34.360  37.075  1.00  0.00     0.058 A 
ATOM     93  C   UNL A   1      40.693  35.547  37.021  1.00  0.00     0.135 A 
ATOM     94  C   UNL A   1      39.007  34.222  38.110  1.00  0.00     0.135 A 
ATOM     95  F   UNL A   1      41.608  35.726  36.055  1.00  0.00    -0.206 F 
ATOM     96  C   UNL A   1      40.536  36.548  37.974  1.00  0.00     0.059 A 
ATOM     97  C   UNL A   1      38.814  35.222  39.058  1.00  0.00     0.059 A 
ATOM     98  F   UNL A   1      38.259  33.111  38.203  1.00  0.00    -0.206 F 
ATOM     99  C   UNL A   1      39.594  36.375  38.989  1.00  0.00     0.060 A 
BRANCH  99 100
ATOM    100  S   UNL A   1      39.384  37.692  40.206  1.00  0.00     0.124 S 
ATOM    101  O   UNL A   1      39.096  36.929  41.418  1.00  0.00    -0.237 OA
ATOM    102  O   UNL A   1      40.682  38.360  40.172  1.00  0.00    -0.237 OA
ATOM    103  O   UNL A   1      38.270  38.472  39.676  1.00  0.00    -0.744 OA
ENDBRANCH  99 100
ENDBRANCH  67  92
ENDBRANCH  41  42
ENDBRANCH  33  36
ENDBRANCH  31  32
ENDBRANCH  30  31
ENDBRANCH  29  30
ENDBRANCH   1  29
TORSDOF 19
ENDMDL
MODEL 3
REMARK VINA RESULT:     -11.9      2.301      8.386
REMARK SMILES CC(/C=C1\SC(=S)N(CC(=O)NCC(=O)NCCCCNC(=O)c2ccc(-c3c4nc(c(-c5c(F)cc(S(=O)(=O)[O-])cc5F)c5ccc([nH]5)c(-c5c(F)cc(S(=O)(=O)[O-])cc5F)c5nc(c(-c6c(F)cc(S(=O)(=O)[O-])cc6F)c6ccc3[nH]6)C=C5)C=C4)cc2)C1=O)=C\c1ccccc1
REMARK SMILES IDX 17 1 16 2 14 3 15 4 13 6 12 7 10 8 11 9 9 11 8 12 3 13 4 14
REMARK SMILES IDX 5 15 90 16 6 17 91 18 7 19 2 20 1 21 92 22 93 23 94 24 98 25
REMARK SMILES IDX 95 26 97 27 96 28 18 29 19 30 20 31 21 32 22 33 23 35 24 36
REMARK SMILES IDX 25 37 89 38 26 39 88 40 27 41 28 42 29 43 82 44 30 45 87 46
REMARK SMILES IDX 81 47 83 48 31 49 86 50 80 51 79 52 32 54 66 55 45 56 65 57
REMARK SMILES IDX 46 58 49 59 64 60 84 61 47 62 48 63 63 65 85 66 50 67 33 68
REMARK SMILES IDX 34 69 43 70 35 71 36 72 42 73 44 74 37 75 38 76 39 77 40 78
REMARK SMILES IDX 41 79 67 80 68 81 77 82 69 83 70 84 76 85 78 86 71 87 72 88
REMARK SMILES IDX 73 89 74 90 75 91 51 92 52 93 61 94 53 95 54 96 60 97 62 98
REMARK SMILES IDX 55 99 56 100 57 101 58 102 59 103
REMARK H PARENT 16 5 12 10 21 34 83 53 49 64
REMARK Flexibility Score: inf
ROOT
ATOM      1  C   UNL A   1      31.121  29.232  24.842  1.00  0.00     0.116 C 
ENDROOT
BRANCH   1   2
ATOM      2  N   UNL A   1      30.728  29.808  23.577  1.00  0.00    -0.355 N 
ATOM      3  C   UNL A   1      30.356  29.154  22.433  1.00  0.00     0.239 C 
ATOM      4  O   UNL A   1      29.786  29.801  21.550  1.00  0.00    -0.273 OA
ATOM      5  H   UNL A   1      30.727  30.792  23.532  1.00  0.00     0.163 HD
BRANCH   3   6
ATOM      6  C   UNL A   1      30.490  27.625  22.324  1.00  0.00     0.216 C 
BRANCH   6   7
ATOM      7  N   UNL A   1      31.675  27.183  21.605  1.00  0.00    -0.345 N 
ATOM      8  C   UNL A   1      32.844  26.624  22.014  1.00  0.00     0.240 C 
ATOM      9  O   UNL A   1      33.567  26.173  21.118  1.00  0.00    -0.273 OA
ATOM     10  H   UNL A   1      31.618  27.314  20.631  1.00  0.00     0.164 HD
BRANCH   8  11
ATOM     11  C   UNL A   1      33.207  26.362  23.487  1.00  0.00     0.227 C 
BRANCH  11  12
ATOM     12  N   UNL A   1      32.960  25.021  24.025  1.00  0.00    -0.283 N 
ATOM     13  C   UNL A   1      34.354  21.718  24.468  1.00  0.00     0.024 C 
ATOM     14  C   UNL A   1      33.515  22.761  24.427  1.00  0.00     0.080 C 
ATOM     15  S   UNL A   1      31.980  22.926  25.168  1.00  0.00    -0.054 SA
ATOM     16  C   UNL A   1      33.889  24.031  23.743  1.00  0.00     0.266 C 
ATOM     17  C   UNL A   1      31.815  24.609  24.673  1.00  0.00     0.148 C 
ATOM     18  O   UNL A   1      34.905  24.176  23.090  1.00  0.00    -0.268 OA
ATOM     19  S   UNL A   1      30.437  25.493  24.993  1.00  0.00    -0.052 S 
BRANCH  13  20
ATOM     20  C   UNL A   1      34.157  20.415  25.095  1.00  0.00    -0.049 C 
ATOM     21  C   UNL A   1      33.639  20.444  26.505  1.00  0.00     0.044 C 
ATOM     22  C   UNL A   1      34.357  19.296  24.366  1.00  0.00     0.011 C 
BRANCH  22  23
ATOM     23  C   UNL A   1      33.942  17.913  24.685  1.00  0.00    -0.025 A 
ATOM     24  C   UNL A   1      32.626  17.658  25.095  1.00  0.00     0.008 A 
ATOM     25  C   UNL A   1      34.873  16.866  24.761  1.00  0.00     0.008 A 
ATOM     26  C   UNL A   1      32.242  16.377  25.510  1.00  0.00     0.001 A 
ATOM     27  C   UNL A   1      34.485  15.582  25.152  1.00  0.00     0.001 A 
ATOM     28  C   UNL A   1      33.167  15.336  25.520  1.00  0.00     0.000 A 
ENDBRANCH  22  23
ENDBRANCH  13  20
ENDBRANCH  11  12
ENDBRANCH   8  11
ENDBRANCH   6   7
ENDBRANCH   3   6
ENDBRANCH   1   2
BRANCH   1  29
ATOM     29  C   UNL A   1      32.200  30.018  25.580  1.00  0.00     0.023 C 
BRANCH  29  30
ATOM     30  C   UNL A   1      33.487  29.232  25.837  1.00  0.00     0.023 C 
BRANCH  30  31
ATOM     31  C   UNL A   1      33.872  29.053  27.308  1.00  0.00     0.116 C 
BRANCH  31  32
ATOM     32  N   UNL A   1      33.891  30.282  28.086  1.00  0.00    -0.352 N 
ATOM     33  C   UNL A   1      34.944  30.844  28.782  1.00  0.00     0.251 C 
ATOM     34  H   UNL A   1      33.042  30.779  28.123  1.00  0.00     0.163 HD
ATOM     35  O   UNL A   1      34.761  31.852  29.458  1.00  0.00    -0.269 OA
BRANCH  33  36
ATOM     36  C   UNL A   1      36.291  30.218  28.745  1.00  0.00     0.039 A 
ATOM     37  C   UNL A   1      37.025  30.229  27.556  1.00  0.00     0.014 A 
ATOM     38  C   UNL A   1      36.842  29.631  29.882  1.00  0.00     0.014 A 
ATOM     39  C   UNL A   1      38.341  29.749  27.546  1.00  0.00     0.010 A 
ATOM     40  C   UNL A   1      38.162  29.192  29.890  1.00  0.00     0.010 A 
ATOM     41  C   UNL A   1      38.936  29.277  28.730  1.00  0.00    -0.014 A 
BRANCH  41  42
ATOM     42  C   UNL A   1      40.392  29.003  28.815  1.00  0.00     0.031 A 
ATOM     43  C   UNL A   1      40.962  27.664  28.443  1.00  0.00     0.074 A 
ATOM     44  C   UNL A   1      41.183  29.945  29.367  1.00  0.00     0.049 A 
ATOM     45  N   UNL A   1      42.201  27.247  28.510  1.00  0.00    -0.248 NA
ATOM     46  C   UNL A   1      40.013  26.651  27.962  1.00  0.00     0.031 C 
ATOM     47  C   UNL A   1      40.720  31.242  29.870  1.00  0.00     0.029 A 
ATOM     48  N   UNL A   1      42.530  29.956  29.617  1.00  0.00    -0.354 N 
ATOM     49  C   UNL A   1      42.182  25.921  28.091  1.00  0.00     0.074 A 
ATOM     50  C   UNL A   1      40.799  25.593  27.812  1.00  0.00     0.031 C 
ATOM     51  C   UNL A   1      41.769  31.931  30.342  1.00  0.00     0.029 A 
ATOM     52  C   UNL A   1      42.973  31.120  30.199  1.00  0.00     0.049 A 
ATOM     53  H   UNL A   1      43.125  29.201  29.400  1.00  0.00     0.167 HD
ATOM     54  C   UNL A   1      43.224  25.067  27.940  1.00  0.00     0.037 A 
ATOM     55  C   UNL A   1      44.212  31.497  30.568  1.00  0.00     0.037 A 
ATOM     56  C   UNL A   1      44.598  25.423  28.198  1.00  0.00     0.049 A 
ATOM     57  C   UNL A   1      45.361  30.564  30.316  1.00  0.00     0.074 A 
ATOM     58  C   UNL A   1      45.739  24.666  27.988  1.00  0.00     0.029 A 
ATOM     59  N   UNL A   1      45.019  26.638  28.722  1.00  0.00    -0.354 N 
ATOM     60  N   UNL A   1      45.340  29.347  29.825  1.00  0.00    -0.248 NA
ATOM     61  C   UNL A   1      46.703  31.058  30.647  1.00  0.00     0.031 C 
ATOM     62  C   UNL A   1      46.844  25.408  28.419  1.00  0.00     0.029 A 
ATOM     63  C   UNL A   1      46.399  26.647  28.854  1.00  0.00     0.049 A 
ATOM     64  H   UNL A   1      44.425  27.383  28.965  1.00  0.00     0.167 HD
ATOM     65  C   UNL A   1      46.668  28.939  29.766  1.00  0.00     0.074 A 
ATOM     66  C   UNL A   1      47.465  30.045  30.256  1.00  0.00     0.031 C 
ATOM     67  C   UNL A   1      47.178  27.756  29.345  1.00  0.00     0.037 A 
BRANCH  54  68
ATOM     68  C   UNL A   1      42.930  23.670  27.457  1.00  0.00     0.058 A 
ATOM     69  C   UNL A   1      43.035  23.322  26.100  1.00  0.00     0.135 A 
ATOM     70  C   UNL A   1      42.597  22.649  28.365  1.00  0.00     0.135 A 
ATOM     71  F   UNL A   1      43.342  24.255  25.185  1.00  0.00    -0.206 F 
ATOM     72  C   UNL A   1      42.791  22.025  25.657  1.00  0.00     0.059 A 
ATOM     73  C   UNL A   1      42.380  21.337  27.948  1.00  0.00     0.059 A 
ATOM     74  F   UNL A   1      42.487  22.919  29.675  1.00  0.00    -0.206 F 
ATOM     75  C   UNL A   1      42.465  21.039  26.589  1.00  0.00     0.060 A 
BRANCH  75  76
ATOM     76  S   UNL A   1      42.162  19.361  25.996  1.00  0.00     0.124 S 
ATOM     77  O   UNL A   1      42.986  19.326  24.792  1.00  0.00    -0.237 OA
ATOM     78  O   UNL A   1      42.636  18.546  27.111  1.00  0.00    -0.237 OA
ATOM     79  O   UNL A   1      40.720  19.333  25.772  1.00  0.00    -0.744 OA
ENDBRANCH  75  76
ENDBRANCH  54  68
BRANCH  55  80
ATOM     80  C   UNL A   1      44.426  32.848  31.148  1.00  0.00     0.058 A 
ATOM     81  C   UNL A   1      44.405  33.041  32.537  1.00  0.00     0.135 A 
ATOM     82  C   UNL A   1      44.701  33.958  30.336  1.00  0.00     0.135 A 
ATOM     83  F   UNL A   1      44.148  32.007  33.354  1.00  0.00    -0.206 F 
ATOM     84  C   UNL A   1      44.635  34.290  33.102  1.00  0.00     0.059 A 
ATOM     85  C   UNL A   1      44.958  35.213  30.879  1.00  0.00     0.059 A 
ATOM     86  F   UNL A   1      44.759  33.819  29.003  1.00  0.00    -0.206 F 
ATOM     87  C   UNL A   1      44.914  35.370  32.264  1.00  0.00     0.060 A 
BRANCH  87  88
ATOM     88  S   UNL A   1      45.269  36.974  33.013  1.00  0.00     0.124 S 
ATOM     89  O   UNL A   1      44.015  37.261  33.700  1.00  0.00    -0.237 OA
ATOM     90  O   UNL A   1      46.411  36.668  33.868  1.00  0.00    -0.237 OA
ATOM     91  O   UNL A   1      45.567  37.822  31.863  1.00  0.00    -0.744 OA
ENDBRANCH  87  88
ENDBRANCH  55  80
BRANCH  67  92
ATOM     92  C   UNL A   1      48.675  27.606  29.372  1.00  0.00     0.058 A 
ATOM     93  C   UNL A   1      49.477  28.017  28.297  1.00  0.00     0.135 A 
ATOM     94  C   UNL A   1      49.315  27.074  30.503  1.00  0.00     0.135 A 
ATOM     95  F   UNL A   1      48.914  28.525  27.189  1.00  0.00    -0.206 F 
ATOM     96  C   UNL A   1      50.861  27.881  28.330  1.00  0.00     0.059 A 
ATOM     97  C   UNL A   1      50.699  26.954  30.569  1.00  0.00     0.059 A 
ATOM     98  F   UNL A   1      48.595  26.673  31.564  1.00  0.00    -0.206 F 
ATOM     99  C   UNL A   1      51.463  27.348  29.471  1.00  0.00     0.060 A 
BRANCH  99 100
ATOM    100  S   UNL A   1      53.261  27.198  29.510  1.00  0.00     0.124 S 
ATOM    101  O   UNL A   1      53.523  27.182  30.947  1.00  0.00    -0.237 OA
ATOM    102  O   UNL A   1      53.486  25.937  28.811  1.00  0.00    -0.237 OA
ATOM    103  O   UNL A   1      53.718  28.390  28.802  1.00  0.00    -0.744 OA
ENDBRANCH  99 100
ENDBRANCH  67  92
ENDBRANCH  41  42
ENDBRANCH  33  36
ENDBRANCH  31  32
ENDBRANCH  30  31
ENDBRANCH  29  30
ENDBRANCH   1  29
TORSDOF 19
ENDMDL
