MODEL 1
REMARK VINA RESULT:     -10.7      0.000      0.000
REMARK SMILES O=C(NCCCCNC(=O)[C@@H](Cc1ccccc1Br)CC(F)(F)F)c1ccc(-c2c3nc(c(-c4c(F)cc(S(=O)(=O)[O-])cc4F)c4ccc([nH]4)c(-c4c(F)cc(S(=O)(=O)[O-])cc4F)c4nc(c(-c5c(F)cc(S(=O)(=O)[O-])cc5F)c5ccc2[nH]5)C=C4)C=C3)cc1
REMARK SMILES IDX 5 1 4 2 3 3 1 4 2 5 25 7 26 8 90 9 27 10 89 11 28 12 29 13
REMARK SMILES IDX 30 14 83 15 31 16 88 17 82 18 84 19 32 20 87 21 81 22 80 23
REMARK SMILES IDX 33 25 67 26 46 27 66 28 47 29 50 30 65 31 85 32 48 33 49 34
REMARK SMILES IDX 64 36 86 37 51 38 34 39 35 40 44 41 36 42 37 43 43 44 45 45
REMARK SMILES IDX 38 46 39 47 40 48 41 49 42 50 68 51 69 52 78 53 70 54 71 55
REMARK SMILES IDX 77 56 79 57 72 58 73 59 74 60 75 61 76 62 52 63 53 64 62 65
REMARK SMILES IDX 54 66 55 67 61 68 63 69 56 70 57 71 58 72 59 73 60 74 6 75
REMARK SMILES IDX 7 76 8 77 9 78 10 80 11 81 12 82 13 83 14 84 18 85 15 86
REMARK SMILES IDX 17 87 19 88 16 89 20 90 21 91 22 92 23 93 24 94
REMARK H PARENT 3 6 84 24 50 35 8 79
REMARK Flexibility Score: inf
ROOT
ATOM      1  C   UNL A   1      32.595  27.672  26.778  1.00  0.00     0.023 C 
ENDROOT
BRANCH   1   2
ATOM      2  C   UNL A   1      33.879  28.441  27.049  1.00  0.00     0.116 C 
BRANCH   2   3
ATOM      3  N   UNL A   1      33.677  29.765  27.622  1.00  0.00    -0.352 N 
ATOM      4  O   UNL A   1      34.303  31.622  28.759  1.00  0.00    -0.269 OA
ATOM      5  C   UNL A   1      34.611  30.549  28.271  1.00  0.00     0.251 C 
ATOM      6  H   UNL A   1      32.772  30.144  27.539  1.00  0.00     0.163 HD
BRANCH   5   7
ATOM      7  C   UNL A   1      35.987  30.016  28.394  1.00  0.00     0.039 A 
ATOM      8  C   UNL A   1      36.433  29.523  29.622  1.00  0.00     0.014 A 
ATOM      9  C   UNL A   1      36.861  30.123  27.311  1.00  0.00     0.014 A 
ATOM     10  C   UNL A   1      37.788  29.294  29.815  1.00  0.00     0.010 A 
ATOM     11  C   UNL A   1      38.210  29.800  27.482  1.00  0.00     0.010 A 
ATOM     12  C   UNL A   1      38.689  29.417  28.745  1.00  0.00    -0.014 A 
BRANCH  12  13
ATOM     13  C   UNL A   1      40.113  29.052  28.952  1.00  0.00     0.031 A 
ATOM     14  C   UNL A   1      40.650  27.709  28.540  1.00  0.00     0.074 A 
ATOM     15  C   UNL A   1      40.922  29.966  29.524  1.00  0.00     0.049 A 
ATOM     16  N   UNL A   1      41.856  27.227  28.698  1.00  0.00    -0.248 NA
ATOM     17  C   UNL A   1      39.721  26.783  27.872  1.00  0.00     0.031 C 
ATOM     18  C   UNL A   1      40.497  31.295  29.980  1.00  0.00     0.029 A 
ATOM     19  N   UNL A   1      42.257  29.928  29.822  1.00  0.00    -0.354 N 
ATOM     20  C   UNL A   1      41.826  25.936  28.184  1.00  0.00     0.074 A 
ATOM     21  C   UNL A   1      40.480  25.705  27.706  1.00  0.00     0.031 C 
ATOM     22  C   UNL A   1      41.554  31.951  30.475  1.00  0.00     0.029 A 
ATOM     23  C   UNL A   1      42.713  31.068  30.441  1.00  0.00     0.049 A 
ATOM     24  H   UNL A   1      42.837  29.158  29.612  1.00  0.00     0.167 HD
ATOM     25  C   UNL A   1      42.833  25.032  28.123  1.00  0.00     0.037 A 
ATOM     26  C   UNL A   1      43.916  31.359  30.968  1.00  0.00     0.037 A 
ATOM     27  C   UNL A   1      44.180  25.295  28.565  1.00  0.00     0.049 A 
ATOM     28  C   UNL A   1      45.004  30.331  30.900  1.00  0.00     0.074 A 
ATOM     29  C   UNL A   1      45.294  24.479  28.454  1.00  0.00     0.029 A 
ATOM     30  N   UNL A   1      44.594  26.450  29.210  1.00  0.00    -0.354 N 
ATOM     31  N   UNL A   1      44.971  29.138  30.357  1.00  0.00    -0.248 NA
ATOM     32  C   UNL A   1      46.285  30.677  31.526  1.00  0.00     0.031 C 
ATOM     33  C   UNL A   1      46.370  25.123  29.076  1.00  0.00     0.029 A 
ATOM     34  C   UNL A   1      45.935  26.353  29.542  1.00  0.00     0.049 A 
ATOM     35  H   UNL A   1      44.019  27.226  29.405  1.00  0.00     0.167 HD
ATOM     36  C   UNL A   1      46.224  28.585  30.586  1.00  0.00     0.074 A 
ATOM     37  C   UNL A   1      47.001  29.587  31.286  1.00  0.00     0.031 C 
ATOM     38  C   UNL A   1      46.685  27.356  30.253  1.00  0.00     0.037 A 
BRANCH  25  39
ATOM     39  C   UNL A   1      42.539  23.662  27.578  1.00  0.00     0.058 A 
ATOM     40  C   UNL A   1      42.569  23.389  26.203  1.00  0.00     0.135 A 
ATOM     41  C   UNL A   1      42.336  22.583  28.457  1.00  0.00     0.135 A 
ATOM     42  F   UNL A   1      42.750  24.384  25.321  1.00  0.00    -0.206 F 
ATOM     43  C   UNL A   1      42.409  22.094  25.716  1.00  0.00     0.059 A 
ATOM     44  C   UNL A   1      42.189  21.279  27.993  1.00  0.00     0.059 A 
ATOM     45  F   UNL A   1      42.298  22.792  29.782  1.00  0.00    -0.206 F 
ATOM     46  C   UNL A   1      42.225  21.045  26.619  1.00  0.00     0.060 A 
BRANCH  46  47
ATOM     47  S   UNL A   1      42.064  19.365  25.974  1.00  0.00     0.124 S 
ATOM     48  O   UNL A   1      42.911  19.427  24.786  1.00  0.00    -0.237 OA
ATOM     49  O   UNL A   1      42.576  18.557  27.075  1.00  0.00    -0.237 OA
ATOM     50  O   UNL A   1      40.633  19.234  25.716  1.00  0.00    -0.744 OA
ENDBRANCH  46  47
ENDBRANCH  25  39
BRANCH  26  51
ATOM     51  C   UNL A   1      44.118  32.656  31.661  1.00  0.00     0.058 A 
ATOM     52  C   UNL A   1      44.542  33.795  30.964  1.00  0.00     0.135 A 
ATOM     53  C   UNL A   1      43.859  32.783  33.035  1.00  0.00     0.135 A 
ATOM     54  F   UNL A   1      44.802  33.719  29.650  1.00  0.00    -0.206 F 
ATOM     55  C   UNL A   1      44.713  35.015  31.608  1.00  0.00     0.059 A 
ATOM     56  C   UNL A   1      43.998  33.999  33.695  1.00  0.00     0.059 A 
ATOM     57  F   UNL A   1      43.431  31.725  33.741  1.00  0.00    -0.206 F 
ATOM     58  C   UNL A   1      44.439  35.107  32.974  1.00  0.00     0.060 A 
BRANCH  58  59
ATOM     59  S   UNL A   1      44.617  36.704  33.797  1.00  0.00     0.124 S 
ATOM     60  O   UNL A   1      46.044  36.957  33.636  1.00  0.00    -0.237 OA
ATOM     61  O   UNL A   1      43.724  37.557  33.018  1.00  0.00    -0.237 OA
ATOM     62  O   UNL A   1      44.172  36.426  35.160  1.00  0.00    -0.744 OA
ENDBRANCH  58  59
ENDBRANCH  26  51
BRANCH  38  63
ATOM     63  C   UNL A   1      48.091  27.024  30.658  1.00  0.00     0.058 A 
ATOM     64  C   UNL A   1      48.356  26.329  31.848  1.00  0.00     0.135 A 
ATOM     65  C   UNL A   1      49.174  27.362  29.834  1.00  0.00     0.135 A 
ATOM     66  F   UNL A   1      47.352  25.997  32.675  1.00  0.00    -0.206 F 
ATOM     67  C   UNL A   1      49.653  25.989  32.214  1.00  0.00     0.059 A 
ATOM     68  C   UNL A   1      50.477  27.014  30.169  1.00  0.00     0.059 A 
ATOM     69  F   UNL A   1      48.968  28.024  28.684  1.00  0.00    -0.206 F 
ATOM     70  C   UNL A   1      50.707  26.334  31.365  1.00  0.00     0.060 A 
BRANCH  70  71
ATOM     71  S   UNL A   1      52.383  25.849  31.828  1.00  0.00     0.124 S 
ATOM     72  O   UNL A   1      53.101  26.043  30.573  1.00  0.00    -0.237 OA
ATOM     73  O   UNL A   1      52.701  26.794  32.893  1.00  0.00    -0.237 OA
ATOM     74  O   UNL A   1      52.229  24.461  32.255  1.00  0.00    -0.744 OA
ENDBRANCH  70  71
ENDBRANCH  38  63
ENDBRANCH  12  13
ENDBRANCH   5   7
ENDBRANCH   2   3
ENDBRANCH   1   2
BRANCH   1  75
ATOM     75  C   UNL A   1      31.747  28.251  25.654  1.00  0.00     0.023 C 
BRANCH  75  76
ATOM     76  C   UNL A   1      31.435  27.270  24.525  1.00  0.00     0.116 C 
BRANCH  76  77
ATOM     77  N   UNL A   1      32.295  27.502  23.388  1.00  0.00    -0.356 N 
ATOM     78  C   UNL A   1      33.315  26.787  22.863  1.00  0.00     0.223 C 
ATOM     79  H   UNL A   1      32.102  28.337  22.903  1.00  0.00     0.163 HD
ATOM     80  O   UNL A   1      33.935  27.299  21.927  1.00  0.00    -0.275 OA
BRANCH  78  81
ATOM     81  C   UNL A   1      33.702  25.387  23.338  1.00  0.00     0.092 C 
BRANCH  81  82
ATOM     82  C   UNL A   1      34.302  25.328  24.768  1.00  0.00     0.050 C 
BRANCH  82  83
ATOM     83  C   UNL A   1      34.022  24.235  25.785  1.00  0.00    -0.033 A 
ATOM     84  C   UNL A   1      32.737  24.056  26.329  1.00  0.00     0.005 A 
ATOM     85  C   UNL A   1      35.000  23.278  26.149  1.00  0.00     0.021 A 
ATOM     86  C   UNL A   1      32.470  23.068  27.285  1.00  0.00     0.000 A 
ATOM     87  C   UNL A   1      34.725  22.276  27.093  1.00  0.00     0.016 A 
ATOM     88  Br  UNL A   1      36.752  23.242  25.402  1.00  0.00    -0.051 Br
ATOM     89  C   UNL A   1      33.467  22.187  27.680  1.00  0.00     0.001 A 
ENDBRANCH  82  83
ENDBRANCH  81  82
BRANCH  81  90
ATOM     90  C   UNL A   1      32.739  24.282  22.902  1.00  0.00     0.129 C 
BRANCH  90  91
ATOM     91  C   UNL A   1      33.441  22.976  22.572  1.00  0.00     0.389 C 
ATOM     92  F   UNL A   1      33.100  21.994  23.430  1.00  0.00    -0.171 F 
ATOM     93  F   UNL A   1      33.083  22.571  21.331  1.00  0.00    -0.171 F 
ATOM     94  F   UNL A   1      34.781  23.110  22.578  1.00  0.00    -0.171 F 
ENDBRANCH  90  91
ENDBRANCH  81  90
ENDBRANCH  78  81
ENDBRANCH  76  77
ENDBRANCH  75  76
ENDBRANCH   1  75
TORSDOF 18
ENDMDL
MODEL 2
REMARK VINA RESULT:     -10.4      5.857     12.116
REMARK SMILES O=C(NCCCCNC(=O)[C@@H](Cc1ccccc1Br)CC(F)(F)F)c1ccc(-c2c3nc(c(-c4c(F)cc(S(=O)(=O)[O-])cc4F)c4ccc([nH]4)c(-c4c(F)cc(S(=O)(=O)[O-])cc4F)c4nc(c(-c5c(F)cc(S(=O)(=O)[O-])cc5F)c5ccc2[nH]5)C=C4)C=C3)cc1
REMARK SMILES IDX 5 1 4 2 3 3 1 4 2 5 25 7 26 8 90 9 27 10 89 11 28 12 29 13
REMARK SMILES IDX 30 14 83 15 31 16 88 17 82 18 84 19 32 20 87 21 81 22 80 23
REMARK SMILES IDX 33 25 67 26 46 27 66 28 47 29 50 30 65 31 85 32 48 33 49 34
REMARK SMILES IDX 64 36 86 37 51 38 34 39 35 40 44 41 36 42 37 43 43 44 45 45
REMARK SMILES IDX 38 46 39 47 40 48 41 49 42 50 68 51 69 52 78 53 70 54 71 55
REMARK SMILES IDX 77 56 79 57 72 58 73 59 74 60 75 61 76 62 52 63 53 64 62 65
REMARK SMILES IDX 54 66 55 67 61 68 63 69 56 70 57 71 58 72 59 73 60 74 6 75
REMARK SMILES IDX 7 76 8 77 9 78 10 80 11 81 12 82 13 83 14 84 18 85 15 86
REMARK SMILES IDX 17 87 19 88 16 89 20 90 21 91 22 92 23 93 24 94
REMARK H PARENT 3 6 84 24 50 35 8 79
REMARK Flexibility Score: inf
ROOT
ATOM      1  C   UNL A   1      47.234  25.319  35.594  1.00  0.00     0.023 C 
ENDROOT
BRANCH   1   2
ATOM      2  C   UNL A   1      48.428  26.220  35.876  1.00  0.00     0.116 C 
BRANCH   2   3
ATOM      3  N   UNL A   1      48.455  26.775  37.223  1.00  0.00    -0.352 N 
ATOM      4  O   UNL A   1      47.691  28.064  38.923  1.00  0.00    -0.269 OA
ATOM      5  C   UNL A   1      47.526  27.619  37.800  1.00  0.00     0.251 C 
ATOM      6  H   UNL A   1      49.222  26.521  37.785  1.00  0.00     0.163 HD
BRANCH   5   7
ATOM      7  C   UNL A   1      46.350  28.004  36.987  1.00  0.00     0.039 A 
ATOM      8  C   UNL A   1      46.505  28.888  35.917  1.00  0.00     0.014 A 
ATOM      9  C   UNL A   1      45.081  27.570  37.374  1.00  0.00     0.014 A 
ATOM     10  C   UNL A   1      45.383  29.467  35.342  1.00  0.00     0.010 A 
ATOM     11  C   UNL A   1      43.953  28.084  36.728  1.00  0.00     0.010 A 
ATOM     12  C   UNL A   1      44.095  29.062  35.730  1.00  0.00    -0.014 A 
BRANCH  12  13
ATOM     13  C   UNL A   1      42.916  29.614  35.016  1.00  0.00     0.031 A 
ATOM     14  C   UNL A   1      42.504  29.100  33.664  1.00  0.00     0.074 A 
ATOM     15  C   UNL A   1      42.216  30.595  35.618  1.00  0.00     0.049 A 
ATOM     16  N   UNL A   1      41.528  29.513  32.895  1.00  0.00    -0.248 NA
ATOM     17  C   UNL A   1      43.284  27.990  33.093  1.00  0.00     0.031 C 
ATOM     18  C   UNL A   1      42.542  31.180  36.924  1.00  0.00     0.029 A 
ATOM     19  N   UNL A   1      41.095  31.275  35.224  1.00  0.00    -0.354 N 
ATOM     20  C   UNL A   1      41.595  28.742  31.741  1.00  0.00     0.074 A 
ATOM     21  C   UNL A   1      42.709  27.832  31.906  1.00  0.00     0.031 C 
ATOM     22  C   UNL A   1      41.629  32.110  37.232  1.00  0.00     0.029 A 
ATOM     23  C   UNL A   1      40.699  32.241  36.118  1.00  0.00     0.049 A 
ATOM     24  H   UNL A   1      40.618  31.090  34.382  1.00  0.00     0.167 HD
ATOM     25  C   UNL A   1      40.798  28.796  30.647  1.00  0.00     0.037 A 
ATOM     26  C   UNL A   1      39.724  33.166  36.036  1.00  0.00     0.037 A 
ATOM     27  C   UNL A   1      39.667  29.680  30.517  1.00  0.00     0.049 A 
ATOM     28  C   UNL A   1      38.871  33.211  34.806  1.00  0.00     0.074 A 
ATOM     29  C   UNL A   1      38.738  29.741  29.491  1.00  0.00     0.029 A 
ATOM     30  N   UNL A   1      39.315  30.661  31.432  1.00  0.00    -0.354 N 
ATOM     31  N   UNL A   1      38.914  32.434  33.750  1.00  0.00    -0.248 NA
ATOM     32  C   UNL A   1      37.850  34.263  34.743  1.00  0.00     0.031 C 
ATOM     33  C   UNL A   1      37.855  30.792  29.763  1.00  0.00     0.029 A 
ATOM     34  C   UNL A   1      38.210  31.360  30.975  1.00  0.00     0.049 A 
ATOM     35  H   UNL A   1      39.782  30.835  32.281  1.00  0.00     0.167 HD
ATOM     36  C   UNL A   1      37.932  32.911  32.892  1.00  0.00     0.074 A 
ATOM     37  C   UNL A   1      37.290  34.021  33.566  1.00  0.00     0.031 C 
ATOM     38  C   UNL A   1      37.598  32.473  31.654  1.00  0.00     0.037 A 
BRANCH  25  39
ATOM     39  C   UNL A   1      41.111  27.897  29.483  1.00  0.00     0.058 A 
ATOM     40  C   UNL A   1      42.222  28.115  28.655  1.00  0.00     0.135 A 
ATOM     41  C   UNL A   1      40.348  26.737  29.265  1.00  0.00     0.135 A 
ATOM     42  F   UNL A   1      42.978  29.212  28.814  1.00  0.00    -0.206 F 
ATOM     43  C   UNL A   1      42.568  27.213  27.652  1.00  0.00     0.059 A 
ATOM     44  C   UNL A   1      40.685  25.814  28.279  1.00  0.00     0.059 A 
ATOM     45  F   UNL A   1      39.274  26.483  30.029  1.00  0.00    -0.206 F 
ATOM     46  C   UNL A   1      41.796  26.063  27.475  1.00  0.00     0.060 A 
BRANCH  46  47
ATOM     47  S   UNL A   1      42.285  24.880  26.200  1.00  0.00     0.124 S 
ATOM     48  O   UNL A   1      41.383  23.765  26.476  1.00  0.00    -0.237 OA
ATOM     49  O   UNL A   1      42.019  25.618  24.970  1.00  0.00    -0.237 OA
ATOM     50  O   UNL A   1      43.694  24.632  26.486  1.00  0.00    -0.744 OA
ENDBRANCH  46  47
ENDBRANCH  25  39
BRANCH  26  51
ATOM     51  C   UNL A   1      39.561  34.157  37.129  1.00  0.00     0.058 A 
ATOM     52  C   UNL A   1      38.867  33.837  38.303  1.00  0.00     0.135 A 
ATOM     53  C   UNL A   1      40.126  35.438  37.027  1.00  0.00     0.135 A 
ATOM     54  F   UNL A   1      38.310  32.625  38.445  1.00  0.00    -0.206 F 
ATOM     55  C   UNL A   1      38.729  34.758  39.337  1.00  0.00     0.059 A 
ATOM     56  C   UNL A   1      40.024  36.366  38.056  1.00  0.00     0.059 A 
ATOM     57  F   UNL A   1      40.817  35.783  35.929  1.00  0.00    -0.206 F 
ATOM     58  C   UNL A   1      39.311  36.020  39.203  1.00  0.00     0.060 A 
BRANCH  58  59
ATOM     59  S   UNL A   1      39.171  37.197  40.565  1.00  0.00     0.124 S 
ATOM     60  O   UNL A   1      38.581  36.365  41.608  1.00  0.00    -0.237 OA
ATOM     61  O   UNL A   1      40.559  37.596  40.775  1.00  0.00    -0.237 OA
ATOM     62  O   UNL A   1      38.305  38.237  40.018  1.00  0.00    -0.744 OA
ENDBRANCH  58  59
ENDBRANCH  26  51
BRANCH  38  63
ATOM     63  C   UNL A   1      36.500  33.209  30.946  1.00  0.00     0.058 A 
ATOM     64  C   UNL A   1      35.163  33.083  31.354  1.00  0.00     0.135 A 
ATOM     65  C   UNL A   1      36.787  34.077  29.883  1.00  0.00     0.135 A 
ATOM     66  F   UNL A   1      34.838  32.252  32.357  1.00  0.00    -0.206 F 
ATOM     67  C   UNL A   1      34.144  33.786  30.723  1.00  0.00     0.059 A 
ATOM     68  C   UNL A   1      35.788  34.807  29.251  1.00  0.00     0.059 A 
ATOM     69  F   UNL A   1      38.052  34.232  29.460  1.00  0.00    -0.206 F 
ATOM     70  C   UNL A   1      34.467  34.649  29.673  1.00  0.00     0.060 A 
BRANCH  70  71
ATOM     71  S   UNL A   1      33.142  35.591  28.890  1.00  0.00     0.124 S 
ATOM     72  O   UNL A   1      33.898  36.584  28.133  1.00  0.00    -0.237 OA
ATOM     73  O   UNL A   1      32.459  34.575  28.097  1.00  0.00    -0.237 OA
ATOM     74  O   UNL A   1      32.381  36.111  30.022  1.00  0.00    -0.744 OA
ENDBRANCH  70  71
ENDBRANCH  38  63
ENDBRANCH  12  13
ENDBRANCH   5   7
ENDBRANCH   2   3
ENDBRANCH   1   2
BRANCH   1  75
ATOM     75  C   UNL A   1      47.464  23.854  35.933  1.00  0.00     0.023 C 
BRANCH  75  76
ATOM     76  C   UNL A   1      46.315  23.190  36.689  1.00  0.00     0.116 C 
BRANCH  76  77
ATOM     77  N   UNL A   1      45.827  22.034  35.973  1.00  0.00    -0.356 N 
ATOM     78  C   UNL A   1      44.875  21.892  35.024  1.00  0.00     0.223 C 
ATOM     79  H   UNL A   1      46.271  21.191  36.223  1.00  0.00     0.163 HD
ATOM     80  O   UNL A   1      44.609  20.741  34.666  1.00  0.00    -0.275 OA
BRANCH  78  81
ATOM     81  C   UNL A   1      44.158  23.066  34.360  1.00  0.00     0.092 C 
BRANCH  81  82
ATOM     82  C   UNL A   1      44.219  23.072  32.809  1.00  0.00     0.050 C 
BRANCH  82  83
ATOM     83  C   UNL A   1      44.751  24.216  31.964  1.00  0.00    -0.033 A 
ATOM     84  C   UNL A   1      45.693  25.126  32.477  1.00  0.00     0.005 A 
ATOM     85  C   UNL A   1      44.417  24.359  30.596  1.00  0.00     0.021 A 
ATOM     86  C   UNL A   1      46.174  26.200  31.717  1.00  0.00     0.000 A 
ATOM     87  C   UNL A   1      44.916  25.424  29.830  1.00  0.00     0.016 A 
ATOM     88  Br  UNL A   1      43.290  23.137  29.665  1.00  0.00    -0.051 Br
ATOM     89  C   UNL A   1      45.774  26.360  30.397  1.00  0.00     0.001 A 
ENDBRANCH  82  83
ENDBRANCH  81  82
BRANCH  81  90
ATOM     90  C   UNL A   1      42.854  23.481  35.044  1.00  0.00     0.129 C 
BRANCH  90  91
ATOM     91  C   UNL A   1      42.859  24.925  35.511  1.00  0.00     0.389 C 
ATOM     92  F   UNL A   1      43.994  25.561  35.159  1.00  0.00    -0.171 F 
ATOM     93  F   UNL A   1      41.828  25.589  34.937  1.00  0.00    -0.171 F 
ATOM     94  F   UNL A   1      42.704  25.022  36.845  1.00  0.00    -0.171 F 
ENDBRANCH  90  91
ENDBRANCH  81  90
ENDBRANCH  78  81
ENDBRANCH  76  77
ENDBRANCH  75  76
ENDBRANCH   1  75
TORSDOF 18
ENDMDL
MODEL 3
REMARK VINA RESULT:     -10.3      2.662      8.567
REMARK SMILES O=C(NCCCCNC(=O)[C@@H](Cc1ccccc1Br)CC(F)(F)F)c1ccc(-c2c3nc(c(-c4c(F)cc(S(=O)(=O)[O-])cc4F)c4ccc([nH]4)c(-c4c(F)cc(S(=O)(=O)[O-])cc4F)c4nc(c(-c5c(F)cc(S(=O)(=O)[O-])cc5F)c5ccc2[nH]5)C=C4)C=C3)cc1
REMARK SMILES IDX 5 1 4 2 3 3 1 4 2 5 25 7 26 8 90 9 27 10 89 11 28 12 29 13
REMARK SMILES IDX 30 14 83 15 31 16 88 17 82 18 84 19 32 20 87 21 81 22 80 23
REMARK SMILES IDX 33 25 67 26 46 27 66 28 47 29 50 30 65 31 85 32 48 33 49 34
REMARK SMILES IDX 64 36 86 37 51 38 34 39 35 40 44 41 36 42 37 43 43 44 45 45
REMARK SMILES IDX 38 46 39 47 40 48 41 49 42 50 68 51 69 52 78 53 70 54 71 55
REMARK SMILES IDX 77 56 79 57 72 58 73 59 74 60 75 61 76 62 52 63 53 64 62 65
REMARK SMILES IDX 54 66 55 67 61 68 63 69 56 70 57 71 58 72 59 73 60 74 6 75
REMARK SMILES IDX 7 76 8 77 9 78 10 80 11 81 12 82 13 83 14 84 18 85 15 86
REMARK SMILES IDX 17 87 19 88 16 89 20 90 21 91 22 92 23 93 24 94
REMARK H PARENT 3 6 84 24 50 35 8 79
REMARK Flexibility Score: inf
ROOT
ATOM      1  C   UNL A   1      33.400  27.295  26.269  1.00  0.00     0.023 C 
ENDROOT
BRANCH   1   2
ATOM      2  C   UNL A   1      34.323  28.450  25.909  1.00  0.00     0.116 C 
BRANCH   2   3
ATOM      3  N   UNL A   1      33.874  29.750  26.391  1.00  0.00    -0.352 N 
ATOM      4  O   UNL A   1      33.980  31.597  27.698  1.00  0.00    -0.269 OA
ATOM      5  C   UNL A   1      34.487  30.550  27.336  1.00  0.00     0.251 C 
ATOM      6  H   UNL A   1      33.041  30.097  26.000  1.00  0.00     0.163 HD
BRANCH   5   7
ATOM      7  C   UNL A   1      35.754  30.065  27.928  1.00  0.00     0.039 A 
ATOM      8  C   UNL A   1      35.747  29.467  29.190  1.00  0.00     0.014 A 
ATOM      9  C   UNL A   1      36.958  30.320  27.268  1.00  0.00     0.014 A 
ATOM     10  C   UNL A   1      36.946  29.277  29.863  1.00  0.00     0.010 A 
ATOM     11  C   UNL A   1      38.166  30.037  27.911  1.00  0.00     0.010 A 
ATOM     12  C   UNL A   1      38.169  29.546  29.226  1.00  0.00    -0.014 A 
BRANCH  12  13
ATOM     13  C   UNL A   1      39.436  29.222  29.928  1.00  0.00     0.031 A 
ATOM     14  C   UNL A   1      39.900  30.012  31.121  1.00  0.00     0.074 A 
ATOM     15  C   UNL A   1      40.168  28.189  29.464  1.00  0.00     0.049 A 
ATOM     16  N   UNL A   1      41.005  29.880  31.810  1.00  0.00    -0.248 NA
ATOM     17  C   UNL A   1      39.022  31.090  31.604  1.00  0.00     0.031 C 
ATOM     18  C   UNL A   1      39.818  27.369  28.299  1.00  0.00     0.029 A 
ATOM     19  N   UNL A   1      41.348  27.652  29.903  1.00  0.00    -0.354 N 
ATOM     20  C   UNL A   1      40.974  30.873  32.781  1.00  0.00     0.074 A 
ATOM     21  C   UNL A   1      39.739  31.604  32.596  1.00  0.00     0.031 C 
ATOM     22  C   UNL A   1      40.747  26.419  28.133  1.00  0.00     0.029 A 
ATOM     23  C   UNL A   1      41.794  26.607  29.129  1.00  0.00     0.049 A 
ATOM     24  H   UNL A   1      41.830  27.980  30.698  1.00  0.00     0.167 HD
ATOM     25  C   UNL A   1      41.898  31.145  33.734  1.00  0.00     0.037 A 
ATOM     26  C   UNL A   1      42.941  25.905  29.180  1.00  0.00     0.037 A 
ATOM     27  C   UNL A   1      43.103  30.379  33.931  1.00  0.00     0.049 A 
ATOM     28  C   UNL A   1      43.950  26.241  30.235  1.00  0.00     0.074 A 
ATOM     29  C   UNL A   1      44.052  30.513  34.931  1.00  0.00     0.029 A 
ATOM     30  N   UNL A   1      43.532  29.347  33.110  1.00  0.00    -0.354 N 
ATOM     31  N   UNL A   1      43.875  27.147  31.181  1.00  0.00    -0.248 NA
ATOM     32  C   UNL A   1      45.203  25.478  30.224  1.00  0.00     0.031 C 
ATOM     33  C   UNL A   1      45.078  29.594  34.684  1.00  0.00     0.029 A 
ATOM     34  C   UNL A   1      44.751  28.864  33.554  1.00  0.00     0.049 A 
ATOM     35  H   UNL A   1      43.042  29.008  32.326  1.00  0.00     0.167 HD
ATOM     36  C   UNL A   1      45.077  27.069  31.872  1.00  0.00     0.074 A 
ATOM     37  C   UNL A   1      45.845  26.006  31.257  1.00  0.00     0.031 C 
ATOM     38  C   UNL A   1      45.507  27.816  32.917  1.00  0.00     0.037 A 
BRANCH  25  39
ATOM     39  C   UNL A   1      41.673  32.325  34.639  1.00  0.00     0.058 A 
ATOM     40  C   UNL A   1      42.150  33.605  34.321  1.00  0.00     0.135 A 
ATOM     41  C   UNL A   1      40.870  32.190  35.785  1.00  0.00     0.135 A 
ATOM     42  F   UNL A   1      42.929  33.787  33.244  1.00  0.00    -0.206 F 
ATOM     43  C   UNL A   1      41.838  34.711  35.107  1.00  0.00     0.059 A 
ATOM     44  C   UNL A   1      40.533  33.285  36.576  1.00  0.00     0.059 A 
ATOM     45  F   UNL A   1      40.390  30.986  36.133  1.00  0.00    -0.206 F 
ATOM     46  C   UNL A   1      41.025  34.542  36.229  1.00  0.00     0.060 A 
BRANCH  46  47
ATOM     47  S   UNL A   1      40.592  35.995  37.212  1.00  0.00     0.124 S 
ATOM     48  O   UNL A   1      41.911  36.543  37.518  1.00  0.00    -0.237 OA
ATOM     49  O   UNL A   1      39.784  36.774  36.281  1.00  0.00    -0.237 OA
ATOM     50  O   UNL A   1      39.868  35.434  38.349  1.00  0.00    -0.744 OA
ENDBRANCH  46  47
ENDBRANCH  25  39
BRANCH  26  51
ATOM     51  C   UNL A   1      43.210  24.865  28.155  1.00  0.00     0.058 A 
ATOM     52  C   UNL A   1      43.835  25.183  26.942  1.00  0.00     0.135 A 
ATOM     53  C   UNL A   1      42.870  23.522  28.389  1.00  0.00     0.135 A 
ATOM     54  F   UNL A   1      44.177  26.453  26.677  1.00  0.00    -0.206 F 
ATOM     55  C   UNL A   1      44.105  24.207  25.989  1.00  0.00     0.059 A 
ATOM     56  C   UNL A   1      43.153  22.526  27.462  1.00  0.00     0.059 A 
ATOM     57  F   UNL A   1      42.288  23.167  29.544  1.00  0.00    -0.206 F 
ATOM     58  C   UNL A   1      43.759  22.882  26.259  1.00  0.00     0.060 A 
BRANCH  58  59
ATOM     59  S   UNL A   1      44.154  21.609  25.040  1.00  0.00     0.124 S 
ATOM     60  O   UNL A   1      45.516  21.254  25.421  1.00  0.00    -0.237 OA
ATOM     61  O   UNL A   1      43.133  20.599  25.301  1.00  0.00    -0.237 OA
ATOM     62  O   UNL A   1      44.016  22.314  23.768  1.00  0.00    -0.744 OA
ENDBRANCH  58  59
ENDBRANCH  26  51
BRANCH  38  63
ATOM     63  C   UNL A   1      46.877  27.518  33.448  1.00  0.00     0.058 A 
ATOM     64  C   UNL A   1      47.075  26.538  34.433  1.00  0.00     0.135 A 
ATOM     65  C   UNL A   1      48.004  28.182  32.940  1.00  0.00     0.135 A 
ATOM     66  F   UNL A   1      46.025  25.887  34.959  1.00  0.00    -0.206 F 
ATOM     67  C   UNL A   1      48.346  26.234  34.906  1.00  0.00     0.059 A 
ATOM     68  C   UNL A   1      49.286  27.879  33.382  1.00  0.00     0.059 A 
ATOM     69  F   UNL A   1      47.863  29.124  31.994  1.00  0.00    -0.206 F 
ATOM     70  C   UNL A   1      49.446  26.908  34.372  1.00  0.00     0.060 A 
BRANCH  70  71
ATOM     71  S   UNL A   1      51.096  26.474  34.962  1.00  0.00     0.124 S 
ATOM     72  O   UNL A   1      51.334  25.215  34.264  1.00  0.00    -0.237 OA
ATOM     73  O   UNL A   1      51.898  27.608  34.516  1.00  0.00    -0.237 OA
ATOM     74  O   UNL A   1      50.921  26.367  36.407  1.00  0.00    -0.744 OA
ENDBRANCH  70  71
ENDBRANCH  38  63
ENDBRANCH  12  13
ENDBRANCH   5   7
ENDBRANCH   2   3
ENDBRANCH   1   2
BRANCH   1  75
ATOM     75  C   UNL A   1      32.888  26.510  25.070  1.00  0.00     0.023 C 
BRANCH  75  76
ATOM     76  C   UNL A   1      33.554  25.149  24.872  1.00  0.00     0.116 C 
BRANCH  76  77
ATOM     77  N   UNL A   1      33.730  24.472  26.136  1.00  0.00    -0.356 N 
ATOM     78  C   UNL A   1      33.997  23.184  26.444  1.00  0.00     0.223 C 
ATOM     79  H   UNL A   1      33.638  25.059  26.921  1.00  0.00     0.163 HD
ATOM     80  O   UNL A   1      33.993  22.881  27.640  1.00  0.00    -0.275 OA
BRANCH  78  81
ATOM     81  C   UNL A   1      34.337  22.117  25.404  1.00  0.00     0.092 C 
BRANCH  81  82
ATOM     82  C   UNL A   1      35.687  22.330  24.671  1.00  0.00     0.050 C 
BRANCH  82  83
ATOM     83  C   UNL A   1      37.018  22.589  25.355  1.00  0.00    -0.033 A 
ATOM     84  C   UNL A   1      37.298  23.827  25.962  1.00  0.00     0.005 A 
ATOM     85  C   UNL A   1      37.991  21.574  25.517  1.00  0.00     0.021 A 
ATOM     86  C   UNL A   1      38.530  24.089  26.576  1.00  0.00     0.000 A 
ATOM     87  C   UNL A   1      39.217  21.832  26.150  1.00  0.00     0.016 A 
ATOM     88  Br  UNL A   1      37.739  19.784  24.917  1.00  0.00    -0.051 Br
ATOM     89  C   UNL A   1      39.497  23.097  26.657  1.00  0.00     0.001 A 
ENDBRANCH  82  83
ENDBRANCH  81  82
BRANCH  81  90
ATOM     90  C   UNL A   1      33.935  20.695  25.801  1.00  0.00     0.129 C 
BRANCH  90  91
ATOM     91  C   UNL A   1      33.425  19.871  24.633  1.00  0.00     0.389 C 
ATOM     92  F   UNL A   1      33.030  20.649  23.606  1.00  0.00    -0.171 F 
ATOM     93  F   UNL A   1      34.418  19.072  24.176  1.00  0.00    -0.171 F 
ATOM     94  F   UNL A   1      32.402  19.072  24.990  1.00  0.00    -0.171 F 
ENDBRANCH  90  91
ENDBRANCH  81  90
ENDBRANCH  78  81
ENDBRANCH  76  77
ENDBRANCH  75  76
ENDBRANCH   1  75
TORSDOF 18
ENDMDL
