MODEL 1
REMARK VINA RESULT:     -12.8      0.000      0.000
REMARK SMILES CC(=O)Nc1ccc(/C=N/c2ccccc2C(=O)NCCCCNC(=O)c2ccc(-c3c4nc(c(-c5c(F)cc(S(=O)(=O)[O-])cc5F)c5ccc([nH]5)c(-c5c(F)cc(S(=O)(=O)[O-])cc5F)c5nc(c(-c6c(F)cc(S(=O)(=O)[O-])cc6F)c6ccc3[nH]6)C=C5)C=C4)cc2)cc1
REMARK SMILES IDX 21 1 20 2 19 3 17 4 18 5 16 7 11 8 12 9 13 10 15 11 14 12
REMARK SMILES IDX 10 13 9 14 8 15 5 16 6 17 94 18 7 19 93 20 4 21 1 22 2 23
REMARK SMILES IDX 3 24 22 26 23 27 24 28 25 29 26 31 27 32 28 33 92 34 29 35
REMARK SMILES IDX 91 36 30 37 31 38 32 39 85 40 33 41 90 42 84 43 86 44 34 45
REMARK SMILES IDX 89 46 83 47 82 48 35 50 69 51 48 52 68 53 49 54 52 55 67 56
REMARK SMILES IDX 87 57 50 58 51 59 66 61 88 62 53 63 36 64 37 65 46 66 38 67
REMARK SMILES IDX 39 68 45 69 47 70 40 71 41 72 42 73 43 74 44 75 70 76 71 77
REMARK SMILES IDX 80 78 72 79 73 80 79 81 81 82 74 83 75 84 76 85 77 86 78 87
REMARK SMILES IDX 54 88 55 89 64 90 56 91 57 92 63 93 65 94 58 95 59 96 60 97
REMARK SMILES IDX 61 98 62 99
REMARK H PARENT 19 6 4 25 24 30 86 49 52 60
REMARK Flexibility Score: inf
ROOT
ATOM      1  C   UNL A   1      31.967  27.176  26.630  1.00  0.00     0.023 C 
ENDROOT
BRANCH   1   2
ATOM      2  C   UNL A   1      32.209  25.675  26.494  1.00  0.00     0.116 C 
BRANCH   2   3
ATOM      3  N   UNL A   1      31.137  24.829  26.954  1.00  0.00    -0.352 N 
ATOM      4  C   UNL A   1      30.730  23.610  26.472  1.00  0.00     0.253 C 
ATOM      5  O   UNL A   1      29.883  22.988  27.118  1.00  0.00    -0.269 OA
ATOM      6  H   UNL A   1      30.626  25.172  27.722  1.00  0.00     0.163 HD
BRANCH   4   7
ATOM      7  C   UNL A   1      31.165  23.044  25.169  1.00  0.00     0.065 A 
ATOM      8  C   UNL A   1      31.143  23.692  23.921  1.00  0.00     0.076 A 
ATOM      9  C   UNL A   1      31.646  23.010  22.797  1.00  0.00     0.029 A 
ATOM     10  C   UNL A   1      32.187  21.728  22.898  1.00  0.00     0.002 A 
ATOM     11  C   UNL A   1      31.728  21.752  25.260  1.00  0.00     0.016 A 
ATOM     12  C   UNL A   1      32.229  21.097  24.134  1.00  0.00     0.001 A 
BRANCH   8  13
ATOM     13  N   UNL A   1      30.555  24.937  23.663  1.00  0.00    -0.255 NA
ATOM     14  C   UNL A   1      31.302  25.923  23.283  1.00  0.00     0.119 C 
BRANCH  14  15
ATOM     15  C   UNL A   1      30.687  27.236  22.988  1.00  0.00    -0.007 A 
ATOM     16  C   UNL A   1      29.595  29.811  22.679  1.00  0.00     0.041 A 
ATOM     17  C   UNL A   1      28.830  28.769  23.223  1.00  0.00     0.027 A 
ATOM     18  C   UNL A   1      30.876  29.518  22.199  1.00  0.00     0.027 A 
ATOM     19  C   UNL A   1      29.372  27.494  23.389  1.00  0.00     0.012 A 
ATOM     20  C   UNL A   1      31.427  28.235  22.359  1.00  0.00     0.012 A 
BRANCH  16  21
ATOM     21  N   UNL A   1      29.016  31.091  22.748  1.00  0.00    -0.326 N 
ATOM     22  C   UNL A   1      28.028  31.417  20.461  1.00  0.00     0.114 C 
ATOM     23  C   UNL A   1      28.345  31.870  21.856  1.00  0.00     0.221 C 
ATOM     24  O   UNL A   1      28.001  32.997  22.233  1.00  0.00    -0.275 OA
ATOM     25  H   UNL A   1      29.119  31.515  23.631  1.00  0.00     0.169 HD
ENDBRANCH  16  21
ENDBRANCH  14  15
ENDBRANCH   8  13
ENDBRANCH   4   7
ENDBRANCH   2   3
ENDBRANCH   1   2
BRANCH   1  26
ATOM     26  C   UNL A   1      32.977  28.173  26.044  1.00  0.00     0.023 C 
BRANCH  26  27
ATOM     27  C   UNL A   1      34.184  28.624  26.864  1.00  0.00     0.116 C 
BRANCH  27  28
ATOM     28  N   UNL A   1      33.947  29.722  27.770  1.00  0.00    -0.352 N 
ATOM     29  C   UNL A   1      34.876  30.533  28.352  1.00  0.00     0.251 C 
ATOM     30  H   UNL A   1      33.006  29.907  27.993  1.00  0.00     0.163 HD
ATOM     31  O   UNL A   1      34.564  31.651  28.750  1.00  0.00    -0.269 OA
BRANCH  29  32
ATOM     32  C   UNL A   1      36.239  30.088  28.609  1.00  0.00     0.039 A 
ATOM     33  C   UNL A   1      37.116  30.078  27.516  1.00  0.00     0.014 A 
ATOM     34  C   UNL A   1      36.617  29.586  29.851  1.00  0.00     0.014 A 
ATOM     35  C   UNL A   1      38.420  29.626  27.682  1.00  0.00     0.010 A 
ATOM     36  C   UNL A   1      37.927  29.152  30.019  1.00  0.00     0.010 A 
ATOM     37  C   UNL A   1      38.838  29.193  28.945  1.00  0.00    -0.014 A 
BRANCH  37  38
ATOM     38  C   UNL A   1      40.249  28.872  29.232  1.00  0.00     0.031 A 
ATOM     39  C   UNL A   1      41.227  29.977  29.467  1.00  0.00     0.074 A 
ATOM     40  C   UNL A   1      40.653  27.600  29.054  1.00  0.00     0.049 A 
ATOM     41  N   UNL A   1      42.521  29.974  29.310  1.00  0.00    -0.248 NA
ATOM     42  C   UNL A   1      40.666  31.264  29.904  1.00  0.00     0.031 C 
ATOM     43  C   UNL A   1      39.765  26.458  28.817  1.00  0.00     0.029 A 
ATOM     44  N   UNL A   1      41.915  27.072  28.960  1.00  0.00    -0.354 N 
ATOM     45  C   UNL A   1      42.931  31.275  29.567  1.00  0.00     0.074 A 
ATOM     46  C   UNL A   1      41.749  32.032  29.923  1.00  0.00     0.031 C 
ATOM     47  C   UNL A   1      40.508  25.380  28.526  1.00  0.00     0.029 A 
ATOM     48  C   UNL A   1      41.912  25.772  28.508  1.00  0.00     0.049 A 
ATOM     49  H   UNL A   1      42.733  27.569  29.188  1.00  0.00     0.167 HD
ATOM     50  C   UNL A   1      44.183  31.784  29.484  1.00  0.00     0.037 A 
ATOM     51  C   UNL A   1      42.921  25.006  28.056  1.00  0.00     0.037 A 
ATOM     52  C   UNL A   1      45.343  30.997  29.155  1.00  0.00     0.049 A 
ATOM     53  C   UNL A   1      44.307  25.576  28.022  1.00  0.00     0.074 A 
ATOM     54  C   UNL A   1      46.666  31.396  29.088  1.00  0.00     0.029 A 
ATOM     55  N   UNL A   1      45.314  29.646  28.843  1.00  0.00    -0.354 N 
ATOM     56  N   UNL A   1      44.692  26.805  28.269  1.00  0.00    -0.248 NA
ATOM     57  C   UNL A   1      45.394  24.662  27.653  1.00  0.00     0.031 C 
ATOM     58  C   UNL A   1      47.437  30.285  28.723  1.00  0.00     0.029 A 
ATOM     59  C   UNL A   1      46.596  29.192  28.585  1.00  0.00     0.049 A 
ATOM     60  H   UNL A   1      44.502  29.090  28.809  1.00  0.00     0.167 HD
ATOM     61  C   UNL A   1      46.070  26.809  28.103  1.00  0.00     0.074 A 
ATOM     62  C   UNL A   1      46.451  25.460  27.734  1.00  0.00     0.031 C 
ATOM     63  C   UNL A   1      46.941  27.836  28.243  1.00  0.00     0.037 A 
BRANCH  50  64
ATOM     64  C   UNL A   1      44.358  33.255  29.716  1.00  0.00     0.058 A 
ATOM     65  C   UNL A   1      44.703  33.770  30.974  1.00  0.00     0.135 A 
ATOM     66  C   UNL A   1      44.217  34.159  28.650  1.00  0.00     0.135 A 
ATOM     67  F   UNL A   1      44.832  32.949  32.028  1.00  0.00    -0.206 F 
ATOM     68  C   UNL A   1      44.891  35.134  31.172  1.00  0.00     0.059 A 
ATOM     69  C   UNL A   1      44.416  35.525  28.822  1.00  0.00     0.059 A 
ATOM     70  F   UNL A   1      43.882  33.716  27.429  1.00  0.00    -0.206 F 
ATOM     71  C   UNL A   1      44.742  36.005  30.090  1.00  0.00     0.060 A 
BRANCH  71  72
ATOM     72  S   UNL A   1      45.001  37.774  30.347  1.00  0.00     0.124 S 
ATOM     73  O   UNL A   1      44.475  38.328  29.104  1.00  0.00    -0.237 OA
ATOM     74  O   UNL A   1      44.210  38.042  31.545  1.00  0.00    -0.237 OA
ATOM     75  O   UNL A   1      46.447  37.881  30.522  1.00  0.00    -0.744 OA
ENDBRANCH  71  72
ENDBRANCH  50  64
BRANCH  51  76
ATOM     76  C   UNL A   1      42.631  23.641  27.557  1.00  0.00     0.058 A 
ATOM     77  C   UNL A   1      42.536  23.383  26.184  1.00  0.00     0.135 A 
ATOM     78  C   UNL A   1      42.516  22.557  28.442  1.00  0.00     0.135 A 
ATOM     79  F   UNL A   1      42.644  24.391  25.304  1.00  0.00    -0.206 F 
ATOM     80  C   UNL A   1      42.335  22.095  25.700  1.00  0.00     0.059 A 
ATOM     81  C   UNL A   1      42.330  21.258  27.982  1.00  0.00     0.059 A 
ATOM     82  F   UNL A   1      42.626  22.754  29.764  1.00  0.00    -0.206 F 
ATOM     83  C   UNL A   1      42.237  21.037  26.607  1.00  0.00     0.060 A 
BRANCH  83  84
ATOM     84  S   UNL A   1      42.061  19.355  25.974  1.00  0.00     0.124 S 
ATOM     85  O   UNL A   1      42.925  19.392  24.800  1.00  0.00    -0.237 OA
ATOM     86  O   UNL A   1      42.539  18.548  27.093  1.00  0.00    -0.237 OA
ATOM     87  O   UNL A   1      40.629  19.251  25.707  1.00  0.00    -0.744 OA
ENDBRANCH  83  84
ENDBRANCH  51  76
BRANCH  63  88
ATOM     88  C   UNL A   1      48.393  27.526  28.045  1.00  0.00     0.058 A 
ATOM     89  C   UNL A   1      49.174  26.996  29.082  1.00  0.00     0.135 A 
ATOM     90  C   UNL A   1      48.988  27.707  26.788  1.00  0.00     0.135 A 
ATOM     91  F   UNL A   1      48.646  26.816  30.302  1.00  0.00    -0.206 F 
ATOM     92  C   UNL A   1      50.506  26.655  28.878  1.00  0.00     0.059 A 
ATOM     93  C   UNL A   1      50.314  27.363  26.559  1.00  0.00     0.059 A 
ATOM     94  F   UNL A   1      48.274  28.211  25.769  1.00  0.00    -0.206 F 
ATOM     95  C   UNL A   1      51.067  26.843  27.612  1.00  0.00     0.060 A 
BRANCH  95  96
ATOM     96  S   UNL A   1      52.782  26.352  27.335  1.00  0.00     0.124 S 
ATOM     97  O   UNL A   1      53.296  26.305  28.700  1.00  0.00    -0.237 OA
ATOM     98  O   UNL A   1      52.642  25.063  26.666  1.00  0.00    -0.237 OA
ATOM     99  O   UNL A   1      53.308  27.430  26.501  1.00  0.00    -0.744 OA
ENDBRANCH  95  96
ENDBRANCH  63  88
ENDBRANCH  37  38
ENDBRANCH  29  32
ENDBRANCH  27  28
ENDBRANCH  26  27
ENDBRANCH   1  26
TORSDOF 17
ENDMDL
MODEL 2
REMARK VINA RESULT:     -12.6      1.801      4.726
REMARK SMILES CC(=O)Nc1ccc(/C=N/c2ccccc2C(=O)NCCCCNC(=O)c2ccc(-c3c4nc(c(-c5c(F)cc(S(=O)(=O)[O-])cc5F)c5ccc([nH]5)c(-c5c(F)cc(S(=O)(=O)[O-])cc5F)c5nc(c(-c6c(F)cc(S(=O)(=O)[O-])cc6F)c6ccc3[nH]6)C=C5)C=C4)cc2)cc1
REMARK SMILES IDX 21 1 20 2 19 3 17 4 18 5 16 7 11 8 12 9 13 10 15 11 14 12
REMARK SMILES IDX 10 13 9 14 8 15 5 16 6 17 94 18 7 19 93 20 4 21 1 22 2 23
REMARK SMILES IDX 3 24 22 26 23 27 24 28 25 29 26 31 27 32 28 33 92 34 29 35
REMARK SMILES IDX 91 36 30 37 31 38 32 39 85 40 33 41 90 42 84 43 86 44 34 45
REMARK SMILES IDX 89 46 83 47 82 48 35 50 69 51 48 52 68 53 49 54 52 55 67 56
REMARK SMILES IDX 87 57 50 58 51 59 66 61 88 62 53 63 36 64 37 65 46 66 38 67
REMARK SMILES IDX 39 68 45 69 47 70 40 71 41 72 42 73 43 74 44 75 70 76 71 77
REMARK SMILES IDX 80 78 72 79 73 80 79 81 81 82 74 83 75 84 76 85 77 86 78 87
REMARK SMILES IDX 54 88 55 89 64 90 56 91 57 92 63 93 65 94 58 95 59 96 60 97
REMARK SMILES IDX 61 98 62 99
REMARK H PARENT 19 6 4 25 24 30 86 49 52 60
REMARK Flexibility Score: inf
ROOT
ATOM      1  C   UNL A   1      33.998  27.760  24.349  1.00  0.00     0.023 C 
ENDROOT
BRANCH   1   2
ATOM      2  C   UNL A   1      34.002  28.271  22.910  1.00  0.00     0.116 C 
BRANCH   2   3
ATOM      3  N   UNL A   1      33.927  27.256  21.890  1.00  0.00    -0.352 N 
ATOM      4  C   UNL A   1      32.876  26.437  21.560  1.00  0.00     0.253 C 
ATOM      5  O   UNL A   1      32.983  25.743  20.547  1.00  0.00    -0.269 OA
ATOM      6  H   UNL A   1      34.744  27.134  21.354  1.00  0.00     0.163 HD
BRANCH   4   7
ATOM      7  C   UNL A   1      31.667  26.255  22.405  1.00  0.00     0.065 A 
ATOM      8  C   UNL A   1      31.375  25.155  23.229  1.00  0.00     0.076 A 
ATOM      9  C   UNL A   1      30.198  25.183  24.000  1.00  0.00     0.029 A 
ATOM     10  C   UNL A   1      29.337  26.280  23.986  1.00  0.00     0.002 A 
ATOM     11  C   UNL A   1      30.795  27.366  22.410  1.00  0.00     0.016 A 
ATOM     12  C   UNL A   1      29.637  27.377  23.188  1.00  0.00     0.001 A 
BRANCH   8  13
ATOM     13  N   UNL A   1      32.104  23.959  23.276  1.00  0.00    -0.255 NA
ATOM     14  C   UNL A   1      31.920  23.145  24.266  1.00  0.00     0.119 C 
BRANCH  14  15
ATOM     15  C   UNL A   1      32.671  21.870  24.312  1.00  0.00    -0.007 A 
ATOM     16  C   UNL A   1      33.987  19.406  24.648  1.00  0.00     0.041 A 
ATOM     17  C   UNL A   1      34.579  20.600  25.087  1.00  0.00     0.027 A 
ATOM     18  C   UNL A   1      32.779  19.478  23.948  1.00  0.00     0.027 A 
ATOM     19  C   UNL A   1      33.923  21.822  24.933  1.00  0.00     0.012 A 
ATOM     20  C   UNL A   1      32.115  20.707  23.786  1.00  0.00     0.012 A 
BRANCH  16  21
ATOM     21  N   UNL A   1      34.643  18.224  25.036  1.00  0.00    -0.326 N 
ATOM     22  C   UNL A   1      34.013  16.582  23.241  1.00  0.00     0.114 C 
ATOM     23  C   UNL A   1      34.702  16.966  24.517  1.00  0.00     0.221 C 
ATOM     24  O   UNL A   1      35.350  16.123  25.149  1.00  0.00    -0.275 OA
ATOM     25  H   UNL A   1      35.172  18.328  25.860  1.00  0.00     0.169 HD
ENDBRANCH  16  21
ENDBRANCH  14  15
ENDBRANCH   8  13
ENDBRANCH   4   7
ENDBRANCH   2   3
ENDBRANCH   1   2
BRANCH   1  26
ATOM     26  C   UNL A   1      33.456  28.648  25.478  1.00  0.00     0.023 C 
BRANCH  26  27
ATOM     27  C   UNL A   1      34.063  28.575  26.878  1.00  0.00     0.116 C 
BRANCH  27  28
ATOM     28  N   UNL A   1      33.841  29.729  27.715  1.00  0.00    -0.352 N 
ATOM     29  C   UNL A   1      34.780  30.558  28.253  1.00  0.00     0.251 C 
ATOM     30  H   UNL A   1      32.902  29.943  27.921  1.00  0.00     0.163 HD
ATOM     31  O   UNL A   1      34.486  31.703  28.582  1.00  0.00    -0.269 OA
BRANCH  29  32
ATOM     32  C   UNL A   1      36.134  30.106  28.545  1.00  0.00     0.039 A 
ATOM     33  C   UNL A   1      37.059  30.162  27.493  1.00  0.00     0.014 A 
ATOM     34  C   UNL A   1      36.462  29.537  29.772  1.00  0.00     0.014 A 
ATOM     35  C   UNL A   1      38.357  29.708  27.690  1.00  0.00     0.010 A 
ATOM     36  C   UNL A   1      37.767  29.101  29.973  1.00  0.00     0.010 A 
ATOM     37  C   UNL A   1      38.722  29.207  28.944  1.00  0.00    -0.014 A 
BRANCH  37  38
ATOM     38  C   UNL A   1      40.123  28.878  29.274  1.00  0.00     0.031 A 
ATOM     39  C   UNL A   1      41.095  29.976  29.555  1.00  0.00     0.074 A 
ATOM     40  C   UNL A   1      40.528  27.606  29.096  1.00  0.00     0.049 A 
ATOM     41  N   UNL A   1      42.394  29.971  29.442  1.00  0.00    -0.248 NA
ATOM     42  C   UNL A   1      40.524  31.260  29.988  1.00  0.00     0.031 C 
ATOM     43  C   UNL A   1      39.645  26.471  28.815  1.00  0.00     0.029 A 
ATOM     44  N   UNL A   1      41.791  27.075  29.037  1.00  0.00    -0.354 N 
ATOM     45  C   UNL A   1      42.799  31.267  29.728  1.00  0.00     0.074 A 
ATOM     46  C   UNL A   1      41.608  32.024  30.052  1.00  0.00     0.031 C 
ATOM     47  C   UNL A   1      40.394  25.394  28.537  1.00  0.00     0.029 A 
ATOM     48  C   UNL A   1      41.800  25.781  28.571  1.00  0.00     0.049 A 
ATOM     49  H   UNL A   1      42.602  27.566  29.299  1.00  0.00     0.167 HD
ATOM     50  C   UNL A   1      44.055  31.772  29.693  1.00  0.00     0.037 A 
ATOM     51  C   UNL A   1      42.821  25.016  28.145  1.00  0.00     0.037 A 
ATOM     52  C   UNL A   1      45.223  30.986  29.394  1.00  0.00     0.049 A 
ATOM     53  C   UNL A   1      44.208  25.582  28.164  1.00  0.00     0.074 A 
ATOM     54  C   UNL A   1      46.549  31.380  29.376  1.00  0.00     0.029 A 
ATOM     55  N   UNL A   1      45.200  29.638  29.065  1.00  0.00    -0.354 N 
ATOM     56  N   UNL A   1      44.589  26.807  28.438  1.00  0.00    -0.248 NA
ATOM     57  C   UNL A   1      45.304  24.668  27.821  1.00  0.00     0.031 C 
ATOM     58  C   UNL A   1      47.328  30.271  29.024  1.00  0.00     0.029 A 
ATOM     59  C   UNL A   1      46.488  29.183  28.845  1.00  0.00     0.049 A 
ATOM     60  H   UNL A   1      44.388  29.086  28.998  1.00  0.00     0.167 HD
ATOM     61  C   UNL A   1      45.972  26.808  28.318  1.00  0.00     0.074 A 
ATOM     62  C   UNL A   1      46.360  25.462  27.946  1.00  0.00     0.031 C 
ATOM     63  C   UNL A   1      46.841  27.830  28.499  1.00  0.00     0.037 A 
BRANCH  50  64
ATOM     64  C   UNL A   1      44.226  33.241  29.948  1.00  0.00     0.058 A 
ATOM     65  C   UNL A   1      44.080  34.190  28.927  1.00  0.00     0.135 A 
ATOM     66  C   UNL A   1      44.499  33.704  31.245  1.00  0.00     0.135 A 
ATOM     67  F   UNL A   1      43.836  33.796  27.667  1.00  0.00    -0.206 F 
ATOM     68  C   UNL A   1      44.212  35.552  29.180  1.00  0.00     0.059 A 
ATOM     69  C   UNL A   1      44.619  35.063  31.524  1.00  0.00     0.059 A 
ATOM     70  F   UNL A   1      44.654  32.835  32.255  1.00  0.00    -0.206 F 
ATOM     71  C   UNL A   1      44.485  35.979  30.481  1.00  0.00     0.060 A 
BRANCH  71  72
ATOM     72  S   UNL A   1      44.641  37.748  30.808  1.00  0.00     0.124 S 
ATOM     73  O   UNL A   1      46.089  37.896  30.922  1.00  0.00    -0.237 OA
ATOM     74  O   UNL A   1      44.035  38.347  29.622  1.00  0.00    -0.237 OA
ATOM     75  O   UNL A   1      43.890  37.929  32.047  1.00  0.00    -0.744 OA
ENDBRANCH  71  72
ENDBRANCH  50  64
BRANCH  51  76
ATOM     76  C   UNL A   1      42.543  23.658  27.620  1.00  0.00     0.058 A 
ATOM     77  C   UNL A   1      42.497  23.416  26.241  1.00  0.00     0.135 A 
ATOM     78  C   UNL A   1      42.392  22.565  28.488  1.00  0.00     0.135 A 
ATOM     79  F   UNL A   1      42.640  24.433  25.377  1.00  0.00    -0.206 F 
ATOM     80  C   UNL A   1      42.309  22.134  25.736  1.00  0.00     0.059 A 
ATOM     81  C   UNL A   1      42.218  21.272  28.007  1.00  0.00     0.059 A 
ATOM     82  F   UNL A   1      42.455  22.747  29.815  1.00  0.00    -0.206 F 
ATOM     83  C   UNL A   1      42.173  21.067  26.627  1.00  0.00     0.060 A 
BRANCH  83  84
ATOM     84  S   UNL A   1      42.013  19.393  25.969  1.00  0.00     0.124 S 
ATOM     85  O   UNL A   1      42.528  18.593  27.075  1.00  0.00    -0.237 OA
ATOM     86  O   UNL A   1      40.578  19.289  25.721  1.00  0.00    -0.237 OA
ATOM     87  O   UNL A   1      42.845  19.429  24.770  1.00  0.00    -0.744 OA
ENDBRANCH  83  84
ENDBRANCH  51  76
BRANCH  63  88
ATOM     88  C   UNL A   1      48.298  27.517  28.347  1.00  0.00     0.058 A 
ATOM     89  C   UNL A   1      48.956  27.683  27.121  1.00  0.00     0.135 A 
ATOM     90  C   UNL A   1      49.049  27.106  29.457  1.00  0.00     0.135 A 
ATOM     91  F   UNL A   1      48.272  28.067  26.033  1.00  0.00    -0.206 F 
ATOM     92  C   UNL A   1      50.321  27.448  26.999  1.00  0.00     0.059 A 
ATOM     93  C   UNL A   1      50.416  26.875  29.361  1.00  0.00     0.059 A 
ATOM     94  F   UNL A   1      48.457  26.937  30.650  1.00  0.00    -0.206 F 
ATOM     95  C   UNL A   1      51.042  27.043  28.126  1.00  0.00     0.060 A 
BRANCH  95  96
ATOM     96  S   UNL A   1      52.823  26.786  27.977  1.00  0.00     0.124 S 
ATOM     97  O   UNL A   1      53.263  28.078  27.461  1.00  0.00    -0.237 OA
ATOM     98  O   UNL A   1      53.218  26.484  29.349  1.00  0.00    -0.237 OA
ATOM     99  O   UNL A   1      52.922  25.668  27.043  1.00  0.00    -0.744 OA
ENDBRANCH  95  96
ENDBRANCH  63  88
ENDBRANCH  37  38
ENDBRANCH  29  32
ENDBRANCH  27  28
ENDBRANCH  26  27
ENDBRANCH   1  26
TORSDOF 17
ENDMDL
MODEL 3
REMARK VINA RESULT:     -12.3      1.346      1.997
REMARK SMILES CC(=O)Nc1ccc(/C=N/c2ccccc2C(=O)NCCCCNC(=O)c2ccc(-c3c4nc(c(-c5c(F)cc(S(=O)(=O)[O-])cc5F)c5ccc([nH]5)c(-c5c(F)cc(S(=O)(=O)[O-])cc5F)c5nc(c(-c6c(F)cc(S(=O)(=O)[O-])cc6F)c6ccc3[nH]6)C=C5)C=C4)cc2)cc1
REMARK SMILES IDX 21 1 20 2 19 3 17 4 18 5 16 7 11 8 12 9 13 10 15 11 14 12
REMARK SMILES IDX 10 13 9 14 8 15 5 16 6 17 94 18 7 19 93 20 4 21 1 22 2 23
REMARK SMILES IDX 3 24 22 26 23 27 24 28 25 29 26 31 27 32 28 33 92 34 29 35
REMARK SMILES IDX 91 36 30 37 31 38 32 39 85 40 33 41 90 42 84 43 86 44 34 45
REMARK SMILES IDX 89 46 83 47 82 48 35 50 69 51 48 52 68 53 49 54 52 55 67 56
REMARK SMILES IDX 87 57 50 58 51 59 66 61 88 62 53 63 36 64 37 65 46 66 38 67
REMARK SMILES IDX 39 68 45 69 47 70 40 71 41 72 42 73 43 74 44 75 70 76 71 77
REMARK SMILES IDX 80 78 72 79 73 80 79 81 81 82 74 83 75 84 76 85 77 86 78 87
REMARK SMILES IDX 54 88 55 89 64 90 56 91 57 92 63 93 65 94 58 95 59 96 60 97
REMARK SMILES IDX 61 98 62 99
REMARK H PARENT 19 6 4 25 24 30 86 49 52 60
REMARK Flexibility Score: inf
ROOT
ATOM      1  C   UNL A   1      33.739  26.185  25.580  1.00  0.00     0.023 C 
ENDROOT
BRANCH   1   2
ATOM      2  C   UNL A   1      34.043  24.753  26.014  1.00  0.00     0.116 C 
BRANCH   2   3
ATOM      3  N   UNL A   1      35.285  24.207  25.527  1.00  0.00    -0.352 N 
ATOM      4  C   UNL A   1      35.495  23.091  24.756  1.00  0.00     0.253 C 
ATOM      5  O   UNL A   1      36.634  22.894  24.327  1.00  0.00    -0.269 OA
ATOM      6  H   UNL A   1      36.095  24.703  25.783  1.00  0.00     0.163 HD
BRANCH   4   7
ATOM      7  C   UNL A   1      34.464  22.053  24.497  1.00  0.00     0.065 A 
ATOM      8  C   UNL A   1      33.229  22.237  23.850  1.00  0.00     0.076 A 
ATOM      9  C   UNL A   1      32.399  21.117  23.649  1.00  0.00     0.029 A 
ATOM     10  C   UNL A   1      32.783  19.838  24.050  1.00  0.00     0.002 A 
ATOM     11  C   UNL A   1      34.847  20.750  24.885  1.00  0.00     0.016 A 
ATOM     12  C   UNL A   1      34.012  19.653  24.670  1.00  0.00     0.001 A 
BRANCH   8  13
ATOM     13  N   UNL A   1      32.685  23.471  23.474  1.00  0.00    -0.255 NA
ATOM     14  C   UNL A   1      31.445  23.725  23.746  1.00  0.00     0.119 C 
BRANCH  14  15
ATOM     15  C   UNL A   1      30.868  25.036  23.370  1.00  0.00    -0.007 A 
ATOM     16  C   UNL A   1      29.914  27.633  22.862  1.00  0.00     0.041 A 
ATOM     17  C   UNL A   1      29.237  26.782  23.748  1.00  0.00     0.027 A 
ATOM     18  C   UNL A   1      31.012  27.128  22.160  1.00  0.00     0.027 A 
ATOM     19  C   UNL A   1      29.714  25.497  24.011  1.00  0.00     0.012 A 
ATOM     20  C   UNL A   1      31.496  25.834  22.417  1.00  0.00     0.012 A 
BRANCH  16  21
ATOM     21  N   UNL A   1      29.459  28.965  22.832  1.00  0.00    -0.326 N 
ATOM     22  C   UNL A   1      30.806  30.090  24.630  1.00  0.00     0.114 C 
ATOM     23  C   UNL A   1      29.761  30.079  23.553  1.00  0.00     0.221 C 
ATOM     24  O   UNL A   1      29.128  31.110  23.295  1.00  0.00    -0.275 OA
ATOM     25  H   UNL A   1      28.777  29.124  22.140  1.00  0.00     0.169 HD
ENDBRANCH  16  21
ENDBRANCH  14  15
ENDBRANCH   8  13
ENDBRANCH   4   7
ENDBRANCH   2   3
ENDBRANCH   1   2
BRANCH   1  26
ATOM     26  C   UNL A   1      33.626  27.299  26.630  1.00  0.00     0.023 C 
BRANCH  26  27
ATOM     27  C   UNL A   1      34.086  28.718  26.304  1.00  0.00     0.116 C 
BRANCH  27  28
ATOM     28  N   UNL A   1      33.726  29.728  27.271  1.00  0.00    -0.352 N 
ATOM     29  C   UNL A   1      34.567  30.512  28.005  1.00  0.00     0.251 C 
ATOM     30  H   UNL A   1      32.763  29.868  27.416  1.00  0.00     0.163 HD
ATOM     31  O   UNL A   1      34.180  31.583  28.462  1.00  0.00    -0.269 OA
BRANCH  29  32
ATOM     32  C   UNL A   1      35.915  30.084  28.356  1.00  0.00     0.039 A 
ATOM     33  C   UNL A   1      36.859  30.059  27.320  1.00  0.00     0.014 A 
ATOM     34  C   UNL A   1      36.218  29.610  29.628  1.00  0.00     0.014 A 
ATOM     35  C   UNL A   1      38.153  29.621  27.576  1.00  0.00     0.010 A 
ATOM     36  C   UNL A   1      37.518  29.190  29.887  1.00  0.00     0.010 A 
ATOM     37  C   UNL A   1      38.493  29.217  28.871  1.00  0.00    -0.014 A 
BRANCH  37  38
ATOM     38  C   UNL A   1      39.887  28.914  29.252  1.00  0.00     0.031 A 
ATOM     39  C   UNL A   1      40.828  30.031  29.565  1.00  0.00     0.074 A 
ATOM     40  C   UNL A   1      40.321  27.650  29.091  1.00  0.00     0.049 A 
ATOM     41  N   UNL A   1      42.131  30.049  29.498  1.00  0.00    -0.248 NA
ATOM     42  C   UNL A   1      40.219  31.305  29.974  1.00  0.00     0.031 C 
ATOM     43  C   UNL A   1      39.470  26.499  28.782  1.00  0.00     0.029 A 
ATOM     44  N   UNL A   1      41.595  27.142  29.079  1.00  0.00    -0.354 N 
ATOM     45  C   UNL A   1      42.501  31.353  29.796  1.00  0.00     0.074 A 
ATOM     46  C   UNL A   1      41.286  32.089  30.075  1.00  0.00     0.031 C 
ATOM     47  C   UNL A   1      40.248  25.435  28.533  1.00  0.00     0.029 A 
ATOM     48  C   UNL A   1      41.644  25.847  28.617  1.00  0.00     0.049 A 
ATOM     49  H   UNL A   1      42.387  27.649  29.368  1.00  0.00     0.167 HD
ATOM     50  C   UNL A   1      43.748  31.881  29.804  1.00  0.00     0.037 A 
ATOM     51  C   UNL A   1      42.693  25.101  28.229  1.00  0.00     0.037 A 
ATOM     52  C   UNL A   1      44.940  31.116  29.549  1.00  0.00     0.049 A 
ATOM     53  C   UNL A   1      44.069  25.692  28.296  1.00  0.00     0.074 A 
ATOM     54  C   UNL A   1      46.259  31.534  29.577  1.00  0.00     0.029 A 
ATOM     55  N   UNL A   1      44.954  29.767  29.222  1.00  0.00    -0.354 N 
ATOM     56  N   UNL A   1      44.417  26.924  28.581  1.00  0.00    -0.248 NA
ATOM     57  C   UNL A   1      45.193  24.798  27.994  1.00  0.00     0.031 C 
ATOM     58  C   UNL A   1      47.070  30.439  29.256  1.00  0.00     0.029 A 
ATOM     59  C   UNL A   1      46.257  29.335  29.050  1.00  0.00     0.049 A 
ATOM     60  H   UNL A   1      44.155  29.200  29.127  1.00  0.00     0.167 HD
ATOM     61  C   UNL A   1      45.803  26.950  28.510  1.00  0.00     0.074 A 
ATOM     62  C   UNL A   1      46.229  25.611  28.156  1.00  0.00     0.031 C 
ATOM     63  C   UNL A   1      46.646  27.989  28.720  1.00  0.00     0.037 A 
BRANCH  50  64
ATOM     64  C   UNL A   1      43.883  33.353  30.062  1.00  0.00     0.058 A 
ATOM     65  C   UNL A   1      44.008  33.868  31.359  1.00  0.00     0.135 A 
ATOM     66  C   UNL A   1      43.930  34.255  28.987  1.00  0.00     0.135 A 
ATOM     67  F   UNL A   1      43.952  33.048  32.421  1.00  0.00    -0.206 F 
ATOM     68  C   UNL A   1      44.162  35.233  31.586  1.00  0.00     0.059 A 
ATOM     69  C   UNL A   1      44.100  35.622  29.189  1.00  0.00     0.059 A 
ATOM     70  F   UNL A   1      43.809  33.812  27.726  1.00  0.00    -0.206 F 
ATOM     71  C   UNL A   1      44.203  36.102  30.494  1.00  0.00     0.060 A 
BRANCH  71  72
ATOM     72  S   UNL A   1      44.419  37.871  30.791  1.00  0.00     0.124 S 
ATOM     73  O   UNL A   1      45.847  38.035  30.540  1.00  0.00    -0.237 OA
ATOM     74  O   UNL A   1      43.529  38.471  29.801  1.00  0.00    -0.237 OA
ATOM     75  O   UNL A   1      44.001  38.033  32.180  1.00  0.00    -0.744 OA
ENDBRANCH  71  72
ENDBRANCH  50  64
BRANCH  51  76
ATOM     76  C   UNL A   1      42.459  23.737  27.697  1.00  0.00     0.058 A 
ATOM     77  C   UNL A   1      42.283  23.521  26.325  1.00  0.00     0.135 A 
ATOM     78  C   UNL A   1      42.482  22.618  28.545  1.00  0.00     0.135 A 
ATOM     79  F   UNL A   1      42.258  24.563  25.480  1.00  0.00    -0.206 F 
ATOM     80  C   UNL A   1      42.134  22.239  25.806  1.00  0.00     0.059 A 
ATOM     81  C   UNL A   1      42.350  21.326  28.048  1.00  0.00     0.059 A 
ATOM     82  F   UNL A   1      42.674  22.777  29.863  1.00  0.00    -0.206 F 
ATOM     83  C   UNL A   1      42.172  21.147  26.676  1.00  0.00     0.060 A 
BRANCH  83  84
ATOM     84  S   UNL A   1      42.064  19.479  25.991  1.00  0.00     0.124 S 
ATOM     85  O   UNL A   1      42.913  19.592  24.811  1.00  0.00    -0.237 OA
ATOM     86  O   UNL A   1      42.588  18.659  27.079  1.00  0.00    -0.237 OA
ATOM     87  O   UNL A   1      40.635  19.321  25.733  1.00  0.00    -0.744 OA
ENDBRANCH  83  84
ENDBRANCH  51  76
BRANCH  63  88
ATOM     88  C   UNL A   1      48.113  27.702  28.621  1.00  0.00     0.058 A 
ATOM     89  C   UNL A   1      48.809  27.867  27.416  1.00  0.00     0.135 A 
ATOM     90  C   UNL A   1      48.834  27.318  29.760  1.00  0.00     0.135 A 
ATOM     91  F   UNL A   1      48.156  28.226  26.300  1.00  0.00    -0.206 F 
ATOM     92  C   UNL A   1      50.182  27.657  27.342  1.00  0.00     0.059 A 
ATOM     93  C   UNL A   1      50.207  27.112  29.713  1.00  0.00     0.059 A 
ATOM     94  F   UNL A   1      48.205  27.150  30.934  1.00  0.00    -0.206 F 
ATOM     95  C   UNL A   1      50.872  27.278  28.497  1.00  0.00     0.060 A 
BRANCH  95  96
ATOM     96  S   UNL A   1      52.661  27.054  28.412  1.00  0.00     0.124 S 
ATOM     97  O   UNL A   1      52.797  26.242  27.208  1.00  0.00    -0.237 OA
ATOM     98  O   UNL A   1      53.150  28.425  28.310  1.00  0.00    -0.237 OA
ATOM     99  O   UNL A   1      52.974  26.377  29.667  1.00  0.00    -0.744 OA
ENDBRANCH  95  96
ENDBRANCH  63  88
ENDBRANCH  37  38
ENDBRANCH  29  32
ENDBRANCH  27  28
ENDBRANCH  26  27
ENDBRANCH   1  26
TORSDOF 17
ENDMDL
