MODEL 1
REMARK VINA RESULT:     -13.3      0.000      0.000
REMARK SMILES Cc1ccccc1C(=O)Nc1ccc(OCC(=O)NCCCCNC(=O)c2ccc(-c3c4nc(c(-c5c(F)cc(S(=O)(=O)[O-])cc5F)c5ccc([nH]5)c(-c5c(F)cc(S(=O)(=O)[O-])cc5F)c5nc(c(-c6c(F)cc(S(=O)(=O)[O-])cc6F)c6ccc3[nH]6)C=C5)C=C4)cc2)c(-c2nc3ccccc3s2)c1
REMARK SMILES IDX 21 1 20 2 19 3 17 4 18 5 16 7 15 8 14 9 11 10 12 11 103 12
REMARK SMILES IDX 13 13 93 14 10 15 8 16 9 17 7 19 1 20 2 21 3 22 4 23 6 24
REMARK SMILES IDX 5 25 94 26 95 27 102 28 96 29 101 30 97 31 100 32 98 33
REMARK SMILES IDX 99 34 22 35 23 36 24 37 25 38 26 40 27 41 28 42 92 43 29 44
REMARK SMILES IDX 91 45 30 46 31 47 32 48 85 49 33 50 90 51 84 52 86 53 34 54
REMARK SMILES IDX 89 55 83 56 82 57 35 59 69 60 48 61 68 62 49 63 52 64 67 65
REMARK SMILES IDX 87 66 50 67 51 68 66 70 88 71 53 72 36 73 37 74 46 75 38 76
REMARK SMILES IDX 39 77 45 78 47 79 40 80 41 81 42 82 43 83 44 84 70 85 71 86
REMARK SMILES IDX 80 87 72 88 73 89 79 90 81 91 74 92 75 93 76 94 77 95 78 96
REMARK SMILES IDX 54 97 55 98 64 99 56 100 57 101 63 102 65 103 58 104 59 105
REMARK SMILES IDX 60 106 61 107 62 108
REMARK H PARENT 19 6 10 18 24 39 86 58 52 69
REMARK Flexibility Score: inf
ROOT
ATOM      1  C   UNL A   1      35.021  29.402  27.645  1.00  0.00     0.023 C 
ENDROOT
BRANCH   1   2
ATOM      2  C   UNL A   1      34.606  29.220  26.185  1.00  0.00     0.116 C 
BRANCH   2   3
ATOM      3  N   UNL A   1      33.329  29.876  25.948  1.00  0.00    -0.353 N 
ATOM      4  C   UNL A   1      32.124  29.291  25.678  1.00  0.00     0.257 C 
ATOM      5  O   UNL A   1      31.304  29.974  25.062  1.00  0.00    -0.271 OA
ATOM      6  H   UNL A   1      33.334  30.860  25.986  1.00  0.00     0.163 HD
BRANCH   4   7
ATOM      7  C   UNL A   1      31.810  27.875  26.252  1.00  0.00     0.329 C 
BRANCH   7   8
ATOM      8  O   UNL A   1      30.611  27.114  26.158  1.00  0.00    -0.483 OA
BRANCH   8   9
ATOM      9  C   UNL A   1      30.612  26.039  25.318  1.00  0.00     0.130 A 
ATOM     10  C   UNL A   1      30.696  23.711  23.765  1.00  0.00     0.042 A 
ATOM     11  C   UNL A   1      31.046  23.650  25.113  1.00  0.00     0.030 A 
ATOM     12  C   UNL A   1      30.143  24.885  23.253  1.00  0.00     0.041 A 
ATOM     13  C   UNL A   1      31.051  24.823  25.871  1.00  0.00     0.049 A 
ATOM     14  C   UNL A   1      30.040  26.063  24.031  1.00  0.00     0.055 A 
BRANCH  10  15
ATOM     15  N   UNL A   1      30.998  22.603  22.964  1.00  0.00    -0.322 N 
ATOM     16  C   UNL A   1      32.209  21.994  22.695  1.00  0.00     0.255 C 
ATOM     17  O   UNL A   1      32.236  21.142  21.801  1.00  0.00    -0.269 OA
ATOM     18  H   UNL A   1      30.222  22.192  22.518  1.00  0.00     0.170 HD
BRANCH  16  19
ATOM     19  C   UNL A   1      33.471  22.251  23.469  1.00  0.00     0.043 A 
ATOM     20  C   UNL A   1      33.578  20.034  24.793  1.00  0.00     0.045 C 
ATOM     21  C   UNL A   1      34.034  21.422  24.459  1.00  0.00    -0.038 A 
ATOM     22  C   UNL A   1      35.182  21.860  25.154  1.00  0.00     0.004 A 
ATOM     23  C   UNL A   1      35.870  23.002  24.762  1.00  0.00     0.000 A 
ATOM     24  C   UNL A   1      34.208  23.380  23.058  1.00  0.00     0.014 A 
ATOM     25  C   UNL A   1      35.409  23.738  23.680  1.00  0.00     0.001 A 
ENDBRANCH  16  19
ENDBRANCH  10  15
BRANCH  14  26
ATOM     26  C   UNL A   1      29.384  27.219  23.377  1.00  0.00     0.128 A 
ATOM     27  N   UNL A   1      29.993  28.002  22.499  1.00  0.00    -0.236 NA
ATOM     28  S   UNL A   1      27.752  27.691  23.653  1.00  0.00    -0.114 S 
ATOM     29  C   UNL A   1      29.307  29.199  22.387  1.00  0.00     0.082 A 
ATOM     30  C   UNL A   1      28.127  29.271  23.123  1.00  0.00     0.055 A 
ATOM     31  C   UNL A   1      29.713  30.329  21.658  1.00  0.00     0.030 A 
ATOM     32  C   UNL A   1      27.422  30.468  23.301  1.00  0.00     0.021 A 
ATOM     33  C   UNL A   1      28.989  31.519  21.779  1.00  0.00     0.002 A 
ATOM     34  C   UNL A   1      27.886  31.598  22.626  1.00  0.00     0.002 A 
ENDBRANCH  14  26
ENDBRANCH   8   9
ENDBRANCH   7   8
ENDBRANCH   4   7
ENDBRANCH   2   3
ENDBRANCH   1   2
BRANCH   1  35
ATOM     35  C   UNL A   1      35.760  30.700  27.957  1.00  0.00     0.023 C 
BRANCH  35  36
ATOM     36  C   UNL A   1      34.988  31.731  28.759  1.00  0.00     0.116 C 
BRANCH  36  37
ATOM     37  N   UNL A   1      35.322  31.835  30.170  1.00  0.00    -0.352 N 
ATOM     38  C   UNL A   1      36.165  31.021  30.913  1.00  0.00     0.251 C 
ATOM     39  H   UNL A   1      34.898  32.577  30.660  1.00  0.00     0.163 HD
ATOM     40  O   UNL A   1      36.132  30.969  32.140  1.00  0.00    -0.269 OA
BRANCH  38  41
ATOM     41  C   UNL A   1      37.282  30.350  30.211  1.00  0.00     0.039 A 
ATOM     42  C   UNL A   1      37.421  28.977  30.473  1.00  0.00     0.014 A 
ATOM     43  C   UNL A   1      38.343  31.100  29.725  1.00  0.00     0.014 A 
ATOM     44  C   UNL A   1      38.692  28.444  30.539  1.00  0.00     0.010 A 
ATOM     45  C   UNL A   1      39.604  30.637  29.972  1.00  0.00     0.010 A 
ATOM     46  C   UNL A   1      39.760  29.326  30.413  1.00  0.00    -0.014 A 
BRANCH  46  47
ATOM     47  C   UNL A   1      41.132  28.922  30.561  1.00  0.00     0.031 A 
ATOM     48  C   UNL A   1      41.473  27.701  29.826  1.00  0.00     0.074 A 
ATOM     49  C   UNL A   1      41.957  29.696  31.291  1.00  0.00     0.049 A 
ATOM     50  N   UNL A   1      42.232  26.772  30.272  1.00  0.00    -0.248 NA
ATOM     51  C   UNL A   1      40.850  27.368  28.540  1.00  0.00     0.031 C 
ATOM     52  C   UNL A   1      43.393  29.569  31.489  1.00  0.00     0.029 A 
ATOM     53  N   UNL A   1      41.562  30.674  32.215  1.00  0.00    -0.354 N 
ATOM     54  C   UNL A   1      42.486  25.943  29.201  1.00  0.00     0.074 A 
ATOM     55  C   UNL A   1      41.480  26.238  28.218  1.00  0.00     0.031 C 
ATOM     56  C   UNL A   1      43.712  30.163  32.654  1.00  0.00     0.029 A 
ATOM     57  C   UNL A   1      42.471  30.599  33.282  1.00  0.00     0.049 A 
ATOM     58  H   UNL A   1      40.799  31.290  32.132  1.00  0.00     0.167 HD
ATOM     59  C   UNL A   1      43.671  25.278  29.161  1.00  0.00     0.037 A 
ATOM     60  C   UNL A   1      42.023  30.168  34.496  1.00  0.00     0.037 A 
ATOM     61  C   UNL A   1      44.453  25.623  30.344  1.00  0.00     0.049 A 
ATOM     62  C   UNL A   1      42.604  28.821  34.861  1.00  0.00     0.074 A 
ATOM     63  C   UNL A   1      45.399  26.615  30.558  1.00  0.00     0.029 A 
ATOM     64  N   UNL A   1      43.974  25.264  31.600  1.00  0.00    -0.354 N 
ATOM     65  N   UNL A   1      42.973  27.918  33.987  1.00  0.00    -0.248 NA
ATOM     66  C   UNL A   1      42.947  28.449  36.229  1.00  0.00     0.031 C 
ATOM     67  C   UNL A   1      45.446  26.887  31.949  1.00  0.00     0.029 A 
ATOM     68  C   UNL A   1      44.529  26.064  32.581  1.00  0.00     0.049 A 
ATOM     69  H   UNL A   1      43.328  24.540  31.765  1.00  0.00     0.167 HD
ATOM     70  C   UNL A   1      43.632  26.897  34.634  1.00  0.00     0.074 A 
ATOM     71  C   UNL A   1      43.586  27.283  36.034  1.00  0.00     0.031 C 
ATOM     72  C   UNL A   1      44.213  25.840  33.983  1.00  0.00     0.037 A 
BRANCH  59  73
ATOM     73  C   UNL A   1      44.219  24.666  27.898  1.00  0.00     0.058 A 
ATOM     74  C   UNL A   1      43.859  23.356  27.522  1.00  0.00     0.135 A 
ATOM     75  C   UNL A   1      45.119  25.315  27.026  1.00  0.00     0.135 A 
ATOM     76  F   UNL A   1      42.992  22.632  28.240  1.00  0.00    -0.206 F 
ATOM     77  C   UNL A   1      44.380  22.722  26.396  1.00  0.00     0.059 A 
ATOM     78  C   UNL A   1      45.691  24.683  25.917  1.00  0.00     0.059 A 
ATOM     79  F   UNL A   1      45.451  26.603  27.209  1.00  0.00    -0.206 F 
ATOM     80  C   UNL A   1      45.306  23.387  25.603  1.00  0.00     0.060 A 
BRANCH  80  81
ATOM     81  S   UNL A   1      45.951  22.537  24.152  1.00  0.00     0.124 S 
ATOM     82  O   UNL A   1      46.536  21.333  24.734  1.00  0.00    -0.237 OA
ATOM     83  O   UNL A   1      44.742  22.336  23.360  1.00  0.00    -0.237 OA
ATOM     84  O   UNL A   1      46.912  23.487  23.600  1.00  0.00    -0.744 OA
ENDBRANCH  80  81
ENDBRANCH  59  73
BRANCH  60  85
ATOM     85  C   UNL A   1      40.714  30.777  34.885  1.00  0.00     0.058 A 
ATOM     86  C   UNL A   1      40.776  32.049  35.491  1.00  0.00     0.135 A 
ATOM     87  C   UNL A   1      39.477  30.407  34.330  1.00  0.00     0.135 A 
ATOM     88  F   UNL A   1      41.930  32.477  36.029  1.00  0.00    -0.206 F 
ATOM     89  C   UNL A   1      39.715  32.949  35.454  1.00  0.00     0.059 A 
ATOM     90  C   UNL A   1      38.395  31.306  34.267  1.00  0.00     0.059 A 
ATOM     91  F   UNL A   1      39.334  29.204  33.756  1.00  0.00    -0.206 F 
ATOM     92  C   UNL A   1      38.536  32.586  34.809  1.00  0.00     0.060 A 
BRANCH  92  93
ATOM     93  S   UNL A   1      37.290  33.880  34.576  1.00  0.00     0.124 S 
ATOM     94  O   UNL A   1      38.029  35.083  34.924  1.00  0.00    -0.237 OA
ATOM     95  O   UNL A   1      36.951  33.732  33.163  1.00  0.00    -0.237 OA
ATOM     96  O   UNL A   1      36.214  33.490  35.483  1.00  0.00    -0.744 OA
ENDBRANCH  92  93
ENDBRANCH  60  85
BRANCH  72  97
ATOM     97  C   UNL A   1      44.659  24.520  34.596  1.00  0.00     0.058 A 
ATOM     98  C   UNL A   1      43.825  23.405  34.769  1.00  0.00     0.135 A 
ATOM     99  C   UNL A   1      46.033  24.285  34.886  1.00  0.00     0.135 A 
ATOM    100  F   UNL A   1      42.531  23.431  34.428  1.00  0.00    -0.206 F 
ATOM    101  C   UNL A   1      44.294  22.184  35.256  1.00  0.00     0.059 A 
ATOM    102  C   UNL A   1      46.536  23.052  35.286  1.00  0.00     0.059 A 
ATOM    103  F   UNL A   1      46.963  25.245  34.776  1.00  0.00    -0.206 F 
ATOM    104  C   UNL A   1      45.653  22.015  35.504  1.00  0.00     0.060 A 
BRANCH 104 105
ATOM    105  S   UNL A   1      46.257  20.422  36.076  1.00  0.00     0.124 S 
ATOM    106  O   UNL A   1      45.515  19.508  35.214  1.00  0.00    -0.237 OA
ATOM    107  O   UNL A   1      47.690  20.516  35.814  1.00  0.00    -0.237 OA
ATOM    108  O   UNL A   1      45.885  20.404  37.487  1.00  0.00    -0.744 OA
ENDBRANCH 104 105
ENDBRANCH  72  97
ENDBRANCH  46  47
ENDBRANCH  38  41
ENDBRANCH  36  37
ENDBRANCH  35  36
ENDBRANCH   1  35
TORSDOF 19
ENDMDL
MODEL 2
REMARK VINA RESULT:     -13.3      1.688      2.262
REMARK SMILES Cc1ccccc1C(=O)Nc1ccc(OCC(=O)NCCCCNC(=O)c2ccc(-c3c4nc(c(-c5c(F)cc(S(=O)(=O)[O-])cc5F)c5ccc([nH]5)c(-c5c(F)cc(S(=O)(=O)[O-])cc5F)c5nc(c(-c6c(F)cc(S(=O)(=O)[O-])cc6F)c6ccc3[nH]6)C=C5)C=C4)cc2)c(-c2nc3ccccc3s2)c1
REMARK SMILES IDX 21 1 20 2 19 3 17 4 18 5 16 7 15 8 14 9 11 10 12 11 103 12
REMARK SMILES IDX 13 13 93 14 10 15 8 16 9 17 7 19 1 20 2 21 3 22 4 23 6 24
REMARK SMILES IDX 5 25 94 26 95 27 102 28 96 29 101 30 97 31 100 32 98 33
REMARK SMILES IDX 99 34 22 35 23 36 24 37 25 38 26 40 27 41 28 42 92 43 29 44
REMARK SMILES IDX 91 45 30 46 31 47 32 48 85 49 33 50 90 51 84 52 86 53 34 54
REMARK SMILES IDX 89 55 83 56 82 57 35 59 69 60 48 61 68 62 49 63 52 64 67 65
REMARK SMILES IDX 87 66 50 67 51 68 66 70 88 71 53 72 36 73 37 74 46 75 38 76
REMARK SMILES IDX 39 77 45 78 47 79 40 80 41 81 42 82 43 83 44 84 70 85 71 86
REMARK SMILES IDX 80 87 72 88 73 89 79 90 81 91 74 92 75 93 76 94 77 95 78 96
REMARK SMILES IDX 54 97 55 98 64 99 56 100 57 101 63 102 65 103 58 104 59 105
REMARK SMILES IDX 60 106 61 107 62 108
REMARK H PARENT 19 6 10 18 24 39 86 58 52 69
REMARK Flexibility Score: inf
ROOT
ATOM      1  C   UNL A   1      34.676  32.280  27.823  1.00  0.00     0.023 C 
ENDROOT
BRANCH   1   2
ATOM      2  C   UNL A   1      33.291  31.768  27.429  1.00  0.00     0.116 C 
BRANCH   2   3
ATOM      3  N   UNL A   1      33.219  30.329  27.628  1.00  0.00    -0.353 N 
ATOM      4  C   UNL A   1      32.537  29.412  26.880  1.00  0.00     0.257 C 
ATOM      5  O   UNL A   1      32.214  28.367  27.446  1.00  0.00    -0.271 OA
ATOM      6  H   UNL A   1      33.722  29.973  28.396  1.00  0.00     0.163 HD
BRANCH   4   7
ATOM      7  C   UNL A   1      32.315  29.673  25.358  1.00  0.00     0.329 C 
BRANCH   7   8
ATOM      8  O   UNL A   1      33.009  29.125  24.242  1.00  0.00    -0.483 OA
BRANCH   8   9
ATOM      9  C   UNL A   1      32.764  27.820  23.928  1.00  0.00     0.130 A 
ATOM     10  C   UNL A   1      32.449  25.089  23.397  1.00  0.00     0.042 A 
ATOM     11  C   UNL A   1      33.503  25.514  24.204  1.00  0.00     0.030 A 
ATOM     12  C   UNL A   1      31.469  26.004  23.012  1.00  0.00     0.041 A 
ATOM     13  C   UNL A   1      33.686  26.881  24.425  1.00  0.00     0.049 A 
ATOM     14  C   UNL A   1      31.575  27.383  23.311  1.00  0.00     0.055 A 
BRANCH  10  15
ATOM     15  N   UNL A   1      32.472  23.766  22.940  1.00  0.00    -0.322 N 
ATOM     16  C   UNL A   1      32.873  22.605  23.574  1.00  0.00     0.255 C 
ATOM     17  O   UNL A   1      32.974  21.584  22.886  1.00  0.00    -0.269 OA
ATOM     18  H   UNL A   1      32.151  23.642  22.017  1.00  0.00     0.170 HD
BRANCH  16  19
ATOM     19  C   UNL A   1      33.122  22.495  25.051  1.00  0.00     0.043 A 
ATOM     20  C   UNL A   1      30.699  22.840  25.883  1.00  0.00     0.045 C 
ATOM     21  C   UNL A   1      32.177  22.681  26.079  1.00  0.00    -0.038 A 
ATOM     22  C   UNL A   1      32.601  22.629  27.424  1.00  0.00     0.004 A 
ATOM     23  C   UNL A   1      33.888  22.222  27.759  1.00  0.00     0.000 A 
ATOM     24  C   UNL A   1      34.406  22.040  25.412  1.00  0.00     0.014 A 
ATOM     25  C   UNL A   1      34.778  21.880  26.750  1.00  0.00     0.001 A 
ENDBRANCH  16  19
ENDBRANCH  10  15
BRANCH  14  26
ATOM     26  C   UNL A   1      30.436  28.231  22.888  1.00  0.00     0.128 A 
ATOM     27  N   UNL A   1      30.514  29.123  21.912  1.00  0.00    -0.236 NA
ATOM     28  S   UNL A   1      28.865  28.164  23.589  1.00  0.00    -0.114 S 
ATOM     29  C   UNL A   1      29.473  30.027  22.022  1.00  0.00     0.082 A 
ATOM     30  C   UNL A   1      28.560  29.752  23.036  1.00  0.00     0.055 A 
ATOM     31  C   UNL A   1      29.291  31.190  21.253  1.00  0.00     0.030 A 
ATOM     32  C   UNL A   1      27.574  30.664  23.432  1.00  0.00     0.021 A 
ATOM     33  C   UNL A   1      28.275  32.087  21.598  1.00  0.00     0.002 A 
ATOM     34  C   UNL A   1      27.459  31.848  22.702  1.00  0.00     0.002 A 
ENDBRANCH  14  26
ENDBRANCH   8   9
ENDBRANCH   7   8
ENDBRANCH   4   7
ENDBRANCH   2   3
ENDBRANCH   1   2
BRANCH   1  35
ATOM     35  C   UNL A   1      34.922  32.408  29.324  1.00  0.00     0.023 C 
BRANCH  35  36
ATOM     36  C   UNL A   1      35.753  31.308  29.960  1.00  0.00     0.116 C 
BRANCH  36  37
ATOM     37  N   UNL A   1      35.729  30.015  29.297  1.00  0.00    -0.352 N 
ATOM     38  C   UNL A   1      36.790  29.327  28.723  1.00  0.00     0.251 C 
ATOM     39  H   UNL A   1      34.852  29.571  29.248  1.00  0.00     0.163 HD
ATOM     40  O   UNL A   1      36.634  28.424  27.905  1.00  0.00    -0.269 OA
BRANCH  38  41
ATOM     41  C   UNL A   1      38.144  29.551  29.274  1.00  0.00     0.039 A 
ATOM     42  C   UNL A   1      39.079  30.092  28.378  1.00  0.00     0.014 A 
ATOM     43  C   UNL A   1      38.552  28.863  30.408  1.00  0.00     0.014 A 
ATOM     44  C   UNL A   1      40.392  29.674  28.460  1.00  0.00     0.010 A 
ATOM     45  C   UNL A   1      39.794  28.296  30.387  1.00  0.00     0.010 A 
ATOM     46  C   UNL A   1      40.686  28.681  29.389  1.00  0.00    -0.014 A 
BRANCH  46  47
ATOM     47  C   UNL A   1      41.989  28.085  29.513  1.00  0.00     0.031 A 
ATOM     48  C   UNL A   1      42.062  26.712  29.008  1.00  0.00     0.074 A 
ATOM     49  C   UNL A   1      42.992  28.826  30.019  1.00  0.00     0.049 A 
ATOM     50  N   UNL A   1      42.713  25.763  29.569  1.00  0.00    -0.248 NA
ATOM     51  C   UNL A   1      41.268  26.263  27.858  1.00  0.00     0.031 C 
ATOM     52  C   UNL A   1      44.404  28.496  30.134  1.00  0.00     0.029 A 
ATOM     53  N   UNL A   1      42.847  30.007  30.762  1.00  0.00    -0.354 N 
ATOM     54  C   UNL A   1      42.726  24.724  28.664  1.00  0.00     0.074 A 
ATOM     55  C   UNL A   1      41.682  25.003  27.717  1.00  0.00     0.031 C 
ATOM     56  C   UNL A   1      44.928  29.227  31.136  1.00  0.00     0.029 A 
ATOM     57  C   UNL A   1      43.838  29.972  31.755  1.00  0.00     0.049 A 
ATOM     58  H   UNL A   1      42.182  30.718  30.616  1.00  0.00     0.167 HD
ATOM     59  C   UNL A   1      43.786  23.872  28.669  1.00  0.00     0.037 A 
ATOM     60  C   UNL A   1      43.456  29.848  33.058  1.00  0.00     0.037 A 
ATOM     61  C   UNL A   1      44.728  24.288  29.704  1.00  0.00     0.049 A 
ATOM     62  C   UNL A   1      43.859  28.511  33.636  1.00  0.00     0.074 A 
ATOM     63  C   UNL A   1      45.831  25.127  29.653  1.00  0.00     0.029 A 
ATOM     64  N   UNL A   1      44.330  24.246  31.036  1.00  0.00    -0.354 N 
ATOM     65  N   UNL A   1      43.995  27.417  32.929  1.00  0.00    -0.248 NA
ATOM     66  C   UNL A   1      44.279  28.338  35.022  1.00  0.00     0.031 C 
ATOM     67  C   UNL A   1      46.060  25.633  30.958  1.00  0.00     0.029 A 
ATOM     68  C   UNL A   1      45.098  25.104  31.802  1.00  0.00     0.049 A 
ATOM     69  H   UNL A   1      43.602  23.683  31.385  1.00  0.00     0.167 HD
ATOM     70  C   UNL A   1      44.553  26.432  33.713  1.00  0.00     0.074 A 
ATOM     71  C   UNL A   1      44.709  27.065  35.011  1.00  0.00     0.031 C 
ATOM     72  C   UNL A   1      44.896  25.192  33.240  1.00  0.00     0.037 A 
BRANCH  59  73
ATOM     73  C   UNL A   1      44.102  22.960  27.513  1.00  0.00     0.058 A 
ATOM     74  C   UNL A   1      43.235  21.900  27.178  1.00  0.00     0.135 A 
ATOM     75  C   UNL A   1      45.256  23.068  26.708  1.00  0.00     0.135 A 
ATOM     76  F   UNL A   1      42.089  21.696  27.838  1.00  0.00    -0.206 F 
ATOM     77  C   UNL A   1      43.507  20.994  26.157  1.00  0.00     0.059 A 
ATOM     78  C   UNL A   1      45.574  22.143  25.708  1.00  0.00     0.059 A 
ATOM     79  F   UNL A   1      46.103  24.100  26.849  1.00  0.00    -0.206 F 
ATOM     80  C   UNL A   1      44.685  21.113  25.432  1.00  0.00     0.060 A 
BRANCH  80  81
ATOM     81  S   UNL A   1      44.999  19.925  24.114  1.00  0.00     0.124 S 
ATOM     82  O   UNL A   1      44.111  18.824  24.472  1.00  0.00    -0.237 OA
ATOM     83  O   UNL A   1      44.619  20.686  22.928  1.00  0.00    -0.237 OA
ATOM     84  O   UNL A   1      46.424  19.639  24.245  1.00  0.00    -0.744 OA
ENDBRANCH  80  81
ENDBRANCH  59  73
BRANCH  60  85
ATOM     85  C   UNL A   1      42.302  30.730  33.415  1.00  0.00     0.058 A 
ATOM     86  C   UNL A   1      42.559  32.116  33.426  1.00  0.00     0.135 A 
ATOM     87  C   UNL A   1      40.954  30.343  33.313  1.00  0.00     0.135 A 
ATOM     88  F   UNL A   1      43.824  32.561  33.505  1.00  0.00    -0.206 F 
ATOM     89  C   UNL A   1      41.559  33.065  33.235  1.00  0.00     0.059 A 
ATOM     90  C   UNL A   1      39.927  31.284  33.103  1.00  0.00     0.059 A 
ATOM     91  F   UNL A   1      40.629  29.042  33.318  1.00  0.00    -0.206 F 
ATOM     92  C   UNL A   1      40.247  32.642  33.038  1.00  0.00     0.060 A 
BRANCH  92  93
ATOM     93  S   UNL A   1      39.039  33.900  32.548  1.00  0.00     0.124 S 
ATOM     94  O   UNL A   1      37.811  33.127  32.462  1.00  0.00    -0.237 OA
ATOM     95  O   UNL A   1      39.113  34.848  33.656  1.00  0.00    -0.237 OA
ATOM     96  O   UNL A   1      39.572  34.420  31.291  1.00  0.00    -0.744 OA
ENDBRANCH  92  93
ENDBRANCH  60  85
BRANCH  72  97
ATOM     97  C   UNL A   1      45.196  23.948  34.063  1.00  0.00     0.058 A 
ATOM     98  C   UNL A   1      44.240  22.985  34.420  1.00  0.00     0.135 A 
ATOM     99  C   UNL A   1      46.538  23.601  34.387  1.00  0.00     0.135 A 
ATOM    100  F   UNL A   1      42.951  23.108  34.080  1.00  0.00    -0.206 F 
ATOM    101  C   UNL A   1      44.572  21.814  35.103  1.00  0.00     0.059 A 
ATOM    102  C   UNL A   1      46.900  22.399  34.986  1.00  0.00     0.059 A 
ATOM    103  F   UNL A   1      47.573  24.410  34.118  1.00  0.00    -0.206 F 
ATOM    104  C   UNL A   1      45.905  21.526  35.375  1.00  0.00     0.060 A 
BRANCH 104 105
ATOM    105  S   UNL A   1      46.329  19.989  36.204  1.00  0.00     0.124 S 
ATOM    106  O   UNL A   1      47.788  20.044  36.180  1.00  0.00    -0.237 OA
ATOM    107  O   UNL A   1      45.711  20.157  37.515  1.00  0.00    -0.237 OA
ATOM    108  O   UNL A   1      45.721  18.968  35.358  1.00  0.00    -0.744 OA
ENDBRANCH 104 105
ENDBRANCH  72  97
ENDBRANCH  46  47
ENDBRANCH  38  41
ENDBRANCH  36  37
ENDBRANCH  35  36
ENDBRANCH   1  35
TORSDOF 19
ENDMDL
MODEL 3
REMARK VINA RESULT:     -13.1      1.477      2.078
REMARK SMILES Cc1ccccc1C(=O)Nc1ccc(OCC(=O)NCCCCNC(=O)c2ccc(-c3c4nc(c(-c5c(F)cc(S(=O)(=O)[O-])cc5F)c5ccc([nH]5)c(-c5c(F)cc(S(=O)(=O)[O-])cc5F)c5nc(c(-c6c(F)cc(S(=O)(=O)[O-])cc6F)c6ccc3[nH]6)C=C5)C=C4)cc2)c(-c2nc3ccccc3s2)c1
REMARK SMILES IDX 21 1 20 2 19 3 17 4 18 5 16 7 15 8 14 9 11 10 12 11 103 12
REMARK SMILES IDX 13 13 93 14 10 15 8 16 9 17 7 19 1 20 2 21 3 22 4 23 6 24
REMARK SMILES IDX 5 25 94 26 95 27 102 28 96 29 101 30 97 31 100 32 98 33
REMARK SMILES IDX 99 34 22 35 23 36 24 37 25 38 26 40 27 41 28 42 92 43 29 44
REMARK SMILES IDX 91 45 30 46 31 47 32 48 85 49 33 50 90 51 84 52 86 53 34 54
REMARK SMILES IDX 89 55 83 56 82 57 35 59 69 60 48 61 68 62 49 63 52 64 67 65
REMARK SMILES IDX 87 66 50 67 51 68 66 70 88 71 53 72 36 73 37 74 46 75 38 76
REMARK SMILES IDX 39 77 45 78 47 79 40 80 41 81 42 82 43 83 44 84 70 85 71 86
REMARK SMILES IDX 80 87 72 88 73 89 79 90 81 91 74 92 75 93 76 94 77 95 78 96
REMARK SMILES IDX 54 97 55 98 64 99 56 100 57 101 63 102 65 103 58 104 59 105
REMARK SMILES IDX 60 106 61 107 62 108
REMARK H PARENT 19 6 10 18 24 39 86 58 52 69
REMARK Flexibility Score: inf
ROOT
ATOM      1  C   UNL A   1      36.312  29.839  27.386  1.00  0.00     0.023 C 
ENDROOT
BRANCH   1   2
ATOM      2  C   UNL A   1      34.953  29.145  27.302  1.00  0.00     0.116 C 
BRANCH   2   3
ATOM      3  N   UNL A   1      33.916  30.120  27.003  1.00  0.00    -0.353 N 
ATOM      4  C   UNL A   1      32.607  29.884  26.691  1.00  0.00     0.257 C 
ATOM      5  O   UNL A   1      32.030  30.749  26.031  1.00  0.00    -0.271 OA
ATOM      6  H   UNL A   1      34.191  31.065  27.025  1.00  0.00     0.163 HD
BRANCH   4   7
ATOM      7  C   UNL A   1      31.894  28.624  27.273  1.00  0.00     0.329 C 
BRANCH   7   8
ATOM      8  O   UNL A   1      31.298  27.531  26.582  1.00  0.00    -0.483 OA
BRANCH   8   9
ATOM      9  C   UNL A   1      32.099  26.796  25.756  1.00  0.00     0.130 A 
ATOM     10  C   UNL A   1      33.842  25.209  24.247  1.00  0.00     0.042 A 
ATOM     11  C   UNL A   1      33.880  25.138  25.638  1.00  0.00     0.030 A 
ATOM     12  C   UNL A   1      32.824  25.933  23.626  1.00  0.00     0.041 A 
ATOM     13  C   UNL A   1      33.044  25.968  26.388  1.00  0.00     0.049 A 
ATOM     14  C   UNL A   1      31.896  26.703  24.365  1.00  0.00     0.055 A 
BRANCH  10  15
ATOM     15  N   UNL A   1      34.890  24.611  23.536  1.00  0.00    -0.322 N 
ATOM     16  C   UNL A   1      35.230  23.279  23.391  1.00  0.00     0.255 C 
ATOM     17  O   UNL A   1      36.316  23.020  22.864  1.00  0.00    -0.269 OA
ATOM     18  H   UNL A   1      35.480  25.241  23.063  1.00  0.00     0.170 HD
BRANCH  16  19
ATOM     19  C   UNL A   1      34.332  22.135  23.770  1.00  0.00     0.043 A 
ATOM     20  C   UNL A   1      35.494  21.438  25.971  1.00  0.00     0.045 C 
ATOM     21  C   UNL A   1      34.495  21.266  24.867  1.00  0.00    -0.038 A 
ATOM     22  C   UNL A   1      33.605  20.183  25.026  1.00  0.00     0.004 A 
ATOM     23  C   UNL A   1      32.471  20.059  24.232  1.00  0.00     0.000 A 
ATOM     24  C   UNL A   1      33.154  22.019  23.006  1.00  0.00     0.014 A 
ATOM     25  C   UNL A   1      32.219  21.007  23.251  1.00  0.00     0.001 A 
ENDBRANCH  16  19
ENDBRANCH  10  15
BRANCH  14  26
ATOM     26  C   UNL A   1      30.836  27.377  23.580  1.00  0.00     0.128 A 
ATOM     27  N   UNL A   1      31.078  28.348  22.712  1.00  0.00    -0.236 NA
ATOM     28  S   UNL A   1      29.163  26.984  23.672  1.00  0.00    -0.114 S 
ATOM     29  C   UNL A   1      29.912  29.049  22.460  1.00  0.00     0.082 A 
ATOM     30  C   UNL A   1      28.773  28.537  23.077  1.00  0.00     0.055 A 
ATOM     31  C   UNL A   1      29.792  30.224  21.699  1.00  0.00     0.030 A 
ATOM     32  C   UNL A   1      27.558  29.232  23.111  1.00  0.00     0.021 A 
ATOM     33  C   UNL A   1      28.568  30.902  21.674  1.00  0.00     0.002 A 
ATOM     34  C   UNL A   1      27.481  30.435  22.410  1.00  0.00     0.002 A 
ENDBRANCH  14  26
ENDBRANCH   8   9
ENDBRANCH   7   8
ENDBRANCH   4   7
ENDBRANCH   2   3
ENDBRANCH   1   2
BRANCH   1  35
ATOM     35  C   UNL A   1      37.395  29.066  28.132  1.00  0.00     0.023 C 
BRANCH  35  36
ATOM     36  C   UNL A   1      37.534  29.372  29.612  1.00  0.00     0.116 C 
BRANCH  36  37
ATOM     37  N   UNL A   1      36.798  30.525  30.105  1.00  0.00    -0.352 N 
ATOM     38  C   UNL A   1      37.045  31.274  31.247  1.00  0.00     0.251 C 
ATOM     39  H   UNL A   1      36.029  30.810  29.561  1.00  0.00     0.163 HD
ATOM     40  O   UNL A   1      36.200  32.001  31.763  1.00  0.00    -0.269 OA
BRANCH  38  41
ATOM     41  C   UNL A   1      38.438  31.357  31.738  1.00  0.00     0.039 A 
ATOM     42  C   UNL A   1      39.353  31.960  30.859  1.00  0.00     0.014 A 
ATOM     43  C   UNL A   1      38.867  30.510  32.750  1.00  0.00     0.014 A 
ATOM     44  C   UNL A   1      40.641  31.469  30.809  1.00  0.00     0.010 A 
ATOM     45  C   UNL A   1      40.071  29.890  32.582  1.00  0.00     0.010 A 
ATOM     46  C   UNL A   1      40.928  30.353  31.587  1.00  0.00    -0.014 A 
BRANCH  46  47
ATOM     47  C   UNL A   1      42.199  29.681  31.556  1.00  0.00     0.031 A 
ATOM     48  C   UNL A   1      42.199  28.451  30.759  1.00  0.00     0.074 A 
ATOM     49  C   UNL A   1      43.241  30.242  32.198  1.00  0.00     0.049 A 
ATOM     50  N   UNL A   1      42.803  27.372  31.087  1.00  0.00    -0.248 NA
ATOM     51  C   UNL A   1      41.378  28.308  29.551  1.00  0.00     0.031 C 
ATOM     52  C   UNL A   1      44.635  29.825  32.215  1.00  0.00     0.029 A 
ATOM     53  N   UNL A   1      43.160  31.234  33.185  1.00  0.00    -0.354 N 
ATOM     54  C   UNL A   1      42.760  26.559  29.975  1.00  0.00     0.074 A 
ATOM     55  C   UNL A   1      41.727  27.091  29.130  1.00  0.00     0.031 C 
ATOM     56  C   UNL A   1      45.200  30.291  33.345  1.00  0.00     0.029 A 
ATOM     57  C   UNL A   1      44.153  30.932  34.130  1.00  0.00     0.049 A 
ATOM     58  H   UNL A   1      42.532  31.992  33.210  1.00  0.00     0.167 HD
ATOM     59  C   UNL A   1      43.774  25.676  29.775  1.00  0.00     0.037 A 
ATOM     60  C   UNL A   1      43.770  30.543  35.380  1.00  0.00     0.037 A 
ATOM     61  C   UNL A   1      44.741  25.806  30.862  1.00  0.00     0.049 A 
ATOM     62  C   UNL A   1      44.107  29.092  35.641  1.00  0.00     0.074 A 
ATOM     63  C   UNL A   1      45.885  26.581  30.980  1.00  0.00     0.029 A 
ATOM     64  N   UNL A   1      44.347  25.490  32.158  1.00  0.00    -0.354 N 
ATOM     65  N   UNL A   1      44.183  28.176  34.709  1.00  0.00    -0.248 NA
ATOM     66  C   UNL A   1      44.524  28.597  36.948  1.00  0.00     0.031 C 
ATOM     67  C   UNL A   1      46.146  26.773  32.361  1.00  0.00     0.029 A 
ATOM     68  C   UNL A   1      45.162  26.119  33.082  1.00  0.00     0.049 A 
ATOM     69  H   UNL A   1      43.593  24.901  32.385  1.00  0.00     0.167 HD
ATOM     70  C   UNL A   1      44.694  27.016  35.247  1.00  0.00     0.074 A 
ATOM     71  C   UNL A   1      44.888  27.338  36.651  1.00  0.00     0.031 C 
ATOM     72  C   UNL A   1      44.971  25.897  34.507  1.00  0.00     0.037 A 
BRANCH  59  73
ATOM     73  C   UNL A   1      44.038  25.028  28.442  1.00  0.00     0.058 A 
ATOM     74  C   UNL A   1      43.349  23.857  28.066  1.00  0.00     0.135 A 
ATOM     75  C   UNL A   1      44.973  25.504  27.498  1.00  0.00     0.135 A 
ATOM     76  F   UNL A   1      42.414  23.309  28.851  1.00  0.00    -0.206 F 
ATOM     77  C   UNL A   1      43.596  23.185  26.871  1.00  0.00     0.059 A 
ATOM     78  C   UNL A   1      45.271  24.821  26.314  1.00  0.00     0.059 A 
ATOM     79  F   UNL A   1      45.610  26.671  27.684  1.00  0.00    -0.206 F 
ATOM     80  C   UNL A   1      44.567  23.666  26.003  1.00  0.00     0.060 A 
BRANCH  80  81
ATOM     81  S   UNL A   1      44.852  22.774  24.464  1.00  0.00     0.124 S 
ATOM     82  O   UNL A   1      43.505  22.679  23.908  1.00  0.00    -0.237 OA
ATOM     83  O   UNL A   1      45.766  23.670  23.763  1.00  0.00    -0.237 OA
ATOM     84  O   UNL A   1      45.429  21.508  24.905  1.00  0.00    -0.744 OA
ENDBRANCH  80  81
ENDBRANCH  59  73
BRANCH  60  85
ATOM     85  C   UNL A   1      42.665  31.379  35.940  1.00  0.00     0.058 A 
ATOM     86  C   UNL A   1      42.950  32.748  36.117  1.00  0.00     0.135 A 
ATOM     87  C   UNL A   1      41.306  31.023  35.892  1.00  0.00     0.135 A 
ATOM     88  F   UNL A   1      44.226  33.165  36.158  1.00  0.00    -0.206 F 
ATOM     89  C   UNL A   1      41.958  33.724  36.135  1.00  0.00     0.059 A 
ATOM     90  C   UNL A   1      40.285  31.994  35.891  1.00  0.00     0.059 A 
ATOM     91  F   UNL A   1      40.956  29.737  35.747  1.00  0.00    -0.206 F 
ATOM     92  C   UNL A   1      40.627  33.345  35.984  1.00  0.00     0.060 A 
BRANCH  92  93
ATOM     93  S   UNL A   1      39.411  34.669  35.764  1.00  0.00     0.124 S 
ATOM     94  O   UNL A   1      38.366  34.002  35.005  1.00  0.00    -0.237 OA
ATOM     95  O   UNL A   1      39.072  35.011  37.143  1.00  0.00    -0.237 OA
ATOM     96  O   UNL A   1      40.159  35.712  35.066  1.00  0.00    -0.744 OA
ENDBRANCH  92  93
ENDBRANCH  60  85
BRANCH  72  97
ATOM     97  C   UNL A   1      45.210  24.488  35.030  1.00  0.00     0.058 A 
ATOM     98  C   UNL A   1      44.284  23.439  34.933  1.00  0.00     0.135 A 
ATOM     99  C   UNL A   1      46.493  24.106  35.518  1.00  0.00     0.135 A 
ATOM    100  F   UNL A   1      43.075  23.612  34.385  1.00  0.00    -0.206 F 
ATOM    101  C   UNL A   1      44.575  22.138  35.349  1.00  0.00     0.059 A 
ATOM    102  C   UNL A   1      46.831  22.799  35.853  1.00  0.00     0.059 A 
ATOM    103  F   UNL A   1      47.491  24.986  35.675  1.00  0.00    -0.206 F 
ATOM    104  C   UNL A   1      45.853  21.826  35.800  1.00  0.00     0.060 A 
BRANCH 104 105
ATOM    105  S   UNL A   1      46.236  20.138  36.280  1.00  0.00     0.124 S 
ATOM    106  O   UNL A   1      45.824  20.138  37.681  1.00  0.00    -0.237 OA
ATOM    107  O   UNL A   1      45.401  19.355  35.375  1.00  0.00    -0.237 OA
ATOM    108  O   UNL A   1      47.672  20.034  36.043  1.00  0.00    -0.744 OA
ENDBRANCH 104 105
ENDBRANCH  72  97
ENDBRANCH  46  47
ENDBRANCH  38  41
ENDBRANCH  36  37
ENDBRANCH  35  36
ENDBRANCH   1  35
TORSDOF 19
ENDMDL
