MODEL 1
REMARK VINA RESULT:     -11.3      0.000      0.000
REMARK SMILES C[C@H]1OCC[C@H]1C(=O)Nc1ccsc1C(=O)NCCCCNC(=O)c1ccc(-c2c3nc(c(-c4c(F)cc(S(=O)(=O)[O-])cc4F)c4ccc([nH]4)c(-c4c(F)cc(S(=O)(=O)[O-])cc4F)c4nc(c(-c5c(F)cc(S(=O)(=O)[O-])cc5F)c5ccc2[nH]5)C=C4)C=C3)cc1
REMARK SMILES IDX 20 1 19 2 18 3 17 4 15 5 16 6 14 8 10 9 11 10 12 11 13 12
REMARK SMILES IDX 9 13 7 14 8 15 6 17 1 18 2 19 3 20 4 21 5 22 21 23 22 24
REMARK SMILES IDX 23 25 24 27 25 28 26 29 90 30 27 31 89 32 28 33 29 34 30 35
REMARK SMILES IDX 83 36 31 37 88 38 82 39 84 40 32 41 87 42 81 43 80 44 33 46
REMARK SMILES IDX 67 47 46 48 66 49 47 50 50 51 65 52 85 53 48 54 49 55 64 57
REMARK SMILES IDX 86 58 51 59 34 60 35 61 44 62 36 63 37 64 43 65 45 66 38 67
REMARK SMILES IDX 39 68 40 69 41 70 42 71 68 72 69 73 78 74 70 75 71 76 77 77
REMARK SMILES IDX 79 78 72 79 73 80 74 81 75 82 76 83 52 84 53 85 62 86 54 87
REMARK SMILES IDX 55 88 61 89 63 90 56 91 57 92 58 93 59 94 60 95
REMARK H PARENT 17 7 9 16 22 26 84 45 50 56
REMARK Flexibility Score: inf
ROOT
ATOM      1  C   UNL A   1      32.059  28.081  27.665  1.00  0.00     0.023 C 
ENDROOT
BRANCH   1   2
ATOM      2  C   UNL A   1      31.375  27.252  26.587  1.00  0.00     0.023 C 
BRANCH   2   3
ATOM      3  C   UNL A   1      31.852  25.814  26.459  1.00  0.00     0.116 C 
BRANCH   3   4
ATOM      4  N   UNL A   1      33.267  25.625  26.273  1.00  0.00    -0.351 N 
ATOM      5  C   UNL A   1      33.964  24.762  25.453  1.00  0.00     0.263 C 
ATOM      6  O   UNL A   1      35.192  24.885  25.524  1.00  0.00    -0.268 OA
ATOM      7  H   UNL A   1      33.834  26.212  26.824  1.00  0.00     0.163 HD
BRANCH   5   8
ATOM      8  C   UNL A   1      33.323  23.756  24.598  1.00  0.00     0.115 A 
ATOM      9  C   UNL A   1      32.989  23.662  23.249  1.00  0.00     0.065 A 
ATOM     10  C   UNL A   1      32.425  22.392  22.921  1.00  0.00     0.038 A 
ATOM     11  C   UNL A   1      32.271  21.570  24.009  1.00  0.00     0.068 A 
ATOM     12  S   UNL A   1      32.823  22.311  25.431  1.00  0.00    -0.137 S 
BRANCH   9  13
ATOM     13  N   UNL A   1      33.346  24.584  22.286  1.00  0.00    -0.324 N 
ATOM     14  C   UNL A   1      32.921  25.853  22.047  1.00  0.00     0.230 C 
ATOM     15  O   UNL A   1      33.400  26.395  21.040  1.00  0.00    -0.274 OA
ATOM     16  H   UNL A   1      34.034  24.264  21.659  1.00  0.00     0.169 HD
BRANCH  14  17
ATOM     17  C   UNL A   1      32.006  26.694  22.943  1.00  0.00     0.110 C 
ATOM     18  C   UNL A   1      34.080  28.095  23.575  1.00  0.00     0.039 C 
ATOM     19  C   UNL A   1      32.569  27.991  23.484  1.00  0.00     0.127 C 
ATOM     20  O   UNL A   1      32.016  29.036  22.674  1.00  0.00    -0.378 OA
ATOM     21  C   UNL A   1      30.728  28.602  22.216  1.00  0.00     0.161 C 
ATOM     22  C   UNL A   1      30.637  27.106  22.437  1.00  0.00     0.044 C 
ENDBRANCH  14  17
ENDBRANCH   9  13
ENDBRANCH   5   8
ENDBRANCH   3   4
ENDBRANCH   2   3
ENDBRANCH   1   2
BRANCH   1  23
ATOM     23  C   UNL A   1      33.336  28.797  27.239  1.00  0.00     0.116 C 
BRANCH  23  24
ATOM     24  N   UNL A   1      33.433  30.170  27.720  1.00  0.00    -0.352 N 
ATOM     25  C   UNL A   1      34.500  30.826  28.298  1.00  0.00     0.251 C 
ATOM     26  H   UNL A   1      32.615  30.708  27.619  1.00  0.00     0.163 HD
ATOM     27  O   UNL A   1      34.368  31.960  28.735  1.00  0.00    -0.269 OA
BRANCH  25  28
ATOM     28  C   UNL A   1      35.795  30.124  28.434  1.00  0.00     0.039 A 
ATOM     29  C   UNL A   1      36.684  30.129  27.357  1.00  0.00     0.014 A 
ATOM     30  C   UNL A   1      36.158  29.530  29.643  1.00  0.00     0.014 A 
ATOM     31  C   UNL A   1      37.985  29.650  27.536  1.00  0.00     0.010 A 
ATOM     32  C   UNL A   1      37.479  29.148  29.848  1.00  0.00     0.010 A 
ATOM     33  C   UNL A   1      38.413  29.221  28.802  1.00  0.00    -0.014 A 
BRANCH  33  34
ATOM     34  C   UNL A   1      39.832  28.873  29.080  1.00  0.00     0.031 A 
ATOM     35  C   UNL A   1      40.770  29.921  29.613  1.00  0.00     0.074 A 
ATOM     36  C   UNL A   1      40.303  27.653  28.745  1.00  0.00     0.049 A 
ATOM     37  N   UNL A   1      42.069  29.873  29.754  1.00  0.00    -0.248 NA
ATOM     38  C   UNL A   1      40.170  31.208  30.002  1.00  0.00     0.031 C 
ATOM     39  C   UNL A   1      39.511  26.563  28.170  1.00  0.00     0.029 A 
ATOM     40  N   UNL A   1      41.572  27.132  28.819  1.00  0.00    -0.354 N 
ATOM     41  C   UNL A   1      42.446  31.130  30.213  1.00  0.00     0.074 A 
ATOM     42  C   UNL A   1      41.243  31.931  30.285  1.00  0.00     0.031 C 
ATOM     43  C   UNL A   1      40.305  25.501  27.961  1.00  0.00     0.029 A 
ATOM     44  C   UNL A   1      41.671  25.845  28.342  1.00  0.00     0.049 A 
ATOM     45  H   UNL A   1      42.339  27.632  29.180  1.00  0.00     0.167 HD
ATOM     46  C   UNL A   1      43.678  31.570  30.561  1.00  0.00     0.037 A 
ATOM     47  C   UNL A   1      42.742  25.038  28.210  1.00  0.00     0.037 A 
ATOM     48  C   UNL A   1      44.862  30.754  30.536  1.00  0.00     0.049 A 
ATOM     49  C   UNL A   1      44.096  25.540  28.631  1.00  0.00     0.074 A 
ATOM     50  C   UNL A   1      46.145  31.089  30.935  1.00  0.00     0.029 A 
ATOM     51  N   UNL A   1      44.909  29.440  30.096  1.00  0.00    -0.354 N 
ATOM     52  N   UNL A   1      44.426  26.716  29.107  1.00  0.00    -0.248 NA
ATOM     53  C   UNL A   1      45.224  24.608  28.496  1.00  0.00     0.031 C 
ATOM     54  C   UNL A   1      46.974  29.984  30.710  1.00  0.00     0.029 A 
ATOM     55  C   UNL A   1      46.200  28.951  30.206  1.00  0.00     0.049 A 
ATOM     56  H   UNL A   1      44.138  28.931  29.756  1.00  0.00     0.167 HD
ATOM     57  C   UNL A   1      45.793  26.657  29.355  1.00  0.00     0.074 A 
ATOM     58  C   UNL A   1      46.228  25.327  28.980  1.00  0.00     0.031 C 
ATOM     59  C   UNL A   1      46.612  27.617  29.847  1.00  0.00     0.037 A 
BRANCH  46  60
ATOM     60  C   UNL A   1      43.801  32.999  31.011  1.00  0.00     0.058 A 
ATOM     61  C   UNL A   1      44.028  34.040  30.096  1.00  0.00     0.135 A 
ATOM     62  C   UNL A   1      43.673  33.334  32.368  1.00  0.00     0.135 A 
ATOM     63  F   UNL A   1      44.175  33.771  28.789  1.00  0.00    -0.206 F 
ATOM     64  C   UNL A   1      44.158  35.360  30.515  1.00  0.00     0.059 A 
ATOM     65  C   UNL A   1      43.773  34.652  32.806  1.00  0.00     0.059 A 
ATOM     66  F   UNL A   1      43.456  32.378  33.284  1.00  0.00    -0.206 F 
ATOM     67  C   UNL A   1      44.032  35.656  31.873  1.00  0.00     0.060 A 
BRANCH  67  68
ATOM     68  S   UNL A   1      44.207  37.372  32.403  1.00  0.00     0.124 S 
ATOM     69  O   UNL A   1      43.960  38.086  31.154  1.00  0.00    -0.237 OA
ATOM     70  O   UNL A   1      43.166  37.495  33.418  1.00  0.00    -0.237 OA
ATOM     71  O   UNL A   1      45.577  37.435  32.902  1.00  0.00    -0.744 OA
ENDBRANCH  67  68
ENDBRANCH  46  60
BRANCH  47  72
ATOM     72  C   UNL A   1      42.574  23.661  27.674  1.00  0.00     0.058 A 
ATOM     73  C   UNL A   1      42.641  23.416  26.294  1.00  0.00     0.135 A 
ATOM     74  C   UNL A   1      42.358  22.565  28.523  1.00  0.00     0.135 A 
ATOM     75  F   UNL A   1      42.840  24.433  25.442  1.00  0.00    -0.206 F 
ATOM     76  C   UNL A   1      42.487  22.136  25.772  1.00  0.00     0.059 A 
ATOM     77  C   UNL A   1      42.223  21.273  28.026  1.00  0.00     0.059 A 
ATOM     78  F   UNL A   1      42.303  22.745  29.852  1.00  0.00    -0.206 F 
ATOM     79  C   UNL A   1      42.279  21.069  26.648  1.00  0.00     0.060 A 
BRANCH  79  80
ATOM     80  S   UNL A   1      42.132  19.403  25.966  1.00  0.00     0.124 S 
ATOM     81  O   UNL A   1      42.967  19.499  24.773  1.00  0.00    -0.237 OA
ATOM     82  O   UNL A   1      42.658  18.578  27.050  1.00  0.00    -0.237 OA
ATOM     83  O   UNL A   1      40.698  19.267  25.725  1.00  0.00    -0.744 OA
ENDBRANCH  79  80
ENDBRANCH  47  72
BRANCH  59  84
ATOM     84  C   UNL A   1      48.055  27.261  30.054  1.00  0.00     0.058 A 
ATOM     85  C   UNL A   1      49.004  27.409  29.032  1.00  0.00     0.135 A 
ATOM     86  C   UNL A   1      48.507  26.842  31.316  1.00  0.00     0.135 A 
ATOM     87  F   UNL A   1      48.621  27.800  27.806  1.00  0.00    -0.206 F 
ATOM     88  C   UNL A   1      50.352  27.146  29.251  1.00  0.00     0.059 A 
ATOM     89  C   UNL A   1      49.853  26.595  31.564  1.00  0.00     0.059 A 
ATOM     90  F   UNL A   1      47.639  26.692  32.330  1.00  0.00    -0.206 F 
ATOM     91  C   UNL A   1      50.768  26.744  30.522  1.00  0.00     0.060 A 
BRANCH  91  92
ATOM     92  S   UNL A   1      52.528  26.465  30.811  1.00  0.00     0.124 S 
ATOM     93  O   UNL A   1      53.038  26.365  29.448  1.00  0.00    -0.237 OA
ATOM     94  O   UNL A   1      52.919  27.663  31.549  1.00  0.00    -0.237 OA
ATOM     95  O   UNL A   1      52.553  25.227  31.584  1.00  0.00    -0.744 OA
ENDBRANCH  91  92
ENDBRANCH  59  84
ENDBRANCH  33  34
ENDBRANCH  25  28
ENDBRANCH  23  24
ENDBRANCH   1  23
TORSDOF 16
ENDMDL
MODEL 2
REMARK VINA RESULT:     -11.2      4.938     10.435
REMARK SMILES C[C@H]1OCC[C@H]1C(=O)Nc1ccsc1C(=O)NCCCCNC(=O)c1ccc(-c2c3nc(c(-c4c(F)cc(S(=O)(=O)[O-])cc4F)c4ccc([nH]4)c(-c4c(F)cc(S(=O)(=O)[O-])cc4F)c4nc(c(-c5c(F)cc(S(=O)(=O)[O-])cc5F)c5ccc2[nH]5)C=C4)C=C3)cc1
REMARK SMILES IDX 20 1 19 2 18 3 17 4 15 5 16 6 14 8 10 9 11 10 12 11 13 12
REMARK SMILES IDX 9 13 7 14 8 15 6 17 1 18 2 19 3 20 4 21 5 22 21 23 22 24
REMARK SMILES IDX 23 25 24 27 25 28 26 29 90 30 27 31 89 32 28 33 29 34 30 35
REMARK SMILES IDX 83 36 31 37 88 38 82 39 84 40 32 41 87 42 81 43 80 44 33 46
REMARK SMILES IDX 67 47 46 48 66 49 47 50 50 51 65 52 85 53 48 54 49 55 64 57
REMARK SMILES IDX 86 58 51 59 34 60 35 61 44 62 36 63 37 64 43 65 45 66 38 67
REMARK SMILES IDX 39 68 40 69 41 70 42 71 68 72 69 73 78 74 70 75 71 76 77 77
REMARK SMILES IDX 79 78 72 79 73 80 74 81 75 82 76 83 52 84 53 85 62 86 54 87
REMARK SMILES IDX 55 88 61 89 63 90 56 91 57 92 58 93 59 94 60 95
REMARK H PARENT 17 7 9 16 22 26 84 45 50 56
REMARK Flexibility Score: inf
ROOT
ATOM      1  C   UNL A   1      37.639  22.819  25.606  1.00  0.00     0.023 C 
ENDROOT
BRANCH   1   2
ATOM      2  C   UNL A   1      36.513  23.399  24.761  1.00  0.00     0.023 C 
BRANCH   2   3
ATOM      3  C   UNL A   1      35.472  24.210  25.517  1.00  0.00     0.116 C 
BRANCH   3   4
ATOM      4  N   UNL A   1      34.721  23.504  26.523  1.00  0.00    -0.351 N 
ATOM      5  C   UNL A   1      33.388  23.154  26.577  1.00  0.00     0.263 C 
ATOM      6  O   UNL A   1      33.077  22.518  27.590  1.00  0.00    -0.268 OA
ATOM      7  H   UNL A   1      35.249  23.222  27.305  1.00  0.00     0.163 HD
BRANCH   5   8
ATOM      8  C   UNL A   1      32.406  23.529  25.552  1.00  0.00     0.115 A 
ATOM      9  C   UNL A   1      31.388  24.474  25.446  1.00  0.00     0.065 A 
ATOM     10  C   UNL A   1      30.768  24.454  24.159  1.00  0.00     0.038 A 
ATOM     11  C   UNL A   1      31.257  23.471  23.337  1.00  0.00     0.068 A 
ATOM     12  S   UNL A   1      32.481  22.577  24.096  1.00  0.00    -0.137 S 
BRANCH   9  13
ATOM     13  N   UNL A   1      31.136  25.463  26.374  1.00  0.00    -0.324 N 
ATOM     14  C   UNL A   1      31.733  26.664  26.601  1.00  0.00     0.230 C 
ATOM     15  O   UNL A   1      31.304  27.295  27.578  1.00  0.00    -0.274 OA
ATOM     16  H   UNL A   1      30.389  25.262  26.983  1.00  0.00     0.169 HD
BRANCH  14  17
ATOM     17  C   UNL A   1      32.789  27.340  25.720  1.00  0.00     0.110 C 
ATOM     18  C   UNL A   1      30.855  28.239  24.266  1.00  0.00     0.039 C 
ATOM     19  C   UNL A   1      32.299  28.358  24.712  1.00  0.00     0.127 C 
ATOM     20  O   UNL A   1      32.572  29.645  25.279  1.00  0.00    -0.378 OA
ATOM     21  C   UNL A   1      33.731  29.520  26.115  1.00  0.00     0.161 C 
ATOM     22  C   UNL A   1      33.963  28.045  26.369  1.00  0.00     0.044 C 
ENDBRANCH  14  17
ENDBRANCH   9  13
ENDBRANCH   5   8
ENDBRANCH   3   4
ENDBRANCH   2   3
ENDBRANCH   1   2
BRANCH   1  23
ATOM     23  C   UNL A   1      38.467  23.832  26.390  1.00  0.00     0.116 C 
BRANCH  23  24
ATOM     24  N   UNL A   1      39.906  23.666  26.234  1.00  0.00    -0.352 N 
ATOM     25  C   UNL A   1      40.939  24.457  26.695  1.00  0.00     0.251 C 
ATOM     26  H   UNL A   1      40.183  22.872  25.722  1.00  0.00     0.163 HD
ATOM     27  O   UNL A   1      42.095  24.213  26.381  1.00  0.00    -0.269 OA
BRANCH  25  28
ATOM     28  C   UNL A   1      40.629  25.638  27.531  1.00  0.00     0.039 A 
ATOM     29  C   UNL A   1      39.659  25.524  28.530  1.00  0.00     0.014 A 
ATOM     30  C   UNL A   1      41.345  26.824  27.377  1.00  0.00     0.014 A 
ATOM     31  C   UNL A   1      39.501  26.559  29.455  1.00  0.00     0.010 A 
ATOM     32  C   UNL A   1      41.256  27.809  28.356  1.00  0.00     0.010 A 
ATOM     33  C   UNL A   1      40.347  27.679  29.417  1.00  0.00    -0.014 A 
BRANCH  33  34
ATOM     34  C   UNL A   1      40.332  28.716  30.482  1.00  0.00     0.031 A 
ATOM     35  C   UNL A   1      41.235  28.575  31.677  1.00  0.00     0.074 A 
ATOM     36  C   UNL A   1      39.431  29.719  30.433  1.00  0.00     0.049 A 
ATOM     37  N   UNL A   1      41.251  29.266  32.788  1.00  0.00    -0.248 NA
ATOM     38  C   UNL A   1      42.225  27.487  31.633  1.00  0.00     0.031 C 
ATOM     39  C   UNL A   1      38.461  29.940  29.357  1.00  0.00     0.029 A 
ATOM     40  N   UNL A   1      39.165  30.730  31.325  1.00  0.00    -0.354 N 
ATOM     41  C   UNL A   1      42.224  28.675  33.586  1.00  0.00     0.074 A 
ATOM     42  C   UNL A   1      42.745  27.544  32.849  1.00  0.00     0.031 C 
ATOM     43  C   UNL A   1      37.722  31.025  29.641  1.00  0.00     0.029 A 
ATOM     44  C   UNL A   1      38.131  31.552  30.939  1.00  0.00     0.049 A 
ATOM     45  H   UNL A   1      39.668  30.855  32.162  1.00  0.00     0.167 HD
ATOM     46  C   UNL A   1      42.657  29.052  34.812  1.00  0.00     0.037 A 
ATOM     47  C   UNL A   1      37.562  32.600  31.567  1.00  0.00     0.037 A 
ATOM     48  C   UNL A   1      42.171  30.207  35.519  1.00  0.00     0.049 A 
ATOM     49  C   UNL A   1      38.080  33.018  32.917  1.00  0.00     0.074 A 
ATOM     50  C   UNL A   1      42.596  30.711  36.736  1.00  0.00     0.029 A 
ATOM     51  N   UNL A   1      41.160  31.042  35.069  1.00  0.00    -0.354 N 
ATOM     52  N   UNL A   1      39.033  32.476  33.635  1.00  0.00    -0.248 NA
ATOM     53  C   UNL A   1      37.447  34.188  33.541  1.00  0.00     0.031 C 
ATOM     54  C   UNL A   1      41.821  31.837  37.036  1.00  0.00     0.029 A 
ATOM     55  C   UNL A   1      40.940  32.054  35.988  1.00  0.00     0.049 A 
ATOM     56  H   UNL A   1      40.670  30.932  34.222  1.00  0.00     0.167 HD
ATOM     57  C   UNL A   1      39.133  33.254  34.784  1.00  0.00     0.074 A 
ATOM     58  C   UNL A   1      38.147  34.307  34.662  1.00  0.00     0.031 C 
ATOM     59  C   UNL A   1      39.967  33.107  35.841  1.00  0.00     0.037 A 
BRANCH  46  60
ATOM     60  C   UNL A   1      43.720  28.210  35.461  1.00  0.00     0.058 A 
ATOM     61  C   UNL A   1      45.084  28.428  35.210  1.00  0.00     0.135 A 
ATOM     62  C   UNL A   1      43.373  27.187  36.357  1.00  0.00     0.135 A 
ATOM     63  F   UNL A   1      45.469  29.383  34.347  1.00  0.00    -0.206 F 
ATOM     64  C   UNL A   1      46.066  27.639  35.798  1.00  0.00     0.059 A 
ATOM     65  C   UNL A   1      44.341  26.403  36.979  1.00  0.00     0.059 A 
ATOM     66  F   UNL A   1      42.084  26.937  36.632  1.00  0.00    -0.206 F 
ATOM     67  C   UNL A   1      45.685  26.626  36.679  1.00  0.00     0.060 A 
BRANCH  67  68
ATOM     68  S   UNL A   1      46.970  25.607  37.432  1.00  0.00     0.124 S 
ATOM     69  O   UNL A   1      46.172  24.678  38.228  1.00  0.00    -0.237 OA
ATOM     70  O   UNL A   1      47.636  25.031  36.268  1.00  0.00    -0.237 OA
ATOM     71  O   UNL A   1      47.762  26.567  38.194  1.00  0.00    -0.744 OA
ENDBRANCH  67  68
ENDBRANCH  46  60
BRANCH  47  72
ATOM     72  C   UNL A   1      36.451  33.343  30.916  1.00  0.00     0.058 A 
ATOM     73  C   UNL A   1      35.137  33.233  31.397  1.00  0.00     0.135 A 
ATOM     74  C   UNL A   1      36.677  34.184  29.816  1.00  0.00     0.135 A 
ATOM     75  F   UNL A   1      34.871  32.437  32.442  1.00  0.00    -0.206 F 
ATOM     76  C   UNL A   1      34.084  33.920  30.802  1.00  0.00     0.059 A 
ATOM     77  C   UNL A   1      35.643  34.898  29.218  1.00  0.00     0.059 A 
ATOM     78  F   UNL A   1      37.919  34.336  29.329  1.00  0.00    -0.206 F 
ATOM     79  C   UNL A   1      34.347  34.752  29.712  1.00  0.00     0.060 A 
BRANCH  79  80
ATOM     80  S   UNL A   1      32.982  35.680  28.979  1.00  0.00     0.124 S 
ATOM     81  O   UNL A   1      33.692  36.747  28.284  1.00  0.00    -0.237 OA
ATOM     82  O   UNL A   1      32.347  34.675  28.131  1.00  0.00    -0.237 OA
ATOM     83  O   UNL A   1      32.198  36.092  30.140  1.00  0.00    -0.744 OA
ENDBRANCH  79  80
ENDBRANCH  47  72
BRANCH  59  84
ATOM     84  C   UNL A   1      39.885  34.130  36.937  1.00  0.00     0.058 A 
ATOM     85  C   UNL A   1      40.476  35.395  36.810  1.00  0.00     0.135 A 
ATOM     86  C   UNL A   1      39.137  33.866  38.096  1.00  0.00     0.135 A 
ATOM     87  F   UNL A   1      41.208  35.693  35.724  1.00  0.00    -0.206 F 
ATOM     88  C   UNL A   1      40.336  36.364  37.798  1.00  0.00     0.059 A 
ATOM     89  C   UNL A   1      38.965  34.828  39.087  1.00  0.00     0.059 A 
ATOM     90  F   UNL A   1      38.545  32.673  38.263  1.00  0.00    -0.206 F 
ATOM     91  C   UNL A   1      39.574  36.072  38.931  1.00  0.00     0.060 A 
BRANCH  91  92
ATOM     92  S   UNL A   1      39.347  37.358  40.179  1.00  0.00     0.124 S 
ATOM     93  O   UNL A   1      38.646  36.627  41.230  1.00  0.00    -0.237 OA
ATOM     94  O   UNL A   1      40.722  37.744  40.484  1.00  0.00    -0.237 OA
ATOM     95  O   UNL A   1      38.559  38.370  39.484  1.00  0.00    -0.744 OA
ENDBRANCH  91  92
ENDBRANCH  59  84
ENDBRANCH  33  34
ENDBRANCH  25  28
ENDBRANCH  23  24
ENDBRANCH   1  23
TORSDOF 16
ENDMDL
MODEL 3
REMARK VINA RESULT:     -11.1      1.477      2.753
REMARK SMILES C[C@H]1OCC[C@H]1C(=O)Nc1ccsc1C(=O)NCCCCNC(=O)c1ccc(-c2c3nc(c(-c4c(F)cc(S(=O)(=O)[O-])cc4F)c4ccc([nH]4)c(-c4c(F)cc(S(=O)(=O)[O-])cc4F)c4nc(c(-c5c(F)cc(S(=O)(=O)[O-])cc5F)c5ccc2[nH]5)C=C4)C=C3)cc1
REMARK SMILES IDX 20 1 19 2 18 3 17 4 15 5 16 6 14 8 10 9 11 10 12 11 13 12
REMARK SMILES IDX 9 13 7 14 8 15 6 17 1 18 2 19 3 20 4 21 5 22 21 23 22 24
REMARK SMILES IDX 23 25 24 27 25 28 26 29 90 30 27 31 89 32 28 33 29 34 30 35
REMARK SMILES IDX 83 36 31 37 88 38 82 39 84 40 32 41 87 42 81 43 80 44 33 46
REMARK SMILES IDX 67 47 46 48 66 49 47 50 50 51 65 52 85 53 48 54 49 55 64 57
REMARK SMILES IDX 86 58 51 59 34 60 35 61 44 62 36 63 37 64 43 65 45 66 38 67
REMARK SMILES IDX 39 68 40 69 41 70 42 71 68 72 69 73 78 74 70 75 71 76 77 77
REMARK SMILES IDX 79 78 72 79 73 80 74 81 75 82 76 83 52 84 53 85 62 86 54 87
REMARK SMILES IDX 55 88 61 89 63 90 56 91 57 92 58 93 59 94 60 95
REMARK H PARENT 17 7 9 16 22 26 84 45 50 56
REMARK Flexibility Score: inf
ROOT
ATOM      1  C   UNL A   1      32.248  28.762  26.317  1.00  0.00     0.023 C 
ENDROOT
BRANCH   1   2
ATOM      2  C   UNL A   1      31.398  27.540  26.638  1.00  0.00     0.023 C 
BRANCH   2   3
ATOM      3  C   UNL A   1      32.118  26.202  26.577  1.00  0.00     0.116 C 
BRANCH   3   4
ATOM      4  N   UNL A   1      31.283  25.030  26.530  1.00  0.00    -0.351 N 
ATOM      5  C   UNL A   1      31.110  24.082  25.543  1.00  0.00     0.263 C 
ATOM      6  O   UNL A   1      30.323  23.178  25.849  1.00  0.00    -0.268 OA
ATOM      7  H   UNL A   1      30.745  24.879  27.341  1.00  0.00     0.163 HD
BRANCH   5   8
ATOM      8  C   UNL A   1      31.762  24.146  24.230  1.00  0.00     0.115 A 
ATOM      9  C   UNL A   1      32.701  23.378  23.545  1.00  0.00     0.065 A 
ATOM     10  C   UNL A   1      32.937  23.867  22.225  1.00  0.00     0.038 A 
ATOM     11  C   UNL A   1      32.245  25.018  21.942  1.00  0.00     0.068 A 
ATOM     12  S   UNL A   1      31.290  25.509  23.254  1.00  0.00    -0.137 S 
BRANCH   9  13
ATOM     13  N   UNL A   1      33.195  22.167  23.985  1.00  0.00    -0.324 N 
ATOM     14  C   UNL A   1      34.459  21.756  24.274  1.00  0.00     0.230 C 
ATOM     15  O   UNL A   1      34.573  20.561  24.582  1.00  0.00    -0.274 OA
ATOM     16  H   UNL A   1      32.507  21.474  24.112  1.00  0.00     0.169 HD
BRANCH  14  17
ATOM     17  C   UNL A   1      35.710  22.638  24.355  1.00  0.00     0.110 C 
ATOM     18  C   UNL A   1      34.905  23.392  26.689  1.00  0.00     0.039 C 
ATOM     19  C   UNL A   1      36.048  23.237  25.703  1.00  0.00     0.127 C 
ATOM     20  O   UNL A   1      37.105  22.434  26.243  1.00  0.00    -0.378 OA
ATOM     21  C   UNL A   1      37.865  21.913  25.145  1.00  0.00     0.161 C 
ATOM     22  C   UNL A   1      37.042  22.088  23.885  1.00  0.00     0.044 C 
ENDBRANCH  14  17
ENDBRANCH   9  13
ENDBRANCH   5   8
ENDBRANCH   3   4
ENDBRANCH   2   3
ENDBRANCH   1   2
BRANCH   1  23
ATOM     23  C   UNL A   1      33.467  28.972  27.209  1.00  0.00     0.116 C 
BRANCH  23  24
ATOM     24  N   UNL A   1      33.538  30.298  27.810  1.00  0.00    -0.352 N 
ATOM     25  C   UNL A   1      34.583  30.911  28.470  1.00  0.00     0.251 C 
ATOM     26  H   UNL A   1      32.718  30.837  27.732  1.00  0.00     0.163 HD
ATOM     27  O   UNL A   1      34.429  32.002  28.999  1.00  0.00    -0.269 OA
BRANCH  25  28
ATOM     28  C   UNL A   1      35.881  30.209  28.581  1.00  0.00     0.039 A 
ATOM     29  C   UNL A   1      36.724  30.165  27.468  1.00  0.00     0.014 A 
ATOM     30  C   UNL A   1      36.293  29.664  29.797  1.00  0.00     0.014 A 
ATOM     31  C   UNL A   1      38.030  29.689  27.612  1.00  0.00     0.010 A 
ATOM     32  C   UNL A   1      37.621  29.284  29.961  1.00  0.00     0.010 A 
ATOM     33  C   UNL A   1      38.510  29.311  28.875  1.00  0.00    -0.014 A 
BRANCH  33  34
ATOM     34  C   UNL A   1      39.938  28.967  29.107  1.00  0.00     0.031 A 
ATOM     35  C   UNL A   1      40.890  30.021  29.604  1.00  0.00     0.074 A 
ATOM     36  C   UNL A   1      40.402  27.748  28.762  1.00  0.00     0.049 A 
ATOM     37  N   UNL A   1      42.194  29.977  29.702  1.00  0.00    -0.248 NA
ATOM     38  C   UNL A   1      40.300  31.307  30.008  1.00  0.00     0.031 C 
ATOM     39  C   UNL A   1      39.594  26.653  28.218  1.00  0.00     0.029 A 
ATOM     40  N   UNL A   1      41.674  27.231  28.796  1.00  0.00    -0.354 N 
ATOM     41  C   UNL A   1      42.581  31.237  30.143  1.00  0.00     0.074 A 
ATOM     42  C   UNL A   1      41.379  32.035  30.251  1.00  0.00     0.031 C 
ATOM     43  C   UNL A   1      40.384  25.592  27.987  1.00  0.00     0.029 A 
ATOM     44  C   UNL A   1      41.761  25.941  28.322  1.00  0.00     0.049 A 
ATOM     45  H   UNL A   1      42.451  27.734  29.129  1.00  0.00     0.167 HD
ATOM     46  C   UNL A   1      43.823  31.682  30.448  1.00  0.00     0.037 A 
ATOM     47  C   UNL A   1      42.829  25.137  28.157  1.00  0.00     0.037 A 
ATOM     48  C   UNL A   1      45.008  30.870  30.387  1.00  0.00     0.049 A 
ATOM     49  C   UNL A   1      44.196  25.645  28.531  1.00  0.00     0.074 A 
ATOM     50  C   UNL A   1      46.303  31.210  30.742  1.00  0.00     0.029 A 
ATOM     51  N   UNL A   1      45.045  29.554  29.952  1.00  0.00    -0.354 N 
ATOM     52  N   UNL A   1      44.537  26.824  28.991  1.00  0.00    -0.248 NA
ATOM     53  C   UNL A   1      45.321  24.715  28.363  1.00  0.00     0.031 C 
ATOM     54  C   UNL A   1      47.127  30.107  30.494  1.00  0.00     0.029 A 
ATOM     55  C   UNL A   1      46.340  29.069  30.020  1.00  0.00     0.049 A 
ATOM     56  H   UNL A   1      44.265  29.041  29.639  1.00  0.00     0.167 HD
ATOM     57  C   UNL A   1      45.912  26.770  29.193  1.00  0.00     0.074 A 
ATOM     58  C   UNL A   1      46.339  25.440  28.810  1.00  0.00     0.031 C 
ATOM     59  C   UNL A   1      46.744  27.735  29.654  1.00  0.00     0.037 A 
BRANCH  46  60
ATOM     60  C   UNL A   1      43.957  33.114  30.887  1.00  0.00     0.058 A 
ATOM     61  C   UNL A   1      43.924  33.471  32.245  1.00  0.00     0.135 A 
ATOM     62  C   UNL A   1      44.140  34.136  29.944  1.00  0.00     0.135 A 
ATOM     63  F   UNL A   1      43.735  32.533  33.187  1.00  0.00    -0.206 F 
ATOM     64  C   UNL A   1      44.033  34.797  32.649  1.00  0.00     0.059 A 
ATOM     65  C   UNL A   1      44.278  35.467  30.328  1.00  0.00     0.059 A 
ATOM     66  F   UNL A   1      44.179  33.849  28.633  1.00  0.00    -0.206 F 
ATOM     67  C   UNL A   1      44.207  35.789  31.683  1.00  0.00     0.060 A 
BRANCH  67  68
ATOM     68  S   UNL A   1      44.342  37.506  32.222  1.00  0.00     0.124 S 
ATOM     69  O   UNL A   1      43.379  37.542  33.318  1.00  0.00    -0.237 OA
ATOM     70  O   UNL A   1      45.745  37.603  32.611  1.00  0.00    -0.237 OA
ATOM     71  O   UNL A   1      43.969  38.266  31.033  1.00  0.00    -0.744 OA
ENDBRANCH  67  68
ENDBRANCH  46  60
BRANCH  47  72
ATOM     72  C   UNL A   1      42.648  23.757  27.633  1.00  0.00     0.058 A 
ATOM     73  C   UNL A   1      42.545  22.666  28.509  1.00  0.00     0.135 A 
ATOM     74  C   UNL A   1      42.561  23.502  26.256  1.00  0.00     0.135 A 
ATOM     75  F   UNL A   1      42.629  22.859  29.833  1.00  0.00    -0.206 F 
ATOM     76  C   UNL A   1      42.376  21.368  28.039  1.00  0.00     0.059 A 
ATOM     77  C   UNL A   1      42.370  22.215  25.763  1.00  0.00     0.059 A 
ATOM     78  F   UNL A   1      42.638  24.515  25.378  1.00  0.00    -0.206 F 
ATOM     79  C   UNL A   1      42.288  21.152  26.662  1.00  0.00     0.060 A 
BRANCH  79  80
ATOM     80  S   UNL A   1      42.016  19.471  26.063  1.00  0.00     0.124 S 
ATOM     81  O   UNL A   1      42.918  19.416  24.919  1.00  0.00    -0.237 OA
ATOM     82  O   UNL A   1      42.400  18.666  27.219  1.00  0.00    -0.237 OA
ATOM     83  O   UNL A   1      40.590  19.456  25.746  1.00  0.00    -0.744 OA
ENDBRANCH  79  80
ENDBRANCH  47  72
BRANCH  59  84
ATOM     84  C   UNL A   1      48.194  27.384  29.814  1.00  0.00     0.058 A 
ATOM     85  C   UNL A   1      49.131  27.646  28.805  1.00  0.00     0.135 A 
ATOM     86  C   UNL A   1      48.664  26.851  31.026  1.00  0.00     0.135 A 
ATOM     87  F   UNL A   1      48.731  28.148  27.625  1.00  0.00    -0.206 F 
ATOM     88  C   UNL A   1      50.485  27.385  28.987  1.00  0.00     0.059 A 
ATOM     89  C   UNL A   1      50.016  26.603  31.238  1.00  0.00     0.059 A 
ATOM     90  F   UNL A   1      47.808  26.590  32.027  1.00  0.00    -0.206 F 
ATOM     91  C   UNL A   1      50.919  26.868  30.210  1.00  0.00     0.060 A 
BRANCH  91  92
ATOM     92  S   UNL A   1      52.686  26.591  30.457  1.00  0.00     0.124 S 
ATOM     93  O   UNL A   1      53.125  26.266  29.104  1.00  0.00    -0.237 OA
ATOM     94  O   UNL A   1      53.136  27.879  30.978  1.00  0.00    -0.237 OA
ATOM     95  O   UNL A   1      52.725  25.488  31.412  1.00  0.00    -0.744 OA
ENDBRANCH  91  92
ENDBRANCH  59  84
ENDBRANCH  33  34
ENDBRANCH  25  28
ENDBRANCH  23  24
ENDBRANCH   1  23
TORSDOF 16
ENDMDL
