MODEL 1
REMARK VINA RESULT:     -11.6      0.000      0.000
REMARK SMILES Cc1ccc(CNC(=O)NC[C@@H]2CC[C@@H](C(=O)NCCCCNC(=O)c3ccc(-c4c5nc(c(-c6c(F)cc(S(=O)(=O)[O-])cc6F)c6ccc([nH]6)c(-c6c(F)cc(S(=O)(=O)[O-])cc6F)c6nc(c(-c7c(F)cc(S(=O)(=O)[O-])cc7F)c7ccc4[nH]7)C=C6)C=C5)cc3)O2)cn1
REMARK SMILES IDX 20 1 19 2 18 3 16 4 17 5 15 7 12 8 13 9 92 10 14 11 11 12
REMARK SMILES IDX 10 13 7 14 8 15 9 17 6 19 5 20 1 21 2 22 3 23 94 24 4 25
REMARK SMILES IDX 93 26 21 27 22 28 23 29 24 30 25 32 26 33 27 34 91 35 28 36
REMARK SMILES IDX 90 37 29 38 30 39 31 40 84 41 32 42 89 43 83 44 85 45 33 46
REMARK SMILES IDX 88 47 82 48 81 49 34 51 68 52 47 53 67 54 48 55 51 56 66 57
REMARK SMILES IDX 86 58 49 59 50 60 65 62 87 63 52 64 35 65 36 66 45 67 37 68
REMARK SMILES IDX 38 69 44 70 46 71 39 72 40 73 41 74 42 75 43 76 69 77 70 78
REMARK SMILES IDX 79 79 71 80 72 81 78 82 80 83 73 84 74 85 75 86 76 87 77 88
REMARK SMILES IDX 53 89 54 90 63 91 55 92 56 93 62 94 64 95 57 96 58 97 59 98
REMARK SMILES IDX 60 99 61 100
REMARK H PARENT 18 6 7 16 10 18 23 31 85 50 51 61
REMARK Flexibility Score: inf
ROOT
ATOM      1  C   UNL A   1      35.455  21.656  25.836  1.00  0.00     0.023 C 
ENDROOT
BRANCH   1   2
ATOM      2  C   UNL A   1      35.217  20.592  24.769  1.00  0.00     0.116 C 
BRANCH   2   3
ATOM      3  N   UNL A   1      34.531  19.427  25.290  1.00  0.00    -0.354 N 
ATOM      4  C   UNL A   1      33.217  19.072  25.234  1.00  0.00     0.249 C 
ATOM      5  O   UNL A   1      32.892  17.998  25.752  1.00  0.00    -0.272 OA
ATOM      6  H   UNL A   1      35.110  18.787  25.763  1.00  0.00     0.163 HD
BRANCH   4   7
ATOM      7  C   UNL A   1      32.161  19.916  24.488  1.00  0.00     0.207 C 
ATOM      8  C   UNL A   1      32.108  22.163  23.866  1.00  0.00     0.138 C 
ATOM      9  C   UNL A   1      31.877  21.349  22.611  1.00  0.00     0.037 C 
ATOM     10  O   UNL A   1      31.885  21.239  24.951  1.00  0.00    -0.363 OA
ATOM     11  C   UNL A   1      32.514  20.035  23.008  1.00  0.00     0.045 C 
BRANCH   8  12
ATOM     12  C   UNL A   1      31.231  23.402  24.057  1.00  0.00     0.149 C 
BRANCH  12  13
ATOM     13  N   UNL A   1      30.490  23.336  25.311  1.00  0.00    -0.336 N 
ATOM     14  N   UNL A   1      31.290  25.054  26.716  1.00  0.00    -0.334 N 
ATOM     15  C   UNL A   1      30.465  24.042  26.443  1.00  0.00     0.315 C 
ATOM     16  H   UNL A   1      31.044  25.537  27.538  1.00  0.00     0.165 HD
ATOM     17  O   UNL A   1      29.618  23.749  27.288  1.00  0.00    -0.249 OA
ATOM     18  H   UNL A   1      29.851  22.588  25.326  1.00  0.00     0.165 HD
BRANCH  14  19
ATOM     19  C   UNL A   1      32.460  25.598  26.073  1.00  0.00     0.155 C 
BRANCH  19  20
ATOM     20  C   UNL A   1      32.732  27.033  26.426  1.00  0.00    -0.010 A 
ATOM     21  C   UNL A   1      33.602  31.076  27.459  1.00  0.00     0.066 C 
ATOM     22  C   UNL A   1      33.269  29.655  27.122  1.00  0.00     0.037 A 
ATOM     23  C   UNL A   1      32.008  29.133  27.381  1.00  0.00     0.024 A 
ATOM     24  N   UNL A   1      34.254  28.921  26.559  1.00  0.00    -0.261 NA
ATOM     25  C   UNL A   1      31.743  27.809  27.036  1.00  0.00     0.009 A 
ATOM     26  C   UNL A   1      33.967  27.639  26.226  1.00  0.00     0.116 A 
ENDBRANCH  19  20
ENDBRANCH  14  19
ENDBRANCH  12  13
ENDBRANCH   8  12
ENDBRANCH   4   7
ENDBRANCH   2   3
ENDBRANCH   1   2
BRANCH   1  27
ATOM     27  C   UNL A   1      35.502  23.088  25.295  1.00  0.00     0.023 C 
BRANCH  27  28
ATOM     28  C   UNL A   1      36.899  23.686  25.144  1.00  0.00     0.116 C 
BRANCH  28  29
ATOM     29  N   UNL A   1      37.971  22.732  25.385  1.00  0.00    -0.352 N 
ATOM     30  C   UNL A   1      39.145  22.920  26.080  1.00  0.00     0.251 C 
ATOM     31  H   UNL A   1      37.841  21.835  25.001  1.00  0.00     0.163 HD
ATOM     32  O   UNL A   1      39.994  22.041  26.111  1.00  0.00    -0.269 OA
BRANCH  30  33
ATOM     33  C   UNL A   1      39.383  24.217  26.751  1.00  0.00     0.039 A 
ATOM     34  C   UNL A   1      38.866  24.415  28.033  1.00  0.00     0.014 A 
ATOM     35  C   UNL A   1      40.152  25.208  26.137  1.00  0.00     0.014 A 
ATOM     36  C   UNL A   1      39.187  25.580  28.732  1.00  0.00     0.010 A 
ATOM     37  C   UNL A   1      40.526  26.337  26.860  1.00  0.00     0.010 A 
ATOM     38  C   UNL A   1      40.051  26.531  28.167  1.00  0.00    -0.014 A 
BRANCH  38  39
ATOM     39  C   UNL A   1      40.492  27.725  28.931  1.00  0.00     0.031 A 
ATOM     40  C   UNL A   1      41.808  27.716  29.657  1.00  0.00     0.074 A 
ATOM     41  C   UNL A   1      39.663  28.781  29.049  1.00  0.00     0.049 A 
ATOM     42  N   UNL A   1      42.326  28.627  30.439  1.00  0.00    -0.248 NA
ATOM     43  C   UNL A   1      42.633  26.507  29.512  1.00  0.00     0.031 C 
ATOM     44  C   UNL A   1      38.327  28.877  28.455  1.00  0.00     0.029 A 
ATOM     45  N   UNL A   1      39.810  29.964  29.730  1.00  0.00    -0.354 N 
ATOM     46  C   UNL A   1      43.523  28.093  30.901  1.00  0.00     0.074 A 
ATOM     47  C   UNL A   1      43.631  26.761  30.346  1.00  0.00     0.031 C 
ATOM     48  C   UNL A   1      37.781  30.056  28.792  1.00  0.00     0.029 A 
ATOM     49  C   UNL A   1      38.712  30.786  29.648  1.00  0.00     0.049 A 
ATOM     50  H   UNL A   1      40.625  30.201  30.228  1.00  0.00     0.167 HD
ATOM     51  C   UNL A   1      44.456  28.668  31.697  1.00  0.00     0.037 A 
ATOM     52  C   UNL A   1      38.475  31.989  30.207  1.00  0.00     0.037 A 
ATOM     53  C   UNL A   1      44.354  30.006  32.219  1.00  0.00     0.049 A 
ATOM     54  C   UNL A   1      39.542  32.631  31.047  1.00  0.00     0.074 A 
ATOM     55  C   UNL A   1      45.286  30.714  32.958  1.00  0.00     0.029 A 
ATOM     56  N   UNL A   1      43.253  30.835  32.065  1.00  0.00    -0.354 N 
ATOM     57  N   UNL A   1      40.713  32.153  31.396  1.00  0.00    -0.248 NA
ATOM     58  C   UNL A   1      39.265  33.980  31.559  1.00  0.00     0.031 C 
ATOM     59  C   UNL A   1      44.731  31.959  33.283  1.00  0.00     0.029 A 
ATOM     60  C   UNL A   1      43.470  32.040  32.713  1.00  0.00     0.049 A 
ATOM     61  H   UNL A   1      42.435  30.602  31.569  1.00  0.00     0.167 HD
ATOM     62  C   UNL A   1      41.319  33.146  32.156  1.00  0.00     0.074 A 
ATOM     63  C   UNL A   1      40.390  34.258  32.204  1.00  0.00     0.031 C 
ATOM     64  C   UNL A   1      42.534  33.137  32.757  1.00  0.00     0.037 A 
BRANCH  51  65
ATOM     65  C   UNL A   1      45.660  27.841  32.052  1.00  0.00     0.058 A 
ATOM     66  C   UNL A   1      45.700  27.054  33.215  1.00  0.00     0.135 A 
ATOM     67  C   UNL A   1      46.795  27.844  31.225  1.00  0.00     0.135 A 
ATOM     68  F   UNL A   1      44.646  27.023  34.047  1.00  0.00    -0.206 F 
ATOM     69  C   UNL A   1      46.840  26.342  33.572  1.00  0.00     0.059 A 
ATOM     70  C   UNL A   1      47.937  27.116  31.549  1.00  0.00     0.059 A 
ATOM     71  F   UNL A   1      46.811  28.575  30.099  1.00  0.00    -0.206 F 
ATOM     72  C   UNL A   1      47.957  26.388  32.738  1.00  0.00     0.060 A 
BRANCH  72  73
ATOM     73  S   UNL A   1      49.445  25.493  33.234  1.00  0.00     0.124 S 
ATOM     74  O   UNL A   1      50.049  25.195  31.940  1.00  0.00    -0.237 OA
ATOM     75  O   UNL A   1      50.148  26.478  34.049  1.00  0.00    -0.237 OA
ATOM     76  O   UNL A   1      48.920  24.342  33.963  1.00  0.00    -0.744 OA
ENDBRANCH  72  73
ENDBRANCH  51  65
BRANCH  52  77
ATOM     77  C   UNL A   1      37.174  32.662  29.958  1.00  0.00     0.058 A 
ATOM     78  C   UNL A   1      36.056  32.393  30.759  1.00  0.00     0.135 A 
ATOM     79  C   UNL A   1      37.044  33.638  28.956  1.00  0.00     0.135 A 
ATOM     80  F   UNL A   1      36.132  31.464  31.724  1.00  0.00    -0.206 F 
ATOM     81  C   UNL A   1      34.854  33.070  30.582  1.00  0.00     0.059 A 
ATOM     82  C   UNL A   1      35.858  34.342  28.773  1.00  0.00     0.059 A 
ATOM     83  F   UNL A   1      38.092  33.942  28.175  1.00  0.00    -0.206 F 
ATOM     84  C   UNL A   1      34.768  34.050  29.592  1.00  0.00     0.060 A 
BRANCH  84  85
ATOM     85  S   UNL A   1      33.234  34.992  29.435  1.00  0.00     0.124 S 
ATOM     86  O   UNL A   1      32.697  34.907  30.789  1.00  0.00    -0.237 OA
ATOM     87  O   UNL A   1      33.719  36.304  29.021  1.00  0.00    -0.237 OA
ATOM     88  O   UNL A   1      32.493  34.257  28.414  1.00  0.00    -0.744 OA
ENDBRANCH  84  85
ENDBRANCH  52  77
BRANCH  64  89
ATOM     89  C   UNL A   1      42.942  34.372  33.511  1.00  0.00     0.058 A 
ATOM     90  C   UNL A   1      42.771  34.476  34.899  1.00  0.00     0.135 A 
ATOM     91  C   UNL A   1      43.561  35.442  32.843  1.00  0.00     0.135 A 
ATOM     92  F   UNL A   1      42.178  33.484  35.583  1.00  0.00    -0.206 F 
ATOM     93  C   UNL A   1      43.184  35.604  35.600  1.00  0.00     0.059 A 
ATOM     94  C   UNL A   1      44.004  36.569  33.527  1.00  0.00     0.059 A 
ATOM     95  F   UNL A   1      43.756  35.387  31.516  1.00  0.00    -0.206 F 
ATOM     96  C   UNL A   1      43.802  36.646  34.904  1.00  0.00     0.060 A 
BRANCH  96  97
ATOM     97  S   UNL A   1      44.370  38.089  35.829  1.00  0.00     0.124 S 
ATOM     98  O   UNL A   1      43.957  39.180  34.953  1.00  0.00    -0.237 OA
ATOM     99  O   UNL A   1      43.634  37.969  37.083  1.00  0.00    -0.237 OA
ATOM    100  O   UNL A   1      45.812  37.879  35.933  1.00  0.00    -0.744 OA
ENDBRANCH  96  97
ENDBRANCH  64  89
ENDBRANCH  38  39
ENDBRANCH  30  33
ENDBRANCH  28  29
ENDBRANCH  27  28
ENDBRANCH   1  27
TORSDOF 18
ENDMDL
MODEL 2
REMARK VINA RESULT:     -11.5      2.949      9.385
REMARK SMILES Cc1ccc(CNC(=O)NC[C@@H]2CC[C@@H](C(=O)NCCCCNC(=O)c3ccc(-c4c5nc(c(-c6c(F)cc(S(=O)(=O)[O-])cc6F)c6ccc([nH]6)c(-c6c(F)cc(S(=O)(=O)[O-])cc6F)c6nc(c(-c7c(F)cc(S(=O)(=O)[O-])cc7F)c7ccc4[nH]7)C=C6)C=C5)cc3)O2)cn1
REMARK SMILES IDX 20 1 19 2 18 3 16 4 17 5 15 7 12 8 13 9 92 10 14 11 11 12
REMARK SMILES IDX 10 13 7 14 8 15 9 17 6 19 5 20 1 21 2 22 3 23 94 24 4 25
REMARK SMILES IDX 93 26 21 27 22 28 23 29 24 30 25 32 26 33 27 34 91 35 28 36
REMARK SMILES IDX 90 37 29 38 30 39 31 40 84 41 32 42 89 43 83 44 85 45 33 46
REMARK SMILES IDX 88 47 82 48 81 49 34 51 68 52 47 53 67 54 48 55 51 56 66 57
REMARK SMILES IDX 86 58 49 59 50 60 65 62 87 63 52 64 35 65 36 66 45 67 37 68
REMARK SMILES IDX 38 69 44 70 46 71 39 72 40 73 41 74 42 75 43 76 69 77 70 78
REMARK SMILES IDX 79 79 71 80 72 81 78 82 80 83 73 84 74 85 75 86 76 87 77 88
REMARK SMILES IDX 53 89 54 90 63 91 55 92 56 93 62 94 64 95 57 96 58 97 59 98
REMARK SMILES IDX 60 99 61 100
REMARK H PARENT 18 6 7 16 10 18 23 31 85 50 51 61
REMARK Flexibility Score: inf
ROOT
ATOM      1  C   UNL A   1      33.397  29.106  24.526  1.00  0.00     0.023 C 
ENDROOT
BRANCH   1   2
ATOM      2  C   UNL A   1      33.220  28.462  23.154  1.00  0.00     0.116 C 
BRANCH   2   3
ATOM      3  N   UNL A   1      32.149  29.071  22.390  1.00  0.00    -0.354 N 
ATOM      4  C   UNL A   1      30.818  28.782  22.342  1.00  0.00     0.249 C 
ATOM      5  O   UNL A   1      30.108  29.479  21.608  1.00  0.00    -0.272 OA
ATOM      6  H   UNL A   1      32.430  29.815  21.811  1.00  0.00     0.163 HD
BRANCH   4   7
ATOM      7  C   UNL A   1      30.175  27.686  23.218  1.00  0.00     0.207 C 
ATOM      8  C   UNL A   1      31.065  25.815  24.288  1.00  0.00     0.138 C 
ATOM      9  C   UNL A   1      30.347  26.630  25.342  1.00  0.00     0.037 C 
ATOM     10  O   UNL A   1      30.580  26.329  23.030  1.00  0.00    -0.363 OA
ATOM     11  C   UNL A   1      30.367  28.000  24.700  1.00  0.00     0.045 C 
BRANCH   8  12
ATOM     12  C   UNL A   1      30.868  24.298  24.334  1.00  0.00     0.149 C 
BRANCH  12  13
ATOM     13  N   UNL A   1      30.284  23.880  25.603  1.00  0.00    -0.336 N 
ATOM     14  N   UNL A   1      31.501  22.015  26.380  1.00  0.00    -0.334 N 
ATOM     15  C   UNL A   1      30.549  22.939  26.512  1.00  0.00     0.315 C 
ATOM     16  H   UNL A   1      31.638  21.487  27.200  1.00  0.00     0.165 HD
ATOM     17  O   UNL A   1      29.880  22.931  27.547  1.00  0.00    -0.249 OA
ATOM     18  H   UNL A   1      29.502  24.424  25.849  1.00  0.00     0.165 HD
BRANCH  14  19
ATOM     19  C   UNL A   1      32.374  21.617  25.304  1.00  0.00     0.155 C 
BRANCH  19  20
ATOM     20  C   UNL A   1      33.786  22.103  25.459  1.00  0.00    -0.010 A 
ATOM     21  C   UNL A   1      37.823  23.389  25.938  1.00  0.00     0.066 C 
ATOM     22  C   UNL A   1      36.394  22.964  25.795  1.00  0.00     0.037 A 
ATOM     23  C   UNL A   1      35.352  23.832  26.096  1.00  0.00     0.024 A 
ATOM     24  N   UNL A   1      36.179  21.702  25.361  1.00  0.00    -0.261 NA
ATOM     25  C   UNL A   1      34.040  23.393  25.934  1.00  0.00     0.009 A 
ATOM     26  C   UNL A   1      34.894  21.303  25.204  1.00  0.00     0.116 A 
ENDBRANCH  19  20
ENDBRANCH  14  19
ENDBRANCH  12  13
ENDBRANCH   8  12
ENDBRANCH   4   7
ENDBRANCH   2   3
ENDBRANCH   1   2
BRANCH   1  27
ATOM     27  C   UNL A   1      34.014  28.181  25.578  1.00  0.00     0.023 C 
BRANCH  27  28
ATOM     28  C   UNL A   1      33.543  28.412  27.012  1.00  0.00     0.116 C 
BRANCH  28  29
ATOM     29  N   UNL A   1      33.451  29.817  27.376  1.00  0.00    -0.352 N 
ATOM     30  C   UNL A   1      34.411  30.616  27.956  1.00  0.00     0.251 C 
ATOM     31  H   UNL A   1      32.591  30.254  27.183  1.00  0.00     0.163 HD
ATOM     32  O   UNL A   1      34.144  31.762  28.290  1.00  0.00    -0.269 OA
BRANCH  30  33
ATOM     33  C   UNL A   1      35.757  30.056  28.209  1.00  0.00     0.039 A 
ATOM     34  C   UNL A   1      36.723  30.147  27.205  1.00  0.00     0.014 A 
ATOM     35  C   UNL A   1      36.073  29.488  29.446  1.00  0.00     0.014 A 
ATOM     36  C   UNL A   1      38.032  29.739  27.470  1.00  0.00     0.010 A 
ATOM     37  C   UNL A   1      37.391  29.146  29.730  1.00  0.00     0.010 A 
ATOM     38  C   UNL A   1      38.384  29.273  28.746  1.00  0.00    -0.014 A 
BRANCH  38  39
ATOM     39  C   UNL A   1      39.789  28.935  29.083  1.00  0.00     0.031 A 
ATOM     40  C   UNL A   1      40.692  29.969  29.696  1.00  0.00     0.074 A 
ATOM     41  C   UNL A   1      40.280  27.725  28.749  1.00  0.00     0.049 A 
ATOM     42  N   UNL A   1      41.964  29.888  29.985  1.00  0.00    -0.248 NA
ATOM     43  C   UNL A   1      40.089  31.278  29.990  1.00  0.00     0.031 C 
ATOM     44  C   UNL A   1      39.525  26.663  28.080  1.00  0.00     0.029 A 
ATOM     45  N   UNL A   1      41.536  27.193  28.903  1.00  0.00    -0.354 N 
ATOM     46  C   UNL A   1      42.322  31.141  30.469  1.00  0.00     0.074 A 
ATOM     47  C   UNL A   1      41.142  31.975  30.391  1.00  0.00     0.031 C 
ATOM     48  C   UNL A   1      40.331  25.607  27.886  1.00  0.00     0.029 A 
ATOM     49  C   UNL A   1      41.664  25.925  28.389  1.00  0.00     0.049 A 
ATOM     50  H   UNL A   1      42.275  27.675  29.340  1.00  0.00     0.167 HD
ATOM     51  C   UNL A   1      43.519  31.552  30.952  1.00  0.00     0.037 A 
ATOM     52  C   UNL A   1      42.736  25.111  28.321  1.00  0.00     0.037 A 
ATOM     53  C   UNL A   1      44.680  30.706  31.055  1.00  0.00     0.049 A 
ATOM     54  C   UNL A   1      44.042  25.567  28.907  1.00  0.00     0.074 A 
ATOM     55  C   UNL A   1      45.911  30.998  31.614  1.00  0.00     0.029 A 
ATOM     56  N   UNL A   1      44.755  29.405  30.580  1.00  0.00    -0.354 N 
ATOM     57  N   UNL A   1      44.341  26.723  29.450  1.00  0.00    -0.248 NA
ATOM     58  C   UNL A   1      45.153  24.607  28.884  1.00  0.00     0.031 C 
ATOM     59  C   UNL A   1      46.744  29.886  31.443  1.00  0.00     0.029 A 
ATOM     60  C   UNL A   1      46.018  28.886  30.813  1.00  0.00     0.049 A 
ATOM     61  H   UNL A   1      44.020  28.920  30.141  1.00  0.00     0.167 HD
ATOM     62  C   UNL A   1      45.669  26.626  29.848  1.00  0.00     0.074 A 
ATOM     63  C   UNL A   1      46.112  25.292  29.494  1.00  0.00     0.031 C 
ATOM     64  C   UNL A   1      46.448  27.558  30.450  1.00  0.00     0.037 A 
BRANCH  51  65
ATOM     65  C   UNL A   1      43.625  32.984  31.398  1.00  0.00     0.058 A 
ATOM     66  C   UNL A   1      44.011  34.007  30.515  1.00  0.00     0.135 A 
ATOM     67  C   UNL A   1      43.348  33.339  32.728  1.00  0.00     0.135 A 
ATOM     68  F   UNL A   1      44.299  33.721  29.235  1.00  0.00    -0.206 F 
ATOM     69  C   UNL A   1      44.171  35.319  30.947  1.00  0.00     0.059 A 
ATOM     70  C   UNL A   1      43.473  34.651  33.175  1.00  0.00     0.059 A 
ATOM     71  F   UNL A   1      42.971  32.403  33.614  1.00  0.00    -0.206 F 
ATOM     72  C   UNL A   1      43.910  35.630  32.282  1.00  0.00     0.060 A 
BRANCH  72  73
ATOM     73  S   UNL A   1      44.161  37.327  32.840  1.00  0.00     0.124 S 
ATOM     74  O   UNL A   1      44.129  38.056  31.576  1.00  0.00    -0.237 OA
ATOM     75  O   UNL A   1      43.019  37.542  33.723  1.00  0.00    -0.237 OA
ATOM     76  O   UNL A   1      45.460  37.277  33.504  1.00  0.00    -0.744 OA
ENDBRANCH  72  73
ENDBRANCH  51  65
BRANCH  52  77
ATOM     77  C   UNL A   1      42.593  23.773  27.691  1.00  0.00     0.058 A 
ATOM     78  C   UNL A   1      42.790  23.598  26.315  1.00  0.00     0.135 A 
ATOM     79  C   UNL A   1      42.324  22.634  28.466  1.00  0.00     0.135 A 
ATOM     80  F   UNL A   1      43.044  24.659  25.534  1.00  0.00    -0.206 F 
ATOM     81  C   UNL A   1      42.732  22.339  25.726  1.00  0.00     0.059 A 
ATOM     82  C   UNL A   1      42.280  21.362  27.903  1.00  0.00     0.059 A 
ATOM     83  F   UNL A   1      42.145  22.749  29.791  1.00  0.00    -0.206 F 
ATOM     84  C   UNL A   1      42.485  21.226  26.530  1.00  0.00     0.060 A 
BRANCH  84  85
ATOM     85  S   UNL A   1      42.508  19.586  25.772  1.00  0.00     0.124 S 
ATOM     86  O   UNL A   1      43.436  19.787  24.665  1.00  0.00    -0.237 OA
ATOM     87  O   UNL A   1      42.990  18.748  26.865  1.00  0.00    -0.237 OA
ATOM     88  O   UNL A   1      41.114  19.371  25.397  1.00  0.00    -0.744 OA
ENDBRANCH  84  85
ENDBRANCH  52  77
BRANCH  64  89
ATOM     89  C   UNL A   1      47.861  27.166  30.783  1.00  0.00     0.058 A 
ATOM     90  C   UNL A   1      48.903  27.320  29.856  1.00  0.00     0.135 A 
ATOM     91  C   UNL A   1      48.185  26.683  32.061  1.00  0.00     0.135 A 
ATOM     92  F   UNL A   1      48.646  27.771  28.618  1.00  0.00    -0.206 F 
ATOM     93  C   UNL A   1      50.216  26.993  30.179  1.00  0.00     0.059 A 
ATOM     94  C   UNL A   1      49.494  26.373  32.414  1.00  0.00     0.059 A 
ATOM     95  F   UNL A   1      47.225  26.527  32.987  1.00  0.00    -0.206 F 
ATOM     96  C   UNL A   1      50.502  26.522  31.462  1.00  0.00     0.060 A 
BRANCH  96  97
ATOM     97  S   UNL A   1      52.215  26.137  31.883  1.00  0.00     0.124 S 
ATOM     98  O   UNL A   1      52.357  26.803  33.174  1.00  0.00    -0.237 OA
ATOM     99  O   UNL A   1      52.211  24.678  31.919  1.00  0.00    -0.237 OA
ATOM    100  O   UNL A   1      52.975  26.727  30.784  1.00  0.00    -0.744 OA
ENDBRANCH  96  97
ENDBRANCH  64  89
ENDBRANCH  38  39
ENDBRANCH  30  33
ENDBRANCH  28  29
ENDBRANCH  27  28
ENDBRANCH   1  27
TORSDOF 18
ENDMDL
MODEL 3
REMARK VINA RESULT:     -11.3      3.027      4.326
REMARK SMILES Cc1ccc(CNC(=O)NC[C@@H]2CC[C@@H](C(=O)NCCCCNC(=O)c3ccc(-c4c5nc(c(-c6c(F)cc(S(=O)(=O)[O-])cc6F)c6ccc([nH]6)c(-c6c(F)cc(S(=O)(=O)[O-])cc6F)c6nc(c(-c7c(F)cc(S(=O)(=O)[O-])cc7F)c7ccc4[nH]7)C=C6)C=C5)cc3)O2)cn1
REMARK SMILES IDX 20 1 19 2 18 3 16 4 17 5 15 7 12 8 13 9 92 10 14 11 11 12
REMARK SMILES IDX 10 13 7 14 8 15 9 17 6 19 5 20 1 21 2 22 3 23 94 24 4 25
REMARK SMILES IDX 93 26 21 27 22 28 23 29 24 30 25 32 26 33 27 34 91 35 28 36
REMARK SMILES IDX 90 37 29 38 30 39 31 40 84 41 32 42 89 43 83 44 85 45 33 46
REMARK SMILES IDX 88 47 82 48 81 49 34 51 68 52 47 53 67 54 48 55 51 56 66 57
REMARK SMILES IDX 86 58 49 59 50 60 65 62 87 63 52 64 35 65 36 66 45 67 37 68
REMARK SMILES IDX 38 69 44 70 46 71 39 72 40 73 41 74 42 75 43 76 69 77 70 78
REMARK SMILES IDX 79 79 71 80 72 81 78 82 80 83 73 84 74 85 75 86 76 87 77 88
REMARK SMILES IDX 53 89 54 90 63 91 55 92 56 93 62 94 64 95 57 96 58 97 59 98
REMARK SMILES IDX 60 99 61 100
REMARK H PARENT 18 6 7 16 10 18 23 31 85 50 51 61
REMARK Flexibility Score: inf
ROOT
ATOM      1  C   UNL A   1      41.656  21.232  26.656  1.00  0.00     0.023 C 
ENDROOT
BRANCH   1   2
ATOM      2  C   UNL A   1      40.137  21.227  26.502  1.00  0.00     0.116 C 
BRANCH   2   3
ATOM      3  N   UNL A   1      39.565  22.554  26.611  1.00  0.00    -0.354 N 
ATOM      4  C   UNL A   1      38.370  23.045  26.176  1.00  0.00     0.249 C 
ATOM      5  O   UNL A   1      38.116  24.229  26.419  1.00  0.00    -0.272 OA
ATOM      6  H   UNL A   1      40.134  23.210  27.076  1.00  0.00     0.163 HD
BRANCH   4   7
ATOM      7  C   UNL A   1      37.317  22.160  25.474  1.00  0.00     0.207 C 
ATOM      8  C   UNL A   1      34.990  22.271  25.383  1.00  0.00     0.138 C 
ATOM      9  C   UNL A   1      35.490  22.254  23.955  1.00  0.00     0.037 C 
ATOM     10  O   UNL A   1      36.115  21.835  26.173  1.00  0.00    -0.363 OA
ATOM     11  C   UNL A   1      36.896  22.779  24.143  1.00  0.00     0.045 C 
BRANCH   8  12
ATOM     12  C   UNL A   1      33.771  21.401  25.700  1.00  0.00     0.149 C 
BRANCH  12  13
ATOM     13  N   UNL A   1      32.873  22.071  26.633  1.00  0.00    -0.336 N 
ATOM     14  N   UNL A   1      31.299  23.294  25.371  1.00  0.00    -0.334 N 
ATOM     15  C   UNL A   1      31.795  22.851  26.527  1.00  0.00     0.315 C 
ATOM     16  H   UNL A   1      30.432  23.748  25.476  1.00  0.00     0.165 HD
ATOM     17  O   UNL A   1      31.211  23.173  27.563  1.00  0.00    -0.249 OA
ATOM     18  H   UNL A   1      33.122  21.907  27.570  1.00  0.00     0.165 HD
BRANCH  14  19
ATOM     19  C   UNL A   1      31.751  23.255  24.002  1.00  0.00     0.155 C 
BRANCH  19  20
ATOM     20  C   UNL A   1      32.302  24.563  23.510  1.00  0.00    -0.010 A 
ATOM     21  C   UNL A   1      33.959  28.225  22.089  1.00  0.00     0.066 C 
ATOM     22  C   UNL A   1      33.374  26.954  22.623  1.00  0.00     0.037 A 
ATOM     23  C   UNL A   1      32.575  26.953  23.760  1.00  0.00     0.024 A 
ATOM     24  N   UNL A   1      33.665  25.822  21.943  1.00  0.00    -0.261 NA
ATOM     25  C   UNL A   1      32.043  25.745  24.209  1.00  0.00     0.009 A 
ATOM     26  C   UNL A   1      33.129  24.663  22.397  1.00  0.00     0.116 A 
ENDBRANCH  19  20
ENDBRANCH  14  19
ENDBRANCH  12  13
ENDBRANCH   8  12
ENDBRANCH   4   7
ENDBRANCH   2   3
ENDBRANCH   1   2
BRANCH   1  27
ATOM     27  C   UNL A   1      42.178  22.238  27.685  1.00  0.00     0.023 C 
BRANCH  27  28
ATOM     28  C   UNL A   1      43.031  23.371  27.119  1.00  0.00     0.116 C 
BRANCH  28  29
ATOM     29  N   UNL A   1      42.418  24.056  25.991  1.00  0.00    -0.352 N 
ATOM     30  C   UNL A   1      41.768  25.270  25.977  1.00  0.00     0.251 C 
ATOM     31  H   UNL A   1      42.475  23.591  25.126  1.00  0.00     0.163 HD
ATOM     32  O   UNL A   1      41.219  25.667  24.959  1.00  0.00    -0.269 OA
BRANCH  30  33
ATOM     33  C   UNL A   1      41.705  26.066  27.222  1.00  0.00     0.039 A 
ATOM     34  C   UNL A   1      42.654  27.070  27.427  1.00  0.00     0.014 A 
ATOM     35  C   UNL A   1      40.686  25.854  28.155  1.00  0.00     0.014 A 
ATOM     36  C   UNL A   1      42.536  27.914  28.532  1.00  0.00     0.010 A 
ATOM     37  C   UNL A   1      40.531  26.738  29.218  1.00  0.00     0.010 A 
ATOM     38  C   UNL A   1      41.451  27.780  29.414  1.00  0.00    -0.014 A 
BRANCH  38  39
ATOM     39  C   UNL A   1      41.245  28.732  30.534  1.00  0.00     0.031 A 
ATOM     40  C   UNL A   1      42.068  28.617  31.787  1.00  0.00     0.074 A 
ATOM     41  C   UNL A   1      40.252  29.639  30.461  1.00  0.00     0.049 A 
ATOM     42  N   UNL A   1      41.980  29.300  32.899  1.00  0.00    -0.248 NA
ATOM     43  C   UNL A   1      43.103  27.572  31.802  1.00  0.00     0.031 C 
ATOM     44  C   UNL A   1      39.334  29.798  29.330  1.00  0.00     0.029 A 
ATOM     45  N   UNL A   1      39.829  30.581  31.366  1.00  0.00    -0.354 N 
ATOM     46  C   UNL A   1      42.927  28.751  33.755  1.00  0.00     0.074 A 
ATOM     47  C   UNL A   1      43.546  27.650  33.048  1.00  0.00     0.031 C 
ATOM     48  C   UNL A   1      38.462  30.781  29.606  1.00  0.00     0.029 A 
ATOM     49  C   UNL A   1      38.739  31.302  30.942  1.00  0.00     0.049 A 
ATOM     50  H   UNL A   1      40.267  30.727  32.235  1.00  0.00     0.167 HD
ATOM     51  C   UNL A   1      43.264  29.143  35.008  1.00  0.00     0.037 A 
ATOM     52  C   UNL A   1      38.032  32.268  31.561  1.00  0.00     0.037 A 
ATOM     53  C   UNL A   1      42.664  30.259  35.691  1.00  0.00     0.049 A 
ATOM     54  C   UNL A   1      38.453  32.722  32.930  1.00  0.00     0.074 A 
ATOM     55  C   UNL A   1      42.998  30.794  36.923  1.00  0.00     0.029 A 
ATOM     56  N   UNL A   1      41.602  31.007  35.205  1.00  0.00    -0.354 N 
ATOM     57  N   UNL A   1      39.416  32.257  33.691  1.00  0.00    -0.248 NA
ATOM     58  C   UNL A   1      37.703  33.838  33.521  1.00  0.00     0.031 C 
ATOM     59  C   UNL A   1      42.112  31.842  37.199  1.00  0.00     0.029 A 
ATOM     60  C   UNL A   1      41.252  31.986  36.121  1.00  0.00     0.049 A 
ATOM     61  H   UNL A   1      41.161  30.864  34.337  1.00  0.00     0.167 HD
ATOM     62  C   UNL A   1      39.398  33.032  34.844  1.00  0.00     0.074 A 
ATOM     63  C   UNL A   1      38.337  34.005  34.675  1.00  0.00     0.031 C 
ATOM     64  C   UNL A   1      40.189  32.944  35.942  1.00  0.00     0.037 A 
BRANCH  51  65
ATOM     65  C   UNL A   1      44.326  28.346  35.713  1.00  0.00     0.058 A 
ATOM     66  C   UNL A   1      45.693  28.638  35.561  1.00  0.00     0.135 A 
ATOM     67  C   UNL A   1      43.976  27.270  36.544  1.00  0.00     0.135 A 
ATOM     68  F   UNL A   1      46.084  29.649  34.770  1.00  0.00    -0.206 F 
ATOM     69  C   UNL A   1      46.674  27.858  36.164  1.00  0.00     0.059 A 
ATOM     70  C   UNL A   1      44.941  26.494  37.180  1.00  0.00     0.059 A 
ATOM     71  F   UNL A   1      42.686  26.949  36.729  1.00  0.00    -0.206 F 
ATOM     72  C   UNL A   1      46.289  26.781  36.963  1.00  0.00     0.060 A 
BRANCH  72  73
ATOM     73  S   UNL A   1      47.572  25.752  37.706  1.00  0.00     0.124 S 
ATOM     74  O   UNL A   1      48.723  26.074  36.868  1.00  0.00    -0.237 OA
ATOM     75  O   UNL A   1      47.625  26.252  39.075  1.00  0.00    -0.237 OA
ATOM     76  O   UNL A   1      47.047  24.397  37.557  1.00  0.00    -0.744 OA
ENDBRANCH  72  73
ENDBRANCH  51  65
BRANCH  52  77
ATOM     77  C   UNL A   1      36.871  32.880  30.864  1.00  0.00     0.058 A 
ATOM     78  C   UNL A   1      35.558  32.592  31.260  1.00  0.00     0.135 A 
ATOM     79  C   UNL A   1      37.057  33.814  29.833  1.00  0.00     0.135 A 
ATOM     80  F   UNL A   1      35.333  31.701  32.237  1.00  0.00    -0.206 F 
ATOM     81  C   UNL A   1      34.466  33.214  30.664  1.00  0.00     0.059 A 
ATOM     82  C   UNL A   1      35.981  34.464  29.235  1.00  0.00     0.059 A 
ATOM     83  F   UNL A   1      38.296  34.134  29.430  1.00  0.00    -0.206 F 
ATOM     84  C   UNL A   1      34.689  34.156  29.658  1.00  0.00     0.060 A 
BRANCH  84  85
ATOM     85  S   UNL A   1      33.270  35.029  28.958  1.00  0.00     0.124 S 
ATOM     86  O   UNL A   1      33.906  36.205  28.375  1.00  0.00    -0.237 OA
ATOM     87  O   UNL A   1      32.744  34.051  28.011  1.00  0.00    -0.237 OA
ATOM     88  O   UNL A   1      32.424  35.279  30.121  1.00  0.00    -0.744 OA
ENDBRANCH  84  85
ENDBRANCH  52  77
BRANCH  64  89
ATOM     89  C   UNL A   1      39.950  33.936  37.046  1.00  0.00     0.058 A 
ATOM     90  C   UNL A   1      40.633  35.161  37.093  1.00  0.00     0.135 A 
ATOM     91  C   UNL A   1      38.987  33.683  38.036  1.00  0.00     0.135 A 
ATOM     92  F   UNL A   1      41.568  35.449  36.174  1.00  0.00    -0.206 F 
ATOM     93  C   UNL A   1      40.382  36.095  38.093  1.00  0.00     0.059 A 
ATOM     94  C   UNL A   1      38.702  34.611  39.032  1.00  0.00     0.059 A 
ATOM     95  F   UNL A   1      38.300  32.530  38.030  1.00  0.00    -0.206 F 
ATOM     96  C   UNL A   1      39.413  35.811  39.058  1.00  0.00     0.060 A 
BRANCH  96  97
ATOM     97  S   UNL A   1      39.068  37.045  40.330  1.00  0.00     0.124 S 
ATOM     98  O   UNL A   1      38.503  38.133  39.538  1.00  0.00    -0.237 OA
ATOM     99  O   UNL A   1      38.132  36.344  41.203  1.00  0.00    -0.237 OA
ATOM    100  O   UNL A   1      40.381  37.308  40.912  1.00  0.00    -0.744 OA
ENDBRANCH  96  97
ENDBRANCH  64  89
ENDBRANCH  38  39
ENDBRANCH  30  33
ENDBRANCH  28  29
ENDBRANCH  27  28
ENDBRANCH   1  27
TORSDOF 18
ENDMDL
