MODEL 1
REMARK VINA RESULT:     -12.1      0.000      0.000
REMARK SMILES Cc1cc(F)cc(N[C@](C)(C(=O)NCCCCNC(=O)c2ccc(-c3c4nc(c(-c5c(F)cc(S(=O)(=O)[O-])cc5F)c5ccc([nH]5)c(-c5c(F)cc(S(=O)(=O)[O-])cc5F)c5nc(c(-c6c(F)cc(S(=O)(=O)[O-])cc6F)c6ccc3[nH]6)C=C5)C=C4)cc2)c2cccc(F)c2)c1
REMARK SMILES IDX 16 1 15 2 14 3 13 4 11 5 12 6 9 8 10 9 8 10 7 12 1 13 2 14
REMARK SMILES IDX 3 15 94 16 4 17 5 18 6 19 87 20 88 21 93 22 89 23 91 24
REMARK SMILES IDX 90 25 92 26 17 27 18 28 19 29 20 31 21 32 22 33 86 34 23 35
REMARK SMILES IDX 85 36 24 37 25 38 26 39 79 40 27 41 84 42 78 43 80 44 28 45
REMARK SMILES IDX 83 46 77 47 76 48 29 50 63 51 42 52 62 53 43 54 46 55 61 56
REMARK SMILES IDX 81 57 44 58 45 59 60 61 82 62 47 63 30 64 31 65 40 66 32 67
REMARK SMILES IDX 33 68 39 69 41 70 34 71 35 72 36 73 37 74 38 75 64 76 65 77
REMARK SMILES IDX 74 78 66 79 67 80 73 81 75 82 68 83 69 84 70 85 71 86 72 87
REMARK SMILES IDX 48 88 49 89 58 90 50 91 51 92 57 93 59 94 52 95 53 96 54 97
REMARK SMILES IDX 55 98 56 99
REMARK H PARENT 13 7 8 11 18 30 80 49 46 60
REMARK Flexibility Score: inf
ROOT
ATOM      1  C   UNL A   1      32.564  27.644  27.056  1.00  0.00     0.023 C 
ENDROOT
BRANCH   1   2
ATOM      2  C   UNL A   1      32.301  26.750  25.844  1.00  0.00     0.023 C 
BRANCH   2   3
ATOM      3  C   UNL A   1      32.692  25.284  26.031  1.00  0.00     0.116 C 
BRANCH   3   4
ATOM      4  N   UNL A   1      31.783  24.416  25.320  1.00  0.00    -0.354 N 
ATOM      5  C   UNL A   1      31.867  23.096  24.997  1.00  0.00     0.250 C 
ATOM      6  O   UNL A   1      31.147  22.753  24.045  1.00  0.00    -0.272 OA
ATOM      7  H   UNL A   1      30.956  24.856  25.016  1.00  0.00     0.163 HD
BRANCH   5   8
ATOM      8  C   UNL A   1      32.816  22.040  25.723  1.00  0.00     0.139 C 
ATOM      9  C   UNL A   1      32.991  22.174  27.258  1.00  0.00     0.051 C 
BRANCH   8  10
ATOM     10  N   UNL A   1      32.185  20.689  25.527  1.00  0.00    -0.368 N 
ATOM     11  H   UNL A   1      31.389  20.496  26.074  1.00  0.00     0.161 HD
BRANCH  10  12
ATOM     12  C   UNL A   1      32.596  19.676  24.660  1.00  0.00     0.038 A 
ATOM     13  C   UNL A   1      34.747  16.515  25.001  1.00  0.00     0.044 C 
ATOM     14  C   UNL A   1      33.856  17.568  24.417  1.00  0.00    -0.046 A 
ATOM     15  C   UNL A   1      33.475  17.494  23.078  1.00  0.00     0.042 A 
ATOM     16  C   UNL A   1      33.395  18.645  25.195  1.00  0.00     0.029 A 
ATOM     17  C   UNL A   1      32.670  18.488  22.545  1.00  0.00     0.125 A 
ATOM     18  F   UNL A   1      32.307  18.418  21.257  1.00  0.00    -0.207 F 
ATOM     19  C   UNL A   1      32.237  19.565  23.317  1.00  0.00     0.065 A 
ENDBRANCH  10  12
ENDBRANCH   8  10
BRANCH   8  20
ATOM     20  C   UNL A   1      34.210  22.089  25.010  1.00  0.00    -0.011 A 
ATOM     21  C   UNL A   1      34.408  22.689  23.747  1.00  0.00     0.007 A 
ATOM     22  C   UNL A   1      35.376  21.634  25.661  1.00  0.00     0.046 A 
ATOM     23  C   UNL A   1      35.684  22.809  23.172  1.00  0.00     0.003 A 
ATOM     24  C   UNL A   1      36.644  21.789  25.100  1.00  0.00     0.123 A 
ATOM     25  C   UNL A   1      36.809  22.370  23.857  1.00  0.00     0.039 A 
ATOM     26  F   UNL A   1      37.718  21.393  25.795  1.00  0.00    -0.207 F 
ENDBRANCH   8  20
ENDBRANCH   5   8
ENDBRANCH   3   4
ENDBRANCH   2   3
ENDBRANCH   1   2
BRANCH   1  27
ATOM     27  C   UNL A   1      33.831  28.488  26.974  1.00  0.00     0.116 C 
BRANCH  27  28
ATOM     28  N   UNL A   1      33.682  29.820  27.539  1.00  0.00    -0.352 N 
ATOM     29  C   UNL A   1      34.618  30.565  28.219  1.00  0.00     0.251 C 
ATOM     30  H   UNL A   1      32.801  30.241  27.420  1.00  0.00     0.163 HD
ATOM     31  O   UNL A   1      34.312  31.644  28.708  1.00  0.00    -0.269 OA
BRANCH  29  32
ATOM     32  C   UNL A   1      35.980  30.018  28.391  1.00  0.00     0.039 A 
ATOM     33  C   UNL A   1      36.880  30.111  27.327  1.00  0.00     0.014 A 
ATOM     34  C   UNL A   1      36.379  29.473  29.613  1.00  0.00     0.014 A 
ATOM     35  C   UNL A   1      38.207  29.723  27.515  1.00  0.00     0.010 A 
ATOM     36  C   UNL A   1      37.718  29.156  29.820  1.00  0.00     0.010 A 
ATOM     37  C   UNL A   1      38.644  29.280  28.775  1.00  0.00    -0.014 A 
BRANCH  37  38
ATOM     38  C   UNL A   1      40.068  28.941  29.018  1.00  0.00     0.031 A 
ATOM     39  C   UNL A   1      40.996  29.973  29.596  1.00  0.00     0.074 A 
ATOM     40  C   UNL A   1      40.535  27.728  28.662  1.00  0.00     0.049 A 
ATOM     41  N   UNL A   1      42.283  29.898  29.813  1.00  0.00    -0.248 NA
ATOM     42  C   UNL A   1      40.403  31.275  29.950  1.00  0.00     0.031 C 
ATOM     43  C   UNL A   1      39.743  26.661  28.045  1.00  0.00     0.029 A 
ATOM     44  N   UNL A   1      41.792  27.188  28.762  1.00  0.00    -0.354 N 
ATOM     45  C   UNL A   1      42.655  31.139  30.315  1.00  0.00     0.074 A 
ATOM     46  C   UNL A   1      41.470  31.968  30.318  1.00  0.00     0.031 C 
ATOM     47  C   UNL A   1      40.526  25.588  27.848  1.00  0.00     0.029 A 
ATOM     48  C   UNL A   1      41.880  25.898  28.294  1.00  0.00     0.049 A 
ATOM     49  H   UNL A   1      42.560  27.679  29.135  1.00  0.00     0.167 HD
ATOM     50  C   UNL A   1      43.868  31.543  30.762  1.00  0.00     0.037 A 
ATOM     51  C   UNL A   1      42.934  25.063  28.234  1.00  0.00     0.037 A 
ATOM     52  C   UNL A   1      45.036  30.704  30.786  1.00  0.00     0.049 A 
ATOM     53  C   UNL A   1      44.269  25.531  28.749  1.00  0.00     0.074 A 
ATOM     54  C   UNL A   1      46.304  31.005  31.253  1.00  0.00     0.029 A 
ATOM     55  N   UNL A   1      45.077  29.393  30.334  1.00  0.00    -0.354 N 
ATOM     56  N   UNL A   1      44.591  26.694  29.261  1.00  0.00    -0.248 NA
ATOM     57  C   UNL A   1      45.379  24.571  28.685  1.00  0.00     0.031 C 
ATOM     58  C   UNL A   1      47.118  29.882  31.062  1.00  0.00     0.029 A 
ATOM     59  C   UNL A   1      46.347  28.872  30.508  1.00  0.00     0.049 A 
ATOM     60  H   UNL A   1      44.315  28.905  29.946  1.00  0.00     0.167 HD
ATOM     61  C   UNL A   1      45.935  26.597  29.607  1.00  0.00     0.074 A 
ATOM     62  C   UNL A   1      46.360  25.257  29.254  1.00  0.00     0.031 C 
ATOM     63  C   UNL A   1      46.744  27.530  30.165  1.00  0.00     0.037 A 
BRANCH  50  64
ATOM     64  C   UNL A   1      43.982  32.949  31.279  1.00  0.00     0.058 A 
ATOM     65  C   UNL A   1      44.320  34.014  30.427  1.00  0.00     0.135 A 
ATOM     66  C   UNL A   1      43.730  33.243  32.628  1.00  0.00     0.135 A 
ATOM     67  F   UNL A   1      44.591  33.785  29.132  1.00  0.00    -0.206 F 
ATOM     68  C   UNL A   1      44.434  35.316  30.901  1.00  0.00     0.059 A 
ATOM     69  C   UNL A   1      43.811  34.543  33.119  1.00  0.00     0.059 A 
ATOM     70  F   UNL A   1      43.404  32.262  33.483  1.00  0.00    -0.206 F 
ATOM     71  C   UNL A   1      44.179  35.571  32.249  1.00  0.00     0.060 A 
BRANCH  71  72
ATOM     72  S   UNL A   1      44.326  37.267  32.849  1.00  0.00     0.124 S 
ATOM     73  O   UNL A   1      45.624  37.228  33.515  1.00  0.00    -0.237 OA
ATOM     74  O   UNL A   1      44.271  38.043  31.614  1.00  0.00    -0.237 OA
ATOM     75  O   UNL A   1      43.172  37.416  33.730  1.00  0.00    -0.744 OA
ENDBRANCH  71  72
ENDBRANCH  50  64
BRANCH  51  76
ATOM     76  C   UNL A   1      42.770  23.686  27.697  1.00  0.00     0.058 A 
ATOM     77  C   UNL A   1      42.906  23.432  26.324  1.00  0.00     0.135 A 
ATOM     78  C   UNL A   1      42.467  22.604  28.536  1.00  0.00     0.135 A 
ATOM     79  F   UNL A   1      43.192  24.437  25.482  1.00  0.00    -0.206 F 
ATOM     80  C   UNL A   1      42.722  22.159  25.797  1.00  0.00     0.059 A 
ATOM     81  C   UNL A   1      42.299  21.316  28.035  1.00  0.00     0.059 A 
ATOM     82  F   UNL A   1      42.345  22.792  29.859  1.00  0.00    -0.206 F 
ATOM     83  C   UNL A   1      42.414  21.106  26.660  1.00  0.00     0.060 A 
BRANCH  83  84
ATOM     84  S   UNL A   1      42.203  19.451  25.972  1.00  0.00     0.124 S 
ATOM     85  O   UNL A   1      43.023  19.528  24.768  1.00  0.00    -0.237 OA
ATOM     86  O   UNL A   1      42.718  18.603  27.042  1.00  0.00    -0.237 OA
ATOM     87  O   UNL A   1      40.763  19.362  25.753  1.00  0.00    -0.744 OA
ENDBRANCH  83  84
ENDBRANCH  51  76
BRANCH  63  88
ATOM     88  C   UNL A   1      48.158  27.122  30.467  1.00  0.00     0.058 A 
ATOM     89  C   UNL A   1      49.198  27.344  29.552  1.00  0.00     0.135 A 
ATOM     90  C   UNL A   1      48.480  26.543  31.704  1.00  0.00     0.135 A 
ATOM     91  F   UNL A   1      48.938  27.890  28.353  1.00  0.00    -0.206 F 
ATOM     92  C   UNL A   1      50.509  26.986  29.845  1.00  0.00     0.059 A 
ATOM     93  C   UNL A   1      49.788  26.197  32.027  1.00  0.00     0.059 A 
ATOM     94  F   UNL A   1      47.521  26.318  32.617  1.00  0.00    -0.206 F 
ATOM     95  C   UNL A   1      50.794  26.412  31.086  1.00  0.00     0.060 A 
BRANCH  95  96
ATOM     96  S   UNL A   1      52.504  25.980  31.470  1.00  0.00     0.124 S 
ATOM     97  O   UNL A   1      52.857  27.014  32.437  1.00  0.00    -0.237 OA
ATOM     98  O   UNL A   1      52.375  24.628  32.006  1.00  0.00    -0.237 OA
ATOM     99  O   UNL A   1      53.175  26.072  30.176  1.00  0.00    -0.744 OA
ENDBRANCH  95  96
ENDBRANCH  63  88
ENDBRANCH  37  38
ENDBRANCH  29  32
ENDBRANCH  27  28
ENDBRANCH   1  27
TORSDOF 17
ENDMDL
MODEL 2
REMARK VINA RESULT:     -11.9      4.811     10.404
REMARK SMILES Cc1cc(F)cc(N[C@](C)(C(=O)NCCCCNC(=O)c2ccc(-c3c4nc(c(-c5c(F)cc(S(=O)(=O)[O-])cc5F)c5ccc([nH]5)c(-c5c(F)cc(S(=O)(=O)[O-])cc5F)c5nc(c(-c6c(F)cc(S(=O)(=O)[O-])cc6F)c6ccc3[nH]6)C=C5)C=C4)cc2)c2cccc(F)c2)c1
REMARK SMILES IDX 16 1 15 2 14 3 13 4 11 5 12 6 9 8 10 9 8 10 7 12 1 13 2 14
REMARK SMILES IDX 3 15 94 16 4 17 5 18 6 19 87 20 88 21 93 22 89 23 91 24
REMARK SMILES IDX 90 25 92 26 17 27 18 28 19 29 20 31 21 32 22 33 86 34 23 35
REMARK SMILES IDX 85 36 24 37 25 38 26 39 79 40 27 41 84 42 78 43 80 44 28 45
REMARK SMILES IDX 83 46 77 47 76 48 29 50 63 51 42 52 62 53 43 54 46 55 61 56
REMARK SMILES IDX 81 57 44 58 45 59 60 61 82 62 47 63 30 64 31 65 40 66 32 67
REMARK SMILES IDX 33 68 39 69 41 70 34 71 35 72 36 73 37 74 38 75 64 76 65 77
REMARK SMILES IDX 74 78 66 79 67 80 73 81 75 82 68 83 69 84 70 85 71 86 72 87
REMARK SMILES IDX 48 88 49 89 58 90 50 91 51 92 57 93 59 94 52 95 53 96 54 97
REMARK SMILES IDX 55 98 56 99
REMARK H PARENT 13 7 8 11 18 30 80 49 46 60
REMARK Flexibility Score: inf
ROOT
ATOM      1  C   UNL A   1      40.061  22.131  27.110  1.00  0.00     0.023 C 
ENDROOT
BRANCH   1   2
ATOM      2  C   UNL A   1      38.857  22.842  26.494  1.00  0.00     0.023 C 
BRANCH   2   3
ATOM      3  C   UNL A   1      37.903  21.934  25.717  1.00  0.00     0.116 C 
BRANCH   3   4
ATOM      4  N   UNL A   1      37.514  22.547  24.468  1.00  0.00    -0.354 N 
ATOM      5  C   UNL A   1      36.287  22.809  23.939  1.00  0.00     0.250 C 
ATOM      6  O   UNL A   1      36.279  22.949  22.705  1.00  0.00    -0.272 OA
ATOM      7  H   UNL A   1      38.269  22.823  23.900  1.00  0.00     0.163 HD
BRANCH   5   8
ATOM      8  C   UNL A   1      34.936  22.909  24.779  1.00  0.00     0.139 C 
ATOM      9  C   UNL A   1      35.058  23.212  26.295  1.00  0.00     0.051 C 
BRANCH   8  10
ATOM     10  N   UNL A   1      34.166  24.073  24.218  1.00  0.00    -0.368 N 
ATOM     11  H   UNL A   1      34.150  24.152  23.236  1.00  0.00     0.161 HD
BRANCH  10  12
ATOM     12  C   UNL A   1      33.474  25.056  24.926  1.00  0.00     0.038 A 
ATOM     13  C   UNL A   1      29.854  25.503  26.123  1.00  0.00     0.044 C 
ATOM     14  C   UNL A   1      31.316  25.746  25.904  1.00  0.00    -0.046 A 
ATOM     15  C   UNL A   1      31.913  26.901  26.408  1.00  0.00     0.042 A 
ATOM     16  C   UNL A   1      32.108  24.830  25.189  1.00  0.00     0.029 A 
ATOM     17  C   UNL A   1      33.262  27.125  26.177  1.00  0.00     0.125 A 
ATOM     18  F   UNL A   1      33.834  28.236  26.659  1.00  0.00    -0.207 F 
ATOM     19  C   UNL A   1      34.034  26.223  25.446  1.00  0.00     0.065 A 
ENDBRANCH  10  12
ENDBRANCH   8  10
BRANCH   8  20
ATOM     20  C   UNL A   1      34.140  21.580  24.552  1.00  0.00    -0.011 A 
ATOM     21  C   UNL A   1      32.908  21.527  23.865  1.00  0.00     0.007 A 
ATOM     22  C   UNL A   1      34.685  20.333  24.926  1.00  0.00     0.046 A 
ATOM     23  C   UNL A   1      32.261  20.311  23.587  1.00  0.00     0.003 A 
ATOM     24  C   UNL A   1      34.056  19.127  24.616  1.00  0.00     0.123 A 
ATOM     25  C   UNL A   1      32.844  19.105  23.952  1.00  0.00     0.039 A 
ATOM     26  F   UNL A   1      34.655  17.975  24.942  1.00  0.00    -0.207 F 
ENDBRANCH   8  20
ENDBRANCH   5   8
ENDBRANCH   3   4
ENDBRANCH   2   3
ENDBRANCH   1   2
BRANCH   1  27
ATOM     27  C   UNL A   1      41.322  22.978  27.226  1.00  0.00     0.116 C 
BRANCH  27  28
ATOM     28  N   UNL A   1      41.566  23.825  26.069  1.00  0.00    -0.352 N 
ATOM     29  C   UNL A   1      41.651  25.198  26.021  1.00  0.00     0.251 C 
ATOM     30  H   UNL A   1      41.685  23.357  25.211  1.00  0.00     0.163 HD
ATOM     31  O   UNL A   1      41.779  25.772  24.949  1.00  0.00    -0.269 OA
BRANCH  29  32
ATOM     32  C   UNL A   1      41.533  25.965  27.279  1.00  0.00     0.039 A 
ATOM     33  C   UNL A   1      42.571  26.827  27.638  1.00  0.00     0.014 A 
ATOM     34  C   UNL A   1      40.380  25.876  28.062  1.00  0.00     0.014 A 
ATOM     35  C   UNL A   1      42.418  27.660  28.748  1.00  0.00     0.010 A 
ATOM     36  C   UNL A   1      40.200  26.757  29.124  1.00  0.00     0.010 A 
ATOM     37  C   UNL A   1      41.216  27.658  29.475  1.00  0.00    -0.014 A 
BRANCH  37  38
ATOM     38  C   UNL A   1      41.002  28.591  30.609  1.00  0.00     0.031 A 
ATOM     39  C   UNL A   1      41.842  28.468  31.849  1.00  0.00     0.074 A 
ATOM     40  C   UNL A   1      40.014  29.505  30.543  1.00  0.00     0.049 A 
ATOM     41  N   UNL A   1      41.761  29.134  32.971  1.00  0.00    -0.248 NA
ATOM     42  C   UNL A   1      42.895  27.437  31.838  1.00  0.00     0.031 C 
ATOM     43  C   UNL A   1      39.098  29.686  29.413  1.00  0.00     0.029 A 
ATOM     44  N   UNL A   1      39.607  30.450  31.450  1.00  0.00    -0.354 N 
ATOM     45  C   UNL A   1      42.740  28.598  33.800  1.00  0.00     0.074 A 
ATOM     46  C   UNL A   1      43.364  27.515  33.074  1.00  0.00     0.031 C 
ATOM     47  C   UNL A   1      38.258  30.699  29.684  1.00  0.00     0.029 A 
ATOM     48  C   UNL A   1      38.553  31.218  31.015  1.00  0.00     0.049 A 
ATOM     49  H   UNL A   1      40.032  30.569  32.331  1.00  0.00     0.167 HD
ATOM     50  C   UNL A   1      43.105  28.992  35.043  1.00  0.00     0.037 A 
ATOM     51  C   UNL A   1      37.899  32.226  31.623  1.00  0.00     0.037 A 
ATOM     52  C   UNL A   1      42.501  30.092  35.748  1.00  0.00     0.049 A 
ATOM     53  C   UNL A   1      38.333  32.654  32.999  1.00  0.00     0.074 A 
ATOM     54  C   UNL A   1      42.823  30.596  36.996  1.00  0.00     0.029 A 
ATOM     55  N   UNL A   1      41.458  30.865  35.261  1.00  0.00    -0.354 N 
ATOM     56  N   UNL A   1      39.290  32.164  33.750  1.00  0.00    -0.248 NA
ATOM     57  C   UNL A   1      37.604  33.777  33.606  1.00  0.00     0.031 C 
ATOM     58  C   UNL A   1      41.959  31.661  37.273  1.00  0.00     0.029 A 
ATOM     59  C   UNL A   1      41.122  31.841  36.183  1.00  0.00     0.049 A 
ATOM     60  H   UNL A   1      41.021  30.739  34.388  1.00  0.00     0.167 HD
ATOM     61  C   UNL A   1      39.298  32.937  34.907  1.00  0.00     0.074 A 
ATOM     62  C   UNL A   1      38.256  33.932  34.750  1.00  0.00     0.031 C 
ATOM     63  C   UNL A   1      40.093  32.832  35.999  1.00  0.00     0.037 A 
BRANCH  50  64
ATOM     64  C   UNL A   1      44.223  28.241  35.707  1.00  0.00     0.058 A 
ATOM     65  C   UNL A   1      43.969  27.126  36.523  1.00  0.00     0.135 A 
ATOM     66  C   UNL A   1      45.561  28.617  35.510  1.00  0.00     0.135 A 
ATOM     67  F   UNL A   1      42.707  26.735  36.760  1.00  0.00    -0.206 F 
ATOM     68  C   UNL A   1      44.999  26.430  37.146  1.00  0.00     0.059 A 
ATOM     69  C   UNL A   1      46.610  27.919  36.101  1.00  0.00     0.059 A 
ATOM     70  F   UNL A   1      45.858  29.676  34.741  1.00  0.00    -0.206 F 
ATOM     71  C   UNL A   1      46.318  26.835  36.929  1.00  0.00     0.060 A 
BRANCH  71  72
ATOM     72  S   UNL A   1      47.645  25.919  37.740  1.00  0.00     0.124 S 
ATOM     73  O   UNL A   1      47.839  26.704  38.956  1.00  0.00    -0.237 OA
ATOM     74  O   UNL A   1      47.048  24.600  37.927  1.00  0.00    -0.237 OA
ATOM     75  O   UNL A   1      48.737  25.978  36.774  1.00  0.00    -0.744 OA
ENDBRANCH  71  72
ENDBRANCH  50  64
BRANCH  51  76
ATOM     76  C   UNL A   1      36.787  32.926  30.928  1.00  0.00     0.058 A 
ATOM     77  C   UNL A   1      35.451  32.588  31.192  1.00  0.00     0.135 A 
ATOM     78  C   UNL A   1      37.033  33.934  29.984  1.00  0.00     0.135 A 
ATOM     79  F   UNL A   1      35.168  31.628  32.085  1.00  0.00    -0.206 F 
ATOM     80  C   UNL A   1      34.398  33.206  30.527  1.00  0.00     0.059 A 
ATOM     81  C   UNL A   1      35.994  34.582  29.321  1.00  0.00     0.059 A 
ATOM     82  F   UNL A   1      38.292  34.307  29.710  1.00  0.00    -0.206 F 
ATOM     83  C   UNL A   1      34.679  34.200  29.589  1.00  0.00     0.060 A 
BRANCH  83  84
ATOM     84  S   UNL A   1      33.306  35.016  28.749  1.00  0.00     0.124 S 
ATOM     85  O   UNL A   1      32.788  33.936  27.917  1.00  0.00    -0.237 OA
ATOM     86  O   UNL A   1      32.459  35.424  29.866  1.00  0.00    -0.237 OA
ATOM     87  O   UNL A   1      33.955  36.111  28.034  1.00  0.00    -0.744 OA
ENDBRANCH  83  84
ENDBRANCH  51  76
BRANCH  63  88
ATOM     88  C   UNL A   1      39.896  33.844  37.092  1.00  0.00     0.058 A 
ATOM     89  C   UNL A   1      40.524  35.097  37.056  1.00  0.00     0.135 A 
ATOM     90  C   UNL A   1      39.034  33.568  38.165  1.00  0.00     0.135 A 
ATOM     91  F   UNL A   1      41.362  35.404  36.053  1.00  0.00    -0.206 F 
ATOM     92  C   UNL A   1      40.320  36.039  38.059  1.00  0.00     0.059 A 
ATOM     93  C   UNL A   1      38.799  34.503  39.168  1.00  0.00     0.059 A 
ATOM     94  F   UNL A   1      38.403  32.386  38.241  1.00  0.00    -0.206 F 
ATOM     95  C   UNL A   1      39.456  35.731  39.112  1.00  0.00     0.060 A 
BRANCH  95  96
ATOM     96  S   UNL A   1      39.174  36.972  40.393  1.00  0.00     0.124 S 
ATOM     97  O   UNL A   1      38.319  36.243  41.323  1.00  0.00    -0.237 OA
ATOM     98  O   UNL A   1      40.528  37.254  40.862  1.00  0.00    -0.237 OA
ATOM     99  O   UNL A   1      38.530  38.065  39.669  1.00  0.00    -0.744 OA
ENDBRANCH  95  96
ENDBRANCH  63  88
ENDBRANCH  37  38
ENDBRANCH  29  32
ENDBRANCH  27  28
ENDBRANCH   1  27
TORSDOF 17
ENDMDL
MODEL 3
REMARK VINA RESULT:     -11.8      3.401      5.329
REMARK SMILES Cc1cc(F)cc(N[C@](C)(C(=O)NCCCCNC(=O)c2ccc(-c3c4nc(c(-c5c(F)cc(S(=O)(=O)[O-])cc5F)c5ccc([nH]5)c(-c5c(F)cc(S(=O)(=O)[O-])cc5F)c5nc(c(-c6c(F)cc(S(=O)(=O)[O-])cc6F)c6ccc3[nH]6)C=C5)C=C4)cc2)c2cccc(F)c2)c1
REMARK SMILES IDX 16 1 15 2 14 3 13 4 11 5 12 6 9 8 10 9 8 10 7 12 1 13 2 14
REMARK SMILES IDX 3 15 94 16 4 17 5 18 6 19 87 20 88 21 93 22 89 23 91 24
REMARK SMILES IDX 90 25 92 26 17 27 18 28 19 29 20 31 21 32 22 33 86 34 23 35
REMARK SMILES IDX 85 36 24 37 25 38 26 39 79 40 27 41 84 42 78 43 80 44 28 45
REMARK SMILES IDX 83 46 77 47 76 48 29 50 63 51 42 52 62 53 43 54 46 55 61 56
REMARK SMILES IDX 81 57 44 58 45 59 60 61 82 62 47 63 30 64 31 65 40 66 32 67
REMARK SMILES IDX 33 68 39 69 41 70 34 71 35 72 36 73 37 74 38 75 64 76 65 77
REMARK SMILES IDX 74 78 66 79 67 80 73 81 75 82 68 83 69 84 70 85 71 86 72 87
REMARK SMILES IDX 48 88 49 89 58 90 50 91 51 92 57 93 59 94 52 95 53 96 54 97
REMARK SMILES IDX 55 98 56 99
REMARK H PARENT 13 7 8 11 18 30 80 49 46 60
REMARK Flexibility Score: inf
ROOT
ATOM      1  C   UNL A   1      34.533  29.069  27.670  1.00  0.00     0.023 C 
ENDROOT
BRANCH   1   2
ATOM      2  C   UNL A   1      34.282  28.727  26.201  1.00  0.00     0.023 C 
BRANCH   2   3
ATOM      3  C   UNL A   1      33.304  29.657  25.484  1.00  0.00     0.116 C 
BRANCH   3   4
ATOM      4  N   UNL A   1      33.408  29.505  24.051  1.00  0.00    -0.354 N 
ATOM      5  C   UNL A   1      33.047  28.484  23.227  1.00  0.00     0.250 C 
ATOM      6  O   UNL A   1      33.635  28.474  22.134  1.00  0.00    -0.272 OA
ATOM      7  H   UNL A   1      33.810  30.276  23.590  1.00  0.00     0.163 HD
BRANCH   5   8
ATOM      8  C   UNL A   1      31.987  27.349  23.593  1.00  0.00     0.139 C 
ATOM      9  C   UNL A   1      31.302  27.434  24.981  1.00  0.00     0.051 C 
BRANCH   8  10
ATOM     10  N   UNL A   1      30.863  27.476  22.603  1.00  0.00    -0.368 N 
ATOM     11  H   UNL A   1      30.949  26.950  21.775  1.00  0.00     0.161 HD
BRANCH  10  12
ATOM     12  C   UNL A   1      29.711  28.255  22.720  1.00  0.00     0.038 A 
ATOM     13  C   UNL A   1      28.780  31.879  21.864  1.00  0.00     0.044 C 
ATOM     14  C   UNL A   1      28.670  30.455  22.315  1.00  0.00    -0.046 A 
ATOM     15  C   UNL A   1      27.458  29.973  22.808  1.00  0.00     0.042 A 
ATOM     16  C   UNL A   1      29.773  29.585  22.258  1.00  0.00     0.029 A 
ATOM     17  C   UNL A   1      27.376  28.660  23.244  1.00  0.00     0.125 A 
ATOM     18  F   UNL A   1      26.212  28.198  23.721  1.00  0.00    -0.207 F 
ATOM     19  C   UNL A   1      28.481  27.811  23.206  1.00  0.00     0.065 A 
ENDBRANCH  10  12
ENDBRANCH   8  10
BRANCH   8  20
ATOM     20  C   UNL A   1      32.700  25.965  23.420  1.00  0.00    -0.011 A 
ATOM     21  C   UNL A   1      32.353  25.040  22.412  1.00  0.00     0.007 A 
ATOM     22  C   UNL A   1      33.823  25.624  24.205  1.00  0.00     0.046 A 
ATOM     23  C   UNL A   1      33.072  23.849  22.215  1.00  0.00     0.003 A 
ATOM     24  C   UNL A   1      34.554  24.457  23.980  1.00  0.00     0.123 A 
ATOM     25  C   UNL A   1      34.185  23.562  22.993  1.00  0.00     0.039 A 
ATOM     26  F   UNL A   1      35.647  24.218  24.716  1.00  0.00    -0.207 F 
ENDBRANCH   8  20
ENDBRANCH   5   8
ENDBRANCH   3   4
ENDBRANCH   2   3
ENDBRANCH   1   2
BRANCH   1  27
ATOM     27  C   UNL A   1      35.410  30.292  27.908  1.00  0.00     0.116 C 
BRANCH  27  28
ATOM     28  N   UNL A   1      35.432  30.734  29.293  1.00  0.00    -0.352 N 
ATOM     29  C   UNL A   1      36.452  30.616  30.210  1.00  0.00     0.251 C 
ATOM     30  H   UNL A   1      34.613  31.173  29.617  1.00  0.00     0.163 HD
ATOM     31  O   UNL A   1      36.285  30.966  31.370  1.00  0.00    -0.269 OA
BRANCH  29  32
ATOM     32  C   UNL A   1      37.730  30.012  29.781  1.00  0.00     0.039 A 
ATOM     33  C   UNL A   1      38.111  30.127  28.442  1.00  0.00     0.014 A 
ATOM     34  C   UNL A   1      38.571  29.390  30.707  1.00  0.00     0.014 A 
ATOM     35  C   UNL A   1      39.374  29.684  28.047  1.00  0.00     0.010 A 
ATOM     36  C   UNL A   1      39.855  29.015  30.327  1.00  0.00     0.010 A 
ATOM     37  C   UNL A   1      40.270  29.161  28.995  1.00  0.00    -0.014 A 
BRANCH  37  38
ATOM     38  C   UNL A   1      41.646  28.758  28.612  1.00  0.00     0.031 A 
ATOM     39  C   UNL A   1      42.745  29.783  28.585  1.00  0.00     0.074 A 
ATOM     40  C   UNL A   1      41.887  27.489  28.230  1.00  0.00     0.049 A 
ATOM     41  N   UNL A   1      43.990  29.649  28.208  1.00  0.00    -0.248 NA
ATOM     42  C   UNL A   1      42.391  31.148  29.011  1.00  0.00     0.031 C 
ATOM     43  C   UNL A   1      40.890  26.417  28.164  1.00  0.00     0.029 A 
ATOM     44  N   UNL A   1      43.048  26.884  27.817  1.00  0.00    -0.354 N 
ATOM     45  C   UNL A   1      44.563  30.908  28.340  1.00  0.00     0.074 A 
ATOM     46  C   UNL A   1      43.516  31.806  28.777  1.00  0.00     0.031 C 
ATOM     47  C   UNL A   1      41.488  25.283  27.764  1.00  0.00     0.029 A 
ATOM     48  C   UNL A   1      42.900  25.551  27.516  1.00  0.00     0.049 A 
ATOM     49  H   UNL A   1      43.906  27.361  27.745  1.00  0.00     0.167 HD
ATOM     50  C   UNL A   1      45.850  31.278  28.143  1.00  0.00     0.037 A 
ATOM     51  C   UNL A   1      43.804  24.649  27.087  1.00  0.00     0.037 A 
ATOM     52  C   UNL A   1      46.894  30.374  27.739  1.00  0.00     0.049 A 
ATOM     53  C   UNL A   1      45.231  25.081  26.889  1.00  0.00     0.074 A 
ATOM     54  C   UNL A   1      48.239  30.640  27.548  1.00  0.00     0.029 A 
ATOM     55  N   UNL A   1      46.712  29.024  27.475  1.00  0.00    -0.354 N 
ATOM     56  N   UNL A   1      45.764  26.268  27.061  1.00  0.00    -0.248 NA
ATOM     57  C   UNL A   1      46.182  24.052  26.447  1.00  0.00     0.031 C 
ATOM     58  C   UNL A   1      48.866  29.454  27.147  1.00  0.00     0.029 A 
ATOM     59  C   UNL A   1      47.917  28.445  27.120  1.00  0.00     0.049 A 
ATOM     60  H   UNL A   1      45.851  28.549  27.531  1.00  0.00     0.167 HD
ATOM     61  C   UNL A   1      47.117  26.121  26.776  1.00  0.00     0.074 A 
ATOM     62  C   UNL A   1      47.322  24.728  26.430  1.00  0.00     0.031 C 
ATOM     63  C   UNL A   1      48.101  27.052  26.797  1.00  0.00     0.037 A 
BRANCH  50  64
ATOM     64  C   UNL A   1      46.202  32.719  28.384  1.00  0.00     0.058 A 
ATOM     65  C   UNL A   1      46.612  33.166  29.652  1.00  0.00     0.135 A 
ATOM     66  C   UNL A   1      46.153  33.657  27.342  1.00  0.00     0.135 A 
ATOM     67  F   UNL A   1      46.658  32.315  30.688  1.00  0.00    -0.206 F 
ATOM     68  C   UNL A   1      46.933  34.500  29.883  1.00  0.00     0.059 A 
ATOM     69  C   UNL A   1      46.494  34.991  27.544  1.00  0.00     0.059 A 
ATOM     70  F   UNL A   1      45.765  33.281  26.113  1.00  0.00    -0.206 F 
ATOM     71  C   UNL A   1      46.869  35.405  28.822  1.00  0.00     0.060 A 
BRANCH  71  72
ATOM     72  S   UNL A   1      47.292  37.132  29.137  1.00  0.00     0.124 S 
ATOM     73  O   UNL A   1      46.663  37.797  28.000  1.00  0.00    -0.237 OA
ATOM     74  O   UNL A   1      46.672  37.375  30.435  1.00  0.00    -0.237 OA
ATOM     75  O   UNL A   1      48.752  37.129  29.134  1.00  0.00    -0.744 OA
ENDBRANCH  71  72
ENDBRANCH  50  64
BRANCH  51  76
ATOM     76  C   UNL A   1      43.399  23.238  26.848  1.00  0.00     0.058 A 
ATOM     77  C   UNL A   1      43.115  22.382  27.923  1.00  0.00     0.135 A 
ATOM     78  C   UNL A   1      43.297  22.715  25.551  1.00  0.00     0.135 A 
ATOM     79  F   UNL A   1      43.203  22.837  29.182  1.00  0.00    -0.206 F 
ATOM     80  C   UNL A   1      42.769  21.051  27.723  1.00  0.00     0.059 A 
ATOM     81  C   UNL A   1      42.932  21.391  25.324  1.00  0.00     0.059 A 
ATOM     82  F   UNL A   1      43.540  23.498  24.489  1.00  0.00    -0.206 F 
ATOM     83  C   UNL A   1      42.684  20.562  26.418  1.00  0.00     0.060 A 
BRANCH  83  84
ATOM     84  S   UNL A   1      42.209  18.839  26.165  1.00  0.00     0.124 S 
ATOM     85  O   UNL A   1      42.446  18.272  27.488  1.00  0.00    -0.237 OA
ATOM     86  O   UNL A   1      40.810  18.960  25.764  1.00  0.00    -0.237 OA
ATOM     87  O   UNL A   1      43.117  18.394  25.113  1.00  0.00    -0.744 OA
ENDBRANCH  83  84
ENDBRANCH  51  76
BRANCH  63  88
ATOM     88  C   UNL A   1      49.494  26.589  26.477  1.00  0.00     0.058 A 
ATOM     89  C   UNL A   1      50.337  26.061  27.465  1.00  0.00     0.135 A 
ATOM     90  C   UNL A   1      49.970  26.636  25.158  1.00  0.00     0.135 A 
ATOM     91  F   UNL A   1      49.928  26.001  28.742  1.00  0.00    -0.206 F 
ATOM     92  C   UNL A   1      51.618  25.612  27.159  1.00  0.00     0.059 A 
ATOM     93  C   UNL A   1      51.239  26.174  24.826  1.00  0.00     0.059 A 
ATOM     94  F   UNL A   1      49.197  27.126  24.175  1.00  0.00    -0.206 F 
ATOM     95  C   UNL A   1      52.060  25.674  25.836  1.00  0.00     0.060 A 
BRANCH  95  96
ATOM     96  S   UNL A   1      53.712  25.060  25.444  1.00  0.00     0.124 S 
ATOM     97  O   UNL A   1      53.459  23.636  25.259  1.00  0.00    -0.237 OA
ATOM     98  O   UNL A   1      54.047  25.808  24.235  1.00  0.00    -0.237 OA
ATOM     99  O   UNL A   1      54.493  25.413  26.626  1.00  0.00    -0.744 OA
ENDBRANCH  95  96
ENDBRANCH  63  88
ENDBRANCH  37  38
ENDBRANCH  29  32
ENDBRANCH  27  28
ENDBRANCH   1  27
TORSDOF 17
ENDMDL
