MODEL 1
REMARK VINA RESULT:     -12.9      0.000      0.000
REMARK SMILES O=C(NCCCCNC(=O)c1cc2c(C(F)(F)F)onc2c2ccccc12)c1ccc(-c2c3nc(c(-c4c(F)cc(S(=O)(=O)[O-])cc4F)c4ccc([nH]4)c(-c4c(F)cc(S(=O)(=O)[O-])cc4F)c4nc(c(-c5c(F)cc(S(=O)(=O)[O-])cc5F)c5ccc2[nH]5)C=C4)C=C3)cc1
REMARK SMILES IDX 4 1 3 2 1 3 2 4 28 6 29 7 93 8 30 9 92 10 31 11 32 12 33 13
REMARK SMILES IDX 86 14 34 15 91 16 85 17 87 18 35 19 90 20 84 21 83 22 36 24
REMARK SMILES IDX 70 25 49 26 69 27 50 28 53 29 68 30 88 31 51 32 52 33 67 35
REMARK SMILES IDX 89 36 54 37 37 38 38 39 47 40 39 41 40 42 46 43 48 44 41 45
REMARK SMILES IDX 42 46 43 47 44 48 45 49 71 50 72 51 81 52 73 53 74 54 80 55
REMARK SMILES IDX 82 56 75 57 76 58 77 59 78 60 79 61 55 62 56 63 65 64 57 65
REMARK SMILES IDX 58 66 64 67 66 68 59 69 60 70 61 71 62 72 63 73 5 74 6 75
REMARK SMILES IDX 7 76 8 77 9 78 10 80 11 81 12 82 27 83 13 84 22 85 26 86
REMARK SMILES IDX 14 87 21 88 23 89 25 90 19 91 20 92 24 93 15 94 16 95 17 96
REMARK SMILES IDX 18 97
REMARK H PARENT 3 5 87 23 53 34 8 79
REMARK Flexibility Score: inf
ROOT
ATOM      1  C   UNL A   1      39.963  22.830  27.230  1.00  0.00     0.116 C 
ENDROOT
BRANCH   1   2
ATOM      2  N   UNL A   1      41.283  22.402  26.743  1.00  0.00    -0.352 N 
ATOM      3  O   UNL A   1      43.142  22.744  25.456  1.00  0.00    -0.269 OA
ATOM      4  C   UNL A   1      42.258  23.208  26.145  1.00  0.00     0.251 C 
ATOM      5  H   UNL A   1      41.504  21.449  26.850  1.00  0.00     0.163 HD
BRANCH   4   6
ATOM      6  C   UNL A   1      42.183  24.656  26.428  1.00  0.00     0.039 A 
ATOM      7  C   UNL A   1      41.361  25.553  25.743  1.00  0.00     0.014 A 
ATOM      8  C   UNL A   1      42.889  25.051  27.549  1.00  0.00     0.014 A 
ATOM      9  C   UNL A   1      41.201  26.834  26.279  1.00  0.00     0.010 A 
ATOM     10  C   UNL A   1      42.452  26.144  28.227  1.00  0.00     0.010 A 
ATOM     11  C   UNL A   1      41.740  27.113  27.546  1.00  0.00    -0.014 A 
BRANCH  11  12
ATOM     12  C   UNL A   1      41.554  28.376  28.250  1.00  0.00     0.031 A 
ATOM     13  C   UNL A   1      42.620  29.377  28.003  1.00  0.00     0.074 A 
ATOM     14  C   UNL A   1      40.405  28.676  28.906  1.00  0.00     0.049 A 
ATOM     15  N   UNL A   1      43.551  29.734  28.821  1.00  0.00    -0.248 NA
ATOM     16  C   UNL A   1      42.795  29.907  26.641  1.00  0.00     0.031 C 
ATOM     17  C   UNL A   1      39.153  27.904  29.000  1.00  0.00     0.029 A 
ATOM     18  N   UNL A   1      40.077  29.814  29.572  1.00  0.00    -0.354 N 
ATOM     19  C   UNL A   1      44.272  30.727  28.168  1.00  0.00     0.074 A 
ATOM     20  C   UNL A   1      43.909  30.631  26.779  1.00  0.00     0.031 C 
ATOM     21  C   UNL A   1      38.152  28.690  29.449  1.00  0.00     0.029 A 
ATOM     22  C   UNL A   1      38.721  29.951  29.874  1.00  0.00     0.049 A 
ATOM     23  H   UNL A   1      40.745  30.492  29.823  1.00  0.00     0.167 HD
ATOM     24  C   UNL A   1      44.908  31.704  28.873  1.00  0.00     0.037 A 
ATOM     25  C   UNL A   1      38.120  31.023  30.449  1.00  0.00     0.037 A 
ATOM     26  C   UNL A   1      44.987  31.357  30.274  1.00  0.00     0.049 A 
ATOM     27  C   UNL A   1      39.197  31.772  31.150  1.00  0.00     0.074 A 
ATOM     28  C   UNL A   1      45.550  30.308  30.976  1.00  0.00     0.029 A 
ATOM     29  N   UNL A   1      44.061  31.922  31.121  1.00  0.00    -0.354 N 
ATOM     30  N   UNL A   1      39.853  31.294  32.176  1.00  0.00    -0.248 NA
ATOM     31  C   UNL A   1      39.884  32.812  30.401  1.00  0.00     0.031 C 
ATOM     32  C   UNL A   1      44.600  29.995  31.992  1.00  0.00     0.029 A 
ATOM     33  C   UNL A   1      43.559  30.923  31.917  1.00  0.00     0.049 A 
ATOM     34  H   UNL A   1      43.805  32.873  31.150  1.00  0.00     0.167 HD
ATOM     35  C   UNL A   1      41.176  31.651  31.953  1.00  0.00     0.074 A 
ATOM     36  C   UNL A   1      41.122  32.642  30.876  1.00  0.00     0.031 C 
ATOM     37  C   UNL A   1      42.209  30.903  32.442  1.00  0.00     0.037 A 
BRANCH  24  38
ATOM     38  C   UNL A   1      45.125  33.117  28.389  1.00  0.00     0.058 A 
ATOM     39  C   UNL A   1      46.441  33.611  28.284  1.00  0.00     0.135 A 
ATOM     40  C   UNL A   1      44.101  34.083  28.288  1.00  0.00     0.135 A 
ATOM     41  F   UNL A   1      47.494  32.780  28.368  1.00  0.00    -0.206 F 
ATOM     42  C   UNL A   1      46.721  34.972  28.164  1.00  0.00     0.059 A 
ATOM     43  C   UNL A   1      44.356  35.440  28.116  1.00  0.00     0.059 A 
ATOM     44  F   UNL A   1      42.808  33.780  28.451  1.00  0.00    -0.206 F 
ATOM     45  C   UNL A   1      45.668  35.880  28.096  1.00  0.00     0.060 A 
BRANCH  45  46
ATOM     46  S   UNL A   1      46.028  37.643  28.044  1.00  0.00     0.124 S 
ATOM     47  O   UNL A   1      46.399  37.905  29.430  1.00  0.00    -0.237 OA
ATOM     48  O   UNL A   1      47.112  37.698  27.070  1.00  0.00    -0.237 OA
ATOM     49  O   UNL A   1      44.766  38.230  27.606  1.00  0.00    -0.744 OA
ENDBRANCH  45  46
ENDBRANCH  24  38
BRANCH  25  50
ATOM     50  C   UNL A   1      36.792  31.620  30.127  1.00  0.00     0.058 A 
ATOM     51  C   UNL A   1      36.051  32.310  31.105  1.00  0.00     0.135 A 
ATOM     52  C   UNL A   1      36.360  31.788  28.795  1.00  0.00     0.135 A 
ATOM     53  F   UNL A   1      36.391  32.215  32.399  1.00  0.00    -0.206 F 
ATOM     54  C   UNL A   1      34.994  33.168  30.777  1.00  0.00     0.059 A 
ATOM     55  C   UNL A   1      35.306  32.634  28.444  1.00  0.00     0.059 A 
ATOM     56  F   UNL A   1      37.010  31.201  27.778  1.00  0.00    -0.206 F 
ATOM     57  C   UNL A   1      34.648  33.347  29.439  1.00  0.00     0.060 A 
BRANCH  57  58
ATOM     58  S   UNL A   1      33.419  34.602  28.999  1.00  0.00     0.124 S 
ATOM     59  O   UNL A   1      32.570  33.880  28.057  1.00  0.00    -0.237 OA
ATOM     60  O   UNL A   1      32.818  34.909  30.292  1.00  0.00    -0.237 OA
ATOM     61  O   UNL A   1      34.222  35.675  28.418  1.00  0.00    -0.744 OA
ENDBRANCH  57  58
ENDBRANCH  25  50
BRANCH  37  62
ATOM     62  C   UNL A   1      41.904  29.825  33.457  1.00  0.00     0.058 A 
ATOM     63  C   UNL A   1      41.617  28.483  33.144  1.00  0.00     0.135 A 
ATOM     64  C   UNL A   1      42.099  30.131  34.814  1.00  0.00     0.135 A 
ATOM     65  F   UNL A   1      41.508  28.081  31.871  1.00  0.00    -0.206 F 
ATOM     66  C   UNL A   1      41.503  27.500  34.132  1.00  0.00     0.059 A 
ATOM     67  C   UNL A   1      42.020  29.163  35.811  1.00  0.00     0.059 A 
ATOM     68  F   UNL A   1      42.434  31.379  35.177  1.00  0.00    -0.206 F 
ATOM     69  C   UNL A   1      41.712  27.850  35.465  1.00  0.00     0.060 A 
BRANCH  69  70
ATOM     70  S   UNL A   1      41.644  26.567  36.736  1.00  0.00     0.124 S 
ATOM     71  O   UNL A   1      41.584  25.346  35.937  1.00  0.00    -0.237 OA
ATOM     72  O   UNL A   1      42.887  26.782  37.471  1.00  0.00    -0.237 OA
ATOM     73  O   UNL A   1      40.426  26.885  37.478  1.00  0.00    -0.744 OA
ENDBRANCH  69  70
ENDBRANCH  37  62
ENDBRANCH  11  12
ENDBRANCH   4   6
ENDBRANCH   1   2
BRANCH   1  74
ATOM     74  C   UNL A   1      38.819  22.585  26.261  1.00  0.00     0.023 C 
BRANCH  74  75
ATOM     75  C   UNL A   1      37.915  23.797  26.015  1.00  0.00     0.023 C 
BRANCH  75  76
ATOM     76  C   UNL A   1      36.422  23.528  25.813  1.00  0.00     0.116 C 
BRANCH  76  77
ATOM     77  N   UNL A   1      35.942  23.800  24.464  1.00  0.00    -0.352 N 
ATOM     78  C   UNL A   1      34.799  24.456  24.062  1.00  0.00     0.251 C 
ATOM     79  H   UNL A   1      36.518  23.471  23.737  1.00  0.00     0.163 HD
ATOM     80  O   UNL A   1      34.511  24.541  22.874  1.00  0.00    -0.269 OA
BRANCH  78  81
ATOM     81  C   UNL A   1      33.850  24.964  25.083  1.00  0.00     0.048 A 
ATOM     82  C   UNL A   1      34.083  26.312  25.453  1.00  0.00     0.029 A 
ATOM     83  C   UNL A   1      32.729  24.150  25.518  1.00  0.00    -0.003 A 
ATOM     84  C   UNL A   1      33.027  26.813  26.200  1.00  0.00     0.056 A 
ATOM     85  C   UNL A   1      31.644  24.740  26.240  1.00  0.00     0.012 A 
ATOM     86  C   UNL A   1      32.607  22.771  25.237  1.00  0.00     0.009 A 
ATOM     87  C   UNL A   1      32.900  28.089  26.673  1.00  0.00     0.248 A 
ATOM     88  C   UNL A   1      31.826  26.113  26.585  1.00  0.00     0.122 A 
ATOM     89  C   UNL A   1      30.475  24.014  26.549  1.00  0.00     0.011 A 
ATOM     90  C   UNL A   1      31.447  22.051  25.546  1.00  0.00     0.001 A 
ATOM     91  O   UNL A   1      31.693  28.181  27.302  1.00  0.00    -0.350 OA
ATOM     92  N   UNL A   1      31.026  26.973  27.244  1.00  0.00    -0.079 NA
ATOM     93  C   UNL A   1      30.375  22.677  26.177  1.00  0.00     0.001 A 
BRANCH  87  94
ATOM     94  C   UNL A   1      33.703  29.319  26.651  1.00  0.00     0.453 C 
ATOM     95  F   UNL A   1      35.009  29.078  26.942  1.00  0.00    -0.163 F 
ATOM     96  F   UNL A   1      33.682  29.924  25.435  1.00  0.00    -0.163 F 
ATOM     97  F   UNL A   1      33.278  30.243  27.551  1.00  0.00    -0.163 F 
ENDBRANCH  87  94
ENDBRANCH  78  81
ENDBRANCH  76  77
ENDBRANCH  75  76
ENDBRANCH  74  75
ENDBRANCH   1  74
TORSDOF 15
ENDMDL
MODEL 2
REMARK VINA RESULT:     -12.6      1.172      1.662
REMARK SMILES O=C(NCCCCNC(=O)c1cc2c(C(F)(F)F)onc2c2ccccc12)c1ccc(-c2c3nc(c(-c4c(F)cc(S(=O)(=O)[O-])cc4F)c4ccc([nH]4)c(-c4c(F)cc(S(=O)(=O)[O-])cc4F)c4nc(c(-c5c(F)cc(S(=O)(=O)[O-])cc5F)c5ccc2[nH]5)C=C4)C=C3)cc1
REMARK SMILES IDX 4 1 3 2 1 3 2 4 28 6 29 7 93 8 30 9 92 10 31 11 32 12 33 13
REMARK SMILES IDX 86 14 34 15 91 16 85 17 87 18 35 19 90 20 84 21 83 22 36 24
REMARK SMILES IDX 70 25 49 26 69 27 50 28 53 29 68 30 88 31 51 32 52 33 67 35
REMARK SMILES IDX 89 36 54 37 37 38 38 39 47 40 39 41 40 42 46 43 48 44 41 45
REMARK SMILES IDX 42 46 43 47 44 48 45 49 71 50 72 51 81 52 73 53 74 54 80 55
REMARK SMILES IDX 82 56 75 57 76 58 77 59 78 60 79 61 55 62 56 63 65 64 57 65
REMARK SMILES IDX 58 66 64 67 66 68 59 69 60 70 61 71 62 72 63 73 5 74 6 75
REMARK SMILES IDX 7 76 8 77 9 78 10 80 11 81 12 82 27 83 13 84 22 85 26 86
REMARK SMILES IDX 14 87 21 88 23 89 25 90 19 91 20 92 24 93 15 94 16 95 17 96
REMARK SMILES IDX 18 97
REMARK H PARENT 3 5 87 23 53 34 8 79
REMARK Flexibility Score: inf
ROOT
ATOM      1  C   UNL A   1      40.993  22.864  27.514  1.00  0.00     0.116 C 
ENDROOT
BRANCH   1   2
ATOM      2  N   UNL A   1      42.135  22.632  26.618  1.00  0.00    -0.352 N 
ATOM      3  O   UNL A   1      43.414  23.231  24.819  1.00  0.00    -0.269 OA
ATOM      4  C   UNL A   1      42.740  23.566  25.770  1.00  0.00     0.251 C 
ATOM      5  H   UNL A   1      42.514  21.723  26.613  1.00  0.00     0.163 HD
BRANCH   4   6
ATOM      6  C   UNL A   1      42.550  24.990  26.114  1.00  0.00     0.039 A 
ATOM      7  C   UNL A   1      41.589  25.822  25.537  1.00  0.00     0.014 A 
ATOM      8  C   UNL A   1      43.310  25.419  27.188  1.00  0.00     0.014 A 
ATOM      9  C   UNL A   1      41.354  27.064  26.135  1.00  0.00     0.010 A 
ATOM     10  C   UNL A   1      42.831  26.442  27.942  1.00  0.00     0.010 A 
ATOM     11  C   UNL A   1      41.972  27.355  27.362  1.00  0.00    -0.014 A 
BRANCH  11  12
ATOM     12  C   UNL A   1      41.727  28.571  28.129  1.00  0.00     0.031 A 
ATOM     13  C   UNL A   1      42.780  29.606  27.987  1.00  0.00     0.074 A 
ATOM     14  C   UNL A   1      40.545  28.810  28.749  1.00  0.00     0.049 A 
ATOM     15  N   UNL A   1      43.667  29.933  28.865  1.00  0.00    -0.248 NA
ATOM     16  C   UNL A   1      43.002  30.218  26.666  1.00  0.00     0.031 C 
ATOM     17  C   UNL A   1      39.307  28.008  28.743  1.00  0.00     0.029 A 
ATOM     18  N   UNL A   1      40.163  29.900  29.463  1.00  0.00    -0.354 N 
ATOM     19  C   UNL A   1      44.393  30.977  28.302  1.00  0.00     0.074 A 
ATOM     20  C   UNL A   1      44.092  30.955  26.895  1.00  0.00     0.031 C 
ATOM     21  C   UNL A   1      38.270  28.747  29.192  1.00  0.00     0.029 A 
ATOM     22  C   UNL A   1      38.793  29.992  29.712  1.00  0.00     0.049 A 
ATOM     23  H   UNL A   1      40.804  30.575  29.782  1.00  0.00     0.167 HD
ATOM     24  C   UNL A   1      44.976  31.923  29.090  1.00  0.00     0.037 A 
ATOM     25  C   UNL A   1      38.143  31.016  30.320  1.00  0.00     0.037 A 
ATOM     26  C   UNL A   1      45.002  31.497  30.470  1.00  0.00     0.049 A 
ATOM     27  C   UNL A   1      39.172  31.744  31.111  1.00  0.00     0.074 A 
ATOM     28  C   UNL A   1      45.558  30.421  31.135  1.00  0.00     0.029 A 
ATOM     29  N   UNL A   1      44.028  31.993  31.306  1.00  0.00    -0.354 N 
ATOM     30  N   UNL A   1      39.793  31.221  32.135  1.00  0.00    -0.248 NA
ATOM     31  C   UNL A   1      39.867  32.840  30.453  1.00  0.00     0.031 C 
ATOM     32  C   UNL A   1      44.572  30.029  32.088  1.00  0.00     0.029 A 
ATOM     33  C   UNL A   1      43.514  30.939  32.021  1.00  0.00     0.049 A 
ATOM     34  H   UNL A   1      43.749  32.935  31.379  1.00  0.00     0.167 HD
ATOM     35  C   UNL A   1      41.116  31.617  31.992  1.00  0.00     0.074 A 
ATOM     36  C   UNL A   1      41.087  32.668  30.973  1.00  0.00     0.031 C 
ATOM     37  C   UNL A   1      42.144  30.862  32.484  1.00  0.00     0.037 A 
BRANCH  24  38
ATOM     38  C   UNL A   1      45.182  33.366  28.697  1.00  0.00     0.058 A 
ATOM     39  C   UNL A   1      46.480  33.912  28.749  1.00  0.00     0.135 A 
ATOM     40  C   UNL A   1      44.134  34.299  28.540  1.00  0.00     0.135 A 
ATOM     41  F   UNL A   1      47.553  33.116  28.899  1.00  0.00    -0.206 F 
ATOM     42  C   UNL A   1      46.715  35.286  28.723  1.00  0.00     0.059 A 
ATOM     43  C   UNL A   1      44.349  35.671  28.458  1.00  0.00     0.059 A 
ATOM     44  F   UNL A   1      42.845  33.942  28.556  1.00  0.00    -0.206 F 
ATOM     45  C   UNL A   1      45.638  36.158  28.592  1.00  0.00     0.060 A 
BRANCH  45  46
ATOM     46  S   UNL A   1      45.929  37.934  28.661  1.00  0.00     0.124 S 
ATOM     47  O   UNL A   1      46.925  38.106  27.611  1.00  0.00    -0.237 OA
ATOM     48  O   UNL A   1      44.600  38.465  28.376  1.00  0.00    -0.237 OA
ATOM     49  O   UNL A   1      46.404  38.143  30.024  1.00  0.00    -0.744 OA
ENDBRANCH  45  46
ENDBRANCH  24  38
BRANCH  25  50
ATOM     50  C   UNL A   1      36.817  31.605  29.975  1.00  0.00     0.058 A 
ATOM     51  C   UNL A   1      35.992  32.166  30.968  1.00  0.00     0.135 A 
ATOM     52  C   UNL A   1      36.463  31.898  28.641  1.00  0.00     0.135 A 
ATOM     53  F   UNL A   1      36.254  31.946  32.264  1.00  0.00    -0.206 F 
ATOM     54  C   UNL A   1      34.928  33.023  30.661  1.00  0.00     0.059 A 
ATOM     55  C   UNL A   1      35.404  32.745  28.311  1.00  0.00     0.059 A 
ATOM     56  F   UNL A   1      37.197  31.441  27.615  1.00  0.00    -0.206 F 
ATOM     57  C   UNL A   1      34.659  33.331  29.328  1.00  0.00     0.060 A 
BRANCH  57  58
ATOM     58  S   UNL A   1      33.416  34.588  28.939  1.00  0.00     0.124 S 
ATOM     59  O   UNL A   1      32.568  33.891  27.978  1.00  0.00    -0.237 OA
ATOM     60  O   UNL A   1      32.821  34.846  30.246  1.00  0.00    -0.237 OA
ATOM     61  O   UNL A   1      34.205  35.688  28.389  1.00  0.00    -0.744 OA
ENDBRANCH  57  58
ENDBRANCH  25  50
BRANCH  37  62
ATOM     62  C   UNL A   1      41.820  29.721  33.421  1.00  0.00     0.058 A 
ATOM     63  C   UNL A   1      41.592  28.391  33.019  1.00  0.00     0.135 A 
ATOM     64  C   UNL A   1      41.933  29.956  34.800  1.00  0.00     0.135 A 
ATOM     65  F   UNL A   1      41.563  28.058  31.723  1.00  0.00    -0.206 F 
ATOM     66  C   UNL A   1      41.457  27.351  33.945  1.00  0.00     0.059 A 
ATOM     67  C   UNL A   1      41.832  28.932  35.738  1.00  0.00     0.059 A 
ATOM     68  F   UNL A   1      42.209  31.191  35.249  1.00  0.00    -0.206 F 
ATOM     69  C   UNL A   1      41.584  27.632  35.305  1.00  0.00     0.060 A 
BRANCH  69  70
ATOM     70  S   UNL A   1      41.489  26.279  36.499  1.00  0.00     0.124 S 
ATOM     71  O   UNL A   1      42.895  26.058  36.825  1.00  0.00    -0.237 OA
ATOM     72  O   UNL A   1      40.674  26.854  37.565  1.00  0.00    -0.237 OA
ATOM     73  O   UNL A   1      40.848  25.203  35.745  1.00  0.00    -0.744 OA
ENDBRANCH  69  70
ENDBRANCH  37  62
ENDBRANCH  11  12
ENDBRANCH   4   6
ENDBRANCH   1   2
BRANCH   1  74
ATOM     74  C   UNL A   1      39.631  22.664  26.873  1.00  0.00     0.023 C 
BRANCH  74  75
ATOM     75  C   UNL A   1      38.821  23.949  26.672  1.00  0.00     0.023 C 
BRANCH  75  76
ATOM     76  C   UNL A   1      37.425  23.809  26.059  1.00  0.00     0.116 C 
BRANCH  76  77
ATOM     77  N   UNL A   1      37.426  23.512  24.632  1.00  0.00    -0.352 N 
ATOM     78  C   UNL A   1      36.359  23.316  23.782  1.00  0.00     0.251 C 
ATOM     79  H   UNL A   1      38.315  23.444  24.216  1.00  0.00     0.163 HD
ATOM     80  O   UNL A   1      36.540  23.007  22.611  1.00  0.00    -0.269 OA
BRANCH  78  81
ATOM     81  C   UNL A   1      34.977  23.368  24.320  1.00  0.00     0.048 A 
ATOM     82  C   UNL A   1      34.437  24.677  24.369  1.00  0.00     0.029 A 
ATOM     83  C   UNL A   1      34.255  22.145  24.620  1.00  0.00    -0.003 A 
ATOM     84  C   UNL A   1      33.074  24.644  24.625  1.00  0.00     0.056 A 
ATOM     85  C   UNL A   1      32.840  22.171  24.822  1.00  0.00     0.012 A 
ATOM     86  C   UNL A   1      34.867  20.873  24.692  1.00  0.00     0.009 A 
ATOM     87  C   UNL A   1      32.232  25.720  24.686  1.00  0.00     0.248 A 
ATOM     88  C   UNL A   1      32.256  23.473  24.826  1.00  0.00     0.122 A 
ATOM     89  C   UNL A   1      32.089  20.987  24.968  1.00  0.00     0.011 A 
ATOM     90  C   UNL A   1      34.120  19.699  24.841  1.00  0.00     0.001 A 
ATOM     91  O   UNL A   1      30.971  25.249  24.900  1.00  0.00    -0.350 OA
ATOM     92  N   UNL A   1      30.978  23.869  24.979  1.00  0.00    -0.079 NA
ATOM     93  C   UNL A   1      32.733  19.754  24.953  1.00  0.00     0.001 A 
BRANCH  87  94
ATOM     94  C   UNL A   1      32.357  27.179  24.566  1.00  0.00     0.453 C 
ATOM     95  F   UNL A   1      31.172  27.809  24.781  1.00  0.00    -0.163 F 
ATOM     96  F   UNL A   1      33.239  27.694  25.461  1.00  0.00    -0.163 F 
ATOM     97  F   UNL A   1      32.779  27.572  23.336  1.00  0.00    -0.163 F 
ENDBRANCH  87  94
ENDBRANCH  78  81
ENDBRANCH  76  77
ENDBRANCH  75  76
ENDBRANCH  74  75
ENDBRANCH   1  74
TORSDOF 15
ENDMDL
MODEL 3
REMARK VINA RESULT:     -12.6      1.956      2.671
REMARK SMILES O=C(NCCCCNC(=O)c1cc2c(C(F)(F)F)onc2c2ccccc12)c1ccc(-c2c3nc(c(-c4c(F)cc(S(=O)(=O)[O-])cc4F)c4ccc([nH]4)c(-c4c(F)cc(S(=O)(=O)[O-])cc4F)c4nc(c(-c5c(F)cc(S(=O)(=O)[O-])cc5F)c5ccc2[nH]5)C=C4)C=C3)cc1
REMARK SMILES IDX 4 1 3 2 1 3 2 4 28 6 29 7 93 8 30 9 92 10 31 11 32 12 33 13
REMARK SMILES IDX 86 14 34 15 91 16 85 17 87 18 35 19 90 20 84 21 83 22 36 24
REMARK SMILES IDX 70 25 49 26 69 27 50 28 53 29 68 30 88 31 51 32 52 33 67 35
REMARK SMILES IDX 89 36 54 37 37 38 38 39 47 40 39 41 40 42 46 43 48 44 41 45
REMARK SMILES IDX 42 46 43 47 44 48 45 49 71 50 72 51 81 52 73 53 74 54 80 55
REMARK SMILES IDX 82 56 75 57 76 58 77 59 78 60 79 61 55 62 56 63 65 64 57 65
REMARK SMILES IDX 58 66 64 67 66 68 59 69 60 70 61 71 62 72 63 73 5 74 6 75
REMARK SMILES IDX 7 76 8 77 9 78 10 80 11 81 12 82 27 83 13 84 22 85 26 86
REMARK SMILES IDX 14 87 21 88 23 89 25 90 19 91 20 92 24 93 15 94 16 95 17 96
REMARK SMILES IDX 18 97
REMARK H PARENT 3 5 87 23 53 34 8 79
REMARK Flexibility Score: inf
ROOT
ATOM      1  C   UNL A   1      38.393  22.457  25.585  1.00  0.00     0.116 C 
ENDROOT
BRANCH   1   2
ATOM      2  N   UNL A   1      39.268  21.723  26.512  1.00  0.00    -0.352 N 
ATOM      3  O   UNL A   1      41.240  21.511  27.650  1.00  0.00    -0.269 OA
ATOM      4  C   UNL A   1      40.371  22.232  27.205  1.00  0.00     0.251 C 
ATOM      5  H   UNL A   1      39.054  20.774  26.661  1.00  0.00     0.163 HD
BRANCH   4   6
ATOM      6  C   UNL A   1      40.408  23.695  27.406  1.00  0.00     0.039 A 
ATOM      7  C   UNL A   1      39.297  24.535  27.306  1.00  0.00     0.014 A 
ATOM      8  C   UNL A   1      41.622  24.173  27.864  1.00  0.00     0.014 A 
ATOM      9  C   UNL A   1      39.426  25.848  27.768  1.00  0.00     0.010 A 
ATOM     10  C   UNL A   1      41.622  25.305  28.615  1.00  0.00     0.010 A 
ATOM     11  C   UNL A   1      40.598  26.217  28.448  1.00  0.00    -0.014 A 
BRANCH  11  12
ATOM     12  C   UNL A   1      40.807  27.523  29.062  1.00  0.00     0.031 A 
ATOM     13  C   UNL A   1      41.876  28.333  28.429  1.00  0.00     0.074 A 
ATOM     14  C   UNL A   1      39.960  28.028  29.994  1.00  0.00     0.049 A 
ATOM     15  N   UNL A   1      43.050  28.575  28.908  1.00  0.00    -0.248 NA
ATOM     16  C   UNL A   1      41.705  28.770  27.034  1.00  0.00     0.031 C 
ATOM     17  C   UNL A   1      38.700  27.467  30.514  1.00  0.00     0.029 A 
ATOM     18  N   UNL A   1      40.006  29.231  30.623  1.00  0.00    -0.354 N 
ATOM     19  C   UNL A   1      43.670  29.413  27.989  1.00  0.00     0.074 A 
ATOM     20  C   UNL A   1      42.898  29.315  26.779  1.00  0.00     0.031 C 
ATOM     21  C   UNL A   1      37.997  28.419  31.163  1.00  0.00     0.029 A 
ATOM     22  C   UNL A   1      38.835  29.591  31.292  1.00  0.00     0.049 A 
ATOM     23  H   UNL A   1      40.805  29.806  30.609  1.00  0.00     0.167 HD
ATOM     24  C   UNL A   1      44.616  30.308  28.391  1.00  0.00     0.037 A 
ATOM     25  C   UNL A   1      38.586  30.769  31.920  1.00  0.00     0.037 A 
ATOM     26  C   UNL A   1      45.063  30.013  29.733  1.00  0.00     0.049 A 
ATOM     27  C   UNL A   1      39.916  31.369  32.210  1.00  0.00     0.074 A 
ATOM     28  C   UNL A   1      45.661  28.921  30.331  1.00  0.00     0.029 A 
ATOM     29  N   UNL A   1      44.520  30.753  30.759  1.00  0.00    -0.354 N 
ATOM     30  N   UNL A   1      40.777  30.839  33.039  1.00  0.00    -0.248 NA
ATOM     31  C   UNL A   1      40.483  32.255  31.205  1.00  0.00     0.031 C 
ATOM     32  C   UNL A   1      45.026  28.804  31.602  1.00  0.00     0.029 A 
ATOM     33  C   UNL A   1      44.148  29.880  31.751  1.00  0.00     0.049 A 
ATOM     34  H   UNL A   1      44.417  31.732  30.778  1.00  0.00     0.167 HD
ATOM     35  C   UNL A   1      42.009  30.974  32.412  1.00  0.00     0.074 A 
ATOM     36  C   UNL A   1      41.771  31.914  31.315  1.00  0.00     0.031 C 
ATOM     37  C   UNL A   1      43.028  30.095  32.645  1.00  0.00     0.037 A 
BRANCH  24  38
ATOM     38  C   UNL A   1      44.869  31.647  27.742  1.00  0.00     0.058 A 
ATOM     39  C   UNL A   1      46.065  31.845  27.022  1.00  0.00     0.135 A 
ATOM     40  C   UNL A   1      44.127  32.814  28.024  1.00  0.00     0.135 A 
ATOM     41  F   UNL A   1      46.851  30.804  26.700  1.00  0.00    -0.206 F 
ATOM     42  C   UNL A   1      46.527  33.114  26.675  1.00  0.00     0.059 A 
ATOM     43  C   UNL A   1      44.543  34.085  27.642  1.00  0.00     0.059 A 
ATOM     44  F   UNL A   1      43.016  32.797  28.769  1.00  0.00    -0.206 F 
ATOM     45  C   UNL A   1      45.763  34.230  27.004  1.00  0.00     0.060 A 
BRANCH  45  46
ATOM     46  S   UNL A   1      46.406  35.873  26.648  1.00  0.00     0.124 S 
ATOM     47  O   UNL A   1      47.075  35.654  25.372  1.00  0.00    -0.237 OA
ATOM     48  O   UNL A   1      45.184  36.669  26.603  1.00  0.00    -0.237 OA
ATOM     49  O   UNL A   1      47.283  36.143  27.783  1.00  0.00    -0.744 OA
ENDBRANCH  45  46
ENDBRANCH  24  38
BRANCH  25  50
ATOM     50  C   UNL A   1      37.318  31.552  31.946  1.00  0.00     0.058 A 
ATOM     51  C   UNL A   1      36.721  31.926  33.165  1.00  0.00     0.135 A 
ATOM     52  C   UNL A   1      36.828  32.204  30.795  1.00  0.00     0.135 A 
ATOM     53  F   UNL A   1      37.126  31.364  34.313  1.00  0.00    -0.206 F 
ATOM     54  C   UNL A   1      35.751  32.933  33.246  1.00  0.00     0.059 A 
ATOM     55  C   UNL A   1      35.858  33.206  30.851  1.00  0.00     0.059 A 
ATOM     56  F   UNL A   1      37.344  31.948  29.583  1.00  0.00    -0.206 F 
ATOM     57  C   UNL A   1      35.347  33.590  32.085  1.00  0.00     0.060 A 
BRANCH  57  58
ATOM     58  S   UNL A   1      34.245  35.020  32.210  1.00  0.00     0.124 S 
ATOM     59  O   UNL A   1      35.081  35.988  32.913  1.00  0.00    -0.237 OA
ATOM     60  O   UNL A   1      33.968  35.318  30.809  1.00  0.00    -0.237 OA
ATOM     61  O   UNL A   1      33.109  34.509  32.973  1.00  0.00    -0.744 OA
ENDBRANCH  57  58
ENDBRANCH  25  50
BRANCH  37  62
ATOM     62  C   UNL A   1      42.897  29.123  33.795  1.00  0.00     0.058 A 
ATOM     63  C   UNL A   1      43.099  29.449  35.149  1.00  0.00     0.135 A 
ATOM     64  C   UNL A   1      42.361  27.855  33.522  1.00  0.00     0.135 A 
ATOM     65  F   UNL A   1      43.519  30.668  35.510  1.00  0.00    -0.206 F 
ATOM     66  C   UNL A   1      42.807  28.548  36.179  1.00  0.00     0.059 A 
ATOM     67  C   UNL A   1      42.034  26.954  34.531  1.00  0.00     0.059 A 
ATOM     68  F   UNL A   1      42.088  27.502  32.255  1.00  0.00    -0.206 F 
ATOM     69  C   UNL A   1      42.268  27.303  35.859  1.00  0.00     0.060 A 
BRANCH  69  70
ATOM     70  S   UNL A   1      41.815  26.168  37.191  1.00  0.00     0.124 S 
ATOM     71  O   UNL A   1      42.928  26.327  38.121  1.00  0.00    -0.237 OA
ATOM     72  O   UNL A   1      40.532  26.703  37.640  1.00  0.00    -0.237 OA
ATOM     73  O   UNL A   1      41.741  24.871  36.523  1.00  0.00    -0.744 OA
ENDBRANCH  69  70
ENDBRANCH  37  62
ENDBRANCH  11  12
ENDBRANCH   4   6
ENDBRANCH   1   2
BRANCH   1  74
ATOM     74  C   UNL A   1      37.378  21.596  24.853  1.00  0.00     0.023 C 
BRANCH  74  75
ATOM     75  C   UNL A   1      35.963  21.636  25.438  1.00  0.00     0.023 C 
BRANCH  75  76
ATOM     76  C   UNL A   1      35.606  22.831  26.326  1.00  0.00     0.116 C 
BRANCH  76  77
ATOM     77  N   UNL A   1      34.672  22.520  27.401  1.00  0.00    -0.352 N 
ATOM     78  C   UNL A   1      33.296  22.587  27.407  1.00  0.00     0.251 C 
ATOM     79  H   UNL A   1      35.083  22.217  28.242  1.00  0.00     0.163 HD
ATOM     80  O   UNL A   1      32.661  22.350  28.428  1.00  0.00    -0.269 OA
BRANCH  78  81
ATOM     81  C   UNL A   1      32.583  23.064  26.196  1.00  0.00     0.048 A 
ATOM     82  C   UNL A   1      32.286  24.449  26.221  1.00  0.00     0.029 A 
ATOM     83  C   UNL A   1      32.363  22.173  25.070  1.00  0.00    -0.003 A 
ATOM     84  C   UNL A   1      31.864  24.891  24.976  1.00  0.00     0.056 A 
ATOM     85  C   UNL A   1      31.979  22.699  23.797  1.00  0.00     0.012 A 
ATOM     86  C   UNL A   1      32.545  20.774  25.133  1.00  0.00     0.009 A 
ATOM     87  C   UNL A   1      31.548  26.177  24.634  1.00  0.00     0.248 A 
ATOM     88  C   UNL A   1      31.721  24.102  23.777  1.00  0.00     0.122 A 
ATOM     89  C   UNL A   1      31.901  21.882  22.650  1.00  0.00     0.011 A 
ATOM     90  C   UNL A   1      32.464  19.964  23.994  1.00  0.00     0.001 A 
ATOM     91  O   UNL A   1      31.241  26.189  23.305  1.00  0.00    -0.350 OA
ATOM     92  N   UNL A   1      31.353  24.920  22.772  1.00  0.00    -0.079 NA
ATOM     93  C   UNL A   1      32.168  20.521  22.753  1.00  0.00     0.001 A 
BRANCH  87  94
ATOM     94  C   UNL A   1      31.482  27.476  25.317  1.00  0.00     0.453 C 
ATOM     95  F   UNL A   1      32.706  28.057  25.421  1.00  0.00    -0.163 F 
ATOM     96  F   UNL A   1      30.686  28.360  24.662  1.00  0.00    -0.163 F 
ATOM     97  F   UNL A   1      30.998  27.381  26.582  1.00  0.00    -0.163 F 
ENDBRANCH  87  94
ENDBRANCH  78  81
ENDBRANCH  76  77
ENDBRANCH  75  76
ENDBRANCH  74  75
ENDBRANCH   1  74
TORSDOF 15
ENDMDL
