MODEL 1
REMARK VINA RESULT:     -10.6      0.000      0.000
REMARK SMILES O=C(NCCCCNC(=O)[C@@H]1C[C@H]1C(=O)N[C@@H]1CONC1=O)c1ccc(-c2c3nc(c(-c4c(F)cc(S(=O)(=O)[O-])cc4F)c4ccc([nH]4)c(-c4c(F)cc(S(=O)(=O)[O-])cc4F)c4nc(c(-c5c(F)cc(S(=O)(=O)[O-])cc5F)c5ccc2[nH]5)C=C4)C=C3)cc1
REMARK SMILES IDX 5 1 4 2 3 3 1 4 2 5 23 7 24 8 88 9 25 10 87 11 26 12 27 13
REMARK SMILES IDX 28 14 81 15 29 16 86 17 80 18 82 19 30 20 85 21 79 22 78 23
REMARK SMILES IDX 31 25 65 26 44 27 64 28 45 29 48 30 63 31 83 32 46 33 47 34
REMARK SMILES IDX 62 36 84 37 49 38 32 39 33 40 42 41 34 42 35 43 41 44 43 45
REMARK SMILES IDX 36 46 37 47 38 48 39 49 40 50 66 51 67 52 76 53 68 54 69 55
REMARK SMILES IDX 75 56 77 57 70 58 71 59 72 60 73 61 74 62 50 63 51 64 60 65
REMARK SMILES IDX 52 66 53 67 59 68 61 69 54 70 55 71 56 72 57 73 58 74 6 75
REMARK SMILES IDX 7 76 8 77 9 78 10 80 11 81 12 82 13 83 14 84 15 85 16 86
REMARK SMILES IDX 17 88 18 89 21 90 19 91 20 92 22 93
REMARK H PARENT 3 6 82 24 48 35 8 79 16 87 20 94
REMARK Flexibility Score: inf
ROOT
ATOM      1  C   UNL A   1      35.237  33.309  28.099  1.00  0.00     0.023 C 
ENDROOT
BRANCH   1   2
ATOM      2  C   UNL A   1      34.491  32.387  29.053  1.00  0.00     0.116 C 
BRANCH   2   3
ATOM      3  N   UNL A   1      33.932  31.216  28.392  1.00  0.00    -0.352 N 
ATOM      4  O   UNL A   1      33.954  29.255  27.275  1.00  0.00    -0.269 OA
ATOM      5  C   UNL A   1      34.565  30.077  27.954  1.00  0.00     0.251 C 
ATOM      6  H   UNL A   1      32.961  31.244  28.236  1.00  0.00     0.163 HD
BRANCH   5   7
ATOM      7  C   UNL A   1      35.990  29.862  28.277  1.00  0.00     0.039 A 
ATOM      8  C   UNL A   1      36.979  30.075  27.313  1.00  0.00     0.014 A 
ATOM      9  C   UNL A   1      36.337  29.424  29.557  1.00  0.00     0.014 A 
ATOM     10  C   UNL A   1      38.291  29.696  27.574  1.00  0.00     0.010 A 
ATOM     11  C   UNL A   1      37.672  29.132  29.847  1.00  0.00     0.010 A 
ATOM     12  C   UNL A   1      38.654  29.231  28.847  1.00  0.00    -0.014 A 
BRANCH  12  13
ATOM     13  C   UNL A   1      40.069  28.889  29.141  1.00  0.00     0.031 A 
ATOM     14  C   UNL A   1      40.998  29.908  29.740  1.00  0.00     0.074 A 
ATOM     15  C   UNL A   1      40.516  27.655  28.840  1.00  0.00     0.049 A 
ATOM     16  N   UNL A   1      42.281  29.813  29.978  1.00  0.00    -0.248 NA
ATOM     17  C   UNL A   1      40.412  31.205  30.111  1.00  0.00     0.031 C 
ATOM     18  C   UNL A   1      39.704  26.583  28.261  1.00  0.00     0.029 A 
ATOM     19  N   UNL A   1      41.762  27.097  28.967  1.00  0.00    -0.354 N 
ATOM     20  C   UNL A   1      42.664  31.045  30.500  1.00  0.00     0.074 A 
ATOM     21  C   UNL A   1      41.480  31.876  30.520  1.00  0.00     0.031 C 
ATOM     22  C   UNL A   1      40.467  25.494  28.094  1.00  0.00     0.029 A 
ATOM     23  C   UNL A   1      41.836  25.812  28.486  1.00  0.00     0.049 A 
ATOM     24  H   UNL A   1      42.529  27.570  29.364  1.00  0.00     0.167 HD
ATOM     25  C   UNL A   1      43.889  31.438  30.925  1.00  0.00     0.037 A 
ATOM     26  C   UNL A   1      42.891  24.989  28.337  1.00  0.00     0.037 A 
ATOM     27  C   UNL A   1      45.058  30.594  30.897  1.00  0.00     0.049 A 
ATOM     28  C   UNL A   1      44.249  25.459  28.771  1.00  0.00     0.074 A 
ATOM     29  C   UNL A   1      46.341  30.886  31.329  1.00  0.00     0.029 A 
ATOM     30  N   UNL A   1      45.092  29.298  30.397  1.00  0.00    -0.354 N 
ATOM     31  N   UNL A   1      44.592  26.618  29.285  1.00  0.00    -0.248 NA
ATOM     32  C   UNL A   1      45.362  24.517  28.610  1.00  0.00     0.031 C 
ATOM     33  C   UNL A   1      47.161  29.790  31.038  1.00  0.00     0.029 A 
ATOM     34  C   UNL A   1      46.378  28.787  30.488  1.00  0.00     0.049 A 
ATOM     35  H   UNL A   1      44.316  28.814  30.033  1.00  0.00     0.167 HD
ATOM     36  C   UNL A   1      45.955  26.532  29.538  1.00  0.00     0.074 A 
ATOM     37  C   UNL A   1      46.374  25.209  29.119  1.00  0.00     0.031 C 
ATOM     38  C   UNL A   1      46.780  27.462  30.078  1.00  0.00     0.037 A 
BRANCH  25  39
ATOM     39  C   UNL A   1      44.037  32.855  31.415  1.00  0.00     0.058 A 
ATOM     40  C   UNL A   1      44.325  33.919  30.545  1.00  0.00     0.135 A 
ATOM     41  C   UNL A   1      43.877  33.155  32.779  1.00  0.00     0.135 A 
ATOM     42  F   UNL A   1      44.497  33.693  29.233  1.00  0.00    -0.206 F 
ATOM     43  C   UNL A   1      44.497  35.219  31.015  1.00  0.00     0.059 A 
ATOM     44  C   UNL A   1      44.012  34.452  33.266  1.00  0.00     0.059 A 
ATOM     45  F   UNL A   1      43.593  32.181  33.658  1.00  0.00    -0.206 F 
ATOM     46  C   UNL A   1      44.346  35.473  32.379  1.00  0.00     0.060 A 
BRANCH  46  47
ATOM     47  S   UNL A   1      44.611  37.156  32.977  1.00  0.00     0.124 S 
ATOM     48  O   UNL A   1      43.266  37.714  32.878  1.00  0.00    -0.237 OA
ATOM     49  O   UNL A   1      45.105  36.933  34.332  1.00  0.00    -0.237 OA
ATOM     50  O   UNL A   1      45.587  37.702  32.039  1.00  0.00    -0.744 OA
ENDBRANCH  46  47
ENDBRANCH  25  39
BRANCH  26  51
ATOM     51  C   UNL A   1      42.683  23.644  27.742  1.00  0.00     0.058 A 
ATOM     52  C   UNL A   1      42.599  23.474  26.354  1.00  0.00     0.135 A 
ATOM     53  C   UNL A   1      42.642  22.494  28.549  1.00  0.00     0.135 A 
ATOM     54  F   UNL A   1      42.629  24.542  25.543  1.00  0.00    -0.206 F 
ATOM     55  C   UNL A   1      42.482  22.210  25.783  1.00  0.00     0.059 A 
ATOM     56  C   UNL A   1      42.555  21.219  27.999  1.00  0.00     0.059 A 
ATOM     57  F   UNL A   1      42.739  22.604  29.883  1.00  0.00    -0.206 F 
ATOM     58  C   UNL A   1      42.472  21.088  26.615  1.00  0.00     0.060 A 
BRANCH  58  59
ATOM     59  S   UNL A   1      42.406  19.451  25.855  1.00  0.00     0.124 S 
ATOM     60  O   UNL A   1      42.750  18.591  26.981  1.00  0.00    -0.237 OA
ATOM     61  O   UNL A   1      41.021  19.384  25.398  1.00  0.00    -0.237 OA
ATOM     62  O   UNL A   1      43.405  19.532  24.794  1.00  0.00    -0.744 OA
ENDBRANCH  58  59
ENDBRANCH  26  51
BRANCH  38  63
ATOM     63  C   UNL A   1      48.215  27.075  30.307  1.00  0.00     0.058 A 
ATOM     64  C   UNL A   1      49.206  27.274  29.335  1.00  0.00     0.135 A 
ATOM     65  C   UNL A   1      48.615  26.570  31.556  1.00  0.00     0.135 A 
ATOM     66  F   UNL A   1      48.877  27.743  28.121  1.00  0.00    -0.206 F 
ATOM     67  C   UNL A   1      50.542  26.981  29.589  1.00  0.00     0.059 A 
ATOM     68  C   UNL A   1      49.947  26.297  31.842  1.00  0.00     0.059 A 
ATOM     69  F   UNL A   1      47.707  26.364  32.524  1.00  0.00    -0.206 F 
ATOM     70  C   UNL A   1      50.904  26.501  30.850  1.00  0.00     0.060 A 
BRANCH  70  71
ATOM     71  S   UNL A   1      52.650  26.189  31.190  1.00  0.00     0.124 S 
ATOM     72  O   UNL A   1      52.966  27.265  32.125  1.00  0.00    -0.237 OA
ATOM     73  O   UNL A   1      52.622  24.845  31.757  1.00  0.00    -0.237 OA
ATOM     74  O   UNL A   1      53.277  26.296  29.877  1.00  0.00    -0.744 OA
ENDBRANCH  70  71
ENDBRANCH  38  63
ENDBRANCH  12  13
ENDBRANCH   5   7
ENDBRANCH   2   3
ENDBRANCH   1   2
BRANCH   1  75
ATOM     75  C   UNL A   1      34.608  34.682  27.908  1.00  0.00     0.023 C 
BRANCH  75  76
ATOM     76  C   UNL A   1      33.347  34.936  28.721  1.00  0.00     0.116 C 
BRANCH  76  77
ATOM     77  N   UNL A   1      33.199  36.312  29.165  1.00  0.00    -0.356 N 
ATOM     78  C   UNL A   1      32.935  36.734  30.440  1.00  0.00     0.223 C 
ATOM     79  H   UNL A   1      33.299  37.012  28.479  1.00  0.00     0.163 HD
ATOM     80  O   UNL A   1      32.908  37.918  30.749  1.00  0.00    -0.275 OA
BRANCH  78  81
ATOM     81  C   UNL A   1      32.632  35.688  31.439  1.00  0.00     0.091 C 
ATOM     82  C   UNL A   1      32.298  35.983  32.883  1.00  0.00     0.028 C 
ATOM     83  C   UNL A   1      33.647  35.436  32.544  1.00  0.00     0.091 C 
BRANCH  83  84
ATOM     84  C   UNL A   1      34.200  34.072  32.725  1.00  0.00     0.224 C 
ATOM     85  O   UNL A   1      33.418  33.173  33.028  1.00  0.00    -0.275 OA
ATOM     86  N   UNL A   1      35.523  33.753  32.657  1.00  0.00    -0.342 N 
ATOM     87  H   UNL A   1      35.718  32.824  32.917  1.00  0.00     0.164 HD
BRANCH  86  88
ATOM     88  C   UNL A   1      36.702  34.509  32.280  1.00  0.00     0.202 C 
ATOM     89  C   UNL A   1      37.492  33.865  31.155  1.00  0.00     0.228 C 
ATOM     90  C   UNL A   1      37.774  34.541  33.345  1.00  0.00     0.268 C 
ATOM     91  O   UNL A   1      38.837  34.346  31.302  1.00  0.00    -0.271 OA
ATOM     92  N   UNL A   1      38.983  34.568  32.692  1.00  0.00    -0.233 N 
ATOM     93  O   UNL A   1      37.609  34.603  34.551  1.00  0.00    -0.270 OA
ATOM     94  H   UNL A   1      39.847  34.722  33.138  1.00  0.00     0.199 HD
ENDBRANCH  86  88
ENDBRANCH  83  84
ENDBRANCH  78  81
ENDBRANCH  76  77
ENDBRANCH  75  76
ENDBRANCH   1  75
TORSDOF 16
ENDMDL
MODEL 2
REMARK VINA RESULT:     -10.6      3.939      6.399
REMARK SMILES O=C(NCCCCNC(=O)[C@@H]1C[C@H]1C(=O)N[C@@H]1CONC1=O)c1ccc(-c2c3nc(c(-c4c(F)cc(S(=O)(=O)[O-])cc4F)c4ccc([nH]4)c(-c4c(F)cc(S(=O)(=O)[O-])cc4F)c4nc(c(-c5c(F)cc(S(=O)(=O)[O-])cc5F)c5ccc2[nH]5)C=C4)C=C3)cc1
REMARK SMILES IDX 5 1 4 2 3 3 1 4 2 5 23 7 24 8 88 9 25 10 87 11 26 12 27 13
REMARK SMILES IDX 28 14 81 15 29 16 86 17 80 18 82 19 30 20 85 21 79 22 78 23
REMARK SMILES IDX 31 25 65 26 44 27 64 28 45 29 48 30 63 31 83 32 46 33 47 34
REMARK SMILES IDX 62 36 84 37 49 38 32 39 33 40 42 41 34 42 35 43 41 44 43 45
REMARK SMILES IDX 36 46 37 47 38 48 39 49 40 50 66 51 67 52 76 53 68 54 69 55
REMARK SMILES IDX 75 56 77 57 70 58 71 59 72 60 73 61 74 62 50 63 51 64 60 65
REMARK SMILES IDX 52 66 53 67 59 68 61 69 54 70 55 71 56 72 57 73 58 74 6 75
REMARK SMILES IDX 7 76 8 77 9 78 10 80 11 81 12 82 13 83 14 84 15 85 16 86
REMARK SMILES IDX 17 88 18 89 21 90 19 91 20 92 22 93
REMARK H PARENT 3 6 82 24 48 35 8 79 16 87 20 94
REMARK Flexibility Score: inf
ROOT
ATOM      1  C   UNL A   1      34.074  30.066  27.235  1.00  0.00     0.023 C 
ENDROOT
BRANCH   1   2
ATOM      2  C   UNL A   1      35.447  30.242  27.868  1.00  0.00     0.116 C 
BRANCH   2   3
ATOM      3  N   UNL A   1      35.387  30.478  29.303  1.00  0.00    -0.352 N 
ATOM      4  O   UNL A   1      36.028  30.322  31.461  1.00  0.00    -0.269 OA
ATOM      5  C   UNL A   1      36.317  30.193  30.274  1.00  0.00     0.251 C 
ATOM      6  H   UNL A   1      34.559  30.901  29.625  1.00  0.00     0.163 HD
BRANCH   5   7
ATOM      7  C   UNL A   1      37.655  29.702  29.883  1.00  0.00     0.039 A 
ATOM      8  C   UNL A   1      38.522  29.162  30.837  1.00  0.00     0.014 A 
ATOM      9  C   UNL A   1      38.050  29.799  28.548  1.00  0.00     0.014 A 
ATOM     10  C   UNL A   1      39.837  28.874  30.490  1.00  0.00     0.010 A 
ATOM     11  C   UNL A   1      39.343  29.421  28.183  1.00  0.00     0.010 A 
ATOM     12  C   UNL A   1      40.259  28.990  29.157  1.00  0.00    -0.014 A 
BRANCH  12  13
ATOM     13  C   UNL A   1      41.646  28.619  28.779  1.00  0.00     0.031 A 
ATOM     14  C   UNL A   1      42.734  29.655  28.732  1.00  0.00     0.074 A 
ATOM     15  C   UNL A   1      41.912  27.339  28.454  1.00  0.00     0.049 A 
ATOM     16  N   UNL A   1      43.975  29.529  28.339  1.00  0.00    -0.248 NA
ATOM     17  C   UNL A   1      42.380  31.011  29.176  1.00  0.00     0.031 C 
ATOM     18  C   UNL A   1      40.936  26.247  28.469  1.00  0.00     0.029 A 
ATOM     19  N   UNL A   1      43.073  26.741  28.038  1.00  0.00    -0.354 N 
ATOM     20  C   UNL A   1      44.545  30.792  28.460  1.00  0.00     0.074 A 
ATOM     21  C   UNL A   1      43.504  31.675  28.940  1.00  0.00     0.031 C 
ATOM     22  C   UNL A   1      41.541  25.111  28.093  1.00  0.00     0.029 A 
ATOM     23  C   UNL A   1      42.926  25.408  27.741  1.00  0.00     0.049 A 
ATOM     24  H   UNL A   1      43.930  27.221  27.960  1.00  0.00     0.167 HD
ATOM     25  C   UNL A   1      45.818  31.174  28.196  1.00  0.00     0.037 A 
ATOM     26  C   UNL A   1      43.792  24.526  27.209  1.00  0.00     0.037 A 
ATOM     27  C   UNL A   1      46.842  30.279  27.717  1.00  0.00     0.049 A 
ATOM     28  C   UNL A   1      45.185  24.979  26.881  1.00  0.00     0.074 A 
ATOM     29  C   UNL A   1      48.171  30.558  27.445  1.00  0.00     0.029 A 
ATOM     30  N   UNL A   1      46.651  28.935  27.425  1.00  0.00    -0.354 N 
ATOM     31  N   UNL A   1      45.716  26.171  27.023  1.00  0.00    -0.248 NA
ATOM     32  C   UNL A   1      46.098  23.974  26.324  1.00  0.00     0.031 C 
ATOM     33  C   UNL A   1      48.766  29.400  26.934  1.00  0.00     0.029 A 
ATOM     34  C   UNL A   1      47.829  28.378  26.952  1.00  0.00     0.049 A 
ATOM     35  H   UNL A   1      45.802  28.448  27.537  1.00  0.00     0.167 HD
ATOM     36  C   UNL A   1      47.035  26.051  26.603  1.00  0.00     0.074 A 
ATOM     37  C   UNL A   1      47.220  24.671  26.200  1.00  0.00     0.031 C 
ATOM     38  C   UNL A   1      48.004  26.998  26.565  1.00  0.00     0.037 A 
BRANCH  25  39
ATOM     39  C   UNL A   1      46.163  32.629  28.379  1.00  0.00     0.058 A 
ATOM     40  C   UNL A   1      46.034  33.563  27.339  1.00  0.00     0.135 A 
ATOM     41  C   UNL A   1      46.621  33.100  29.622  1.00  0.00     0.135 A 
ATOM     42  F   UNL A   1      45.609  33.171  26.127  1.00  0.00    -0.206 F 
ATOM     43  C   UNL A   1      46.392  34.898  27.508  1.00  0.00     0.059 A 
ATOM     44  C   UNL A   1      46.953  34.437  29.823  1.00  0.00     0.059 A 
ATOM     45  F   UNL A   1      46.757  32.256  30.657  1.00  0.00    -0.206 F 
ATOM     46  C   UNL A   1      46.858  35.323  28.753  1.00  0.00     0.060 A 
BRANCH  46  47
ATOM     47  S   UNL A   1      47.355  37.048  28.945  1.00  0.00     0.124 S 
ATOM     48  O   UNL A   1      47.825  37.062  30.327  1.00  0.00    -0.237 OA
ATOM     49  O   UNL A   1      48.389  37.192  27.925  1.00  0.00    -0.237 OA
ATOM     50  O   UNL A   1      46.123  37.789  28.694  1.00  0.00    -0.744 OA
ENDBRANCH  46  47
ENDBRANCH  25  39
BRANCH  26  51
ATOM     51  C   UNL A   1      43.343  23.133  26.954  1.00  0.00     0.058 A 
ATOM     52  C   UNL A   1      43.168  22.657  25.648  1.00  0.00     0.135 A 
ATOM     53  C   UNL A   1      43.155  22.228  28.013  1.00  0.00     0.135 A 
ATOM     54  F   UNL A   1      43.333  23.484  24.605  1.00  0.00    -0.206 F 
ATOM     55  C   UNL A   1      42.824  21.333  25.398  1.00  0.00     0.059 A 
ATOM     56  C   UNL A   1      42.838  20.893  27.786  1.00  0.00     0.059 A 
ATOM     57  F   UNL A   1      43.330  22.631  29.282  1.00  0.00    -0.206 F 
ATOM     58  C   UNL A   1      42.672  20.456  26.473  1.00  0.00     0.060 A 
BRANCH  58  59
ATOM     59  S   UNL A   1      42.308  18.721  26.129  1.00  0.00     0.124 S 
ATOM     60  O   UNL A   1      42.531  18.109  27.434  1.00  0.00    -0.237 OA
ATOM     61  O   UNL A   1      40.920  18.785  25.680  1.00  0.00    -0.237 OA
ATOM     62  O   UNL A   1      43.278  18.373  25.094  1.00  0.00    -0.744 OA
ENDBRANCH  58  59
ENDBRANCH  26  51
BRANCH  38  63
ATOM     63  C   UNL A   1      49.379  26.573  26.127  1.00  0.00     0.058 A 
ATOM     64  C   UNL A   1      49.839  26.772  24.817  1.00  0.00     0.135 A 
ATOM     65  C   UNL A   1      50.277  26.030  27.062  1.00  0.00     0.135 A 
ATOM     66  F   UNL A   1      49.019  27.276  23.882  1.00  0.00    -0.206 F 
ATOM     67  C   UNL A   1      51.140  26.443  24.447  1.00  0.00     0.059 A 
ATOM     68  C   UNL A   1      51.589  25.721  26.721  1.00  0.00     0.059 A 
ATOM     69  F   UNL A   1      49.890  25.823  28.330  1.00  0.00    -0.206 F 
ATOM     70  C   UNL A   1      52.010  25.926  25.409  1.00  0.00     0.060 A 
BRANCH  70  71
ATOM     71  S   UNL A   1      53.714  25.567  24.932  1.00  0.00     0.124 S 
ATOM     72  O   UNL A   1      53.715  25.955  23.525  1.00  0.00    -0.237 OA
ATOM     73  O   UNL A   1      54.477  26.431  25.828  1.00  0.00    -0.237 OA
ATOM     74  O   UNL A   1      53.846  24.137  25.188  1.00  0.00    -0.744 OA
ENDBRANCH  70  71
ENDBRANCH  38  63
ENDBRANCH  12  13
ENDBRANCH   5   7
ENDBRANCH   2   3
ENDBRANCH   1   2
BRANCH   1  75
ATOM     75  C   UNL A   1      33.996  28.993  26.157  1.00  0.00     0.023 C 
BRANCH  75  76
ATOM     76  C   UNL A   1      33.160  29.358  24.939  1.00  0.00     0.116 C 
BRANCH  76  77
ATOM     77  N   UNL A   1      33.833  29.125  23.672  1.00  0.00    -0.356 N 
ATOM     78  C   UNL A   1      33.447  28.249  22.693  1.00  0.00     0.223 C 
ATOM     79  H   UNL A   1      34.649  29.649  23.500  1.00  0.00     0.163 HD
ATOM     80  O   UNL A   1      34.022  28.172  21.615  1.00  0.00    -0.275 OA
BRANCH  78  81
ATOM     81  C   UNL A   1      32.316  27.352  23.009  1.00  0.00     0.091 C 
ATOM     82  C   UNL A   1      31.759  26.336  22.038  1.00  0.00     0.028 C 
ATOM     83  C   UNL A   1      30.990  27.591  22.302  1.00  0.00     0.091 C 
BRANCH  83  84
ATOM     84  C   UNL A   1      29.766  27.813  23.109  1.00  0.00     0.224 C 
ATOM     85  O   UNL A   1      29.268  26.840  23.672  1.00  0.00    -0.275 OA
ATOM     86  N   UNL A   1      29.106  29.000  23.210  1.00  0.00    -0.342 N 
ATOM     87  H   UNL A   1      28.251  28.936  23.693  1.00  0.00     0.164 HD
BRANCH  86  88
ATOM     88  C   UNL A   1      29.409  30.342  22.747  1.00  0.00     0.202 C 
ATOM     89  C   UNL A   1      29.133  31.411  23.789  1.00  0.00     0.228 C 
ATOM     90  C   UNL A   1      28.497  30.830  21.647  1.00  0.00     0.268 C 
ATOM     91  O   UNL A   1      28.904  32.620  23.049  1.00  0.00    -0.271 OA
ATOM     92  N   UNL A   1      28.351  32.185  21.821  1.00  0.00    -0.233 N 
ATOM     93  O   UNL A   1      28.031  30.170  20.733  1.00  0.00    -0.270 OA
ATOM     94  H   UNL A   1      27.915  32.781  21.171  1.00  0.00     0.199 HD
ENDBRANCH  86  88
ENDBRANCH  83  84
ENDBRANCH  78  81
ENDBRANCH  76  77
ENDBRANCH  75  76
ENDBRANCH   1  75
TORSDOF 16
ENDMDL
MODEL 3
REMARK VINA RESULT:     -10.5      2.733      5.863
REMARK SMILES O=C(NCCCCNC(=O)[C@@H]1C[C@H]1C(=O)N[C@@H]1CONC1=O)c1ccc(-c2c3nc(c(-c4c(F)cc(S(=O)(=O)[O-])cc4F)c4ccc([nH]4)c(-c4c(F)cc(S(=O)(=O)[O-])cc4F)c4nc(c(-c5c(F)cc(S(=O)(=O)[O-])cc5F)c5ccc2[nH]5)C=C4)C=C3)cc1
REMARK SMILES IDX 5 1 4 2 3 3 1 4 2 5 23 7 24 8 88 9 25 10 87 11 26 12 27 13
REMARK SMILES IDX 28 14 81 15 29 16 86 17 80 18 82 19 30 20 85 21 79 22 78 23
REMARK SMILES IDX 31 25 65 26 44 27 64 28 45 29 48 30 63 31 83 32 46 33 47 34
REMARK SMILES IDX 62 36 84 37 49 38 32 39 33 40 42 41 34 42 35 43 41 44 43 45
REMARK SMILES IDX 36 46 37 47 38 48 39 49 40 50 66 51 67 52 76 53 68 54 69 55
REMARK SMILES IDX 75 56 77 57 70 58 71 59 72 60 73 61 74 62 50 63 51 64 60 65
REMARK SMILES IDX 52 66 53 67 59 68 61 69 54 70 55 71 56 72 57 73 58 74 6 75
REMARK SMILES IDX 7 76 8 77 9 78 10 80 11 81 12 82 13 83 14 84 15 85 16 86
REMARK SMILES IDX 17 88 18 89 21 90 19 91 20 92 22 93
REMARK H PARENT 3 6 82 24 48 35 8 79 16 87 20 94
REMARK Flexibility Score: inf
ROOT
ATOM      1  C   UNL A   1      32.447  27.631  26.809  1.00  0.00     0.023 C 
ENDROOT
BRANCH   1   2
ATOM      2  C   UNL A   1      33.773  28.355  26.998  1.00  0.00     0.116 C 
BRANCH   2   3
ATOM      3  N   UNL A   1      33.611  29.731  27.445  1.00  0.00    -0.352 N 
ATOM      4  O   UNL A   1      34.119  31.621  28.566  1.00  0.00    -0.269 OA
ATOM      5  C   UNL A   1      34.487  30.532  28.137  1.00  0.00     0.251 C 
ATOM      6  H   UNL A   1      32.748  30.147  27.220  1.00  0.00     0.163 HD
BRANCH   5   7
ATOM      7  C   UNL A   1      35.866  30.062  28.388  1.00  0.00     0.039 A 
ATOM      8  C   UNL A   1      36.224  29.538  29.633  1.00  0.00     0.014 A 
ATOM      9  C   UNL A   1      36.814  30.164  27.368  1.00  0.00     0.014 A 
ATOM     10  C   UNL A   1      37.560  29.271  29.910  1.00  0.00     0.010 A 
ATOM     11  C   UNL A   1      38.139  29.806  27.620  1.00  0.00     0.010 A 
ATOM     12  C   UNL A   1      38.530  29.391  28.905  1.00  0.00    -0.014 A 
BRANCH  12  13
ATOM     13  C   UNL A   1      39.945  29.042  29.188  1.00  0.00     0.031 A 
ATOM     14  C   UNL A   1      40.887  30.058  29.772  1.00  0.00     0.074 A 
ATOM     15  C   UNL A   1      40.382  27.803  28.890  1.00  0.00     0.049 A 
ATOM     16  N   UNL A   1      42.171  29.956  29.999  1.00  0.00    -0.248 NA
ATOM     17  C   UNL A   1      40.313  31.361  30.140  1.00  0.00     0.031 C 
ATOM     18  C   UNL A   1      39.557  26.732  28.326  1.00  0.00     0.029 A 
ATOM     19  N   UNL A   1      41.625  27.237  29.010  1.00  0.00    -0.354 N 
ATOM     20  C   UNL A   1      42.567  31.188  30.510  1.00  0.00     0.074 A 
ATOM     21  C   UNL A   1      41.389  32.028  30.535  1.00  0.00     0.031 C 
ATOM     22  C   UNL A   1      40.311  25.637  28.159  1.00  0.00     0.029 A 
ATOM     23  C   UNL A   1      41.686  25.949  28.536  1.00  0.00     0.049 A 
ATOM     24  H   UNL A   1      42.398  27.707  29.397  1.00  0.00     0.167 HD
ATOM     25  C   UNL A   1      43.799  31.576  30.921  1.00  0.00     0.037 A 
ATOM     26  C   UNL A   1      42.734  25.118  28.384  1.00  0.00     0.037 A 
ATOM     27  C   UNL A   1      44.962  30.724  30.888  1.00  0.00     0.049 A 
ATOM     28  C   UNL A   1      44.099  25.581  28.802  1.00  0.00     0.074 A 
ATOM     29  C   UNL A   1      46.250  31.009  31.307  1.00  0.00     0.029 A 
ATOM     30  N   UNL A   1      44.982  29.425  30.397  1.00  0.00    -0.354 N 
ATOM     31  N   UNL A   1      44.454  26.740  29.306  1.00  0.00    -0.248 NA
ATOM     32  C   UNL A   1      45.205  24.631  28.637  1.00  0.00     0.031 C 
ATOM     33  C   UNL A   1      47.060  29.907  31.015  1.00  0.00     0.029 A 
ATOM     34  C   UNL A   1      46.265  28.906  30.479  1.00  0.00     0.049 A 
ATOM     35  H   UNL A   1      44.200  28.943  30.042  1.00  0.00     0.167 HD
ATOM     36  C   UNL A   1      45.819  26.647  29.547  1.00  0.00     0.074 A 
ATOM     37  C   UNL A   1      46.225  25.319  29.133  1.00  0.00     0.031 C 
ATOM     38  C   UNL A   1      46.655  27.575  30.074  1.00  0.00     0.037 A 
BRANCH  25  39
ATOM     39  C   UNL A   1      43.960  32.994  31.401  1.00  0.00     0.058 A 
ATOM     40  C   UNL A   1      44.315  34.040  30.533  1.00  0.00     0.135 A 
ATOM     41  C   UNL A   1      43.746  33.316  32.753  1.00  0.00     0.135 A 
ATOM     42  F   UNL A   1      44.541  33.793  29.233  1.00  0.00    -0.206 F 
ATOM     43  C   UNL A   1      44.499  35.341  30.995  1.00  0.00     0.059 A 
ATOM     44  C   UNL A   1      43.892  34.616  33.230  1.00  0.00     0.059 A 
ATOM     45  F   UNL A   1      43.397  32.361  33.629  1.00  0.00    -0.206 F 
ATOM     46  C   UNL A   1      44.293  35.617  32.348  1.00  0.00     0.060 A 
BRANCH  46  47
ATOM     47  S   UNL A   1      44.573  37.300  32.938  1.00  0.00     0.124 S 
ATOM     48  O   UNL A   1      46.030  37.333  33.036  1.00  0.00    -0.237 OA
ATOM     49  O   UNL A   1      43.993  38.107  31.870  1.00  0.00    -0.237 OA
ATOM     50  O   UNL A   1      43.858  37.340  34.209  1.00  0.00    -0.744 OA
ENDBRANCH  46  47
ENDBRANCH  25  39
BRANCH  26  51
ATOM     51  C   UNL A   1      42.512  23.770  27.799  1.00  0.00     0.058 A 
ATOM     52  C   UNL A   1      42.454  23.586  26.411  1.00  0.00     0.135 A 
ATOM     53  C   UNL A   1      42.430  22.631  28.617  1.00  0.00     0.135 A 
ATOM     54  F   UNL A   1      42.524  24.644  25.589  1.00  0.00    -0.206 F 
ATOM     55  C   UNL A   1      42.324  22.319  25.852  1.00  0.00     0.059 A 
ATOM     56  C   UNL A   1      42.329  21.352  28.080  1.00  0.00     0.059 A 
ATOM     57  F   UNL A   1      42.501  22.754  29.951  1.00  0.00    -0.206 F 
ATOM     58  C   UNL A   1      42.274  21.206  26.695  1.00  0.00     0.060 A 
BRANCH  58  59
ATOM     59  S   UNL A   1      42.191  19.563  25.953  1.00  0.00     0.124 S 
ATOM     60  O   UNL A   1      42.643  18.720  27.053  1.00  0.00    -0.237 OA
ATOM     61  O   UNL A   1      40.777  19.457  25.605  1.00  0.00    -0.237 OA
ATOM     62  O   UNL A   1      43.102  19.661  24.816  1.00  0.00    -0.744 OA
ENDBRANCH  58  59
ENDBRANCH  26  51
BRANCH  38  63
ATOM     63  C   UNL A   1      48.090  27.180  30.293  1.00  0.00     0.058 A 
ATOM     64  C   UNL A   1      49.065  27.332  29.297  1.00  0.00     0.135 A 
ATOM     65  C   UNL A   1      48.505  26.715  31.552  1.00  0.00     0.135 A 
ATOM     66  F   UNL A   1      48.721  27.762  28.073  1.00  0.00    -0.206 F 
ATOM     67  C   UNL A   1      50.403  27.033  29.539  1.00  0.00     0.059 A 
ATOM     68  C   UNL A   1      49.839  26.437  31.825  1.00  0.00     0.059 A 
ATOM     69  F   UNL A   1      47.612  26.554  32.542  1.00  0.00    -0.206 F 
ATOM     70  C   UNL A   1      50.781  26.595  30.811  1.00  0.00     0.060 A 
BRANCH  70  71
ATOM     71  S   UNL A   1      52.529  26.275  31.132  1.00  0.00     0.124 S 
ATOM     72  O   UNL A   1      52.482  24.936  31.713  1.00  0.00    -0.237 OA
ATOM     73  O   UNL A   1      53.113  26.366  29.797  1.00  0.00    -0.237 OA
ATOM     74  O   UNL A   1      52.908  27.343  32.050  1.00  0.00    -0.744 OA
ENDBRANCH  70  71
ENDBRANCH  38  63
ENDBRANCH  12  13
ENDBRANCH   5   7
ENDBRANCH   2   3
ENDBRANCH   1   2
BRANCH   1  75
ATOM     75  C   UNL A   1      31.895  27.659  25.390  1.00  0.00     0.023 C 
BRANCH  75  76
ATOM     76  C   UNL A   1      30.979  26.500  25.026  1.00  0.00     0.116 C 
BRANCH  76  77
ATOM     77  N   UNL A   1      30.636  25.645  26.150  1.00  0.00    -0.356 N 
ATOM     78  C   UNL A   1      31.223  24.452  26.476  1.00  0.00     0.223 C 
ATOM     79  H   UNL A   1      29.907  25.955  26.736  1.00  0.00     0.163 HD
ATOM     80  O   UNL A   1      30.931  23.831  27.490  1.00  0.00    -0.275 OA
BRANCH  78  81
ATOM     81  C   UNL A   1      32.207  23.909  25.517  1.00  0.00     0.091 C 
ATOM     82  C   UNL A   1      32.882  22.567  25.683  1.00  0.00     0.028 C 
ATOM     83  C   UNL A   1      33.660  23.813  25.956  1.00  0.00     0.091 C 
BRANCH  83  84
ATOM     84  C   UNL A   1      34.708  24.484  25.150  1.00  0.00     0.224 C 
ATOM     85  O   UNL A   1      34.357  25.385  24.392  1.00  0.00    -0.275 OA
ATOM     86  N   UNL A   1      36.022  24.125  25.129  1.00  0.00    -0.342 N 
ATOM     87  H   UNL A   1      36.551  24.605  24.451  1.00  0.00     0.164 HD
BRANCH  86  88
ATOM     88  C   UNL A   1      36.800  23.177  25.904  1.00  0.00     0.202 C 
ATOM     89  C   UNL A   1      38.228  23.632  26.150  1.00  0.00     0.228 C 
ATOM     90  C   UNL A   1      37.077  21.879  25.182  1.00  0.00     0.268 C 
ATOM     91  O   UNL A   1      38.984  22.430  26.365  1.00  0.00    -0.271 OA
ATOM     92  N   UNL A   1      38.313  21.448  25.597  1.00  0.00    -0.233 N 
ATOM     93  O   UNL A   1      36.326  21.283  24.428  1.00  0.00    -0.270 OA
ATOM     94  H   UNL A   1      38.689  20.562  25.387  1.00  0.00     0.199 HD
ENDBRANCH  86  88
ENDBRANCH  83  84
ENDBRANCH  78  81
ENDBRANCH  76  77
ENDBRANCH  75  76
ENDBRANCH   1  75
TORSDOF 16
ENDMDL
