MODEL 1
REMARK VINA RESULT:     -12.2      0.000      0.000
REMARK SMILES COc1cc([C@H]2[NH2+]CCC3=c4ccccc4=N[C@H]32)ccc1OCC(=O)NCCCCNC(=O)c1ccc(-c2c3nc(c(-c4c(F)cc(S(=O)(=O)[O-])cc4F)c4ccc([nH]4)c(-c4c(F)cc(S(=O)(=O)[O-])cc4F)c4nc(c(-c5c(F)cc(S(=O)(=O)[O-])cc5F)c5ccc2[nH]5)C=C4)C=C3)cc1
REMARK SMILES IDX 28 1 27 2 26 3 24 4 25 5 23 7 22 8 21 9 3 10 4 11 5 12 20 13
REMARK SMILES IDX 19 14 2 15 1 16 6 17 7 18 18 19 8 20 10 23 17 24 9 25 11 26
REMARK SMILES IDX 16 27 12 28 15 29 13 30 14 31 29 32 30 33 31 34 32 35 33 37
REMARK SMILES IDX 34 38 35 39 99 40 36 41 98 42 37 43 38 44 39 45 92 46 40 47
REMARK SMILES IDX 97 48 91 49 93 50 41 51 96 52 90 53 89 54 42 56 76 57 55 58
REMARK SMILES IDX 75 59 56 60 59 61 74 62 94 63 57 64 58 65 73 67 95 68 60 69
REMARK SMILES IDX 43 70 44 71 53 72 45 73 46 74 52 75 54 76 47 77 48 78 49 79
REMARK SMILES IDX 50 80 51 81 77 82 78 83 87 84 79 85 80 86 86 87 88 88 81 89
REMARK SMILES IDX 82 90 83 91 84 92 85 93 61 94 62 95 71 96 63 97 64 98 70 99
REMARK SMILES IDX 72 100 65 101 66 102 67 103 68 104 69 105
REMARK H PARENT 26 6 7 21 7 22 31 36 93 55 59 66
REMARK Flexibility Score: inf
ROOT
ATOM      1  C   UNL A   1      33.003  29.050  24.606  1.00  0.00     0.023 C 
ENDROOT
BRANCH   1   2
ATOM      2  C   UNL A   1      33.058  28.702  23.122  1.00  0.00     0.116 C 
BRANCH   2   3
ATOM      3  N   UNL A   1      32.013  29.334  22.342  1.00  0.00    -0.353 N 
ATOM      4  C   UNL A   1      30.662  29.277  22.545  1.00  0.00     0.257 C 
ATOM      5  O   UNL A   1      29.944  30.074  21.936  1.00  0.00    -0.271 OA
ATOM      6  H   UNL A   1      32.312  29.870  21.572  1.00  0.00     0.163 HD
BRANCH   4   7
ATOM      7  C   UNL A   1      30.099  28.289  23.566  1.00  0.00     0.329 C 
BRANCH   7   8
ATOM      8  O   UNL A   1      30.163  26.932  23.167  1.00  0.00    -0.480 OA
BRANCH   8   9
ATOM      9  C   UNL A   1      30.944  26.040  23.844  1.00  0.00     0.161 A 
ATOM     10  C   UNL A   1      31.977  25.240  23.358  1.00  0.00     0.161 A 
ATOM     11  C   UNL A   1      32.449  24.176  24.140  1.00  0.00     0.060 A 
ATOM     12  C   UNL A   1      31.904  23.913  25.411  1.00  0.00     0.016 A 
ATOM     13  C   UNL A   1      30.544  25.879  25.178  1.00  0.00     0.051 A 
ATOM     14  C   UNL A   1      31.073  24.874  25.985  1.00  0.00     0.014 A 
BRANCH  10  15
ATOM     15  O   UNL A   1      32.391  25.308  22.056  1.00  0.00    -0.493 OA
ATOM     16  C   UNL A   1      33.067  24.116  21.651  1.00  0.00     0.278 C 
ENDBRANCH  10  15
BRANCH  12  17
ATOM     17  C   UNL A   1      32.012  22.505  26.001  1.00  0.00     0.243 C 
ATOM     18  N   UNL A   1      31.459  21.455  25.112  1.00  0.00    -0.338 N 
ATOM     19  C   UNL A   1      33.363  22.206  26.788  1.00  0.00     0.196 C 
ATOM     20  C   UNL A   1      32.359  20.373  24.696  1.00  0.00     0.265 C 
ATOM     21  H   UNL A   1      31.126  21.916  24.265  1.00  0.00     0.346 HD
ATOM     22  H   UNL A   1      30.741  20.994  25.671  1.00  0.00     0.346 HD
ATOM     23  C   UNL A   1      34.144  21.112  26.133  1.00  0.00    -0.025 C 
ATOM     24  N   UNL A   1      34.331  23.344  26.879  1.00  0.00    -0.270 NA
ATOM     25  C   UNL A   1      33.371  19.911  25.752  1.00  0.00     0.095 C 
ATOM     26  C   UNL A   1      35.381  21.488  25.834  1.00  0.00     0.001 A 
ATOM     27  C   UNL A   1      35.395  22.888  26.287  1.00  0.00     0.066 A 
ATOM     28  C   UNL A   1      36.474  20.905  25.131  1.00  0.00     0.010 A 
ATOM     29  C   UNL A   1      36.610  23.667  25.952  1.00  0.00     0.028 A 
ATOM     30  C   UNL A   1      37.544  21.670  24.861  1.00  0.00     0.001 A 
ATOM     31  C   UNL A   1      37.597  23.068  25.263  1.00  0.00     0.002 A 
ENDBRANCH  12  17
ENDBRANCH   8   9
ENDBRANCH   7   8
ENDBRANCH   4   7
ENDBRANCH   2   3
ENDBRANCH   1   2
BRANCH   1  32
ATOM     32  C   UNL A   1      33.818  28.151  25.531  1.00  0.00     0.023 C 
BRANCH  32  33
ATOM     33  C   UNL A   1      33.547  28.338  27.013  1.00  0.00     0.116 C 
BRANCH  33  34
ATOM     34  N   UNL A   1      33.421  29.736  27.393  1.00  0.00    -0.352 N 
ATOM     35  C   UNL A   1      34.338  30.556  28.000  1.00  0.00     0.251 C 
ATOM     36  H   UNL A   1      32.553  30.154  27.185  1.00  0.00     0.163 HD
ATOM     37  O   UNL A   1      34.007  31.683  28.361  1.00  0.00    -0.269 OA
BRANCH  35  38
ATOM     38  C   UNL A   1      35.709  30.062  28.246  1.00  0.00     0.039 A 
ATOM     39  C   UNL A   1      36.636  30.111  27.204  1.00  0.00     0.014 A 
ATOM     40  C   UNL A   1      36.084  29.581  29.504  1.00  0.00     0.014 A 
ATOM     41  C   UNL A   1      37.958  29.732  27.442  1.00  0.00     0.010 A 
ATOM     42  C   UNL A   1      37.420  29.292  29.761  1.00  0.00     0.010 A 
ATOM     43  C   UNL A   1      38.369  29.353  28.731  1.00  0.00    -0.014 A 
BRANCH  43  44
ATOM     44  C   UNL A   1      39.785  29.006  29.014  1.00  0.00     0.031 A 
ATOM     45  C   UNL A   1      40.711  30.037  29.603  1.00  0.00     0.074 A 
ATOM     46  C   UNL A   1      40.250  27.783  28.690  1.00  0.00     0.049 A 
ATOM     47  N   UNL A   1      41.985  29.940  29.877  1.00  0.00    -0.248 NA
ATOM     48  C   UNL A   1      40.134  31.359  29.898  1.00  0.00     0.031 C 
ATOM     49  C   UNL A   1      39.463  26.717  28.064  1.00  0.00     0.029 A 
ATOM     50  N   UNL A   1      41.498  27.230  28.836  1.00  0.00    -0.354 N 
ATOM     51  C   UNL A   1      42.364  31.187  30.362  1.00  0.00     0.074 A 
ATOM     52  C   UNL A   1      41.200  32.040  30.288  1.00  0.00     0.031 C 
ATOM     53  C   UNL A   1      40.239  25.633  27.904  1.00  0.00     0.029 A 
ATOM     54  C   UNL A   1      41.587  25.936  28.378  1.00  0.00     0.049 A 
ATOM     55  H   UNL A   1      42.258  27.713  29.233  1.00  0.00     0.167 HD
ATOM     56  C   UNL A   1      43.567  31.577  30.848  1.00  0.00     0.037 A 
ATOM     57  C   UNL A   1      42.635  25.092  28.336  1.00  0.00     0.037 A 
ATOM     58  C   UNL A   1      44.715  30.713  30.939  1.00  0.00     0.049 A 
ATOM     59  C   UNL A   1      43.961  25.547  28.885  1.00  0.00     0.074 A 
ATOM     60  C   UNL A   1      45.961  30.992  31.470  1.00  0.00     0.029 A 
ATOM     61  N   UNL A   1      44.760  29.402  30.484  1.00  0.00    -0.354 N 
ATOM     62  N   UNL A   1      44.284  26.709  29.404  1.00  0.00    -0.248 NA
ATOM     63  C   UNL A   1      45.063  24.576  28.854  1.00  0.00     0.031 C 
ATOM     64  C   UNL A   1      46.776  29.870  31.289  1.00  0.00     0.029 A 
ATOM     65  C   UNL A   1      46.019  28.868  30.703  1.00  0.00     0.049 A 
ATOM     66  H   UNL A   1      44.007  28.922  30.069  1.00  0.00     0.167 HD
ATOM     67  C   UNL A   1      45.616  26.596  29.790  1.00  0.00     0.074 A 
ATOM     68  C   UNL A   1      46.033  25.250  29.456  1.00  0.00     0.031 C 
ATOM     69  C   UNL A   1      46.418  27.522  30.371  1.00  0.00     0.037 A 
BRANCH  56  70
ATOM     70  C   UNL A   1      43.703  32.999  31.320  1.00  0.00     0.058 A 
ATOM     71  C   UNL A   1      44.122  34.028  30.459  1.00  0.00     0.135 A 
ATOM     72  C   UNL A   1      43.374  33.347  32.640  1.00  0.00     0.135 A 
ATOM     73  F   UNL A   1      44.465  33.750  29.191  1.00  0.00    -0.206 F 
ATOM     74  C   UNL A   1      44.238  35.343  30.897  1.00  0.00     0.059 A 
ATOM     75  C   UNL A   1      43.452  34.662  33.091  1.00  0.00     0.059 A 
ATOM     76  F   UNL A   1      42.970  32.407  33.508  1.00  0.00    -0.206 F 
ATOM     77  C   UNL A   1      43.899  35.650  32.216  1.00  0.00     0.060 A 
BRANCH  77  78
ATOM     78  S   UNL A   1      44.043  37.365  32.764  1.00  0.00     0.124 S 
ATOM     79  O   UNL A   1      43.853  38.087  31.509  1.00  0.00    -0.237 OA
ATOM     80  O   UNL A   1      42.955  37.475  33.729  1.00  0.00    -0.237 OA
ATOM     81  O   UNL A   1      45.388  37.430  33.327  1.00  0.00    -0.744 OA
ENDBRANCH  77  78
ENDBRANCH  56  70
BRANCH  57  82
ATOM     82  C   UNL A   1      42.469  23.724  27.774  1.00  0.00     0.058 A 
ATOM     83  C   UNL A   1      42.495  23.501  26.390  1.00  0.00     0.135 A 
ATOM     84  C   UNL A   1      42.296  22.609  28.610  1.00  0.00     0.135 A 
ATOM     85  F   UNL A   1      42.651  24.534  25.547  1.00  0.00    -0.206 F 
ATOM     86  C   UNL A   1      42.335  22.229  25.851  1.00  0.00     0.059 A 
ATOM     87  C   UNL A   1      42.163  21.323  28.098  1.00  0.00     0.059 A 
ATOM     88  F   UNL A   1      42.282  22.764  29.943  1.00  0.00    -0.206 F 
ATOM     89  C   UNL A   1      42.174  21.144  26.715  1.00  0.00     0.060 A 
BRANCH  89  90
ATOM     90  S   UNL A   1      42.017  19.490  26.008  1.00  0.00     0.124 S 
ATOM     91  O   UNL A   1      40.580  19.401  25.781  1.00  0.00    -0.237 OA
ATOM     92  O   UNL A   1      42.849  19.589  24.812  1.00  0.00    -0.237 OA
ATOM     93  O   UNL A   1      42.546  18.624  27.058  1.00  0.00    -0.744 OA
ENDBRANCH  89  90
ENDBRANCH  57  82
BRANCH  69  94
ATOM     94  C   UNL A   1      47.819  27.101  30.728  1.00  0.00     0.058 A 
ATOM     95  C   UNL A   1      48.108  26.413  31.917  1.00  0.00     0.135 A 
ATOM     96  C   UNL A   1      48.880  27.353  29.843  1.00  0.00     0.135 A 
ATOM     97  F   UNL A   1      47.134  26.151  32.801  1.00  0.00    -0.206 F 
ATOM     98  C   UNL A   1      49.405  26.017  32.230  1.00  0.00     0.059 A 
ATOM     99  C   UNL A   1      50.178  26.937  30.120  1.00  0.00     0.059 A 
ATOM    100  F   UNL A   1      48.657  27.997  28.686  1.00  0.00    -0.206 F 
ATOM    101  C   UNL A   1      50.433  26.283  31.323  1.00  0.00     0.060 A 
BRANCH 101 102
ATOM    102  S   UNL A   1      52.107  25.743  31.731  1.00  0.00     0.124 S 
ATOM    103  O   UNL A   1      52.793  25.923  30.455  1.00  0.00    -0.237 OA
ATOM    104  O   UNL A   1      52.485  26.671  32.791  1.00  0.00    -0.237 OA
ATOM    105  O   UNL A   1      51.924  24.358  32.154  1.00  0.00    -0.744 OA
ENDBRANCH 101 102
ENDBRANCH  69  94
ENDBRANCH  43  44
ENDBRANCH  35  38
ENDBRANCH  33  34
ENDBRANCH  32  33
ENDBRANCH   1  32
TORSDOF 18
ENDMDL
MODEL 2
REMARK VINA RESULT:     -12.1      4.652     10.416
REMARK SMILES COc1cc([C@H]2[NH2+]CCC3=c4ccccc4=N[C@H]32)ccc1OCC(=O)NCCCCNC(=O)c1ccc(-c2c3nc(c(-c4c(F)cc(S(=O)(=O)[O-])cc4F)c4ccc([nH]4)c(-c4c(F)cc(S(=O)(=O)[O-])cc4F)c4nc(c(-c5c(F)cc(S(=O)(=O)[O-])cc5F)c5ccc2[nH]5)C=C4)C=C3)cc1
REMARK SMILES IDX 28 1 27 2 26 3 24 4 25 5 23 7 22 8 21 9 3 10 4 11 5 12 20 13
REMARK SMILES IDX 19 14 2 15 1 16 6 17 7 18 18 19 8 20 10 23 17 24 9 25 11 26
REMARK SMILES IDX 16 27 12 28 15 29 13 30 14 31 29 32 30 33 31 34 32 35 33 37
REMARK SMILES IDX 34 38 35 39 99 40 36 41 98 42 37 43 38 44 39 45 92 46 40 47
REMARK SMILES IDX 97 48 91 49 93 50 41 51 96 52 90 53 89 54 42 56 76 57 55 58
REMARK SMILES IDX 75 59 56 60 59 61 74 62 94 63 57 64 58 65 73 67 95 68 60 69
REMARK SMILES IDX 43 70 44 71 53 72 45 73 46 74 52 75 54 76 47 77 48 78 49 79
REMARK SMILES IDX 50 80 51 81 77 82 78 83 87 84 79 85 80 86 86 87 88 88 81 89
REMARK SMILES IDX 82 90 83 91 84 92 85 93 61 94 62 95 71 96 63 97 64 98 70 99
REMARK SMILES IDX 72 100 65 101 66 102 67 103 68 104 69 105
REMARK H PARENT 26 6 7 21 7 22 31 36 93 55 59 66
REMARK Flexibility Score: inf
ROOT
ATOM      1  C   UNL A   1      37.475  22.350  24.756  1.00  0.00     0.023 C 
ENDROOT
BRANCH   1   2
ATOM      2  C   UNL A   1      36.699  21.177  25.347  1.00  0.00     0.116 C 
BRANCH   2   3
ATOM      3  N   UNL A   1      35.808  21.557  26.424  1.00  0.00    -0.353 N 
ATOM      4  C   UNL A   1      34.477  21.272  26.554  1.00  0.00     0.257 C 
ATOM      5  O   UNL A   1      33.941  21.461  27.648  1.00  0.00    -0.271 OA
ATOM      6  H   UNL A   1      36.210  22.086  27.152  1.00  0.00     0.163 HD
BRANCH   4   7
ATOM      7  C   UNL A   1      33.723  20.665  25.371  1.00  0.00     0.329 C 
BRANCH   7   8
ATOM      8  O   UNL A   1      32.624  21.433  24.917  1.00  0.00    -0.480 OA
BRANCH   8   9
ATOM      9  C   UNL A   1      32.755  22.772  24.686  1.00  0.00     0.161 A 
ATOM     10  C   UNL A   1      32.319  23.839  25.469  1.00  0.00     0.161 A 
ATOM     11  C   UNL A   1      32.278  25.127  24.916  1.00  0.00     0.060 A 
ATOM     12  C   UNL A   1      32.683  25.358  23.587  1.00  0.00     0.016 A 
ATOM     13  C   UNL A   1      33.325  23.049  23.436  1.00  0.00     0.051 A 
ATOM     14  C   UNL A   1      33.362  24.342  22.918  1.00  0.00     0.014 A 
BRANCH  10  15
ATOM     15  O   UNL A   1      31.713  23.645  26.680  1.00  0.00    -0.493 OA
ATOM     16  C   UNL A   1      30.288  23.647  26.567  1.00  0.00     0.278 C 
ENDBRANCH  10  15
BRANCH  12  17
ATOM     17  C   UNL A   1      32.147  26.580  22.838  1.00  0.00     0.243 C 
ATOM     18  N   UNL A   1      30.669  26.585  22.708  1.00  0.00    -0.338 N 
ATOM     19  C   UNL A   1      32.889  27.951  23.165  1.00  0.00     0.196 C 
ATOM     20  C   UNL A   1      29.942  27.732  23.264  1.00  0.00     0.265 C 
ATOM     21  H   UNL A   1      30.320  25.748  23.174  1.00  0.00     0.346 HD
ATOM     22  H   UNL A   1      30.498  26.631  21.704  1.00  0.00     0.346 HD
ATOM     23  C   UNL A   1      31.958  28.938  23.791  1.00  0.00    -0.025 C 
ATOM     24  N   UNL A   1      34.031  27.860  24.130  1.00  0.00    -0.270 NA
ATOM     25  C   UNL A   1      30.643  29.089  23.130  1.00  0.00     0.095 C 
ATOM     26  C   UNL A   1      32.407  29.383  24.957  1.00  0.00     0.001 A 
ATOM     27  C   UNL A   1      33.665  28.633  25.108  1.00  0.00     0.066 A 
ATOM     28  C   UNL A   1      31.891  30.218  25.989  1.00  0.00     0.010 A 
ATOM     29  C   UNL A   1      34.358  28.784  26.409  1.00  0.00     0.028 A 
ATOM     30  C   UNL A   1      32.571  30.307  27.143  1.00  0.00     0.001 A 
ATOM     31  C   UNL A   1      33.806  29.566  27.353  1.00  0.00     0.002 A 
ENDBRANCH  12  17
ENDBRANCH   8   9
ENDBRANCH   7   8
ENDBRANCH   4   7
ENDBRANCH   2   3
ENDBRANCH   1   2
BRANCH   1  32
ATOM     32  C   UNL A   1      37.211  23.710  25.395  1.00  0.00     0.023 C 
BRANCH  32  33
ATOM     33  C   UNL A   1      38.170  24.094  26.509  1.00  0.00     0.116 C 
BRANCH  33  34
ATOM     34  N   UNL A   1      39.566  23.978  26.119  1.00  0.00    -0.352 N 
ATOM     35  C   UNL A   1      40.636  24.752  26.487  1.00  0.00     0.251 C 
ATOM     36  H   UNL A   1      39.772  23.237  25.503  1.00  0.00     0.163 HD
ATOM     37  O   UNL A   1      41.729  24.579  25.952  1.00  0.00    -0.269 OA
BRANCH  35  38
ATOM     38  C   UNL A   1      40.456  25.814  27.498  1.00  0.00     0.039 A 
ATOM     39  C   UNL A   1      39.515  25.623  28.511  1.00  0.00     0.014 A 
ATOM     40  C   UNL A   1      41.232  26.977  27.466  1.00  0.00     0.014 A 
ATOM     41  C   UNL A   1      39.392  26.573  29.525  1.00  0.00     0.010 A 
ATOM     42  C   UNL A   1      41.172  27.875  28.525  1.00  0.00     0.010 A 
ATOM     43  C   UNL A   1      40.244  27.689  29.560  1.00  0.00    -0.014 A 
BRANCH  43  44
ATOM     44  C   UNL A   1      40.168  28.679  30.666  1.00  0.00     0.031 A 
ATOM     45  C   UNL A   1      41.048  28.523  31.878  1.00  0.00     0.074 A 
ATOM     46  C   UNL A   1      39.271  29.683  30.602  1.00  0.00     0.049 A 
ATOM     47  N   UNL A   1      41.095  29.253  32.962  1.00  0.00    -0.248 NA
ATOM     48  C   UNL A   1      41.977  27.382  31.884  1.00  0.00     0.031 C 
ATOM     49  C   UNL A   1      38.327  29.906  29.505  1.00  0.00     0.029 A 
ATOM     50  N   UNL A   1      39.000  30.700  31.483  1.00  0.00    -0.354 N 
ATOM     51  C   UNL A   1      42.045  28.653  33.781  1.00  0.00     0.074 A 
ATOM     52  C   UNL A   1      42.506  27.467  33.095  1.00  0.00     0.031 C 
ATOM     53  C   UNL A   1      37.600  31.004  29.766  1.00  0.00     0.029 A 
ATOM     54  C   UNL A   1      37.996  31.542  31.064  1.00  0.00     0.049 A 
ATOM     55  H   UNL A   1      39.480  30.818  32.334  1.00  0.00     0.167 HD
ATOM     56  C   UNL A   1      42.509  29.068  34.984  1.00  0.00     0.037 A 
ATOM     57  C   UNL A   1      37.452  32.620  31.660  1.00  0.00     0.037 A 
ATOM     58  C   UNL A   1      42.060  30.264  35.649  1.00  0.00     0.049 A 
ATOM     59  C   UNL A   1      37.986  33.063  32.996  1.00  0.00     0.074 A 
ATOM     60  C   UNL A   1      42.508  30.804  36.841  1.00  0.00     0.029 A 
ATOM     61  N   UNL A   1      41.057  31.103  35.183  1.00  0.00    -0.354 N 
ATOM     62  N   UNL A   1      38.934  32.523  33.726  1.00  0.00    -0.248 NA
ATOM     63  C   UNL A   1      37.386  34.268  33.586  1.00  0.00     0.031 C 
ATOM     64  C   UNL A   1      41.741  31.939  37.122  1.00  0.00     0.029 A 
ATOM     65  C   UNL A   1      40.858  32.143  36.075  1.00  0.00     0.049 A 
ATOM     66  H   UNL A   1      40.561  30.977  34.341  1.00  0.00     0.167 HD
ATOM     67  C   UNL A   1      39.066  33.340  34.844  1.00  0.00     0.074 A 
ATOM     68  C   UNL A   1      38.109  34.416  34.687  1.00  0.00     0.031 C 
ATOM     69  C   UNL A   1      39.905  33.213  35.901  1.00  0.00     0.037 A 
BRANCH  56  70
ATOM     70  C   UNL A   1      43.556  28.224  35.659  1.00  0.00     0.058 A 
ATOM     71  C   UNL A   1      44.927  28.406  35.410  1.00  0.00     0.135 A 
ATOM     72  C   UNL A   1      43.188  27.246  36.597  1.00  0.00     0.135 A 
ATOM     73  F   UNL A   1      45.336  29.315  34.511  1.00  0.00    -0.206 F 
ATOM     74  C   UNL A   1      45.892  27.630  36.043  1.00  0.00     0.059 A 
ATOM     75  C   UNL A   1      44.137  26.480  37.267  1.00  0.00     0.059 A 
ATOM     76  F   UNL A   1      41.893  27.027  36.874  1.00  0.00    -0.206 F 
ATOM     77  C   UNL A   1      45.487  26.670  36.972  1.00  0.00     0.060 A 
BRANCH  77  78
ATOM     78  S   UNL A   1      46.754  25.680  37.794  1.00  0.00     0.124 S 
ATOM     79  O   UNL A   1      47.922  26.547  37.674  1.00  0.00    -0.237 OA
ATOM     80  O   UNL A   1      46.209  25.535  39.140  1.00  0.00    -0.237 OA
ATOM     81  O   UNL A   1      46.797  24.456  37.002  1.00  0.00    -0.744 OA
ENDBRANCH  77  78
ENDBRANCH  56  70
BRANCH  57  82
ATOM     82  C   UNL A   1      36.353  33.367  30.990  1.00  0.00     0.058 A 
ATOM     83  C   UNL A   1      35.029  33.272  31.444  1.00  0.00     0.135 A 
ATOM     84  C   UNL A   1      36.606  34.202  29.890  1.00  0.00     0.135 A 
ATOM     85  F   UNL A   1      34.733  32.483  32.489  1.00  0.00    -0.206 F 
ATOM     86  C   UNL A   1      33.992  33.960  30.823  1.00  0.00     0.059 A 
ATOM     87  C   UNL A   1      35.592  34.923  29.270  1.00  0.00     0.059 A 
ATOM     88  F   UNL A   1      37.858  34.343  29.426  1.00  0.00    -0.206 F 
ATOM     89  C   UNL A   1      34.285  34.788  29.737  1.00  0.00     0.060 A 
BRANCH  89  90
ATOM     90  S   UNL A   1      32.940  35.716  28.969  1.00  0.00     0.124 S 
ATOM     91  O   UNL A   1      32.346  34.709  28.099  1.00  0.00    -0.237 OA
ATOM     92  O   UNL A   1      32.143  36.112  30.127  1.00  0.00    -0.237 OA
ATOM     93  O   UNL A   1      33.630  36.810  28.291  1.00  0.00    -0.744 OA
ENDBRANCH  89  90
ENDBRANCH  57  82
BRANCH  69  94
ATOM     94  C   UNL A   1      39.863  34.287  36.955  1.00  0.00     0.058 A 
ATOM     95  C   UNL A   1      40.539  35.507  36.801  1.00  0.00     0.135 A 
ATOM     96  C   UNL A   1      39.095  34.107  38.118  1.00  0.00     0.135 A 
ATOM     97  F   UNL A   1      41.291  35.731  35.712  1.00  0.00    -0.206 F 
ATOM     98  C   UNL A   1      40.482  36.498  37.776  1.00  0.00     0.059 A 
ATOM     99  C   UNL A   1      38.996  35.097  39.090  1.00  0.00     0.059 A 
ATOM    100  F   UNL A   1      38.418  32.964  38.311  1.00  0.00    -0.206 F 
ATOM    101  C   UNL A   1      39.705  36.284  38.917  1.00  0.00     0.060 A 
BRANCH 101 102
ATOM    102  S   UNL A   1      39.621  37.587  40.163  1.00  0.00     0.124 S 
ATOM    103  O   UNL A   1      41.017  38.003  40.249  1.00  0.00    -0.237 OA
ATOM    104  O   UNL A   1      38.709  38.548  39.550  1.00  0.00    -0.237 OA
ATOM    105  O   UNL A   1      39.097  36.899  41.340  1.00  0.00    -0.744 OA
ENDBRANCH 101 102
ENDBRANCH  69  94
ENDBRANCH  43  44
ENDBRANCH  35  38
ENDBRANCH  33  34
ENDBRANCH  32  33
ENDBRANCH   1  32
TORSDOF 18
ENDMDL
MODEL 3
REMARK VINA RESULT:     -11.7      0.989      7.961
REMARK SMILES COc1cc([C@H]2[NH2+]CCC3=c4ccccc4=N[C@H]32)ccc1OCC(=O)NCCCCNC(=O)c1ccc(-c2c3nc(c(-c4c(F)cc(S(=O)(=O)[O-])cc4F)c4ccc([nH]4)c(-c4c(F)cc(S(=O)(=O)[O-])cc4F)c4nc(c(-c5c(F)cc(S(=O)(=O)[O-])cc5F)c5ccc2[nH]5)C=C4)C=C3)cc1
REMARK SMILES IDX 28 1 27 2 26 3 24 4 25 5 23 7 22 8 21 9 3 10 4 11 5 12 20 13
REMARK SMILES IDX 19 14 2 15 1 16 6 17 7 18 18 19 8 20 10 23 17 24 9 25 11 26
REMARK SMILES IDX 16 27 12 28 15 29 13 30 14 31 29 32 30 33 31 34 32 35 33 37
REMARK SMILES IDX 34 38 35 39 99 40 36 41 98 42 37 43 38 44 39 45 92 46 40 47
REMARK SMILES IDX 97 48 91 49 93 50 41 51 96 52 90 53 89 54 42 56 76 57 55 58
REMARK SMILES IDX 75 59 56 60 59 61 74 62 94 63 57 64 58 65 73 67 95 68 60 69
REMARK SMILES IDX 43 70 44 71 53 72 45 73 46 74 52 75 54 76 47 77 48 78 49 79
REMARK SMILES IDX 50 80 51 81 77 82 78 83 87 84 79 85 80 86 86 87 88 88 81 89
REMARK SMILES IDX 82 90 83 91 84 92 85 93 61 94 62 95 71 96 63 97 64 98 70 99
REMARK SMILES IDX 72 100 65 101 66 102 67 103 68 104 69 105
REMARK H PARENT 26 6 7 21 7 22 31 36 93 55 59 66
REMARK Flexibility Score: inf
ROOT
ATOM      1  C   UNL A   1      31.758  28.749  26.168  1.00  0.00     0.023 C 
ENDROOT
BRANCH   1   2
ATOM      2  C   UNL A   1      31.923  29.722  25.005  1.00  0.00     0.116 C 
BRANCH   2   3
ATOM      3  N   UNL A   1      30.693  29.963  24.276  1.00  0.00    -0.353 N 
ATOM      4  C   UNL A   1      30.252  29.335  23.144  1.00  0.00     0.257 C 
ATOM      5  O   UNL A   1      29.076  29.495  22.807  1.00  0.00    -0.271 OA
ATOM      6  H   UNL A   1      30.105  30.663  24.640  1.00  0.00     0.163 HD
BRANCH   4   7
ATOM      7  C   UNL A   1      31.199  28.409  22.383  1.00  0.00     0.329 C 
BRANCH   7   8
ATOM      8  O   UNL A   1      30.801  27.051  22.359  1.00  0.00    -0.480 OA
BRANCH   8   9
ATOM      9  C   UNL A   1      31.426  26.125  23.143  1.00  0.00     0.161 A 
ATOM     10  C   UNL A   1      32.624  25.450  22.908  1.00  0.00     0.161 A 
ATOM     11  C   UNL A   1      32.942  24.323  23.680  1.00  0.00     0.060 A 
ATOM     12  C   UNL A   1      32.075  23.872  24.694  1.00  0.00     0.016 A 
ATOM     13  C   UNL A   1      30.672  25.774  24.270  1.00  0.00     0.051 A 
ATOM     14  C   UNL A   1      31.030  24.706  25.089  1.00  0.00     0.014 A 
BRANCH  10  15
ATOM     15  O   UNL A   1      33.392  25.706  21.806  1.00  0.00    -0.493 OA
ATOM     16  C   UNL A   1      32.733  25.319  20.598  1.00  0.00     0.278 C 
ENDBRANCH  10  15
BRANCH  12  17
ATOM     17  C   UNL A   1      32.132  22.409  25.138  1.00  0.00     0.243 C 
ATOM     18  N   UNL A   1      31.812  21.454  24.049  1.00  0.00    -0.338 N 
ATOM     19  C   UNL A   1      33.318  22.054  26.141  1.00  0.00     0.196 C 
ATOM     20  C   UNL A   1      32.826  20.450  23.706  1.00  0.00     0.265 C 
ATOM     21  H   UNL A   1      31.629  22.001  23.208  1.00  0.00     0.346 HD
ATOM     22  H   UNL A   1      31.022  20.915  24.402  1.00  0.00     0.346 HD
ATOM     23  C   UNL A   1      34.261  21.063  25.539  1.00  0.00    -0.025 C 
ATOM     24  N   UNL A   1      34.195  23.199  26.543  1.00  0.00    -0.270 NA
ATOM     25  C   UNL A   1      33.633  19.894  24.885  1.00  0.00     0.095 C 
ATOM     26  C   UNL A   1      35.514  21.501  25.533  1.00  0.00     0.001 A 
ATOM     27  C   UNL A   1      35.374  22.840  26.128  1.00  0.00     0.066 A 
ATOM     28  C   UNL A   1      36.748  21.030  25.002  1.00  0.00     0.010 A 
ATOM     29  C   UNL A   1      36.593  23.682  26.126  1.00  0.00     0.028 A 
ATOM     30  C   UNL A   1      37.814  21.847  25.032  1.00  0.00     0.001 A 
ATOM     31  C   UNL A   1      37.722  23.190  25.586  1.00  0.00     0.002 A 
ENDBRANCH  12  17
ENDBRANCH   8   9
ENDBRANCH   7   8
ENDBRANCH   4   7
ENDBRANCH   2   3
ENDBRANCH   1   2
BRANCH   1  32
ATOM     32  C   UNL A   1      32.881  27.732  26.348  1.00  0.00     0.023 C 
BRANCH  32  33
ATOM     33  C   UNL A   1      34.125  28.262  27.039  1.00  0.00     0.116 C 
BRANCH  33  34
ATOM     34  N   UNL A   1      33.928  29.577  27.628  1.00  0.00    -0.352 N 
ATOM     35  C   UNL A   1      34.817  30.360  28.317  1.00  0.00     0.251 C 
ATOM     36  H   UNL A   1      33.026  29.959  27.516  1.00  0.00     0.163 HD
ATOM     37  O   UNL A   1      34.432  31.396  28.855  1.00  0.00    -0.269 OA
BRANCH  35  38
ATOM     38  C   UNL A   1      36.226  29.933  28.438  1.00  0.00     0.039 A 
ATOM     39  C   UNL A   1      37.059  30.046  27.323  1.00  0.00     0.014 A 
ATOM     40  C   UNL A   1      36.730  29.452  29.650  1.00  0.00     0.014 A 
ATOM     41  C   UNL A   1      38.413  29.731  27.442  1.00  0.00     0.010 A 
ATOM     42  C   UNL A   1      38.095  29.227  29.788  1.00  0.00     0.010 A 
ATOM     43  C   UNL A   1      38.950  29.353  28.684  1.00  0.00    -0.014 A 
BRANCH  43  44
ATOM     44  C   UNL A   1      40.400  29.074  28.840  1.00  0.00     0.031 A 
ATOM     45  C   UNL A   1      40.948  27.715  28.491  1.00  0.00     0.074 A 
ATOM     46  C   UNL A   1      41.212  30.023  29.346  1.00  0.00     0.049 A 
ATOM     47  N   UNL A   1      42.171  27.266  28.603  1.00  0.00    -0.248 NA
ATOM     48  C   UNL A   1      39.990  26.724  27.976  1.00  0.00     0.031 C 
ATOM     49  C   UNL A   1      40.788  31.359  29.772  1.00  0.00     0.029 A 
ATOM     50  N   UNL A   1      42.562  30.010  29.596  1.00  0.00    -0.354 N 
ATOM     51  C   UNL A   1      42.127  25.940  28.185  1.00  0.00     0.074 A 
ATOM     52  C   UNL A   1      40.747  25.641  27.876  1.00  0.00     0.031 C 
ATOM     53  C   UNL A   1      41.859  32.044  30.205  1.00  0.00     0.029 A 
ATOM     54  C   UNL A   1      43.038  31.186  30.126  1.00  0.00     0.049 A 
ATOM     55  H   UNL A   1      43.135  29.231  29.412  1.00  0.00     0.167 HD
ATOM     56  C   UNL A   1      43.147  25.061  28.048  1.00  0.00     0.037 A 
ATOM     57  C   UNL A   1      44.281  31.532  30.512  1.00  0.00     0.037 A 
ATOM     58  C   UNL A   1      44.522  25.375  28.338  1.00  0.00     0.049 A 
ATOM     59  C   UNL A   1      45.400  30.539  30.347  1.00  0.00     0.074 A 
ATOM     60  C   UNL A   1      45.639  24.576  28.176  1.00  0.00     0.029 A 
ATOM     61  N   UNL A   1      44.969  26.585  28.852  1.00  0.00    -0.354 N 
ATOM     62  N   UNL A   1      45.352  29.311  29.886  1.00  0.00    -0.248 NA
ATOM     63  C   UNL A   1      46.744  30.979  30.745  1.00  0.00     0.031 C 
ATOM     64  C   UNL A   1      46.753  25.281  28.642  1.00  0.00     0.029 A 
ATOM     65  C   UNL A   1      46.341  26.543  29.035  1.00  0.00     0.049 A 
ATOM     66  H   UNL A   1      44.394  27.358  29.056  1.00  0.00     0.167 HD
ATOM     67  C   UNL A   1      46.662  28.844  29.907  1.00  0.00     0.074 A 
ATOM     68  C   UNL A   1      47.480  29.926  30.416  1.00  0.00     0.031 C 
ATOM     69  C   UNL A   1      47.144  27.633  29.536  1.00  0.00     0.037 A 
BRANCH  56  70
ATOM     70  C   UNL A   1      42.817  23.675  27.564  1.00  0.00     0.058 A 
ATOM     71  C   UNL A   1      42.758  23.363  26.195  1.00  0.00     0.135 A 
ATOM     72  C   UNL A   1      42.594  22.634  28.480  1.00  0.00     0.135 A 
ATOM     73  F   UNL A   1      42.947  24.322  25.275  1.00  0.00    -0.206 F 
ATOM     74  C   UNL A   1      42.462  22.078  25.753  1.00  0.00     0.059 A 
ATOM     75  C   UNL A   1      42.327  21.334  28.060  1.00  0.00     0.059 A 
ATOM     76  F   UNL A   1      42.635  22.873  29.800  1.00  0.00    -0.206 F 
ATOM     77  C   UNL A   1      42.249  21.070  26.694  1.00  0.00     0.060 A 
BRANCH  77  78
ATOM     78  S   UNL A   1      41.878  19.405  26.101  1.00  0.00     0.124 S 
ATOM     79  O   UNL A   1      42.796  19.288  24.971  1.00  0.00    -0.237 OA
ATOM     80  O   UNL A   1      42.197  18.582  27.263  1.00  0.00    -0.237 OA
ATOM     81  O   UNL A   1      40.463  19.474  25.754  1.00  0.00    -0.744 OA
ENDBRANCH  77  78
ENDBRANCH  56  70
BRANCH  57  82
ATOM     82  C   UNL A   1      44.537  32.887  31.071  1.00  0.00     0.058 A 
ATOM     83  C   UNL A   1      44.878  33.963  30.237  1.00  0.00     0.135 A 
ATOM     84  C   UNL A   1      44.432  33.139  32.448  1.00  0.00     0.135 A 
ATOM     85  F   UNL A   1      44.998  33.774  28.914  1.00  0.00    -0.206 F 
ATOM     86  C   UNL A   1      45.125  35.233  30.748  1.00  0.00     0.059 A 
ATOM     87  C   UNL A   1      44.644  34.406  32.980  1.00  0.00     0.059 A 
ATOM     88  F   UNL A   1      44.090  32.149  33.288  1.00  0.00    -0.206 F 
ATOM     89  C   UNL A   1      45.001  35.446  32.122  1.00  0.00     0.060 A 
BRANCH  89  90
ATOM     90  S   UNL A   1      45.275  37.110  32.768  1.00  0.00     0.124 S 
ATOM     91  O   UNL A   1      46.111  37.697  31.728  1.00  0.00    -0.237 OA
ATOM     92  O   UNL A   1      43.914  37.628  32.864  1.00  0.00    -0.237 OA
ATOM     93  O   UNL A   1      45.936  36.869  34.048  1.00  0.00    -0.744 OA
ENDBRANCH  89  90
ENDBRANCH  57  82
BRANCH  69  94
ATOM     94  C   UNL A   1      48.632  27.421  29.621  1.00  0.00     0.058 A 
ATOM     95  C   UNL A   1      49.225  26.735  30.692  1.00  0.00     0.135 A 
ATOM     96  C   UNL A   1      49.471  27.875  28.590  1.00  0.00     0.135 A 
ATOM     97  F   UNL A   1      48.472  26.284  31.707  1.00  0.00    -0.206 F 
ATOM     98  C   UNL A   1      50.601  26.533  30.753  1.00  0.00     0.059 A 
ATOM     99  C   UNL A   1      50.844  27.655  28.614  1.00  0.00     0.059 A 
ATOM    100  F   UNL A   1      48.955  28.526  27.536  1.00  0.00    -0.206 F 
ATOM    101  C   UNL A   1      51.402  26.996  29.707  1.00  0.00     0.060 A 
BRANCH 101 102
ATOM    102  S   UNL A   1      53.181  26.707  29.788  1.00  0.00     0.124 S 
ATOM    103  O   UNL A   1      53.286  25.839  30.956  1.00  0.00    -0.237 OA
ATOM    104  O   UNL A   1      53.455  26.075  28.502  1.00  0.00    -0.237 OA
ATOM    105  O   UNL A   1      53.737  28.048  29.951  1.00  0.00    -0.744 OA
ENDBRANCH 101 102
ENDBRANCH  69  94
ENDBRANCH  43  44
ENDBRANCH  35  38
ENDBRANCH  33  34
ENDBRANCH  32  33
ENDBRANCH   1  32
TORSDOF 18
ENDMDL
