MODEL 1
REMARK VINA RESULT:     -10.0      0.000      0.000
REMARK SMILES CC1(C)Cc2c(-c3ccccc3)c(-c3ccc(Cl)cc3)c(CC(=O)NCCCCNC(=O)c3ccc(-c4c5nc(c(-c6c(F)cc(S(=O)(=O)[O-])cc6F)c6ccc([nH]6)c(-c6c(F)cc(S(=O)(=O)[O-])cc6F)c6nc(c(-c7c(F)cc(S(=O)(=O)[O-])cc7F)c7ccc4[nH]7)C=C6)C=C5)cc3)n2C1
REMARK SMILES IDX 28 1 27 2 26 3 25 4 23 5 24 6 22 8 21 9 1 10 2 11 3 12 4 13
REMARK SMILES IDX 100 14 5 15 99 16 6 17 13 18 7 19 8 20 12 21 9 22 11 23
REMARK SMILES IDX 10 24 14 25 15 26 20 27 16 28 19 29 17 30 18 31 29 32 30 33
REMARK SMILES IDX 31 34 32 36 33 37 34 38 98 39 35 40 97 41 36 42 37 43 38 44
REMARK SMILES IDX 91 45 39 46 96 47 90 48 92 49 40 50 95 51 89 52 88 53 41 55
REMARK SMILES IDX 75 56 54 57 74 58 55 59 58 60 73 61 93 62 56 63 57 64 72 66
REMARK SMILES IDX 94 67 59 68 42 69 43 70 52 71 44 72 45 73 51 74 53 75 46 76
REMARK SMILES IDX 47 77 48 78 49 79 50 80 76 81 77 82 86 83 78 84 79 85 85 86
REMARK SMILES IDX 87 87 80 88 81 89 82 90 83 91 84 92 60 93 61 94 70 95 62 96
REMARK SMILES IDX 63 97 69 98 71 99 64 100 65 101 66 102 67 103 68 104
REMARK H PARENT 25 7 30 35 92 54 58 65
REMARK Flexibility Score: inf
ROOT
ATOM      1  C   UNL A   1      35.699  31.763  31.834  1.00  0.00     0.023 C 
ENDROOT
BRANCH   1   2
ATOM      2  C   UNL A   1      37.075  32.244  32.304  1.00  0.00     0.023 C 
BRANCH   2   3
ATOM      3  C   UNL A   1      37.268  33.750  32.491  1.00  0.00     0.116 C 
BRANCH   3   4
ATOM      4  N   UNL A   1      37.705  34.441  31.301  1.00  0.00    -0.356 N 
ATOM      5  C   UNL A   1      38.899  34.356  30.640  1.00  0.00     0.225 C 
ATOM      6  O   UNL A   1      39.010  34.984  29.584  1.00  0.00    -0.275 OA
ATOM      7  H   UNL A   1      37.049  35.062  30.909  1.00  0.00     0.163 HD
BRANCH   5   8
ATOM      8  C   UNL A   1      40.035  33.481  31.154  1.00  0.00     0.154 C 
BRANCH   8   9
ATOM      9  C   UNL A   1      41.001  34.206  32.047  1.00  0.00     0.036 A 
ATOM     10  C   UNL A   1      44.316  36.969  29.546  1.00  0.00     0.013 C 
ATOM     11  C   UNL A   1      43.951  35.832  30.501  1.00  0.00    -0.012 C 
ATOM     12  C   UNL A   1      45.002  34.717  30.350  1.00  0.00     0.013 C 
ATOM     13  C   UNL A   1      43.901  36.311  31.989  1.00  0.00     0.063 C 
ATOM     14  C   UNL A   1      42.515  35.298  30.219  1.00  0.00     0.129 C 
ATOM     15  C   UNL A   1      42.770  35.527  32.541  1.00  0.00     0.027 A 
ATOM     16  N   UNL A   1      42.017  34.969  31.550  1.00  0.00    -0.346 N 
ATOM     17  C   UNL A   1      42.241  35.140  33.743  1.00  0.00     0.011 A 
ATOM     18  C   UNL A   1      41.090  34.326  33.438  1.00  0.00     0.011 A 
BRANCH  17  19
ATOM     19  C   UNL A   1      42.798  35.467  35.040  1.00  0.00    -0.016 A 
ATOM     20  C   UNL A   1      42.625  36.738  35.596  1.00  0.00     0.009 A 
ATOM     21  C   UNL A   1      43.444  34.469  35.781  1.00  0.00     0.009 A 
ATOM     22  C   UNL A   1      43.081  36.999  36.889  1.00  0.00     0.001 A 
ATOM     23  C   UNL A   1      43.898  34.732  37.073  1.00  0.00     0.001 A 
ATOM     24  C   UNL A   1      43.712  35.995  37.628  1.00  0.00     0.000 A 
ENDBRANCH  17  19
BRANCH  18  25
ATOM     25  C   UNL A   1      40.192  33.721  34.417  1.00  0.00    -0.016 A 
ATOM     26  C   UNL A   1      39.404  34.549  35.229  1.00  0.00     0.010 A 
ATOM     27  C   UNL A   1      40.217  32.348  34.677  1.00  0.00     0.010 A 
ATOM     28  C   UNL A   1      38.654  34.010  36.280  1.00  0.00     0.021 A 
ATOM     29  C   UNL A   1      39.446  31.802  35.708  1.00  0.00     0.021 A 
ATOM     30  C   UNL A   1      38.677  32.637  36.512  1.00  0.00     0.041 A 
ATOM     31  Cl  UNL A   1      37.782  31.977  37.825  1.00  0.00    -0.084 Cl
ENDBRANCH  18  25
ENDBRANCH   8   9
ENDBRANCH   5   8
ENDBRANCH   3   4
ENDBRANCH   2   3
ENDBRANCH   1   2
BRANCH   1  32
ATOM     32  C   UNL A   1      34.984  32.707  30.875  1.00  0.00     0.116 C 
BRANCH  32  33
ATOM     33  N   UNL A   1      34.184  32.016  29.857  1.00  0.00    -0.352 N 
ATOM     34  C   UNL A   1      34.625  31.404  28.691  1.00  0.00     0.251 C 
ATOM     35  H   UNL A   1      33.213  31.982  30.021  1.00  0.00     0.163 HD
ATOM     36  O   UNL A   1      33.872  31.197  27.759  1.00  0.00    -0.269 OA
BRANCH  34  37
ATOM     37  C   UNL A   1      36.039  30.988  28.629  1.00  0.00     0.039 A 
ATOM     38  C   UNL A   1      37.094  31.904  28.591  1.00  0.00     0.014 A 
ATOM     39  C   UNL A   1      36.282  29.623  28.690  1.00  0.00     0.014 A 
ATOM     40  C   UNL A   1      38.398  31.425  28.722  1.00  0.00     0.010 A 
ATOM     41  C   UNL A   1      37.534  29.178  29.011  1.00  0.00     0.010 A 
ATOM     42  C   UNL A   1      38.609  30.059  28.958  1.00  0.00    -0.014 A 
BRANCH  42  43
ATOM     43  C   UNL A   1      39.933  29.517  29.250  1.00  0.00     0.031 A 
ATOM     44  C   UNL A   1      40.231  29.327  30.698  1.00  0.00     0.074 A 
ATOM     45  C   UNL A   1      40.698  28.960  28.285  1.00  0.00     0.049 A 
ATOM     46  N   UNL A   1      41.103  29.946  31.423  1.00  0.00    -0.248 NA
ATOM     47  C   UNL A   1      39.349  28.437  31.474  1.00  0.00     0.031 C 
ATOM     48  C   UNL A   1      40.368  28.759  26.866  1.00  0.00     0.029 A 
ATOM     49  N   UNL A   1      41.893  28.324  28.396  1.00  0.00    -0.354 N 
ATOM     50  C   UNL A   1      41.052  29.346  32.683  1.00  0.00     0.074 A 
ATOM     51  C   UNL A   1      39.819  28.607  32.711  1.00  0.00     0.031 C 
ATOM     52  C   UNL A   1      41.203  27.844  26.330  1.00  0.00     0.029 A 
ATOM     53  C   UNL A   1      42.237  27.541  27.299  1.00  0.00     0.049 A 
ATOM     54  H   UNL A   1      42.470  28.411  29.190  1.00  0.00     0.167 HD
ATOM     55  C   UNL A   1      42.154  29.295  33.488  1.00  0.00     0.037 A 
ATOM     56  C   UNL A   1      43.285  26.685  27.206  1.00  0.00     0.037 A 
ATOM     57  C   UNL A   1      43.167  30.212  33.018  1.00  0.00     0.049 A 
ATOM     58  C   UNL A   1      44.252  27.077  28.263  1.00  0.00     0.074 A 
ATOM     59  C   UNL A   1      43.221  31.574  32.791  1.00  0.00     0.029 A 
ATOM     60  N   UNL A   1      44.237  29.680  32.336  1.00  0.00    -0.354 N 
ATOM     61  N   UNL A   1      44.890  28.218  28.277  1.00  0.00    -0.248 NA
ATOM     62  C   UNL A   1      44.156  26.404  29.549  1.00  0.00     0.031 C 
ATOM     63  C   UNL A   1      44.004  31.718  31.606  1.00  0.00     0.029 A 
ATOM     64  C   UNL A   1      44.443  30.449  31.222  1.00  0.00     0.049 A 
ATOM     65  H   UNL A   1      44.759  28.889  32.601  1.00  0.00     0.167 HD
ATOM     66  C   UNL A   1      44.895  28.608  29.609  1.00  0.00     0.074 A 
ATOM     67  C   UNL A   1      44.515  27.408  30.353  1.00  0.00     0.031 C 
ATOM     68  C   UNL A   1      44.923  29.929  29.959  1.00  0.00     0.037 A 
BRANCH  55  69
ATOM     69  C   UNL A   1      42.497  28.155  34.438  1.00  0.00     0.058 A 
ATOM     70  C   UNL A   1      42.582  28.432  35.823  1.00  0.00     0.135 A 
ATOM     71  C   UNL A   1      43.032  26.908  34.047  1.00  0.00     0.135 A 
ATOM     72  F   UNL A   1      42.073  29.567  36.328  1.00  0.00    -0.206 F 
ATOM     73  C   UNL A   1      43.266  27.606  36.715  1.00  0.00     0.059 A 
ATOM     74  C   UNL A   1      43.673  26.046  34.931  1.00  0.00     0.059 A 
ATOM     75  F   UNL A   1      43.047  26.490  32.778  1.00  0.00    -0.206 F 
ATOM     76  C   UNL A   1      43.835  26.428  36.250  1.00  0.00     0.060 A 
BRANCH  76  77
ATOM     77  S   UNL A   1      44.846  25.433  37.360  1.00  0.00     0.124 S 
ATOM     78  O   UNL A   1      44.433  25.948  38.661  1.00  0.00    -0.237 OA
ATOM     79  O   UNL A   1      44.407  24.081  37.037  1.00  0.00    -0.237 OA
ATOM     80  O   UNL A   1      46.209  25.761  36.954  1.00  0.00    -0.744 OA
ENDBRANCH  76  77
ENDBRANCH  55  69
BRANCH  56  81
ATOM     81  C   UNL A   1      43.346  25.380  26.494  1.00  0.00     0.058 A 
ATOM     82  C   UNL A   1      44.201  25.191  25.394  1.00  0.00     0.135 A 
ATOM     83  C   UNL A   1      42.778  24.213  27.046  1.00  0.00     0.135 A 
ATOM     84  F   UNL A   1      44.798  26.245  24.817  1.00  0.00    -0.206 F 
ATOM     85  C   UNL A   1      44.519  23.919  24.905  1.00  0.00     0.059 A 
ATOM     86  C   UNL A   1      43.071  22.936  26.569  1.00  0.00     0.059 A 
ATOM     87  F   UNL A   1      41.987  24.274  28.128  1.00  0.00    -0.206 F 
ATOM     88  C   UNL A   1      43.965  22.793  25.515  1.00  0.00     0.060 A 
BRANCH  88  89
ATOM     89  S   UNL A   1      44.509  21.145  25.003  1.00  0.00     0.124 S 
ATOM     90  O   UNL A   1      43.460  20.296  25.558  1.00  0.00    -0.237 OA
ATOM     91  O   UNL A   1      44.528  21.264  23.549  1.00  0.00    -0.237 OA
ATOM     92  O   UNL A   1      45.820  21.009  25.632  1.00  0.00    -0.744 OA
ENDBRANCH  88  89
ENDBRANCH  56  81
BRANCH  68  93
ATOM     93  C   UNL A   1      45.262  30.948  28.899  1.00  0.00     0.058 A 
ATOM     94  C   UNL A   1      44.319  31.594  28.079  1.00  0.00     0.135 A 
ATOM     95  C   UNL A   1      46.586  31.405  28.828  1.00  0.00     0.135 A 
ATOM     96  F   UNL A   1      43.017  31.294  28.154  1.00  0.00    -0.206 F 
ATOM     97  C   UNL A   1      44.684  32.621  27.205  1.00  0.00     0.059 A 
ATOM     98  C   UNL A   1      46.967  32.448  27.988  1.00  0.00     0.059 A 
ATOM     99  F   UNL A   1      47.524  30.873  29.630  1.00  0.00    -0.206 F 
ATOM    100  C   UNL A   1      46.011  33.044  27.169  1.00  0.00     0.060 A 
BRANCH 100 101
ATOM    101  S   UNL A   1      46.466  34.425  26.097  1.00  0.00     0.124 S 
ATOM    102  O   UNL A   1      46.291  35.572  26.981  1.00  0.00    -0.237 OA
ATOM    103  O   UNL A   1      47.845  34.106  25.737  1.00  0.00    -0.237 OA
ATOM    104  O   UNL A   1      45.509  34.333  24.997  1.00  0.00    -0.744 OA
ENDBRANCH 100 101
ENDBRANCH  68  93
ENDBRANCH  42  43
ENDBRANCH  34  37
ENDBRANCH  32  33
ENDBRANCH   1  32
TORSDOF 17
ENDMDL
MODEL 2
REMARK VINA RESULT:      -9.9      4.814     12.197
REMARK SMILES CC1(C)Cc2c(-c3ccccc3)c(-c3ccc(Cl)cc3)c(CC(=O)NCCCCNC(=O)c3ccc(-c4c5nc(c(-c6c(F)cc(S(=O)(=O)[O-])cc6F)c6ccc([nH]6)c(-c6c(F)cc(S(=O)(=O)[O-])cc6F)c6nc(c(-c7c(F)cc(S(=O)(=O)[O-])cc7F)c7ccc4[nH]7)C=C6)C=C5)cc3)n2C1
REMARK SMILES IDX 28 1 27 2 26 3 25 4 23 5 24 6 22 8 21 9 1 10 2 11 3 12 4 13
REMARK SMILES IDX 100 14 5 15 99 16 6 17 13 18 7 19 8 20 12 21 9 22 11 23
REMARK SMILES IDX 10 24 14 25 15 26 20 27 16 28 19 29 17 30 18 31 29 32 30 33
REMARK SMILES IDX 31 34 32 36 33 37 34 38 98 39 35 40 97 41 36 42 37 43 38 44
REMARK SMILES IDX 91 45 39 46 96 47 90 48 92 49 40 50 95 51 89 52 88 53 41 55
REMARK SMILES IDX 75 56 54 57 74 58 55 59 58 60 73 61 93 62 56 63 57 64 72 66
REMARK SMILES IDX 94 67 59 68 42 69 43 70 52 71 44 72 45 73 51 74 53 75 46 76
REMARK SMILES IDX 47 77 48 78 49 79 50 80 76 81 77 82 86 83 78 84 79 85 85 86
REMARK SMILES IDX 87 87 80 88 81 89 82 90 83 91 84 92 60 93 61 94 70 95 62 96
REMARK SMILES IDX 63 97 69 98 71 99 64 100 65 101 66 102 67 103 68 104
REMARK H PARENT 25 7 30 35 92 54 58 65
REMARK Flexibility Score: inf
ROOT
ATOM      1  C   UNL A   1      39.399  20.943  25.949  1.00  0.00     0.023 C 
ENDROOT
BRANCH   1   2
ATOM      2  C   UNL A   1      38.626  22.255  26.109  1.00  0.00     0.023 C 
BRANCH   2   3
ATOM      3  C   UNL A   1      37.263  22.358  25.422  1.00  0.00     0.116 C 
BRANCH   3   4
ATOM      4  N   UNL A   1      36.142  22.356  26.333  1.00  0.00    -0.356 N 
ATOM      5  C   UNL A   1      35.114  23.251  26.443  1.00  0.00     0.225 C 
ATOM      6  O   UNL A   1      34.216  22.989  27.247  1.00  0.00    -0.275 OA
ATOM      7  H   UNL A   1      36.113  21.601  26.964  1.00  0.00     0.163 HD
BRANCH   5   8
ATOM      8  C   UNL A   1      35.048  24.500  25.574  1.00  0.00     0.154 C 
BRANCH   8   9
ATOM      9  C   UNL A   1      33.710  24.718  24.928  1.00  0.00     0.036 A 
ATOM     10  C   UNL A   1      32.049  20.739  22.420  1.00  0.00     0.013 C 
ATOM     11  C   UNL A   1      32.494  22.200  22.495  1.00  0.00    -0.012 C 
ATOM     12  C   UNL A   1      33.148  22.577  21.153  1.00  0.00     0.013 C 
ATOM     13  C   UNL A   1      31.295  23.162  22.785  1.00  0.00     0.063 C 
ATOM     14  C   UNL A   1      33.471  22.432  23.686  1.00  0.00     0.129 C 
ATOM     15  C   UNL A   1      31.908  24.184  23.667  1.00  0.00     0.027 A 
ATOM     16  N   UNL A   1      33.113  23.767  24.153  1.00  0.00    -0.346 N 
ATOM     17  C   UNL A   1      31.678  25.449  24.137  1.00  0.00     0.011 A 
ATOM     18  C   UNL A   1      32.805  25.784  24.973  1.00  0.00     0.011 A 
BRANCH  17  19
ATOM     19  C   UNL A   1      30.534  26.268  23.791  1.00  0.00    -0.016 A 
ATOM     20  C   UNL A   1      29.252  25.939  24.240  1.00  0.00     0.009 A 
ATOM     21  C   UNL A   1      30.733  27.451  23.068  1.00  0.00     0.009 A 
ATOM     22  C   UNL A   1      28.183  26.798  23.981  1.00  0.00     0.001 A 
ATOM     23  C   UNL A   1      29.663  28.308  22.810  1.00  0.00     0.001 A 
ATOM     24  C   UNL A   1      28.389  27.983  23.271  1.00  0.00     0.000 A 
ENDBRANCH  17  19
BRANCH  18  25
ATOM     25  C   UNL A   1      32.973  27.030  25.715  1.00  0.00    -0.016 A 
ATOM     26  C   UNL A   1      32.052  27.360  26.720  1.00  0.00     0.010 A 
ATOM     27  C   UNL A   1      33.931  27.977  25.341  1.00  0.00     0.010 A 
ATOM     28  C   UNL A   1      32.093  28.613  27.339  1.00  0.00     0.021 A 
ATOM     29  C   UNL A   1      33.993  29.221  25.977  1.00  0.00     0.021 A 
ATOM     30  C   UNL A   1      33.066  29.537  26.965  1.00  0.00     0.041 A 
ATOM     31  Cl  UNL A   1      33.096  31.092  27.701  1.00  0.00    -0.084 Cl
ENDBRANCH  18  25
ENDBRANCH   8   9
ENDBRANCH   5   8
ENDBRANCH   3   4
ENDBRANCH   2   3
ENDBRANCH   1   2
BRANCH   1  32
ATOM     32  C   UNL A   1      40.728  20.888  26.693  1.00  0.00     0.116 C 
BRANCH  32  33
ATOM     33  N   UNL A   1      41.897  21.066  25.822  1.00  0.00    -0.352 N 
ATOM     34  C   UNL A   1      42.578  22.242  25.534  1.00  0.00     0.251 C 
ATOM     35  H   UNL A   1      42.240  20.251  25.389  1.00  0.00     0.163 HD
ATOM     36  O   UNL A   1      43.273  22.344  24.540  1.00  0.00    -0.269 OA
BRANCH  34  37
ATOM     37  C   UNL A   1      42.450  23.359  26.487  1.00  0.00     0.039 A 
ATOM     38  C   UNL A   1      43.141  23.397  27.702  1.00  0.00     0.014 A 
ATOM     39  C   UNL A   1      41.661  24.426  26.083  1.00  0.00     0.014 A 
ATOM     40  C   UNL A   1      43.107  24.573  28.453  1.00  0.00     0.010 A 
ATOM     41  C   UNL A   1      41.785  25.631  26.717  1.00  0.00     0.010 A 
ATOM     42  C   UNL A   1      42.445  25.697  27.939  1.00  0.00    -0.014 A 
BRANCH  42  43
ATOM     43  C   UNL A   1      42.496  26.997  28.602  1.00  0.00     0.031 A 
ATOM     44  C   UNL A   1      43.638  27.866  28.200  1.00  0.00     0.074 A 
ATOM     45  C   UNL A   1      41.437  27.483  29.289  1.00  0.00     0.049 A 
ATOM     46  N   UNL A   1      44.639  28.254  28.920  1.00  0.00    -0.248 NA
ATOM     47  C   UNL A   1      43.760  28.234  26.779  1.00  0.00     0.031 C 
ATOM     48  C   UNL A   1      40.109  26.875  29.461  1.00  0.00     0.029 A 
ATOM     49  N   UNL A   1      41.276  28.699  29.872  1.00  0.00    -0.354 N 
ATOM     50  C   UNL A   1      45.381  29.118  28.112  1.00  0.00     0.074 A 
ATOM     51  C   UNL A   1      44.929  28.879  26.769  1.00  0.00     0.031 C 
ATOM     52  C   UNL A   1      39.228  27.814  29.866  1.00  0.00     0.029 A 
ATOM     53  C   UNL A   1      39.958  29.030  30.166  1.00  0.00     0.049 A 
ATOM     54  H   UNL A   1      42.032  29.298  30.071  1.00  0.00     0.167 HD
ATOM     55  C   UNL A   1      46.110  30.139  28.651  1.00  0.00     0.037 A 
ATOM     56  C   UNL A   1      39.496  30.230  30.601  1.00  0.00     0.037 A 
ATOM     57  C   UNL A   1      46.270  29.951  30.075  1.00  0.00     0.049 A 
ATOM     58  C   UNL A   1      40.664  30.959  31.159  1.00  0.00     0.074 A 
ATOM     59  C   UNL A   1      46.804  28.959  30.875  1.00  0.00     0.029 A 
ATOM     60  N   UNL A   1      45.485  30.714  30.908  1.00  0.00    -0.354 N 
ATOM     61  N   UNL A   1      41.325  30.571  32.217  1.00  0.00    -0.248 NA
ATOM     62  C   UNL A   1      41.387  31.856  30.270  1.00  0.00     0.031 C 
ATOM     63  C   UNL A   1      45.933  28.887  32.003  1.00  0.00     0.029 A 
ATOM     64  C   UNL A   1      44.966  29.885  31.866  1.00  0.00     0.049 A 
ATOM     65  H   UNL A   1      45.326  31.682  30.828  1.00  0.00     0.167 HD
ATOM     66  C   UNL A   1      42.658  30.815  31.916  1.00  0.00     0.074 A 
ATOM     67  C   UNL A   1      42.624  31.692  30.747  1.00  0.00     0.031 C 
ATOM     68  C   UNL A   1      43.656  30.056  32.459  1.00  0.00     0.037 A 
BRANCH  55  69
ATOM     69  C   UNL A   1      46.332  31.499  28.003  1.00  0.00     0.058 A 
ATOM     70  C   UNL A   1      47.640  32.037  27.990  1.00  0.00     0.135 A 
ATOM     71  C   UNL A   1      45.309  32.416  27.674  1.00  0.00     0.135 A 
ATOM     72  F   UNL A   1      48.704  31.259  28.247  1.00  0.00    -0.206 F 
ATOM     73  C   UNL A   1      47.894  33.397  27.808  1.00  0.00     0.059 A 
ATOM     74  C   UNL A   1      45.546  33.766  27.437  1.00  0.00     0.059 A 
ATOM     75  F   UNL A   1      44.016  32.082  27.649  1.00  0.00    -0.206 F 
ATOM     76  C   UNL A   1      46.833  34.258  27.562  1.00  0.00     0.060 A 
BRANCH  76  77
ATOM     77  S   UNL A   1      47.133  36.032  27.475  1.00  0.00     0.124 S 
ATOM     78  O   UNL A   1      46.741  36.454  28.814  1.00  0.00    -0.237 OA
ATOM     79  O   UNL A   1      48.559  36.082  27.177  1.00  0.00    -0.237 OA
ATOM     80  O   UNL A   1      46.254  36.466  26.393  1.00  0.00    -0.744 OA
ENDBRANCH  76  77
ENDBRANCH  55  69
BRANCH  56  81
ATOM     81  C   UNL A   1      38.206  30.893  30.271  1.00  0.00     0.058 A 
ATOM     82  C   UNL A   1      37.503  31.637  31.236  1.00  0.00     0.135 A 
ATOM     83  C   UNL A   1      37.778  31.047  28.936  1.00  0.00     0.135 A 
ATOM     84  F   UNL A   1      37.854  31.563  32.529  1.00  0.00    -0.206 F 
ATOM     85  C   UNL A   1      36.474  32.521  30.893  1.00  0.00     0.059 A 
ATOM     86  C   UNL A   1      36.749  31.915  28.572  1.00  0.00     0.059 A 
ATOM     87  F   UNL A   1      38.411  30.424  27.931  1.00  0.00    -0.206 F 
ATOM     88  C   UNL A   1      36.118  32.670  29.553  1.00  0.00     0.060 A 
BRANCH  88  89
ATOM     89  S   UNL A   1      34.915  33.939  29.088  1.00  0.00     0.124 S 
ATOM     90  O   UNL A   1      33.736  33.526  29.842  1.00  0.00    -0.237 OA
ATOM     91  O   UNL A   1      35.565  35.163  29.542  1.00  0.00    -0.237 OA
ATOM     92  O   UNL A   1      34.810  33.793  27.638  1.00  0.00    -0.744 OA
ENDBRANCH  88  89
ENDBRANCH  56  81
BRANCH  68  93
ATOM     93  C   UNL A   1      43.324  29.156  33.624  1.00  0.00     0.058 A 
ATOM     94  C   UNL A   1      43.256  29.576  34.964  1.00  0.00     0.135 A 
ATOM     95  C   UNL A   1      42.898  27.850  33.344  1.00  0.00     0.135 A 
ATOM     96  F   UNL A   1      43.545  30.837  35.310  1.00  0.00    -0.206 F 
ATOM     97  C   UNL A   1      42.818  28.725  35.982  1.00  0.00     0.059 A 
ATOM     98  C   UNL A   1      42.428  26.994  34.336  1.00  0.00     0.059 A 
ATOM     99  F   UNL A   1      42.879  27.407  32.075  1.00  0.00    -0.206 F 
ATOM    100  C   UNL A   1      42.402  27.435  35.657  1.00  0.00     0.060 A 
BRANCH 100 101
ATOM    101  S   UNL A   1      41.762  26.362  36.961  1.00  0.00     0.124 S 
ATOM    102  O   UNL A   1      40.522  27.036  37.333  1.00  0.00    -0.237 OA
ATOM    103  O   UNL A   1      41.606  25.083  36.272  1.00  0.00    -0.237 OA
ATOM    104  O   UNL A   1      42.815  26.388  37.973  1.00  0.00    -0.744 OA
ENDBRANCH 100 101
ENDBRANCH  68  93
ENDBRANCH  42  43
ENDBRANCH  34  37
ENDBRANCH  32  33
ENDBRANCH   1  32
TORSDOF 17
ENDMDL
MODEL 3
REMARK VINA RESULT:      -9.8      3.547     10.669
REMARK SMILES CC1(C)Cc2c(-c3ccccc3)c(-c3ccc(Cl)cc3)c(CC(=O)NCCCCNC(=O)c3ccc(-c4c5nc(c(-c6c(F)cc(S(=O)(=O)[O-])cc6F)c6ccc([nH]6)c(-c6c(F)cc(S(=O)(=O)[O-])cc6F)c6nc(c(-c7c(F)cc(S(=O)(=O)[O-])cc7F)c7ccc4[nH]7)C=C6)C=C5)cc3)n2C1
REMARK SMILES IDX 28 1 27 2 26 3 25 4 23 5 24 6 22 8 21 9 1 10 2 11 3 12 4 13
REMARK SMILES IDX 100 14 5 15 99 16 6 17 13 18 7 19 8 20 12 21 9 22 11 23
REMARK SMILES IDX 10 24 14 25 15 26 20 27 16 28 19 29 17 30 18 31 29 32 30 33
REMARK SMILES IDX 31 34 32 36 33 37 34 38 98 39 35 40 97 41 36 42 37 43 38 44
REMARK SMILES IDX 91 45 39 46 96 47 90 48 92 49 40 50 95 51 89 52 88 53 41 55
REMARK SMILES IDX 75 56 54 57 74 58 55 59 58 60 73 61 93 62 56 63 57 64 72 66
REMARK SMILES IDX 94 67 59 68 42 69 43 70 52 71 44 72 45 73 51 74 53 75 46 76
REMARK SMILES IDX 47 77 48 78 49 79 50 80 76 81 77 82 86 83 78 84 79 85 85 86
REMARK SMILES IDX 87 87 80 88 81 89 82 90 83 91 84 92 60 93 61 94 70 95 62 96
REMARK SMILES IDX 63 97 69 98 71 99 64 100 65 101 66 102 67 103 68 104
REMARK H PARENT 25 7 30 35 92 54 58 65
REMARK Flexibility Score: inf
ROOT
ATOM      1  C   UNL A   1      43.447  22.832  24.727  1.00  0.00     0.023 C 
ENDROOT
BRANCH   1   2
ATOM      2  C   UNL A   1      43.371  24.361  24.718  1.00  0.00     0.023 C 
BRANCH   2   3
ATOM      3  C   UNL A   1      44.354  25.120  25.612  1.00  0.00     0.116 C 
BRANCH   3   4
ATOM      4  N   UNL A   1      45.604  25.449  24.968  1.00  0.00    -0.356 N 
ATOM      5  C   UNL A   1      46.488  26.451  25.257  1.00  0.00     0.225 C 
ATOM      6  O   UNL A   1      47.542  26.481  24.616  1.00  0.00    -0.275 OA
ATOM      7  H   UNL A   1      45.855  24.869  24.214  1.00  0.00     0.163 HD
BRANCH   5   8
ATOM      8  C   UNL A   1      46.213  27.465  26.360  1.00  0.00     0.154 C 
BRANCH   8   9
ATOM      9  C   UNL A   1      47.203  27.415  27.489  1.00  0.00     0.036 A 
ATOM     10  C   UNL A   1      51.007  30.592  26.933  1.00  0.00     0.013 C 
ATOM     11  C   UNL A   1      50.435  29.182  27.084  1.00  0.00    -0.012 C 
ATOM     12  C   UNL A   1      51.342  28.207  26.312  1.00  0.00     0.013 C 
ATOM     13  C   UNL A   1      50.345  28.744  28.583  1.00  0.00     0.063 C 
ATOM     14  C   UNL A   1      48.964  29.112  26.574  1.00  0.00     0.129 C 
ATOM     15  C   UNL A   1      49.089  27.958  28.614  1.00  0.00     0.027 A 
ATOM     16  N   UNL A   1      48.339  28.169  27.494  1.00  0.00    -0.346 N 
ATOM     17  C   UNL A   1      48.434  27.044  29.395  1.00  0.00     0.011 A 
ATOM     18  C   UNL A   1      47.211  26.719  28.703  1.00  0.00     0.011 A 
BRANCH  17  19
ATOM     19  C   UNL A   1      48.939  26.503  30.640  1.00  0.00    -0.016 A 
ATOM     20  C   UNL A   1      49.697  25.329  30.659  1.00  0.00     0.009 A 
ATOM     21  C   UNL A   1      48.736  27.214  31.830  1.00  0.00     0.009 A 
ATOM     22  C   UNL A   1      50.260  24.882  31.855  1.00  0.00     0.001 A 
ATOM     23  C   UNL A   1      49.299  26.767  33.025  1.00  0.00     0.001 A 
ATOM     24  C   UNL A   1      50.064  25.603  33.036  1.00  0.00     0.000 A 
ENDBRANCH  17  19
BRANCH  18  25
ATOM     25  C   UNL A   1      46.178  25.806  29.183  1.00  0.00    -0.016 A 
ATOM     26  C   UNL A   1      45.466  26.127  30.347  1.00  0.00     0.010 A 
ATOM     27  C   UNL A   1      45.995  24.546  28.606  1.00  0.00     0.010 A 
ATOM     28  C   UNL A   1      44.584  25.204  30.920  1.00  0.00     0.021 A 
ATOM     29  C   UNL A   1      45.093  23.631  29.159  1.00  0.00     0.021 A 
ATOM     30  C   UNL A   1      44.401  23.960  30.320  1.00  0.00     0.041 A 
ATOM     31  Cl  UNL A   1      43.343  22.810  31.041  1.00  0.00    -0.084 Cl
ENDBRANCH  18  25
ENDBRANCH   8   9
ENDBRANCH   5   8
ENDBRANCH   3   4
ENDBRANCH   2   3
ENDBRANCH   1   2
BRANCH   1  32
ATOM     32  C   UNL A   1      42.824  22.167  25.949  1.00  0.00     0.116 C 
BRANCH  32  33
ATOM     33  N   UNL A   1      41.369  22.002  25.850  1.00  0.00    -0.352 N 
ATOM     34  C   UNL A   1      40.378  22.751  26.472  1.00  0.00     0.251 C 
ATOM     35  H   UNL A   1      41.056  21.269  25.271  1.00  0.00     0.163 HD
ATOM     36  O   UNL A   1      39.253  22.313  26.622  1.00  0.00    -0.269 OA
BRANCH  34  37
ATOM     37  C   UNL A   1      40.729  24.110  26.925  1.00  0.00     0.039 A 
ATOM     38  C   UNL A   1      40.139  25.259  26.391  1.00  0.00     0.014 A 
ATOM     39  C   UNL A   1      41.629  24.194  27.978  1.00  0.00     0.014 A 
ATOM     40  C   UNL A   1      40.392  26.486  27.006  1.00  0.00     0.010 A 
ATOM     41  C   UNL A   1      41.720  25.356  28.691  1.00  0.00     0.010 A 
ATOM     42  C   UNL A   1      41.166  26.522  28.175  1.00  0.00    -0.014 A 
BRANCH  42  43
ATOM     43  C   UNL A   1      41.346  27.748  28.948  1.00  0.00     0.031 A 
ATOM     44  C   UNL A   1      42.412  28.660  28.446  1.00  0.00     0.074 A 
ATOM     45  C   UNL A   1      40.427  28.154  29.854  1.00  0.00     0.049 A 
ATOM     46  N   UNL A   1      43.526  28.978  29.017  1.00  0.00    -0.248 NA
ATOM     47  C   UNL A   1      42.291  29.172  27.070  1.00  0.00     0.031 C 
ATOM     48  C   UNL A   1      39.141  27.524  30.190  1.00  0.00     0.029 A 
ATOM     49  N   UNL A   1      40.383  29.303  30.576  1.00  0.00    -0.354 N 
ATOM     50  C   UNL A   1      44.128  29.925  28.186  1.00  0.00     0.074 A 
ATOM     51  C   UNL A   1      43.448  29.822  26.924  1.00  0.00     0.031 C 
ATOM     52  C   UNL A   1      38.354  28.411  30.834  1.00  0.00     0.029 A 
ATOM     53  C   UNL A   1      39.139  29.594  31.126  1.00  0.00     0.049 A 
ATOM     54  H   UNL A   1      41.169  29.883  30.702  1.00  0.00     0.167 HD
ATOM     55  C   UNL A   1      44.950  30.890  28.692  1.00  0.00     0.037 A 
ATOM     56  C   UNL A   1      38.773  30.740  31.754  1.00  0.00     0.037 A 
ATOM     57  C   UNL A   1      45.351  30.558  30.040  1.00  0.00     0.049 A 
ATOM     58  C   UNL A   1      40.028  31.416  32.173  1.00  0.00     0.074 A 
ATOM     59  C   UNL A   1      46.004  29.493  30.631  1.00  0.00     0.029 A 
ATOM     60  N   UNL A   1      44.731  31.228  31.069  1.00  0.00    -0.354 N 
ATOM     61  N   UNL A   1      40.857  30.925  33.056  1.00  0.00    -0.248 NA
ATOM     62  C   UNL A   1      40.597  32.403  31.269  1.00  0.00     0.031 C 
ATOM     63  C   UNL A   1      45.340  29.301  31.879  1.00  0.00     0.029 A 
ATOM     64  C   UNL A   1      44.375  30.302  32.014  1.00  0.00     0.049 A 
ATOM     65  H   UNL A   1      44.571  32.198  31.118  1.00  0.00     0.167 HD
ATOM     66  C   UNL A   1      42.121  31.207  32.556  1.00  0.00     0.074 A 
ATOM     67  C   UNL A   1      41.896  32.199  31.506  1.00  0.00     0.031 C 
ATOM     68  C   UNL A   1      43.189  30.402  32.838  1.00  0.00     0.037 A 
BRANCH  55  69
ATOM     69  C   UNL A   1      45.073  32.311  28.157  1.00  0.00     0.058 A 
ATOM     70  C   UNL A   1      46.342  32.767  27.732  1.00  0.00     0.135 A 
ATOM     71  C   UNL A   1      44.102  33.324  28.319  1.00  0.00     0.135 A 
ATOM     72  F   UNL A   1      47.341  31.898  27.503  1.00  0.00    -0.206 F 
ATOM     73  C   UNL A   1      46.658  34.121  27.617  1.00  0.00     0.059 A 
ATOM     74  C   UNL A   1      44.381  34.677  28.159  1.00  0.00     0.059 A 
ATOM     75  F   UNL A   1      42.854  33.075  28.726  1.00  0.00    -0.206 F 
ATOM     76  C   UNL A   1      45.675  35.070  27.864  1.00  0.00     0.060 A 
BRANCH  76  77
ATOM     77  S   UNL A   1      46.109  36.817  27.865  1.00  0.00     0.124 S 
ATOM     78  O   UNL A   1      46.706  36.962  29.188  1.00  0.00    -0.237 OA
ATOM     79  O   UNL A   1      47.026  36.901  26.734  1.00  0.00    -0.237 OA
ATOM     80  O   UNL A   1      44.823  37.481  27.676  1.00  0.00    -0.744 OA
ENDBRANCH  76  77
ENDBRANCH  55  69
BRANCH  56  81
ATOM     81  C   UNL A   1      37.453  31.426  31.721  1.00  0.00     0.058 A 
ATOM     82  C   UNL A   1      36.724  31.657  32.901  1.00  0.00     0.135 A 
ATOM     83  C   UNL A   1      37.011  32.116  30.574  1.00  0.00     0.135 A 
ATOM     84  F   UNL A   1      37.085  31.054  34.044  1.00  0.00    -0.206 F 
ATOM     85  C   UNL A   1      35.656  32.558  32.954  1.00  0.00     0.059 A 
ATOM     86  C   UNL A   1      35.942  33.012  30.599  1.00  0.00     0.059 A 
ATOM     87  F   UNL A   1      37.664  32.008  29.407  1.00  0.00    -0.206 F 
ATOM     88  C   UNL A   1      35.285  33.249  31.801  1.00  0.00     0.060 A 
BRANCH  88  89
ATOM     89  S   UNL A   1      34.024  34.543  31.904  1.00  0.00     0.124 S 
ATOM     90  O   UNL A   1      33.521  34.583  30.535  1.00  0.00    -0.237 OA
ATOM     91  O   UNL A   1      33.109  34.003  32.903  1.00  0.00    -0.237 OA
ATOM     92  O   UNL A   1      34.779  35.721  32.326  1.00  0.00    -0.744 OA
ENDBRANCH  88  89
ENDBRANCH  56  81
BRANCH  68  93
ATOM     93  C   UNL A   1      43.053  29.387  33.945  1.00  0.00     0.058 A 
ATOM     94  C   UNL A   1      43.172  29.677  35.316  1.00  0.00     0.135 A 
ATOM     95  C   UNL A   1      42.620  28.097  33.603  1.00  0.00     0.135 A 
ATOM     96  F   UNL A   1      43.480  30.909  35.738  1.00  0.00    -0.206 F 
ATOM     97  C   UNL A   1      42.908  28.718  36.297  1.00  0.00     0.059 A 
ATOM     98  C   UNL A   1      42.321  27.136  34.564  1.00  0.00     0.059 A 
ATOM     99  F   UNL A   1      42.425  27.774  32.313  1.00  0.00    -0.206 F 
ATOM    100  C   UNL A   1      42.478  27.450  35.911  1.00  0.00     0.060 A 
BRANCH 100 101
ATOM    101  S   UNL A   1      42.062  26.237  37.182  1.00  0.00     0.124 S 
ATOM    102  O   UNL A   1      43.092  26.477  38.187  1.00  0.00    -0.237 OA
ATOM    103  O   UNL A   1      40.705  26.625  37.560  1.00  0.00    -0.237 OA
ATOM    104  O   UNL A   1      42.160  24.959  36.480  1.00  0.00    -0.744 OA
ENDBRANCH 100 101
ENDBRANCH  68  93
ENDBRANCH  42  43
ENDBRANCH  34  37
ENDBRANCH  32  33
ENDBRANCH   1  32
TORSDOF 17
ENDMDL
