MODEL 1
REMARK VINA RESULT:     -11.4      0.000      0.000
REMARK SMILES C[C@@]1(CN2C[C@H](C(=O)NCCCCNC(=O)c3ccc(-c4c5nc(c(-c6c(F)cc(S(=O)(=O)[O-])cc6F)c6ccc([nH]6)c(-c6c(F)cc(S(=O)(=O)[O-])cc6F)c6nc(c(-c7c(F)cc(S(=O)(=O)[O-])cc7F)c7ccc4[nH]7)C=C6)C=C5)cc3)CCC2=O)CCCO1
REMARK SMILES IDX 12 1 11 2 10 3 9 4 7 5 8 6 6 8 4 9 5 10 85 11 84 12 86 13
REMARK SMILES IDX 83 14 3 15 2 16 1 17 87 18 90 19 88 20 89 21 13 22 14 23
REMARK SMILES IDX 15 24 16 26 17 27 18 28 82 29 19 30 81 31 20 32 21 33 22 34
REMARK SMILES IDX 75 35 23 36 80 37 74 38 76 39 24 40 79 41 73 42 72 43 25 45
REMARK SMILES IDX 59 46 38 47 58 48 39 49 42 50 57 51 77 52 40 53 41 54 56 56
REMARK SMILES IDX 78 57 43 58 26 59 27 60 36 61 28 62 29 63 35 64 37 65 30 66
REMARK SMILES IDX 31 67 32 68 33 69 34 70 60 71 61 72 70 73 62 74 63 75 69 76
REMARK SMILES IDX 71 77 64 78 65 79 66 80 67 81 68 82 44 83 45 84 54 85 46 86
REMARK SMILES IDX 47 87 53 88 55 89 48 90 49 91 50 92 51 93 52 94
REMARK H PARENT 9 7 14 25 76 44 42 55
REMARK Flexibility Score: inf
ROOT
ATOM      1  C   UNL A   1      33.560  28.596  25.791  1.00  0.00     0.023 C 
ENDROOT
BRANCH   1   2
ATOM      2  C   UNL A   1      32.600  29.521  25.051  1.00  0.00     0.023 C 
BRANCH   2   3
ATOM      3  C   UNL A   1      31.916  28.915  23.825  1.00  0.00     0.116 C 
BRANCH   3   4
ATOM      4  N   UNL A   1      32.747  27.920  23.179  1.00  0.00    -0.356 N 
ATOM      5  C   UNL A   1      32.570  26.637  22.789  1.00  0.00     0.224 C 
ATOM      6  O   UNL A   1      33.556  26.117  22.249  1.00  0.00    -0.275 OA
ATOM      7  H   UNL A   1      33.651  28.255  22.976  1.00  0.00     0.163 HD
BRANCH   5   8
ATOM      8  C   UNL A   1      31.265  25.829  22.866  1.00  0.00     0.098 C 
ATOM      9  N   UNL A   1      31.776  24.479  24.898  1.00  0.00    -0.339 N 
ATOM     10  C   UNL A   1      31.575  24.437  23.451  1.00  0.00     0.133 C 
ATOM     11  C   UNL A   1      31.333  25.534  25.668  1.00  0.00     0.222 C 
ATOM     12  C   UNL A   1      30.163  26.317  25.106  1.00  0.00     0.101 C 
ATOM     13  O   UNL A   1      31.755  25.769  26.799  1.00  0.00    -0.275 OA
ATOM     14  C   UNL A   1      30.022  26.311  23.593  1.00  0.00     0.025 C 
BRANCH   9  15
ATOM     15  C   UNL A   1      32.382  23.317  25.555  1.00  0.00     0.154 C 
BRANCH  15  16
ATOM     16  C   UNL A   1      33.935  23.243  25.402  1.00  0.00     0.083 C 
ATOM     17  C   UNL A   1      34.591  24.620  25.266  1.00  0.00     0.044 C 
ATOM     18  C   UNL A   1      34.322  22.362  24.203  1.00  0.00     0.039 C 
ATOM     19  O   UNL A   1      34.501  22.595  26.572  1.00  0.00    -0.373 OA
ATOM     20  C   UNL A   1      34.605  21.021  24.835  1.00  0.00     0.031 C 
ATOM     21  C   UNL A   1      35.204  21.422  26.160  1.00  0.00     0.161 C 
ENDBRANCH  15  16
ENDBRANCH   9  15
ENDBRANCH   5   8
ENDBRANCH   3   4
ENDBRANCH   2   3
ENDBRANCH   1   2
BRANCH   1  22
ATOM     22  C   UNL A   1      33.527  28.703  27.309  1.00  0.00     0.116 C 
BRANCH  22  23
ATOM     23  N   UNL A   1      33.508  30.070  27.816  1.00  0.00    -0.352 N 
ATOM     24  C   UNL A   1      34.556  30.768  28.374  1.00  0.00     0.251 C 
ATOM     25  H   UNL A   1      32.649  30.547  27.752  1.00  0.00     0.163 HD
ATOM     26  O   UNL A   1      34.404  31.900  28.811  1.00  0.00    -0.269 OA
BRANCH  24  27
ATOM     27  C   UNL A   1      35.862  30.086  28.476  1.00  0.00     0.039 A 
ATOM     28  C   UNL A   1      36.719  30.101  27.375  1.00  0.00     0.014 A 
ATOM     29  C   UNL A   1      36.277  29.566  29.704  1.00  0.00     0.014 A 
ATOM     30  C   UNL A   1      38.039  29.675  27.532  1.00  0.00     0.010 A 
ATOM     31  C   UNL A   1      37.608  29.212  29.874  1.00  0.00     0.010 A 
ATOM     32  C   UNL A   1      38.506  29.277  28.795  1.00  0.00    -0.014 A 
BRANCH  32  33
ATOM     33  C   UNL A   1      39.926  28.923  29.033  1.00  0.00     0.031 A 
ATOM     34  C   UNL A   1      40.868  29.975  29.547  1.00  0.00     0.074 A 
ATOM     35  C   UNL A   1      40.388  27.708  28.680  1.00  0.00     0.049 A 
ATOM     36  N   UNL A   1      42.171  29.945  29.637  1.00  0.00    -0.248 NA
ATOM     37  C   UNL A   1      40.263  31.246  29.978  1.00  0.00     0.031 C 
ATOM     38  C   UNL A   1      39.580  26.617  28.127  1.00  0.00     0.029 A 
ATOM     39  N   UNL A   1      41.659  27.190  28.716  1.00  0.00    -0.354 N 
ATOM     40  C   UNL A   1      42.545  31.204  30.091  1.00  0.00     0.074 A 
ATOM     41  C   UNL A   1      41.334  31.984  30.228  1.00  0.00     0.031 C 
ATOM     42  C   UNL A   1      40.371  25.558  27.889  1.00  0.00     0.029 A 
ATOM     43  C   UNL A   1      41.747  25.905  28.234  1.00  0.00     0.049 A 
ATOM     44  H   UNL A   1      42.435  27.692  29.054  1.00  0.00     0.167 HD
ATOM     45  C   UNL A   1      43.784  31.662  30.384  1.00  0.00     0.037 A 
ATOM     46  C   UNL A   1      42.819  25.103  28.078  1.00  0.00     0.037 A 
ATOM     47  C   UNL A   1      44.977  30.863  30.301  1.00  0.00     0.049 A 
ATOM     48  C   UNL A   1      44.179  25.617  28.462  1.00  0.00     0.074 A 
ATOM     49  C   UNL A   1      46.274  31.214  30.628  1.00  0.00     0.029 A 
ATOM     50  N   UNL A   1      45.011  29.542  29.879  1.00  0.00    -0.354 N 
ATOM     51  N   UNL A   1      44.513  26.801  28.915  1.00  0.00    -0.248 NA
ATOM     52  C   UNL A   1      45.309  24.689  28.314  1.00  0.00     0.031 C 
ATOM     53  C   UNL A   1      47.097  30.108  30.390  1.00  0.00     0.029 A 
ATOM     54  C   UNL A   1      46.307  29.061  29.941  1.00  0.00     0.049 A 
ATOM     55  H   UNL A   1      44.230  29.023  29.579  1.00  0.00     0.167 HD
ATOM     56  C   UNL A   1      45.884  26.752  29.133  1.00  0.00     0.074 A 
ATOM     57  C   UNL A   1      46.321  25.421  28.764  1.00  0.00     0.031 C 
ATOM     58  C   UNL A   1      46.710  27.722  29.595  1.00  0.00     0.037 A 
BRANCH  45  59
ATOM     59  C   UNL A   1      43.903  33.091  30.828  1.00  0.00     0.058 A 
ATOM     60  C   UNL A   1      44.048  34.136  29.903  1.00  0.00     0.135 A 
ATOM     61  C   UNL A   1      43.867  33.421  32.192  1.00  0.00     0.135 A 
ATOM     62  F   UNL A   1      44.108  33.871  28.588  1.00  0.00    -0.206 F 
ATOM     63  C   UNL A   1      44.192  35.456  30.314  1.00  0.00     0.059 A 
ATOM     64  C   UNL A   1      43.983  34.738  32.626  1.00  0.00     0.059 A 
ATOM     65  F   UNL A   1      43.731  32.459  33.118  1.00  0.00    -0.206 F 
ATOM     66  C   UNL A   1      44.164  35.747  31.680  1.00  0.00     0.060 A 
BRANCH  66  67
ATOM     67  S   UNL A   1      44.366  37.462  32.205  1.00  0.00     0.124 S 
ATOM     68  O   UNL A   1      43.349  37.567  33.247  1.00  0.00    -0.237 OA
ATOM     69  O   UNL A   1      45.750  37.491  32.668  1.00  0.00    -0.237 OA
ATOM     70  O   UNL A   1      44.100  38.221  30.988  1.00  0.00    -0.744 OA
ENDBRANCH  66  67
ENDBRANCH  45  59
BRANCH  46  71
ATOM     71  C   UNL A   1      42.647  23.722  27.558  1.00  0.00     0.058 A 
ATOM     72  C   UNL A   1      42.490  22.642  28.439  1.00  0.00     0.135 A 
ATOM     73  C   UNL A   1      42.625  23.453  26.181  1.00  0.00     0.135 A 
ATOM     74  F   UNL A   1      42.509  22.850  29.764  1.00  0.00    -0.206 F 
ATOM     75  C   UNL A   1      42.336  21.340  27.976  1.00  0.00     0.059 A 
ATOM     76  C   UNL A   1      42.453  22.161  25.693  1.00  0.00     0.059 A 
ATOM     77  F   UNL A   1      42.754  24.455  25.298  1.00  0.00    -0.206 F 
ATOM     78  C   UNL A   1      42.321  21.109  26.599  1.00  0.00     0.060 A 
BRANCH  78  79
ATOM     79  S   UNL A   1      42.078  19.420  26.006  1.00  0.00     0.124 S 
ATOM     80  O   UNL A   1      40.642  19.402  25.751  1.00  0.00    -0.237 OA
ATOM     81  O   UNL A   1      42.937  19.379  24.826  1.00  0.00    -0.237 OA
ATOM     82  O   UNL A   1      42.533  18.605  27.129  1.00  0.00    -0.744 OA
ENDBRANCH  78  79
ENDBRANCH  46  71
BRANCH  58  83
ATOM     83  C   UNL A   1      48.158  27.374  29.775  1.00  0.00     0.058 A 
ATOM     84  C   UNL A   1      49.119  27.720  28.815  1.00  0.00     0.135 A 
ATOM     85  C   UNL A   1      48.597  26.770  30.963  1.00  0.00     0.135 A 
ATOM     86  F   UNL A   1      48.745  28.294  27.661  1.00  0.00    -0.206 F 
ATOM     87  C   UNL A   1      50.472  27.478  29.027  1.00  0.00     0.059 A 
ATOM     88  C   UNL A   1      49.945  26.533  31.203  1.00  0.00     0.059 A 
ATOM     89  F   UNL A   1      47.713  26.427  31.914  1.00  0.00    -0.206 F 
ATOM     90  C   UNL A   1      50.876  26.889  30.227  1.00  0.00     0.060 A 
BRANCH  90  91
ATOM     91  S   UNL A   1      52.640  26.644  30.523  1.00  0.00     0.124 S 
ATOM     92  O   UNL A   1      53.111  26.265  29.196  1.00  0.00    -0.237 OA
ATOM     93  O   UNL A   1      53.066  27.957  30.997  1.00  0.00    -0.237 OA
ATOM     94  O   UNL A   1      52.670  25.584  31.528  1.00  0.00    -0.744 OA
ENDBRANCH  90  91
ENDBRANCH  58  83
ENDBRANCH  32  33
ENDBRANCH  24  27
ENDBRANCH  22  23
ENDBRANCH   1  22
TORSDOF 16
ENDMDL
MODEL 2
REMARK VINA RESULT:     -11.0      3.003      9.350
REMARK SMILES C[C@@]1(CN2C[C@H](C(=O)NCCCCNC(=O)c3ccc(-c4c5nc(c(-c6c(F)cc(S(=O)(=O)[O-])cc6F)c6ccc([nH]6)c(-c6c(F)cc(S(=O)(=O)[O-])cc6F)c6nc(c(-c7c(F)cc(S(=O)(=O)[O-])cc7F)c7ccc4[nH]7)C=C6)C=C5)cc3)CCC2=O)CCCO1
REMARK SMILES IDX 12 1 11 2 10 3 9 4 7 5 8 6 6 8 4 9 5 10 85 11 84 12 86 13
REMARK SMILES IDX 83 14 3 15 2 16 1 17 87 18 90 19 88 20 89 21 13 22 14 23
REMARK SMILES IDX 15 24 16 26 17 27 18 28 82 29 19 30 81 31 20 32 21 33 22 34
REMARK SMILES IDX 75 35 23 36 80 37 74 38 76 39 24 40 79 41 73 42 72 43 25 45
REMARK SMILES IDX 59 46 38 47 58 48 39 49 42 50 57 51 77 52 40 53 41 54 56 56
REMARK SMILES IDX 78 57 43 58 26 59 27 60 36 61 28 62 29 63 35 64 37 65 30 66
REMARK SMILES IDX 31 67 32 68 33 69 34 70 60 71 61 72 70 73 62 74 63 75 69 76
REMARK SMILES IDX 71 77 64 78 65 79 66 80 67 81 68 82 44 83 45 84 54 85 46 86
REMARK SMILES IDX 47 87 53 88 55 89 48 90 49 91 50 92 51 93 52 94
REMARK H PARENT 9 7 14 25 76 44 42 55
REMARK Flexibility Score: inf
ROOT
ATOM      1  C   UNL A   1      35.774  23.376  25.805  1.00  0.00     0.023 C 
ENDROOT
BRANCH   1   2
ATOM      2  C   UNL A   1      35.438  21.922  26.120  1.00  0.00     0.023 C 
BRANCH   2   3
ATOM      3  C   UNL A   1      33.948  21.602  26.236  1.00  0.00     0.116 C 
BRANCH   3   4
ATOM      4  N   UNL A   1      33.151  22.796  26.426  1.00  0.00    -0.356 N 
ATOM      5  C   UNL A   1      32.156  23.398  25.734  1.00  0.00     0.224 C 
ATOM      6  O   UNL A   1      31.721  24.437  26.250  1.00  0.00    -0.275 OA
ATOM      7  H   UNL A   1      33.389  23.284  27.248  1.00  0.00     0.163 HD
BRANCH   5   8
ATOM      8  C   UNL A   1      31.477  22.870  24.461  1.00  0.00     0.098 C 
ATOM      9  N   UNL A   1      31.968  24.789  22.948  1.00  0.00    -0.339 N 
ATOM     10  C   UNL A   1      30.919  24.065  23.663  1.00  0.00     0.133 C 
ATOM     11  C   UNL A   1      33.202  24.226  22.692  1.00  0.00     0.222 C 
ATOM     12  C   UNL A   1      33.237  22.711  22.632  1.00  0.00     0.101 C 
ATOM     13  O   UNL A   1      34.197  24.886  22.400  1.00  0.00    -0.275 OA
ATOM     14  C   UNL A   1      32.176  21.988  23.442  1.00  0.00     0.025 C 
BRANCH   9  15
ATOM     15  C   UNL A   1      31.660  26.115  22.406  1.00  0.00     0.154 C 
BRANCH  15  16
ATOM     16  C   UNL A   1      31.730  27.263  23.465  1.00  0.00     0.083 C 
ATOM     17  C   UNL A   1      30.412  27.466  24.217  1.00  0.00     0.044 C 
ATOM     18  C   UNL A   1      32.162  28.584  22.806  1.00  0.00     0.039 C 
ATOM     19  O   UNL A   1      32.757  26.949  24.442  1.00  0.00    -0.373 OA
ATOM     20  C   UNL A   1      33.647  28.633  23.072  1.00  0.00     0.031 C 
ATOM     21  C   UNL A   1      33.742  27.983  24.430  1.00  0.00     0.161 C 
ENDBRANCH  15  16
ENDBRANCH   9  15
ENDBRANCH   5   8
ENDBRANCH   3   4
ENDBRANCH   2   3
ENDBRANCH   1   2
BRANCH   1  22
ATOM     22  C   UNL A   1      37.052  23.591  25.005  1.00  0.00     0.116 C 
BRANCH  22  23
ATOM     23  N   UNL A   1      38.121  22.651  25.317  1.00  0.00    -0.352 N 
ATOM     24  C   UNL A   1      39.224  22.873  26.113  1.00  0.00     0.251 C 
ATOM     25  H   UNL A   1      38.048  21.756  24.912  1.00  0.00     0.163 HD
ATOM     26  O   UNL A   1      40.084  22.016  26.260  1.00  0.00    -0.269 OA
BRANCH  24  27
ATOM     27  C   UNL A   1      39.361  24.201  26.744  1.00  0.00     0.039 A 
ATOM     28  C   UNL A   1      38.869  24.388  28.037  1.00  0.00     0.014 A 
ATOM     29  C   UNL A   1      40.101  25.198  26.105  1.00  0.00     0.014 A 
ATOM     30  C   UNL A   1      39.201  25.553  28.731  1.00  0.00     0.010 A 
ATOM     31  C   UNL A   1      40.489  26.320  26.823  1.00  0.00     0.010 A 
ATOM     32  C   UNL A   1      40.056  26.502  28.147  1.00  0.00    -0.014 A 
BRANCH  32  33
ATOM     33  C   UNL A   1      40.525  27.698  28.889  1.00  0.00     0.031 A 
ATOM     34  C   UNL A   1      41.874  27.669  29.550  1.00  0.00     0.074 A 
ATOM     35  C   UNL A   1      39.702  28.750  29.063  1.00  0.00     0.049 A 
ATOM     36  N   UNL A   1      42.395  28.511  30.402  1.00  0.00    -0.248 NA
ATOM     37  C   UNL A   1      42.734  26.514  29.240  1.00  0.00     0.031 C 
ATOM     38  C   UNL A   1      38.351  28.875  28.510  1.00  0.00     0.029 A 
ATOM     39  N   UNL A   1      39.874  29.910  29.777  1.00  0.00    -0.354 N 
ATOM     40  C   UNL A   1      43.621  27.968  30.765  1.00  0.00     0.074 A 
ATOM     41  C   UNL A   1      43.752  26.708  30.065  1.00  0.00     0.031 C 
ATOM     42  C   UNL A   1      37.825  30.051  28.893  1.00  0.00     0.029 A 
ATOM     43  C   UNL A   1      38.781  30.744  29.750  1.00  0.00     0.049 A 
ATOM     44  H   UNL A   1      40.703  30.124  30.264  1.00  0.00     0.167 HD
ATOM     45  C   UNL A   1      44.560  28.480  31.593  1.00  0.00     0.037 A 
ATOM     46  C   UNL A   1      38.572  31.929  30.358  1.00  0.00     0.037 A 
ATOM     47  C   UNL A   1      44.449  29.760  32.240  1.00  0.00     0.049 A 
ATOM     48  C   UNL A   1      39.654  32.504  31.231  1.00  0.00     0.074 A 
ATOM     49  C   UNL A   1      45.367  30.396  33.055  1.00  0.00     0.029 A 
ATOM     50  N   UNL A   1      43.356  30.607  32.126  1.00  0.00    -0.354 N 
ATOM     51  N   UNL A   1      40.819  31.990  31.543  1.00  0.00    -0.248 NA
ATOM     52  C   UNL A   1      39.395  33.819  31.835  1.00  0.00     0.031 C 
ATOM     53  C   UNL A   1      44.823  31.625  33.446  1.00  0.00     0.029 A 
ATOM     54  C   UNL A   1      43.578  31.763  32.852  1.00  0.00     0.049 A 
ATOM     55  H   UNL A   1      42.542  30.414  31.606  1.00  0.00     0.167 HD
ATOM     56  C   UNL A   1      41.443  32.928  32.356  1.00  0.00     0.074 A 
ATOM     57  C   UNL A   1      40.528  34.044  32.488  1.00  0.00     0.031 C 
ATOM     58  C   UNL A   1      42.663  32.872  32.943  1.00  0.00     0.037 A 
BRANCH  45  59
ATOM     59  C   UNL A   1      45.791  27.654  31.835  1.00  0.00     0.058 A 
ATOM     60  C   UNL A   1      45.853  26.722  32.881  1.00  0.00     0.135 A 
ATOM     61  C   UNL A   1      46.919  27.794  31.011  1.00  0.00     0.135 A 
ATOM     62  F   UNL A   1      44.808  26.565  33.710  1.00  0.00    -0.206 F 
ATOM     63  C   UNL A   1      47.003  25.980  33.127  1.00  0.00     0.059 A 
ATOM     64  C   UNL A   1      48.071  27.045  31.222  1.00  0.00     0.059 A 
ATOM     65  F   UNL A   1      46.911  28.674  29.997  1.00  0.00    -0.206 F 
ATOM     66  C   UNL A   1      48.111  26.154  32.294  1.00  0.00     0.060 A 
BRANCH  66  67
ATOM     67  S   UNL A   1      49.605  25.198  32.630  1.00  0.00     0.124 S 
ATOM     68  O   UNL A   1      50.454  26.202  33.265  1.00  0.00    -0.237 OA
ATOM     69  O   UNL A   1      49.113  24.140  33.507  1.00  0.00    -0.237 OA
ATOM     70  O   UNL A   1      50.030  24.761  31.305  1.00  0.00    -0.744 OA
ENDBRANCH  66  67
ENDBRANCH  45  59
BRANCH  46  71
ATOM     71  C   UNL A   1      37.300  32.663  30.142  1.00  0.00     0.058 A 
ATOM     72  C   UNL A   1      37.187  33.611  29.113  1.00  0.00     0.135 A 
ATOM     73  C   UNL A   1      36.172  32.430  30.944  1.00  0.00     0.135 A 
ATOM     74  F   UNL A   1      38.241  33.870  28.324  1.00  0.00    -0.206 F 
ATOM     75  C   UNL A   1      36.009  34.316  28.897  1.00  0.00     0.059 A 
ATOM     76  C   UNL A   1      34.975  33.110  30.735  1.00  0.00     0.059 A 
ATOM     77  F   UNL A   1      36.224  31.521  31.930  1.00  0.00    -0.206 F 
ATOM     78  C   UNL A   1      34.907  34.060  29.715  1.00  0.00     0.060 A 
BRANCH  78  79
ATOM     79  S   UNL A   1      33.367  34.950  29.401  1.00  0.00     0.124 S 
ATOM     80  O   UNL A   1      32.777  34.993  30.734  1.00  0.00    -0.237 OA
ATOM     81  O   UNL A   1      33.847  36.223  28.873  1.00  0.00    -0.237 OA
ATOM     82  O   UNL A   1      32.683  34.098  28.432  1.00  0.00    -0.744 OA
ENDBRANCH  78  79
ENDBRANCH  46  71
BRANCH  58  83
ATOM     83  C   UNL A   1      43.105  34.062  33.742  1.00  0.00     0.058 A 
ATOM     84  C   UNL A   1      43.751  35.150  33.140  1.00  0.00     0.135 A 
ATOM     85  C   UNL A   1      42.793  34.151  35.108  1.00  0.00     0.135 A 
ATOM     86  F   UNL A   1      44.074  35.108  31.838  1.00  0.00    -0.206 F 
ATOM     87  C   UNL A   1      44.076  36.290  33.866  1.00  0.00     0.059 A 
ATOM     88  C   UNL A   1      43.094  35.287  35.849  1.00  0.00     0.059 A 
ATOM     89  F   UNL A   1      42.168  33.135  35.725  1.00  0.00    -0.206 F 
ATOM     90  C   UNL A   1      43.737  36.351  35.220  1.00  0.00     0.060 A 
BRANCH  90  91
ATOM     91  S   UNL A   1      44.098  37.864  36.137  1.00  0.00     0.124 S 
ATOM     92  O   UNL A   1      43.791  38.889  35.146  1.00  0.00    -0.237 OA
ATOM     93  O   UNL A   1      43.178  37.776  37.266  1.00  0.00    -0.237 OA
ATOM     94  O   UNL A   1      45.511  37.723  36.478  1.00  0.00    -0.744 OA
ENDBRANCH  90  91
ENDBRANCH  58  83
ENDBRANCH  32  33
ENDBRANCH  24  27
ENDBRANCH  22  23
ENDBRANCH   1  22
TORSDOF 16
ENDMDL
MODEL 3
REMARK VINA RESULT:     -10.8      4.976     10.603
REMARK SMILES C[C@@]1(CN2C[C@H](C(=O)NCCCCNC(=O)c3ccc(-c4c5nc(c(-c6c(F)cc(S(=O)(=O)[O-])cc6F)c6ccc([nH]6)c(-c6c(F)cc(S(=O)(=O)[O-])cc6F)c6nc(c(-c7c(F)cc(S(=O)(=O)[O-])cc7F)c7ccc4[nH]7)C=C6)C=C5)cc3)CCC2=O)CCCO1
REMARK SMILES IDX 12 1 11 2 10 3 9 4 7 5 8 6 6 8 4 9 5 10 85 11 84 12 86 13
REMARK SMILES IDX 83 14 3 15 2 16 1 17 87 18 90 19 88 20 89 21 13 22 14 23
REMARK SMILES IDX 15 24 16 26 17 27 18 28 82 29 19 30 81 31 20 32 21 33 22 34
REMARK SMILES IDX 75 35 23 36 80 37 74 38 76 39 24 40 79 41 73 42 72 43 25 45
REMARK SMILES IDX 59 46 38 47 58 48 39 49 42 50 57 51 77 52 40 53 41 54 56 56
REMARK SMILES IDX 78 57 43 58 26 59 27 60 36 61 28 62 29 63 35 64 37 65 30 66
REMARK SMILES IDX 31 67 32 68 33 69 34 70 60 71 61 72 70 73 62 74 63 75 69 76
REMARK SMILES IDX 71 77 64 78 65 79 66 80 67 81 68 82 44 83 45 84 54 85 46 86
REMARK SMILES IDX 47 87 53 88 55 89 48 90 49 91 50 92 51 93 52 94
REMARK H PARENT 9 7 14 25 76 44 42 55
REMARK Flexibility Score: inf
ROOT
ATOM      1  C   UNL A   1      37.390  23.632  25.488  1.00  0.00     0.023 C 
ENDROOT
BRANCH   1   2
ATOM      2  C   UNL A   1      37.037  22.182  25.171  1.00  0.00     0.023 C 
BRANCH   2   3
ATOM      3  C   UNL A   1      35.673  21.712  25.675  1.00  0.00     0.116 C 
BRANCH   3   4
ATOM      4  N   UNL A   1      34.848  22.818  26.117  1.00  0.00    -0.356 N 
ATOM      5  C   UNL A   1      33.636  23.304  25.765  1.00  0.00     0.224 C 
ATOM      6  O   UNL A   1      33.268  24.298  26.407  1.00  0.00    -0.275 OA
ATOM      7  H   UNL A   1      35.268  23.338  26.841  1.00  0.00     0.163 HD
BRANCH   5   8
ATOM      8  C   UNL A   1      32.668  22.693  24.740  1.00  0.00     0.098 C 
ATOM      9  N   UNL A   1      32.141  24.754  23.441  1.00  0.00    -0.339 N 
ATOM     10  C   UNL A   1      31.612  23.750  24.362  1.00  0.00     0.133 C 
ATOM     11  C   UNL A   1      33.284  24.537  22.700  1.00  0.00     0.222 C 
ATOM     12  C   UNL A   1      33.622  23.087  22.416  1.00  0.00     0.101 C 
ATOM     13  O   UNL A   1      33.935  25.443  22.182  1.00  0.00    -0.275 OA
ATOM     14  C   UNL A   1      33.116  22.074  23.428  1.00  0.00     0.025 C 
BRANCH   9  15
ATOM     15  C   UNL A   1      31.376  25.988  23.235  1.00  0.00     0.154 C 
BRANCH  15  16
ATOM     16  C   UNL A   1      31.676  27.102  24.289  1.00  0.00     0.083 C 
ATOM     17  C   UNL A   1      30.792  27.000  25.536  1.00  0.00     0.044 C 
ATOM     18  C   UNL A   1      31.530  28.497  23.660  1.00  0.00     0.039 C 
ATOM     19  O   UNL A   1      33.060  26.998  24.715  1.00  0.00    -0.373 OA
ATOM     20  C   UNL A   1      32.949  28.861  23.293  1.00  0.00     0.031 C 
ATOM     21  C   UNL A   1      33.733  28.220  24.411  1.00  0.00     0.161 C 
ENDBRANCH  15  16
ENDBRANCH   9  15
ENDBRANCH   5   8
ENDBRANCH   3   4
ENDBRANCH   2   3
ENDBRANCH   1   2
BRANCH   1  22
ATOM     22  C   UNL A   1      38.409  23.826  26.601  1.00  0.00     0.116 C 
BRANCH  22  23
ATOM     23  N   UNL A   1      39.798  23.758  26.163  1.00  0.00    -0.352 N 
ATOM     24  C   UNL A   1      40.817  24.631  26.476  1.00  0.00     0.251 C 
ATOM     25  H   UNL A   1      40.035  23.002  25.578  1.00  0.00     0.163 HD
ATOM     26  O   UNL A   1      41.937  24.495  26.004  1.00  0.00    -0.269 OA
BRANCH  24  27
ATOM     27  C   UNL A   1      40.499  25.771  27.359  1.00  0.00     0.039 A 
ATOM     28  C   UNL A   1      39.631  25.571  28.433  1.00  0.00     0.014 A 
ATOM     29  C   UNL A   1      41.177  26.982  27.197  1.00  0.00     0.014 A 
ATOM     30  C   UNL A   1      39.511  26.564  29.407  1.00  0.00     0.010 A 
ATOM     31  C   UNL A   1      41.111  27.935  28.203  1.00  0.00     0.010 A 
ATOM     32  C   UNL A   1      40.290  27.730  29.325  1.00  0.00    -0.014 A 
BRANCH  32  33
ATOM     33  C   UNL A   1      40.279  28.759  30.393  1.00  0.00     0.031 A 
ATOM     34  C   UNL A   1      41.206  28.611  31.566  1.00  0.00     0.074 A 
ATOM     35  C   UNL A   1      39.366  29.750  30.367  1.00  0.00     0.049 A 
ATOM     36  N   UNL A   1      41.227  29.272  32.692  1.00  0.00    -0.248 NA
ATOM     37  C   UNL A   1      42.220  27.547  31.471  1.00  0.00     0.031 C 
ATOM     38  C   UNL A   1      38.380  29.972  29.305  1.00  0.00     0.029 A 
ATOM     39  N   UNL A   1      39.103  30.747  31.273  1.00  0.00    -0.354 N 
ATOM     40  C   UNL A   1      42.221  28.677  33.458  1.00  0.00     0.074 A 
ATOM     41  C   UNL A   1      42.759  27.582  32.680  1.00  0.00     0.031 C 
ATOM     42  C   UNL A   1      37.632  31.044  29.614  1.00  0.00     0.029 A 
ATOM     43  C   UNL A   1      38.055  31.562  30.911  1.00  0.00     0.049 A 
ATOM     44  H   UNL A   1      39.616  30.867  32.105  1.00  0.00     0.167 HD
ATOM     45  C   UNL A   1      42.658  29.022  34.691  1.00  0.00     0.037 A 
ATOM     46  C   UNL A   1      37.494  32.601  31.561  1.00  0.00     0.037 A 
ATOM     47  C   UNL A   1      42.158  30.147  35.434  1.00  0.00     0.049 A 
ATOM     48  C   UNL A   1      38.034  33.000  32.907  1.00  0.00     0.074 A 
ATOM     49  C   UNL A   1      42.571  30.617  36.668  1.00  0.00     0.029 A 
ATOM     50  N   UNL A   1      41.148  30.992  34.999  1.00  0.00    -0.354 N 
ATOM     51  N   UNL A   1      38.993  32.444  33.607  1.00  0.00    -0.248 NA
ATOM     52  C   UNL A   1      37.417  34.168  33.553  1.00  0.00     0.031 C 
ATOM     53  C   UNL A   1      41.799  31.740  36.986  1.00  0.00     0.029 A 
ATOM     54  C   UNL A   1      40.925  31.984  35.938  1.00  0.00     0.049 A 
ATOM     55  H   UNL A   1      40.660  30.900  34.148  1.00  0.00     0.167 HD
ATOM     56  C   UNL A   1      39.114  33.208  34.761  1.00  0.00     0.074 A 
ATOM     57  C   UNL A   1      38.131  34.268  34.668  1.00  0.00     0.031 C 
ATOM     58  C   UNL A   1      39.961  33.045  35.807  1.00  0.00     0.037 A 
BRANCH  45  59
ATOM     59  C   UNL A   1      43.735  28.174  35.303  1.00  0.00     0.058 A 
ATOM     60  C   UNL A   1      45.094  28.440  35.077  1.00  0.00     0.135 A 
ATOM     61  C   UNL A   1      43.407  27.086  36.127  1.00  0.00     0.135 A 
ATOM     62  F   UNL A   1      45.460  29.457  34.281  1.00  0.00    -0.206 F 
ATOM     63  C   UNL A   1      46.092  27.636  35.616  1.00  0.00     0.059 A 
ATOM     64  C   UNL A   1      44.389  26.283  36.698  1.00  0.00     0.059 A 
ATOM     65  F   UNL A   1      42.122  26.789  36.374  1.00  0.00    -0.206 F 
ATOM     66  C   UNL A   1      45.728  26.554  36.421  1.00  0.00     0.060 A 
BRANCH  66  67
ATOM     67  S   UNL A   1      47.030  25.506  37.104  1.00  0.00     0.124 S 
ATOM     68  O   UNL A   1      46.471  25.165  38.410  1.00  0.00    -0.237 OA
ATOM     69  O   UNL A   1      47.095  24.413  36.139  1.00  0.00    -0.237 OA
ATOM     70  O   UNL A   1      48.193  26.386  37.128  1.00  0.00    -0.744 OA
ENDBRANCH  66  67
ENDBRANCH  45  59
BRANCH  46  71
ATOM     71  C   UNL A   1      36.376  33.354  30.937  1.00  0.00     0.058 A 
ATOM     72  C   UNL A   1      36.605  34.186  29.831  1.00  0.00     0.135 A 
ATOM     73  C   UNL A   1      35.062  33.252  31.419  1.00  0.00     0.135 A 
ATOM     74  F   UNL A   1      37.846  34.319  29.338  1.00  0.00    -0.206 F 
ATOM     75  C   UNL A   1      35.576  34.907  29.235  1.00  0.00     0.059 A 
ATOM     76  C   UNL A   1      34.012  33.948  30.828  1.00  0.00     0.059 A 
ATOM     77  F   UNL A   1      34.790  32.455  32.463  1.00  0.00    -0.206 F 
ATOM     78  C   UNL A   1      34.281  34.782  29.742  1.00  0.00     0.060 A 
BRANCH  78  79
ATOM     79  S   UNL A   1      32.943  35.689  28.937  1.00  0.00     0.124 S 
ATOM     80  O   UNL A   1      32.139  36.103  30.081  1.00  0.00    -0.237 OA
ATOM     81  O   UNL A   1      33.662  36.753  28.243  1.00  0.00    -0.237 OA
ATOM     82  O   UNL A   1      32.338  34.684  28.067  1.00  0.00    -0.744 OA
ENDBRANCH  78  79
ENDBRANCH  46  71
BRANCH  58  83
ATOM     83  C   UNL A   1      39.900  34.057  36.912  1.00  0.00     0.058 A 
ATOM     84  C   UNL A   1      40.422  35.349  36.753  1.00  0.00     0.135 A 
ATOM     85  C   UNL A   1      39.229  33.758  38.108  1.00  0.00     0.135 A 
ATOM     86  F   UNL A   1      41.078  35.678  35.629  1.00  0.00    -0.206 F 
ATOM     87  C   UNL A   1      40.283  36.312  37.745  1.00  0.00     0.059 A 
ATOM     88  C   UNL A   1      39.063  34.710  39.106  1.00  0.00     0.059 A 
ATOM     89  F   UNL A   1      38.706  32.536  38.301  1.00  0.00    -0.206 F 
ATOM     90  C   UNL A   1      39.596  35.984  38.917  1.00  0.00     0.060 A 
BRANCH  90  91
ATOM     91  S   UNL A   1      39.357  37.263  40.169  1.00  0.00     0.124 S 
ATOM     92  O   UNL A   1      40.733  37.621  40.491  1.00  0.00    -0.237 OA
ATOM     93  O   UNL A   1      38.591  38.273  39.447  1.00  0.00    -0.237 OA
ATOM     94  O   UNL A   1      38.624  36.569  41.224  1.00  0.00    -0.744 OA
ENDBRANCH  90  91
ENDBRANCH  58  83
ENDBRANCH  32  33
ENDBRANCH  24  27
ENDBRANCH  22  23
ENDBRANCH   1  22
TORSDOF 16
ENDMDL
