MODEL 1
REMARK VINA RESULT:     -11.9      0.000      0.000
REMARK SMILES CN(CC(=O)NCCCCNC(=O)c1ccc(-c2c3nc(c(-c4c(F)cc(S(=O)(=O)[O-])cc4F)c4ccc([nH]4)c(-c4c(F)cc(S(=O)(=O)[O-])cc4F)c4nc(c(-c5c(F)cc(S(=O)(=O)[O-])cc5F)c5ccc2[nH]5)C=C4)C=C3)cc1)c1ncc(-c2nnnn2-c2ccccc2)c(-c2ccc(Cl)cc2)n1
REMARK SMILES IDX 8 1 7 2 6 3 4 4 5 5 3 7 2 8 1 9 80 10 81 11 103 12 82 13
REMARK SMILES IDX 95 14 83 15 96 16 97 17 102 18 98 19 101 20 99 21 100 22
REMARK SMILES IDX 84 23 85 24 88 25 86 26 87 27 89 28 90 29 94 30 91 31 93 32
REMARK SMILES IDX 92 33 9 34 10 35 11 36 12 37 13 39 14 40 15 41 79 42 16 43
REMARK SMILES IDX 78 44 17 45 18 46 19 47 72 48 20 49 77 50 71 51 73 52 21 53
REMARK SMILES IDX 76 54 70 55 69 56 22 58 56 59 35 60 55 61 36 62 39 63 54 64
REMARK SMILES IDX 74 65 37 66 38 67 53 69 75 70 40 71 23 72 24 73 33 74 25 75
REMARK SMILES IDX 26 76 32 77 34 78 27 79 28 80 29 81 30 82 31 83 57 84 58 85
REMARK SMILES IDX 67 86 59 87 60 88 66 89 68 90 61 91 62 92 63 93 64 94 65 95
REMARK SMILES IDX 41 96 42 97 51 98 43 99 44 100 50 101 52 102 45 103 46 104
REMARK SMILES IDX 47 105 48 106 49 107
REMARK H PARENT 6 6 11 38 73 57 39 68
REMARK Flexibility Score: inf
ROOT
ATOM      1  C   UNL A   1      31.104  27.542  26.987  1.00  0.00     0.023 C 
ENDROOT
BRANCH   1   2
ATOM      2  C   UNL A   1      31.037  26.829  25.639  1.00  0.00     0.116 C 
BRANCH   2   3
ATOM      3  N   UNL A   1      30.264  27.566  24.662  1.00  0.00    -0.355 N 
ATOM      4  C   UNL A   1      30.715  28.434  23.704  1.00  0.00     0.239 C 
ATOM      5  O   UNL A   1      29.894  28.895  22.906  1.00  0.00    -0.273 OA
ATOM      6  H   UNL A   1      29.290  27.425  24.690  1.00  0.00     0.163 HD
BRANCH   4   7
ATOM      7  C   UNL A   1      32.219  28.708  23.558  1.00  0.00     0.219 C 
BRANCH   7   8
ATOM      8  N   UNL A   1      32.906  27.884  22.558  1.00  0.00    -0.335 N 
ATOM      9  C   UNL A   1      34.053  28.408  21.853  1.00  0.00     0.147 C 
BRANCH   8  10
ATOM     10  C   UNL A   1      32.801  26.515  22.691  1.00  0.00     0.226 A 
ATOM     11  N   UNL A   1      31.650  25.935  22.347  1.00  0.00    -0.221 NA
ATOM     12  N   UNL A   1      33.846  25.810  23.152  1.00  0.00    -0.212 NA
ATOM     13  C   UNL A   1      31.558  24.598  22.444  1.00  0.00     0.129 A 
ATOM     14  C   UNL A   1      33.719  24.463  23.285  1.00  0.00     0.087 A 
ATOM     15  C   UNL A   1      32.577  23.786  22.894  1.00  0.00     0.066 A 
BRANCH  14  16
ATOM     16  C   UNL A   1      34.875  23.811  23.927  1.00  0.00     0.001 A 
ATOM     17  C   UNL A   1      35.592  22.820  23.231  1.00  0.00     0.012 A 
ATOM     18  C   UNL A   1      35.318  24.167  25.213  1.00  0.00     0.012 A 
ATOM     19  C   UNL A   1      36.732  22.230  23.783  1.00  0.00     0.021 A 
ATOM     20  C   UNL A   1      36.460  23.578  25.767  1.00  0.00     0.021 A 
ATOM     21  C   UNL A   1      37.166  22.618  25.046  1.00  0.00     0.041 A 
ATOM     22  Cl  UNL A   1      38.581  21.910  25.721  1.00  0.00    -0.084 Cl
ENDBRANCH  14  16
BRANCH  15  23
ATOM     23  C   UNL A   1      32.386  22.349  22.989  1.00  0.00     0.190 A 
ATOM     24  N   UNL A   1      32.144  21.539  21.975  1.00  0.00    -0.108 NA
ATOM     25  N   UNL A   1      32.577  21.566  24.124  1.00  0.00    -0.193 N 
ATOM     26  N   UNL A   1      32.294  20.266  22.450  1.00  0.00    -0.023 NA
ATOM     27  N   UNL A   1      32.623  20.272  23.731  1.00  0.00    -0.040 NA
BRANCH  25  28
ATOM     28  C   UNL A   1      32.710  21.934  25.485  1.00  0.00     0.069 A 
ATOM     29  C   UNL A   1      33.657  21.275  26.281  1.00  0.00     0.028 A 
ATOM     30  C   UNL A   1      31.902  22.932  26.051  1.00  0.00     0.028 A 
ATOM     31  C   UNL A   1      33.827  21.648  27.615  1.00  0.00     0.002 A 
ATOM     32  C   UNL A   1      32.060  23.280  27.395  1.00  0.00     0.002 A 
ATOM     33  C   UNL A   1      33.030  22.648  28.171  1.00  0.00     0.000 A 
ENDBRANCH  25  28
ENDBRANCH  15  23
ENDBRANCH   8  10
ENDBRANCH   7   8
ENDBRANCH   4   7
ENDBRANCH   2   3
ENDBRANCH   1   2
BRANCH   1  34
ATOM     34  C   UNL A   1      32.491  27.563  27.635  1.00  0.00     0.023 C 
BRANCH  34  35
ATOM     35  C   UNL A   1      33.517  28.476  26.968  1.00  0.00     0.116 C 
BRANCH  35  36
ATOM     36  N   UNL A   1      33.410  29.864  27.392  1.00  0.00    -0.352 N 
ATOM     37  C   UNL A   1      34.340  30.646  28.034  1.00  0.00     0.251 C 
ATOM     38  H   UNL A   1      32.552  30.304  27.191  1.00  0.00     0.163 HD
ATOM     39  O   UNL A   1      34.032  31.771  28.419  1.00  0.00    -0.269 OA
BRANCH  37  40
ATOM     40  C   UNL A   1      35.696  30.115  28.295  1.00  0.00     0.039 A 
ATOM     41  C   UNL A   1      36.640  30.143  27.264  1.00  0.00     0.014 A 
ATOM     42  C   UNL A   1      36.044  29.612  29.551  1.00  0.00     0.014 A 
ATOM     43  C   UNL A   1      37.952  29.734  27.516  1.00  0.00     0.010 A 
ATOM     44  C   UNL A   1      37.367  29.269  29.818  1.00  0.00     0.010 A 
ATOM     45  C   UNL A   1      38.337  29.333  28.805  1.00  0.00    -0.014 A 
BRANCH  45  46
ATOM     46  C   UNL A   1      39.751  28.999  29.118  1.00  0.00     0.031 A 
ATOM     47  C   UNL A   1      40.666  30.039  29.705  1.00  0.00     0.074 A 
ATOM     48  C   UNL A   1      40.232  27.780  28.801  1.00  0.00     0.049 A 
ATOM     49  N   UNL A   1      41.944  29.956  29.976  1.00  0.00    -0.248 NA
ATOM     50  C   UNL A   1      40.074  31.353  30.003  1.00  0.00     0.031 C 
ATOM     51  C   UNL A   1      39.460  26.705  28.173  1.00  0.00     0.029 A 
ATOM     52  N   UNL A   1      41.487  27.245  28.945  1.00  0.00    -0.354 N 
ATOM     53  C   UNL A   1      42.312  31.207  30.455  1.00  0.00     0.074 A 
ATOM     54  C   UNL A   1      41.133  32.045  30.397  1.00  0.00     0.031 C 
ATOM     55  C   UNL A   1      40.254  25.637  27.999  1.00  0.00     0.029 A 
ATOM     56  C   UNL A   1      41.598  25.960  28.468  1.00  0.00     0.049 A 
ATOM     57  H   UNL A   1      42.238  27.736  29.351  1.00  0.00     0.167 HD
ATOM     58  C   UNL A   1      43.517  31.615  30.921  1.00  0.00     0.037 A 
ATOM     59  C   UNL A   1      42.663  25.137  28.406  1.00  0.00     0.037 A 
ATOM     60  C   UNL A   1      44.680  30.768  31.003  1.00  0.00     0.049 A 
ATOM     61  C   UNL A   1      43.988  25.605  28.943  1.00  0.00     0.074 A 
ATOM     62  C   UNL A   1      45.925  31.066  31.529  1.00  0.00     0.029 A 
ATOM     63  N   UNL A   1      44.744  29.461  30.542  1.00  0.00    -0.354 N 
ATOM     64  N   UNL A   1      44.299  26.767  29.466  1.00  0.00    -0.248 NA
ATOM     65  C   UNL A   1      45.103  24.650  28.891  1.00  0.00     0.031 C 
ATOM     66  C   UNL A   1      46.755  29.955  31.347  1.00  0.00     0.029 A 
ATOM     67  C   UNL A   1      46.013  28.947  30.751  1.00  0.00     0.049 A 
ATOM     68  H   UNL A   1      43.997  28.971  30.127  1.00  0.00     0.167 HD
ATOM     69  C   UNL A   1      45.639  26.677  29.825  1.00  0.00     0.074 A 
ATOM     70  C   UNL A   1      46.076  25.341  29.472  1.00  0.00     0.031 C 
ATOM     71  C   UNL A   1      46.435  27.614  30.397  1.00  0.00     0.037 A 
BRANCH  58  72
ATOM     72  C   UNL A   1      43.640  33.042  31.380  1.00  0.00     0.058 A 
ATOM     73  C   UNL A   1      43.246  33.439  32.669  1.00  0.00     0.135 A 
ATOM     74  C   UNL A   1      44.189  34.019  30.535  1.00  0.00     0.135 A 
ATOM     75  F   UNL A   1      42.703  32.548  33.514  1.00  0.00    -0.206 F 
ATOM     76  C   UNL A   1      43.359  34.760  33.089  1.00  0.00     0.059 A 
ATOM     77  C   UNL A   1      44.338  35.342  30.944  1.00  0.00     0.059 A 
ATOM     78  F   UNL A   1      44.584  33.695  29.293  1.00  0.00    -0.206 F 
ATOM     79  C   UNL A   1      43.904  35.705  32.218  1.00  0.00     0.060 A 
BRANCH  79  80
ATOM     80  S   UNL A   1      44.041  37.416  32.779  1.00  0.00     0.124 S 
ATOM     81  O   UNL A   1      43.020  37.461  33.821  1.00  0.00    -0.237 OA
ATOM     82  O   UNL A   1      45.423  37.484  33.243  1.00  0.00    -0.237 OA
ATOM     83  O   UNL A   1      43.747  38.192  31.578  1.00  0.00    -0.744 OA
ENDBRANCH  79  80
ENDBRANCH  58  72
BRANCH  59  84
ATOM     84  C   UNL A   1      42.512  23.776  27.825  1.00  0.00     0.058 A 
ATOM     85  C   UNL A   1      42.525  23.577  26.437  1.00  0.00     0.135 A 
ATOM     86  C   UNL A   1      42.378  22.646  28.647  1.00  0.00     0.135 A 
ATOM     87  F   UNL A   1      42.644  24.627  25.611  1.00  0.00    -0.206 F 
ATOM     88  C   UNL A   1      42.399  22.308  25.881  1.00  0.00     0.059 A 
ATOM     89  C   UNL A   1      42.275  21.364  28.116  1.00  0.00     0.059 A 
ATOM     90  F   UNL A   1      42.379  22.780  29.983  1.00  0.00    -0.206 F 
ATOM     91  C   UNL A   1      42.280  21.206  26.730  1.00  0.00     0.060 A 
BRANCH  91  92
ATOM     92  S   UNL A   1      42.185  19.556  26.003  1.00  0.00     0.124 S 
ATOM     93  O   UNL A   1      43.090  19.684  24.867  1.00  0.00    -0.237 OA
ATOM     94  O   UNL A   1      42.649  18.710  27.099  1.00  0.00    -0.237 OA
ATOM     95  O   UNL A   1      40.769  19.418  25.673  1.00  0.00    -0.744 OA
ENDBRANCH  91  92
ENDBRANCH  59  84
BRANCH  71  96
ATOM     96  C   UNL A   1      47.854  27.224  30.703  1.00  0.00     0.058 A 
ATOM     97  C   UNL A   1      48.214  26.656  31.935  1.00  0.00     0.135 A 
ATOM     98  C   UNL A   1      48.856  27.372  29.730  1.00  0.00     0.135 A 
ATOM     99  F   UNL A   1      47.295  26.500  32.901  1.00  0.00    -0.206 F 
ATOM    100  C   UNL A   1      49.523  26.268  32.200  1.00  0.00     0.059 A 
ATOM    101  C   UNL A   1      50.166  26.966  29.964  1.00  0.00     0.059 A 
ATOM    102  F   UNL A   1      48.563  27.900  28.531  1.00  0.00    -0.206 F 
ATOM    103  C   UNL A   1      50.493  26.425  31.208  1.00  0.00     0.060 A 
BRANCH 103 104
ATOM    104  S   UNL A   1      52.180  25.884  31.551  1.00  0.00     0.124 S 
ATOM    105  O   UNL A   1      51.966  24.503  31.971  1.00  0.00    -0.237 OA
ATOM    106  O   UNL A   1      52.834  26.058  30.258  1.00  0.00    -0.237 OA
ATOM    107  O   UNL A   1      52.623  26.797  32.599  1.00  0.00    -0.744 OA
ENDBRANCH 103 104
ENDBRANCH  71  96
ENDBRANCH  45  46
ENDBRANCH  37  40
ENDBRANCH  35  36
ENDBRANCH  34  35
ENDBRANCH   1  34
TORSDOF 19
ENDMDL
MODEL 2
REMARK VINA RESULT:     -11.8      2.871      3.833
REMARK SMILES CN(CC(=O)NCCCCNC(=O)c1ccc(-c2c3nc(c(-c4c(F)cc(S(=O)(=O)[O-])cc4F)c4ccc([nH]4)c(-c4c(F)cc(S(=O)(=O)[O-])cc4F)c4nc(c(-c5c(F)cc(S(=O)(=O)[O-])cc5F)c5ccc2[nH]5)C=C4)C=C3)cc1)c1ncc(-c2nnnn2-c2ccccc2)c(-c2ccc(Cl)cc2)n1
REMARK SMILES IDX 8 1 7 2 6 3 4 4 5 5 3 7 2 8 1 9 80 10 81 11 103 12 82 13
REMARK SMILES IDX 95 14 83 15 96 16 97 17 102 18 98 19 101 20 99 21 100 22
REMARK SMILES IDX 84 23 85 24 88 25 86 26 87 27 89 28 90 29 94 30 91 31 93 32
REMARK SMILES IDX 92 33 9 34 10 35 11 36 12 37 13 39 14 40 15 41 79 42 16 43
REMARK SMILES IDX 78 44 17 45 18 46 19 47 72 48 20 49 77 50 71 51 73 52 21 53
REMARK SMILES IDX 76 54 70 55 69 56 22 58 56 59 35 60 55 61 36 62 39 63 54 64
REMARK SMILES IDX 74 65 37 66 38 67 53 69 75 70 40 71 23 72 24 73 33 74 25 75
REMARK SMILES IDX 26 76 32 77 34 78 27 79 28 80 29 81 30 82 31 83 57 84 58 85
REMARK SMILES IDX 67 86 59 87 60 88 66 89 68 90 61 91 62 92 63 93 64 94 65 95
REMARK SMILES IDX 41 96 42 97 51 98 43 99 44 100 50 101 52 102 45 103 46 104
REMARK SMILES IDX 47 105 48 106 49 107
REMARK H PARENT 6 6 11 38 73 57 39 68
REMARK Flexibility Score: inf
ROOT
ATOM      1  C   UNL A   1      32.722  29.963  26.878  1.00  0.00     0.023 C 
ENDROOT
BRANCH   1   2
ATOM      2  C   UNL A   1      32.181  29.749  25.466  1.00  0.00     0.116 C 
BRANCH   2   3
ATOM      3  N   UNL A   1      33.234  29.533  24.497  1.00  0.00    -0.355 N 
ATOM      4  C   UNL A   1      33.161  28.876  23.299  1.00  0.00     0.239 C 
ATOM      5  O   UNL A   1      34.160  28.879  22.574  1.00  0.00    -0.273 OA
ATOM      6  H   UNL A   1      34.114  29.907  24.730  1.00  0.00     0.163 HD
BRANCH   4   7
ATOM      7  C   UNL A   1      31.828  28.275  22.829  1.00  0.00     0.219 C 
BRANCH   7   8
ATOM      8  N   UNL A   1      31.875  26.851  22.483  1.00  0.00    -0.335 N 
ATOM      9  C   UNL A   1      32.189  26.443  21.133  1.00  0.00     0.147 C 
BRANCH   8  10
ATOM     10  C   UNL A   1      32.149  25.964  23.504  1.00  0.00     0.226 A 
ATOM     11  N   UNL A   1      32.557  26.457  24.675  1.00  0.00    -0.221 NA
ATOM     12  N   UNL A   1      31.997  24.646  23.297  1.00  0.00    -0.212 NA
ATOM     13  C   UNL A   1      32.791  25.596  25.679  1.00  0.00     0.129 A 
ATOM     14  C   UNL A   1      32.282  23.789  24.312  1.00  0.00     0.087 A 
ATOM     15  C   UNL A   1      32.652  24.229  25.571  1.00  0.00     0.066 A 
BRANCH  14  16
ATOM     16  C   UNL A   1      32.212  22.366  23.933  1.00  0.00     0.001 A 
ATOM     17  C   UNL A   1      32.214  22.005  22.573  1.00  0.00     0.012 A 
ATOM     18  C   UNL A   1      32.174  21.336  24.890  1.00  0.00     0.012 A 
ATOM     19  C   UNL A   1      32.217  20.664  22.181  1.00  0.00     0.021 A 
ATOM     20  C   UNL A   1      32.178  19.992  24.500  1.00  0.00     0.021 A 
ATOM     21  C   UNL A   1      32.207  19.663  23.147  1.00  0.00     0.041 A 
ATOM     22  Cl  UNL A   1      32.231  18.010  22.669  1.00  0.00    -0.084 Cl
ENDBRANCH  14  16
BRANCH  15  23
ATOM     23  C   UNL A   1      32.948  23.368  26.702  1.00  0.00     0.190 A 
ATOM     24  N   UNL A   1      32.133  23.118  27.711  1.00  0.00    -0.108 NA
ATOM     25  N   UNL A   1      34.063  22.544  26.841  1.00  0.00    -0.193 N 
ATOM     26  N   UNL A   1      32.680  22.075  28.404  1.00  0.00    -0.023 NA
ATOM     27  N   UNL A   1      33.812  21.675  27.848  1.00  0.00    -0.040 NA
BRANCH  25  28
ATOM     28  C   UNL A   1      35.287  22.522  26.129  1.00  0.00     0.069 A 
ATOM     29  C   UNL A   1      36.097  23.666  26.128  1.00  0.00     0.028 A 
ATOM     30  C   UNL A   1      35.692  21.385  25.414  1.00  0.00     0.028 A 
ATOM     31  C   UNL A   1      37.322  23.652  25.460  1.00  0.00     0.002 A 
ATOM     32  C   UNL A   1      36.907  21.389  24.726  1.00  0.00     0.002 A 
ATOM     33  C   UNL A   1      37.726  22.516  24.760  1.00  0.00     0.000 A 
ENDBRANCH  25  28
ENDBRANCH  15  23
ENDBRANCH   8  10
ENDBRANCH   7   8
ENDBRANCH   4   7
ENDBRANCH   2   3
ENDBRANCH   1   2
BRANCH   1  34
ATOM     34  C   UNL A   1      33.770  28.940  27.326  1.00  0.00     0.023 C 
BRANCH  34  35
ATOM     35  C   UNL A   1      35.157  29.504  27.624  1.00  0.00     0.116 C 
BRANCH  35  36
ATOM     36  N   UNL A   1      35.207  30.284  28.852  1.00  0.00    -0.352 N 
ATOM     37  C   UNL A   1      36.256  30.459  29.722  1.00  0.00     0.251 C 
ATOM     38  H   UNL A   1      34.374  30.751  29.092  1.00  0.00     0.163 HD
ATOM     39  O   UNL A   1      36.081  31.065  30.776  1.00  0.00    -0.269 OA
BRANCH  37  40
ATOM     40  C   UNL A   1      37.582  29.883  29.405  1.00  0.00     0.039 A 
ATOM     41  C   UNL A   1      37.988  29.822  28.069  1.00  0.00     0.014 A 
ATOM     42  C   UNL A   1      38.429  29.424  30.418  1.00  0.00     0.014 A 
ATOM     43  C   UNL A   1      39.271  29.370  27.756  1.00  0.00     0.010 A 
ATOM     44  C   UNL A   1      39.731  29.038  30.109  1.00  0.00     0.010 A 
ATOM     45  C   UNL A   1      40.168  29.013  28.775  1.00  0.00    -0.014 A 
BRANCH  45  46
ATOM     46  C   UNL A   1      41.573  28.634  28.469  1.00  0.00     0.031 A 
ATOM     47  C   UNL A   1      42.651  29.682  28.425  1.00  0.00     0.074 A 
ATOM     48  C   UNL A   1      41.861  27.355  28.153  1.00  0.00     0.049 A 
ATOM     49  N   UNL A   1      43.913  29.553  28.105  1.00  0.00    -0.248 NA
ATOM     50  C   UNL A   1      42.254  31.058  28.759  1.00  0.00     0.031 C 
ATOM     51  C   UNL A   1      40.892  26.258  28.102  1.00  0.00     0.029 A 
ATOM     52  N   UNL A   1      43.047  26.764  27.798  1.00  0.00    -0.354 N 
ATOM     53  C   UNL A   1      44.456  30.830  28.179  1.00  0.00     0.074 A 
ATOM     54  C   UNL A   1      43.375  31.727  28.532  1.00  0.00     0.031 C 
ATOM     55  C   UNL A   1      41.525  25.128  27.751  1.00  0.00     0.029 A 
ATOM     56  C   UNL A   1      42.935  25.423  27.516  1.00  0.00     0.049 A 
ATOM     57  H   UNL A   1      43.900  27.255  27.748  1.00  0.00     0.167 HD
ATOM     58  C   UNL A   1      45.740  31.218  27.992  1.00  0.00     0.037 A 
ATOM     59  C   UNL A   1      43.859  24.532  27.106  1.00  0.00     0.037 A 
ATOM     60  C   UNL A   1      46.817  30.317  27.669  1.00  0.00     0.049 A 
ATOM     61  C   UNL A   1      45.283  24.982  26.920  1.00  0.00     0.074 A 
ATOM     62  C   UNL A   1      48.164  30.602  27.533  1.00  0.00     0.029 A 
ATOM     63  N   UNL A   1      46.669  28.960  27.426  1.00  0.00    -0.354 N 
ATOM     64  N   UNL A   1      45.793  26.181  27.071  1.00  0.00    -0.248 NA
ATOM     65  C   UNL A   1      46.257  23.959  26.515  1.00  0.00     0.031 C 
ATOM     66  C   UNL A   1      48.825  29.425  27.165  1.00  0.00     0.029 A 
ATOM     67  C   UNL A   1      47.897  28.398  27.119  1.00  0.00     0.049 A 
ATOM     68  H   UNL A   1      45.817  28.468  27.466  1.00  0.00     0.167 HD
ATOM     69  C   UNL A   1      47.151  26.053  26.803  1.00  0.00     0.074 A 
ATOM     70  C   UNL A   1      47.385  24.657  26.492  1.00  0.00     0.031 C 
ATOM     71  C   UNL A   1      48.117  27.005  26.814  1.00  0.00     0.037 A 
BRANCH  58  72
ATOM     72  C   UNL A   1      46.053  32.683  28.132  1.00  0.00     0.058 A 
ATOM     73  C   UNL A   1      46.485  33.231  29.351  1.00  0.00     0.135 A 
ATOM     74  C   UNL A   1      45.952  33.544  27.028  1.00  0.00     0.135 A 
ATOM     75  F   UNL A   1      46.588  32.456  30.442  1.00  0.00    -0.206 F 
ATOM     76  C   UNL A   1      46.772  34.586  29.478  1.00  0.00     0.059 A 
ATOM     77  C   UNL A   1      46.261  34.898  27.125  1.00  0.00     0.059 A 
ATOM     78  F   UNL A   1      45.545  33.073  25.839  1.00  0.00    -0.206 F 
ATOM     79  C   UNL A   1      46.654  35.412  28.359  1.00  0.00     0.060 A 
BRANCH  79  80
ATOM     80  S   UNL A   1      47.028  37.170  28.541  1.00  0.00     0.124 S 
ATOM     81  O   UNL A   1      46.364  37.476  29.805  1.00  0.00    -0.237 OA
ATOM     82  O   UNL A   1      48.487  37.178  28.574  1.00  0.00    -0.237 OA
ATOM     83  O   UNL A   1      46.427  37.770  27.355  1.00  0.00    -0.744 OA
ENDBRANCH  79  80
ENDBRANCH  58  72
BRANCH  59  84
ATOM     84  C   UNL A   1      43.466  23.119  26.862  1.00  0.00     0.058 A 
ATOM     85  C   UNL A   1      43.413  22.599  25.561  1.00  0.00     0.135 A 
ATOM     86  C   UNL A   1      43.161  22.255  27.925  1.00  0.00     0.135 A 
ATOM     87  F   UNL A   1      43.690  23.388  24.512  1.00  0.00    -0.206 F 
ATOM     88  C   UNL A   1      43.061  21.275  25.319  1.00  0.00     0.059 A 
ATOM     89  C   UNL A   1      42.830  20.921  27.710  1.00  0.00     0.059 A 
ATOM     90  F   UNL A   1      43.215  22.699  29.191  1.00  0.00    -0.206 F 
ATOM     91  C   UNL A   1      42.775  20.442  26.402  1.00  0.00     0.060 A 
BRANCH  91  92
ATOM     92  S   UNL A   1      42.385  18.708  26.084  1.00  0.00     0.124 S 
ATOM     93  O   UNL A   1      42.641  18.105  27.387  1.00  0.00    -0.237 OA
ATOM     94  O   UNL A   1      40.985  18.779  25.675  1.00  0.00    -0.237 OA
ATOM     95  O   UNL A   1      43.321  18.345  25.023  1.00  0.00    -0.744 OA
ENDBRANCH  91  92
ENDBRANCH  59  84
BRANCH  71  96
ATOM     96  C   UNL A   1      49.523  26.568  26.507  1.00  0.00     0.058 A 
ATOM     97  C   UNL A   1      50.337  25.965  27.478  1.00  0.00     0.135 A 
ATOM     98  C   UNL A   1      50.042  26.709  25.210  1.00  0.00     0.135 A 
ATOM     99  F   UNL A   1      49.890  25.814  28.735  1.00  0.00    -0.206 F 
ATOM    100  C   UNL A   1      51.625  25.534  27.179  1.00  0.00     0.059 A 
ATOM    101  C   UNL A   1      51.318  26.261  24.882  1.00  0.00     0.059 A 
ATOM    102  F   UNL A   1      49.301  27.270  24.241  1.00  0.00    -0.206 F 
ATOM    103  C   UNL A   1      52.107  25.685  25.877  1.00  0.00     0.060 A 
BRANCH 103 104
ATOM    104  S   UNL A   1      53.767  25.089  25.493  1.00  0.00     0.124 S 
ATOM    105  O   UNL A   1      54.524  25.570  26.644  1.00  0.00    -0.237 OA
ATOM    106  O   UNL A   1      53.573  23.645  25.420  1.00  0.00    -0.237 OA
ATOM    107  O   UNL A   1      54.076  25.740  24.223  1.00  0.00    -0.744 OA
ENDBRANCH 103 104
ENDBRANCH  71  96
ENDBRANCH  45  46
ENDBRANCH  37  40
ENDBRANCH  35  36
ENDBRANCH  34  35
ENDBRANCH   1  34
TORSDOF 19
ENDMDL
MODEL 3
REMARK VINA RESULT:     -11.2      2.348      3.208
REMARK SMILES CN(CC(=O)NCCCCNC(=O)c1ccc(-c2c3nc(c(-c4c(F)cc(S(=O)(=O)[O-])cc4F)c4ccc([nH]4)c(-c4c(F)cc(S(=O)(=O)[O-])cc4F)c4nc(c(-c5c(F)cc(S(=O)(=O)[O-])cc5F)c5ccc2[nH]5)C=C4)C=C3)cc1)c1ncc(-c2nnnn2-c2ccccc2)c(-c2ccc(Cl)cc2)n1
REMARK SMILES IDX 8 1 7 2 6 3 4 4 5 5 3 7 2 8 1 9 80 10 81 11 103 12 82 13
REMARK SMILES IDX 95 14 83 15 96 16 97 17 102 18 98 19 101 20 99 21 100 22
REMARK SMILES IDX 84 23 85 24 88 25 86 26 87 27 89 28 90 29 94 30 91 31 93 32
REMARK SMILES IDX 92 33 9 34 10 35 11 36 12 37 13 39 14 40 15 41 79 42 16 43
REMARK SMILES IDX 78 44 17 45 18 46 19 47 72 48 20 49 77 50 71 51 73 52 21 53
REMARK SMILES IDX 76 54 70 55 69 56 22 58 56 59 35 60 55 61 36 62 39 63 54 64
REMARK SMILES IDX 74 65 37 66 38 67 53 69 75 70 40 71 23 72 24 73 33 74 25 75
REMARK SMILES IDX 26 76 32 77 34 78 27 79 28 80 29 81 30 82 31 83 57 84 58 85
REMARK SMILES IDX 67 86 59 87 60 88 66 89 68 90 61 91 62 92 63 93 64 94 65 95
REMARK SMILES IDX 41 96 42 97 51 98 43 99 44 100 50 101 52 102 45 103 46 104
REMARK SMILES IDX 47 105 48 106 49 107
REMARK H PARENT 6 6 11 38 73 57 39 68
REMARK Flexibility Score: inf
ROOT
ATOM      1  C   UNL A   1      32.510  26.753  26.475  1.00  0.00     0.023 C 
ENDROOT
BRANCH   1   2
ATOM      2  C   UNL A   1      31.159  27.165  25.896  1.00  0.00     0.116 C 
BRANCH   2   3
ATOM      3  N   UNL A   1      31.112  28.569  25.548  1.00  0.00    -0.355 N 
ATOM      4  C   UNL A   1      30.948  29.130  24.310  1.00  0.00     0.239 C 
ATOM      5  O   UNL A   1      30.848  30.359  24.238  1.00  0.00    -0.273 OA
ATOM      6  H   UNL A   1      31.212  29.201  26.296  1.00  0.00     0.163 HD
BRANCH   4   7
ATOM      7  C   UNL A   1      30.760  28.235  23.077  1.00  0.00     0.219 C 
BRANCH   7   8
ATOM      8  N   UNL A   1      31.978  27.575  22.596  1.00  0.00    -0.335 N 
ATOM      9  C   UNL A   1      33.216  28.316  22.505  1.00  0.00     0.147 C 
BRANCH   8  10
ATOM     10  C   UNL A   1      32.055  26.207  22.750  1.00  0.00     0.226 A 
ATOM     11  N   UNL A   1      30.949  25.487  22.556  1.00  0.00    -0.221 NA
ATOM     12  N   UNL A   1      33.226  25.641  23.084  1.00  0.00    -0.212 NA
ATOM     13  C   UNL A   1      31.031  24.151  22.674  1.00  0.00     0.129 A 
ATOM     14  C   UNL A   1      33.279  24.292  23.242  1.00  0.00     0.087 A 
ATOM     15  C   UNL A   1      32.187  23.476  23.000  1.00  0.00     0.066 A 
BRANCH  14  16
ATOM     16  C   UNL A   1      34.574  23.796  23.741  1.00  0.00     0.001 A 
ATOM     17  C   UNL A   1      35.043  24.213  25.000  1.00  0.00     0.012 A 
ATOM     18  C   UNL A   1      35.358  22.884  23.012  1.00  0.00     0.012 A 
ATOM     19  C   UNL A   1      36.234  23.710  25.532  1.00  0.00     0.021 A 
ATOM     20  C   UNL A   1      36.550  22.378  23.543  1.00  0.00     0.021 A 
ATOM     21  C   UNL A   1      36.979  22.788  24.802  1.00  0.00     0.041 A 
ATOM     22  Cl  UNL A   1      38.435  22.151  25.461  1.00  0.00    -0.084 Cl
ENDBRANCH  14  16
BRANCH  15  23
ATOM     23  C   UNL A   1      32.183  22.029  23.129  1.00  0.00     0.190 A 
ATOM     24  N   UNL A   1      31.977  21.172  22.146  1.00  0.00    -0.108 NA
ATOM     25  N   UNL A   1      32.546  21.301  24.259  1.00  0.00    -0.193 N 
ATOM     26  N   UNL A   1      32.315  19.938  22.627  1.00  0.00    -0.023 NA
ATOM     27  N   UNL A   1      32.726  20.014  23.883  1.00  0.00    -0.040 NA
BRANCH  25  28
ATOM     28  C   UNL A   1      32.724  21.714  25.603  1.00  0.00     0.069 A 
ATOM     29  C   UNL A   1      33.782  21.176  26.348  1.00  0.00     0.028 A 
ATOM     30  C   UNL A   1      31.852  22.637  26.201  1.00  0.00     0.028 A 
ATOM     31  C   UNL A   1      33.993  21.597  27.662  1.00  0.00     0.002 A 
ATOM     32  C   UNL A   1      32.056  23.032  27.525  1.00  0.00     0.002 A 
ATOM     33  C   UNL A   1      33.132  22.522  28.249  1.00  0.00     0.000 A 
ENDBRANCH  25  28
ENDBRANCH  15  23
ENDBRANCH   8  10
ENDBRANCH   7   8
ENDBRANCH   4   7
ENDBRANCH   2   3
ENDBRANCH   1   2
BRANCH   1  34
ATOM     34  C   UNL A   1      33.723  27.407  25.808  1.00  0.00     0.023 C 
BRANCH  34  35
ATOM     35  C   UNL A   1      34.608  28.248  26.725  1.00  0.00     0.116 C 
BRANCH  35  36
ATOM     36  N   UNL A   1      34.158  29.626  26.849  1.00  0.00    -0.352 N 
ATOM     37  C   UNL A   1      34.690  30.645  27.603  1.00  0.00     0.251 C 
ATOM     38  H   UNL A   1      33.362  29.862  26.319  1.00  0.00     0.163 HD
ATOM     39  O   UNL A   1      34.106  31.722  27.674  1.00  0.00    -0.269 OA
BRANCH  37  40
ATOM     40  C   UNL A   1      35.944  30.425  28.359  1.00  0.00     0.039 A 
ATOM     41  C   UNL A   1      35.894  29.690  29.546  1.00  0.00     0.014 A 
ATOM     42  C   UNL A   1      37.163  30.923  27.892  1.00  0.00     0.014 A 
ATOM     43  C   UNL A   1      37.077  29.391  30.225  1.00  0.00     0.010 A 
ATOM     44  C   UNL A   1      38.347  30.567  28.533  1.00  0.00     0.010 A 
ATOM     45  C   UNL A   1      38.317  29.791  29.703  1.00  0.00    -0.014 A 
BRANCH  45  46
ATOM     46  C   UNL A   1      39.593  29.390  30.352  1.00  0.00     0.031 A 
ATOM     47  C   UNL A   1      40.113  30.151  31.541  1.00  0.00     0.074 A 
ATOM     48  C   UNL A   1      40.322  28.388  29.822  1.00  0.00     0.049 A 
ATOM     49  N   UNL A   1      41.238  29.996  32.192  1.00  0.00    -0.248 NA
ATOM     50  C   UNL A   1      39.272  31.247  32.049  1.00  0.00     0.031 C 
ATOM     51  C   UNL A   1      39.954  27.613  28.635  1.00  0.00     0.029 A 
ATOM     52  N   UNL A   1      41.531  27.861  30.199  1.00  0.00    -0.354 N 
ATOM     53  C   UNL A   1      41.249  30.982  33.171  1.00  0.00     0.074 A 
ATOM     54  C   UNL A   1      40.039  31.759  33.000  1.00  0.00     0.031 C 
ATOM     55  C   UNL A   1      40.910  26.702  28.390  1.00  0.00     0.029 A 
ATOM     56  C   UNL A   1      41.975  26.850  29.378  1.00  0.00     0.049 A 
ATOM     57  H   UNL A   1      42.036  28.177  30.983  1.00  0.00     0.167 HD
ATOM     58  C   UNL A   1      42.171  31.208  34.137  1.00  0.00     0.037 A 
ATOM     59  C   UNL A   1      43.113  26.130  29.409  1.00  0.00     0.037 A 
ATOM     60  C   UNL A   1      43.359  30.414  34.320  1.00  0.00     0.049 A 
ATOM     61  C   UNL A   1      44.116  26.387  30.501  1.00  0.00     0.074 A 
ATOM     62  C   UNL A   1      44.316  30.515  35.314  1.00  0.00     0.029 A 
ATOM     63  N   UNL A   1      43.756  29.376  33.489  1.00  0.00    -0.354 N 
ATOM     64  N   UNL A   1      44.072  27.274  31.466  1.00  0.00    -0.248 NA
ATOM     65  C   UNL A   1      45.318  25.542  30.513  1.00  0.00     0.031 C 
ATOM     66  C   UNL A   1      45.314  29.569  35.060  1.00  0.00     0.029 A 
ATOM     67  C   UNL A   1      44.954  28.844  33.935  1.00  0.00     0.049 A 
ATOM     68  H   UNL A   1      43.259  29.064  32.699  1.00  0.00     0.167 HD
ATOM     69  C   UNL A   1      45.228  27.080  32.213  1.00  0.00     0.074 A 
ATOM     70  C   UNL A   1      45.945  25.982  31.596  1.00  0.00     0.031 C 
ATOM     71  C   UNL A   1      45.656  27.749  33.313  1.00  0.00     0.037 A 
BRANCH  58  72
ATOM     72  C   UNL A   1      41.933  32.362  35.073  1.00  0.00     0.058 A 
ATOM     73  C   UNL A   1      42.429  33.647  34.799  1.00  0.00     0.135 A 
ATOM     74  C   UNL A   1      41.174  32.189  36.241  1.00  0.00     0.135 A 
ATOM     75  F   UNL A   1      43.172  33.865  33.703  1.00  0.00    -0.206 F 
ATOM     76  C   UNL A   1      42.210  34.711  35.668  1.00  0.00     0.059 A 
ATOM     77  C   UNL A   1      40.918  33.246  37.110  1.00  0.00     0.059 A 
ATOM     78  F   UNL A   1      40.675  30.982  36.550  1.00  0.00    -0.206 F 
ATOM     79  C   UNL A   1      41.455  34.500  36.822  1.00  0.00     0.060 A 
BRANCH  79  80
ATOM     80  S   UNL A   1      41.182  35.891  37.940  1.00  0.00     0.124 S 
ATOM     81  O   UNL A   1      40.674  35.212  39.129  1.00  0.00    -0.237 OA
ATOM     82  O   UNL A   1      42.519  36.464  38.061  1.00  0.00    -0.237 OA
ATOM     83  O   UNL A   1      40.212  36.716  37.227  1.00  0.00    -0.744 OA
ENDBRANCH  79  80
ENDBRANCH  58  72
BRANCH  59  84
ATOM     84  C   UNL A   1      43.354  25.083  28.381  1.00  0.00     0.058 A 
ATOM     85  C   UNL A   1      43.005  23.745  28.616  1.00  0.00     0.135 A 
ATOM     86  C   UNL A   1      43.913  25.405  27.134  1.00  0.00     0.135 A 
ATOM     87  F   UNL A   1      42.474  23.388  29.794  1.00  0.00    -0.206 F 
ATOM     88  C   UNL A   1      43.212  22.759  27.656  1.00  0.00     0.059 A 
ATOM     89  C   UNL A   1      44.107  24.441  26.149  1.00  0.00     0.059 A 
ATOM     90  F   UNL A   1      44.246  26.674  26.852  1.00  0.00    -0.206 F 
ATOM     91  C   UNL A   1      43.759  23.119  26.423  1.00  0.00     0.060 A 
BRANCH  91  92
ATOM     92  S   UNL A   1      43.961  21.845  25.159  1.00  0.00     0.124 S 
ATOM     93  O   UNL A   1      42.849  20.953  25.461  1.00  0.00    -0.237 OA
ATOM     94  O   UNL A   1      43.847  22.616  23.925  1.00  0.00    -0.237 OA
ATOM     95  O   UNL A   1      45.293  21.312  25.433  1.00  0.00    -0.744 OA
ENDBRANCH  91  92
ENDBRANCH  59  84
BRANCH  71  96
ATOM     96  C   UNL A   1      46.947  27.298  33.938  1.00  0.00     0.058 A 
ATOM     97  C   UNL A   1      48.180  27.864  33.576  1.00  0.00     0.135 A 
ATOM     98  C   UNL A   1      46.944  26.325  34.950  1.00  0.00     0.135 A 
ATOM     99  F   UNL A   1      48.238  28.793  32.608  1.00  0.00    -0.206 F 
ATOM    100  C   UNL A   1      49.367  27.465  34.181  1.00  0.00     0.059 A 
ATOM    101  C   UNL A   1      48.116  25.930  35.588  1.00  0.00     0.059 A 
ATOM    102  F   UNL A   1      45.791  25.759  35.341  1.00  0.00    -0.206 F 
ATOM    103  C   UNL A   1      49.325  26.499  35.188  1.00  0.00     0.060 A 
BRANCH 103 104
ATOM    104  S   UNL A   1      50.868  26.016  35.990  1.00  0.00     0.124 S 
ATOM    105  O   UNL A   1      51.421  27.313  36.367  1.00  0.00    -0.237 OA
ATOM    106  O   UNL A   1      50.401  25.182  37.092  1.00  0.00    -0.237 OA
ATOM    107  O   UNL A   1      51.591  25.308  34.938  1.00  0.00    -0.744 OA
ENDBRANCH 103 104
ENDBRANCH  71  96
ENDBRANCH  45  46
ENDBRANCH  37  40
ENDBRANCH  35  36
ENDBRANCH  34  35
ENDBRANCH   1  34
TORSDOF 19
ENDMDL
