MODEL 1
REMARK VINA RESULT:     -11.2      0.000      0.000
REMARK SMILES CC(C)C[C@H](CNC(=O)NC[C@H]1CCC(=O)N1)C(=O)NCCCCNC(=O)c1ccc(-c2c3nc(c(-c4c(F)cc(S(=O)(=O)[O-])cc4F)c4ccc([nH]4)c(-c4c(F)cc(S(=O)(=O)[O-])cc4F)c4nc(c(-c5c(F)cc(S(=O)(=O)[O-])cc5F)c5ccc2[nH]5)C=C4)C=C3)cc1
REMARK SMILES IDX 22 1 21 2 20 3 18 4 19 5 5 7 4 8 2 9 1 10 3 11 6 12 7 13
REMARK SMILES IDX 8 14 9 16 10 17 11 19 12 20 13 21 17 22 14 23 15 24 16 26
REMARK SMILES IDX 23 27 24 28 25 29 26 30 27 32 28 33 29 34 93 35 30 36 92 37
REMARK SMILES IDX 31 38 32 39 33 40 86 41 34 42 91 43 85 44 87 45 35 46 90 47
REMARK SMILES IDX 84 48 83 49 36 51 70 52 49 53 69 54 50 55 53 56 68 57 88 58
REMARK SMILES IDX 51 59 52 60 67 62 89 63 54 64 37 65 38 66 47 67 39 68 40 69
REMARK SMILES IDX 46 70 48 71 41 72 42 73 43 74 44 75 45 76 71 77 72 78 81 79
REMARK SMILES IDX 73 80 74 81 80 82 82 83 75 84 76 85 77 86 78 87 79 88 55 89
REMARK SMILES IDX 56 90 65 91 57 92 58 93 64 94 66 95 59 96 60 97 61 98 62 99
REMARK SMILES IDX 63 100
REMARK H PARENT 20 6 7 15 10 18 17 25 25 31 87 50 53 61
REMARK Flexibility Score: inf
ROOT
ATOM      1  C   UNL A   1      31.859  27.788  26.888  1.00  0.00     0.023 C 
ENDROOT
BRANCH   1   2
ATOM      2  C   UNL A   1      30.975  26.945  25.983  1.00  0.00     0.116 C 
BRANCH   2   3
ATOM      3  N   UNL A   1      30.589  25.699  26.620  1.00  0.00    -0.356 N 
ATOM      4  C   UNL A   1      30.790  24.402  26.271  1.00  0.00     0.224 C 
ATOM      5  O   UNL A   1      30.308  23.541  27.012  1.00  0.00    -0.275 OA
ATOM      6  H   UNL A   1      30.091  25.817  27.461  1.00  0.00     0.163 HD
BRANCH   4   7
ATOM      7  C   UNL A   1      31.591  23.990  25.042  1.00  0.00     0.098 C 
BRANCH   7   8
ATOM      8  C   UNL A   1      30.888  24.357  23.713  1.00  0.00     0.018 C 
BRANCH   8   9
ATOM      9  C   UNL A   1      31.760  25.173  22.733  1.00  0.00    -0.017 C 
ATOM     10  C   UNL A   1      31.076  26.480  22.329  1.00  0.00     0.007 C 
ATOM     11  C   UNL A   1      33.120  25.473  23.370  1.00  0.00     0.007 C 
ENDBRANCH   8   9
ENDBRANCH   7   8
BRANCH   7  12
ATOM     12  C   UNL A   1      32.028  22.513  25.106  1.00  0.00     0.131 C 
BRANCH  12  13
ATOM     13  N   UNL A   1      32.844  22.237  26.285  1.00  0.00    -0.337 N 
ATOM     14  C   UNL A   1      33.794  21.368  26.639  1.00  0.00     0.314 C 
ATOM     15  H   UNL A   1      32.640  22.862  27.017  1.00  0.00     0.165 HD
ATOM     16  O   UNL A   1      34.333  21.529  27.736  1.00  0.00    -0.249 OA
ATOM     17  N   UNL A   1      34.212  20.347  25.893  1.00  0.00    -0.336 N 
ATOM     18  H   UNL A   1      34.990  19.883  26.279  1.00  0.00     0.165 HD
BRANCH  17  19
ATOM     19  C   UNL A   1      33.781  19.771  24.646  1.00  0.00     0.142 C 
BRANCH  19  20
ATOM     20  C   UNL A   1      32.962  18.457  24.763  1.00  0.00     0.101 C 
ATOM     21  C   UNL A   1      32.709  17.699  23.465  1.00  0.00     0.036 C 
ATOM     22  N   UNL A   1      33.698  17.472  25.524  1.00  0.00    -0.352 N 
ATOM     23  C   UNL A   1      33.976  16.874  23.283  1.00  0.00     0.102 C 
ATOM     24  C   UNL A   1      34.360  16.571  24.710  1.00  0.00     0.220 C 
ATOM     25  H   UNL A   1      33.725  17.446  26.508  1.00  0.00     0.163 HD
ATOM     26  O   UNL A   1      35.140  15.722  25.089  1.00  0.00    -0.275 OA
ENDBRANCH  19  20
ENDBRANCH  17  19
ENDBRANCH  12  13
ENDBRANCH   7  12
ENDBRANCH   4   7
ENDBRANCH   2   3
ENDBRANCH   1   2
BRANCH   1  27
ATOM     27  C   UNL A   1      33.352  27.560  26.765  1.00  0.00     0.023 C 
BRANCH  27  28
ATOM     28  C   UNL A   1      34.029  28.582  25.879  1.00  0.00     0.116 C 
BRANCH  28  29
ATOM     29  N   UNL A   1      33.779  29.945  26.339  1.00  0.00    -0.352 N 
ATOM     30  C   UNL A   1      34.405  30.657  27.333  1.00  0.00     0.251 C 
ATOM     31  H   UNL A   1      33.057  30.423  25.869  1.00  0.00     0.163 HD
ATOM     32  O   UNL A   1      33.909  31.696  27.752  1.00  0.00    -0.269 OA
BRANCH  30  33
ATOM     33  C   UNL A   1      35.670  30.140  27.889  1.00  0.00     0.039 A 
ATOM     34  C   UNL A   1      36.879  30.437  27.261  1.00  0.00     0.014 A 
ATOM     35  C   UNL A   1      35.650  29.400  29.073  1.00  0.00     0.014 A 
ATOM     36  C   UNL A   1      38.074  30.052  27.868  1.00  0.00     0.010 A 
ATOM     37  C   UNL A   1      36.833  29.148  29.742  1.00  0.00     0.010 A 
ATOM     38  C   UNL A   1      38.060  29.445  29.135  1.00  0.00    -0.014 A 
BRANCH  38  39
ATOM     39  C   UNL A   1      39.309  29.069  29.841  1.00  0.00     0.031 A 
ATOM     40  C   UNL A   1      39.730  29.844  31.063  1.00  0.00     0.074 A 
ATOM     41  C   UNL A   1      40.093  28.094  29.340  1.00  0.00     0.049 A 
ATOM     42  N   UNL A   1      40.826  29.740  31.768  1.00  0.00    -0.248 NA
ATOM     43  C   UNL A   1      38.818  30.904  31.529  1.00  0.00     0.031 C 
ATOM     44  C   UNL A   1      39.818  27.322  28.126  1.00  0.00     0.029 A 
ATOM     45  N   UNL A   1      41.288  27.592  29.785  1.00  0.00    -0.354 N 
ATOM     46  C   UNL A   1      40.743  30.732  32.740  1.00  0.00     0.074 A 
ATOM     47  C   UNL A   1      39.530  31.474  32.489  1.00  0.00     0.031 C 
ATOM     48  C   UNL A   1      40.795  26.419  27.945  1.00  0.00     0.029 A 
ATOM     49  C   UNL A   1      41.789  26.580  29.000  1.00  0.00     0.049 A 
ATOM     50  H   UNL A   1      41.746  27.924  30.591  1.00  0.00     0.167 HD
ATOM     51  C   UNL A   1      41.582  30.977  33.771  1.00  0.00     0.037 A 
ATOM     52  C   UNL A   1      42.926  25.867  29.118  1.00  0.00     0.037 A 
ATOM     53  C   UNL A   1      42.764  30.202  34.033  1.00  0.00     0.049 A 
ATOM     54  C   UNL A   1      43.843  26.154  30.278  1.00  0.00     0.074 A 
ATOM     55  C   UNL A   1      43.652  30.317  35.087  1.00  0.00     0.029 A 
ATOM     56  N   UNL A   1      43.225  29.165  33.231  1.00  0.00    -0.354 N 
ATOM     57  N   UNL A   1      43.711  27.047  31.232  1.00  0.00    -0.248 NA
ATOM     58  C   UNL A   1      45.057  25.334  30.383  1.00  0.00     0.031 C 
ATOM     59  C   UNL A   1      44.677  29.388  34.895  1.00  0.00     0.029 A 
ATOM     60  C   UNL A   1      44.397  28.649  33.755  1.00  0.00     0.049 A 
ATOM     61  H   UNL A   1      42.782  28.845  32.412  1.00  0.00     0.167 HD
ATOM     62  C   UNL A   1      44.809  26.874  32.067  1.00  0.00     0.074 A 
ATOM     63  C   UNL A   1      45.586  25.784  31.513  1.00  0.00     0.031 C 
ATOM     64  C   UNL A   1      45.146  27.554  33.191  1.00  0.00     0.037 A 
BRANCH  51  65
ATOM     65  C   UNL A   1      41.247  32.116  34.695  1.00  0.00     0.058 A 
ATOM     66  C   UNL A   1      41.776  33.404  34.506  1.00  0.00     0.135 A 
ATOM     67  C   UNL A   1      40.357  31.927  35.765  1.00  0.00     0.135 A 
ATOM     68  F   UNL A   1      42.648  33.638  33.512  1.00  0.00    -0.206 F 
ATOM     69  C   UNL A   1      41.457  34.455  35.358  1.00  0.00     0.059 A 
ATOM     70  C   UNL A   1      39.997  32.973  36.610  1.00  0.00     0.059 A 
ATOM     71  F   UNL A   1      39.826  30.717  35.998  1.00  0.00    -0.206 F 
ATOM     72  C   UNL A   1      40.562  34.231  36.405  1.00  0.00     0.060 A 
BRANCH  72  73
ATOM     73  S   UNL A   1      40.144  35.612  37.489  1.00  0.00     0.124 S 
ATOM     74  O   UNL A   1      41.427  35.874  38.134  1.00  0.00    -0.237 OA
ATOM     75  O   UNL A   1      39.696  36.626  36.539  1.00  0.00    -0.237 OA
ATOM     76  O   UNL A   1      39.107  35.064  38.355  1.00  0.00    -0.744 OA
ENDBRANCH  72  73
ENDBRANCH  51  65
BRANCH  52  77
ATOM     77  C   UNL A   1      43.248  24.800  28.131  1.00  0.00     0.058 A 
ATOM     78  C   UNL A   1      44.046  25.071  27.009  1.00  0.00     0.135 A 
ATOM     79  C   UNL A   1      42.770  23.489  28.290  1.00  0.00     0.135 A 
ATOM     80  F   UNL A   1      44.526  26.308  26.811  1.00  0.00    -0.206 F 
ATOM     81  C   UNL A   1      44.337  24.090  26.066  1.00  0.00     0.059 A 
ATOM     82  C   UNL A   1      43.072  22.484  27.376  1.00  0.00     0.059 A 
ATOM     83  F   UNL A   1      42.019  23.172  29.355  1.00  0.00    -0.206 F 
ATOM     84  C   UNL A   1      43.845  22.798  26.259  1.00  0.00     0.060 A 
BRANCH  84  85
ATOM     85  S   UNL A   1      44.253  21.528  25.042  1.00  0.00     0.124 S 
ATOM     86  O   UNL A   1      44.021  22.237  23.789  1.00  0.00    -0.237 OA
ATOM     87  O   UNL A   1      45.646  21.234  25.362  1.00  0.00    -0.237 OA
ATOM     88  O   UNL A   1      43.308  20.457  25.345  1.00  0.00    -0.744 OA
ENDBRANCH  84  85
ENDBRANCH  52  77
BRANCH  64  89
ATOM     89  C   UNL A   1      46.384  27.114  33.923  1.00  0.00     0.058 A 
ATOM     90  C   UNL A   1      46.348  26.112  34.904  1.00  0.00     0.135 A 
ATOM     91  C   UNL A   1      47.633  27.666  33.594  1.00  0.00     0.135 A 
ATOM     92  F   UNL A   1      45.179  25.555  35.260  1.00  0.00    -0.206 F 
ATOM     93  C   UNL A   1      47.505  25.689  35.551  1.00  0.00     0.059 A 
ATOM     94  C   UNL A   1      48.805  27.234  34.202  1.00  0.00     0.059 A 
ATOM     95  F   UNL A   1      47.724  28.619  32.652  1.00  0.00    -0.206 F 
ATOM     96  C   UNL A   1      48.729  26.254  35.189  1.00  0.00     0.060 A 
BRANCH  96  97
ATOM     97  S   UNL A   1      50.225  25.668  36.010  1.00  0.00     0.124 S 
ATOM     98  O   UNL A   1      50.035  24.222  35.970  1.00  0.00    -0.237 OA
ATOM     99  O   UNL A   1      51.279  26.193  35.148  1.00  0.00    -0.237 OA
ATOM    100  O   UNL A   1      50.147  26.274  37.336  1.00  0.00    -0.744 OA
ENDBRANCH  96  97
ENDBRANCH  64  89
ENDBRANCH  38  39
ENDBRANCH  30  33
ENDBRANCH  28  29
ENDBRANCH  27  28
ENDBRANCH   1  27
TORSDOF 20
ENDMDL
MODEL 2
REMARK VINA RESULT:     -11.0      5.057      6.643
REMARK SMILES CC(C)C[C@H](CNC(=O)NC[C@H]1CCC(=O)N1)C(=O)NCCCCNC(=O)c1ccc(-c2c3nc(c(-c4c(F)cc(S(=O)(=O)[O-])cc4F)c4ccc([nH]4)c(-c4c(F)cc(S(=O)(=O)[O-])cc4F)c4nc(c(-c5c(F)cc(S(=O)(=O)[O-])cc5F)c5ccc2[nH]5)C=C4)C=C3)cc1
REMARK SMILES IDX 22 1 21 2 20 3 18 4 19 5 5 7 4 8 2 9 1 10 3 11 6 12 7 13
REMARK SMILES IDX 8 14 9 16 10 17 11 19 12 20 13 21 17 22 14 23 15 24 16 26
REMARK SMILES IDX 23 27 24 28 25 29 26 30 27 32 28 33 29 34 93 35 30 36 92 37
REMARK SMILES IDX 31 38 32 39 33 40 86 41 34 42 91 43 85 44 87 45 35 46 90 47
REMARK SMILES IDX 84 48 83 49 36 51 70 52 49 53 69 54 50 55 53 56 68 57 88 58
REMARK SMILES IDX 51 59 52 60 67 62 89 63 54 64 37 65 38 66 47 67 39 68 40 69
REMARK SMILES IDX 46 70 48 71 41 72 42 73 43 74 44 75 45 76 71 77 72 78 81 79
REMARK SMILES IDX 73 80 74 81 80 82 82 83 75 84 76 85 77 86 78 87 79 88 55 89
REMARK SMILES IDX 56 90 65 91 57 92 58 93 64 94 66 95 59 96 60 97 61 98 62 99
REMARK SMILES IDX 63 100
REMARK H PARENT 20 6 7 15 10 18 17 25 25 31 87 50 53 61
REMARK Flexibility Score: inf
ROOT
ATOM      1  C   UNL A   1      33.496  30.202  26.489  1.00  0.00     0.023 C 
ENDROOT
BRANCH   1   2
ATOM      2  C   UNL A   1      32.000  30.075  26.260  1.00  0.00     0.116 C 
BRANCH   2   3
ATOM      3  N   UNL A   1      31.609  28.699  26.014  1.00  0.00    -0.356 N 
ATOM      4  C   UNL A   1      31.099  28.082  24.916  1.00  0.00     0.224 C 
ATOM      5  O   UNL A   1      30.834  26.882  25.020  1.00  0.00    -0.275 OA
ATOM      6  H   UNL A   1      31.740  28.102  26.786  1.00  0.00     0.163 HD
BRANCH   4   7
ATOM      7  C   UNL A   1      30.876  28.801  23.592  1.00  0.00     0.098 C 
BRANCH   7   8
ATOM      8  C   UNL A   1      29.628  29.716  23.605  1.00  0.00     0.018 C 
BRANCH   8   9
ATOM      9  C   UNL A   1      28.590  29.398  22.506  1.00  0.00    -0.017 C 
ATOM     10  C   UNL A   1      27.228  29.049  23.105  1.00  0.00     0.007 C 
ATOM     11  C   UNL A   1      28.450  30.594  21.559  1.00  0.00     0.007 C 
ENDBRANCH   8   9
ENDBRANCH   7   8
BRANCH   7  12
ATOM     12  C   UNL A   1      30.900  27.830  22.396  1.00  0.00     0.131 C 
BRANCH  12  13
ATOM     13  N   UNL A   1      32.238  27.294  22.155  1.00  0.00    -0.337 N 
ATOM     14  C   UNL A   1      32.830  26.097  22.152  1.00  0.00     0.314 C 
ATOM     15  H   UNL A   1      32.876  28.010  21.935  1.00  0.00     0.165 HD
ATOM     16  O   UNL A   1      34.005  26.044  21.784  1.00  0.00    -0.249 OA
ATOM     17  N   UNL A   1      32.244  24.954  22.503  1.00  0.00    -0.336 N 
ATOM     18  H   UNL A   1      32.809  24.166  22.335  1.00  0.00     0.165 HD
BRANCH  17  19
ATOM     19  C   UNL A   1      30.967  24.614  23.074  1.00  0.00     0.142 C 
BRANCH  19  20
ATOM     20  C   UNL A   1      30.937  23.315  23.924  1.00  0.00     0.101 C 
ATOM     21  C   UNL A   1      32.287  22.683  24.243  1.00  0.00     0.036 C 
ATOM     22  N   UNL A   1      30.439  23.595  25.253  1.00  0.00    -0.352 N 
ATOM     23  C   UNL A   1      32.761  23.455  25.467  1.00  0.00     0.102 C 
ATOM     24  C   UNL A   1      31.461  23.752  26.172  1.00  0.00     0.220 C 
ATOM     25  H   UNL A   1      29.483  23.665  25.477  1.00  0.00     0.163 HD
ATOM     26  O   UNL A   1      31.322  24.107  27.324  1.00  0.00    -0.275 OA
ENDBRANCH  19  20
ENDBRANCH  17  19
ENDBRANCH  12  13
ENDBRANCH   7  12
ENDBRANCH   4   7
ENDBRANCH   2   3
ENDBRANCH   1   2
BRANCH   1  27
ATOM     27  C   UNL A   1      34.146  29.095  27.296  1.00  0.00     0.023 C 
BRANCH  27  28
ATOM     28  C   UNL A   1      35.491  29.495  27.860  1.00  0.00     0.116 C 
BRANCH  28  29
ATOM     29  N   UNL A   1      35.356  30.193  29.135  1.00  0.00    -0.352 N 
ATOM     30  C   UNL A   1      36.299  30.420  30.108  1.00  0.00     0.251 C 
ATOM     31  H   UNL A   1      34.459  30.554  29.325  1.00  0.00     0.163 HD
ATOM     32  O   UNL A   1      35.956  30.806  31.219  1.00  0.00    -0.269 OA
BRANCH  30  33
ATOM     33  C   UNL A   1      37.719  30.176  29.792  1.00  0.00     0.039 A 
ATOM     34  C   UNL A   1      38.603  29.804  30.804  1.00  0.00     0.014 A 
ATOM     35  C   UNL A   1      38.155  30.268  28.468  1.00  0.00     0.014 A 
ATOM     36  C   UNL A   1      39.911  29.451  30.469  1.00  0.00     0.010 A 
ATOM     37  C   UNL A   1      39.402  29.781  28.124  1.00  0.00     0.010 A 
ATOM     38  C   UNL A   1      40.305  29.393  29.122  1.00  0.00    -0.014 A 
BRANCH  38  39
ATOM     39  C   UNL A   1      41.669  28.971  28.719  1.00  0.00     0.031 A 
ATOM     40  C   UNL A   1      42.770  29.996  28.651  1.00  0.00     0.074 A 
ATOM     41  C   UNL A   1      41.890  27.697  28.342  1.00  0.00     0.049 A 
ATOM     42  N   UNL A   1      44.001  29.857  28.235  1.00  0.00    -0.248 NA
ATOM     43  C   UNL A   1      42.433  31.370  29.066  1.00  0.00     0.031 C 
ATOM     44  C   UNL A   1      40.882  26.634  28.305  1.00  0.00     0.029 A 
ATOM     45  N   UNL A   1      43.034  27.079  27.908  1.00  0.00    -0.354 N 
ATOM     46  C   UNL A   1      44.572  31.123  28.317  1.00  0.00     0.074 A 
ATOM     47  C   UNL A   1      43.534  32.031  28.749  1.00  0.00     0.031 C 
ATOM     48  C   UNL A   1      41.461  25.488  27.909  1.00  0.00     0.029 A 
ATOM     49  C   UNL A   1      42.867  25.745  27.618  1.00  0.00     0.049 A 
ATOM     50  H   UNL A   1      43.896  27.546  27.813  1.00  0.00     0.167 HD
ATOM     51  C   UNL A   1      45.853  31.489  28.090  1.00  0.00     0.037 A 
ATOM     52  C   UNL A   1      43.750  24.835  27.164  1.00  0.00     0.037 A 
ATOM     53  C   UNL A   1      46.885  30.567  27.701  1.00  0.00     0.049 A 
ATOM     54  C   UNL A   1      45.173  25.265  26.924  1.00  0.00     0.074 A 
ATOM     55  C   UNL A   1      48.232  30.814  27.510  1.00  0.00     0.029 A 
ATOM     56  N   UNL A   1      46.683  29.217  27.445  1.00  0.00    -0.354 N 
ATOM     57  N   UNL A   1      45.714  26.451  27.078  1.00  0.00    -0.248 NA
ATOM     58  C   UNL A   1      46.108  24.233  26.455  1.00  0.00     0.031 C 
ATOM     59  C   UNL A   1      48.835  29.627  27.085  1.00  0.00     0.029 A 
ATOM     60  C   UNL A   1      47.877  28.624  27.073  1.00  0.00     0.049 A 
ATOM     61  H   UNL A   1      45.819  28.751  27.517  1.00  0.00     0.167 HD
ATOM     62  C   UNL A   1      47.058  26.301  26.756  1.00  0.00     0.074 A 
ATOM     63  C   UNL A   1      47.250  24.906  26.411  1.00  0.00     0.031 C 
ATOM     64  C   UNL A   1      48.046  27.230  26.746  1.00  0.00     0.037 A 
BRANCH  51  65
ATOM     65  C   UNL A   1      46.212  32.940  28.267  1.00  0.00     0.058 A 
ATOM     66  C   UNL A   1      46.112  33.862  27.212  1.00  0.00     0.135 A 
ATOM     67  C   UNL A   1      46.629  33.423  29.518  1.00  0.00     0.135 A 
ATOM     68  F   UNL A   1      45.739  33.453  25.989  1.00  0.00    -0.206 F 
ATOM     69  C   UNL A   1      46.437  35.203  27.383  1.00  0.00     0.059 A 
ATOM     70  C   UNL A   1      46.927  34.767  29.721  1.00  0.00     0.059 A 
ATOM     71  F   UNL A   1      46.750  32.586  30.560  1.00  0.00    -0.206 F 
ATOM     72  C   UNL A   1      46.839  35.648  28.643  1.00  0.00     0.060 A 
BRANCH  72  73
ATOM     73  S   UNL A   1      47.238  37.396  28.851  1.00  0.00     0.124 S 
ATOM     74  O   UNL A   1      45.927  37.958  29.158  1.00  0.00    -0.237 OA
ATOM     75  O   UNL A   1      48.188  37.366  29.959  1.00  0.00    -0.237 OA
ATOM     76  O   UNL A   1      47.796  37.774  27.558  1.00  0.00    -0.744 OA
ENDBRANCH  72  73
ENDBRANCH  51  65
BRANCH  52  77
ATOM     77  C   UNL A   1      43.324  23.427  26.932  1.00  0.00     0.058 A 
ATOM     78  C   UNL A   1      43.121  22.548  28.007  1.00  0.00     0.135 A 
ATOM     79  C   UNL A   1      43.104  22.933  25.636  1.00  0.00     0.135 A 
ATOM     80  F   UNL A   1      43.319  22.970  29.265  1.00  0.00    -0.206 F 
ATOM     81  C   UNL A   1      42.744  21.224  27.807  1.00  0.00     0.059 A 
ATOM     82  C   UNL A   1      42.697  21.622  25.412  1.00  0.00     0.059 A 
ATOM     83  F   UNL A   1      43.264  23.737  24.575  1.00  0.00    -0.206 F 
ATOM     84  C   UNL A   1      42.533  20.771  26.504  1.00  0.00     0.060 A 
BRANCH  84  85
ATOM     85  S   UNL A   1      42.017  19.058  26.258  1.00  0.00     0.124 S 
ATOM     86  O   UNL A   1      40.618  19.225  25.879  1.00  0.00    -0.237 OA
ATOM     87  O   UNL A   1      42.918  18.616  25.199  1.00  0.00    -0.237 OA
ATOM     88  O   UNL A   1      42.247  18.447  27.564  1.00  0.00    -0.744 OA
ENDBRANCH  84  85
ENDBRANCH  52  77
BRANCH  64  89
ATOM     89  C   UNL A   1      49.431  26.766  26.393  1.00  0.00     0.058 A 
ATOM     90  C   UNL A   1      50.257  26.121  27.326  1.00  0.00     0.135 A 
ATOM     91  C   UNL A   1      49.915  26.917  25.083  1.00  0.00     0.135 A 
ATOM     92  F   UNL A   1      49.845  25.955  28.593  1.00  0.00    -0.206 F 
ATOM     93  C   UNL A   1      51.525  25.665  26.979  1.00  0.00     0.059 A 
ATOM     94  C   UNL A   1      51.163  26.438  24.705  1.00  0.00     0.059 A 
ATOM     95  F   UNL A   1      49.159  27.515  24.148  1.00  0.00    -0.206 F 
ATOM     96  C   UNL A   1      51.967  25.824  25.664  1.00  0.00     0.060 A 
BRANCH  96  97
ATOM     97  S   UNL A   1      53.598  25.194  25.220  1.00  0.00     0.124 S 
ATOM     98  O   UNL A   1      53.737  25.678  23.851  1.00  0.00    -0.237 OA
ATOM     99  O   UNL A   1      54.459  25.833  26.210  1.00  0.00    -0.237 OA
ATOM    100  O   UNL A   1      53.455  23.747  25.362  1.00  0.00    -0.744 OA
ENDBRANCH  96  97
ENDBRANCH  64  89
ENDBRANCH  38  39
ENDBRANCH  30  33
ENDBRANCH  28  29
ENDBRANCH  27  28
ENDBRANCH   1  27
TORSDOF 20
ENDMDL
MODEL 3
REMARK VINA RESULT:     -10.9      3.169      9.147
REMARK SMILES CC(C)C[C@H](CNC(=O)NC[C@H]1CCC(=O)N1)C(=O)NCCCCNC(=O)c1ccc(-c2c3nc(c(-c4c(F)cc(S(=O)(=O)[O-])cc4F)c4ccc([nH]4)c(-c4c(F)cc(S(=O)(=O)[O-])cc4F)c4nc(c(-c5c(F)cc(S(=O)(=O)[O-])cc5F)c5ccc2[nH]5)C=C4)C=C3)cc1
REMARK SMILES IDX 22 1 21 2 20 3 18 4 19 5 5 7 4 8 2 9 1 10 3 11 6 12 7 13
REMARK SMILES IDX 8 14 9 16 10 17 11 19 12 20 13 21 17 22 14 23 15 24 16 26
REMARK SMILES IDX 23 27 24 28 25 29 26 30 27 32 28 33 29 34 93 35 30 36 92 37
REMARK SMILES IDX 31 38 32 39 33 40 86 41 34 42 91 43 85 44 87 45 35 46 90 47
REMARK SMILES IDX 84 48 83 49 36 51 70 52 49 53 69 54 50 55 53 56 68 57 88 58
REMARK SMILES IDX 51 59 52 60 67 62 89 63 54 64 37 65 38 66 47 67 39 68 40 69
REMARK SMILES IDX 46 70 48 71 41 72 42 73 43 74 44 75 45 76 71 77 72 78 81 79
REMARK SMILES IDX 73 80 74 81 80 82 82 83 75 84 76 85 77 86 78 87 79 88 55 89
REMARK SMILES IDX 56 90 65 91 57 92 58 93 64 94 66 95 59 96 60 97 61 98 62 99
REMARK SMILES IDX 63 100
REMARK H PARENT 20 6 7 15 10 18 17 25 25 31 87 50 53 61
REMARK Flexibility Score: inf
ROOT
ATOM      1  C   UNL A   1      37.869  22.042  25.389  1.00  0.00     0.023 C 
ENDROOT
BRANCH   1   2
ATOM      2  C   UNL A   1      36.627  22.910  25.502  1.00  0.00     0.116 C 
BRANCH   2   3
ATOM      3  N   UNL A   1      35.835  22.564  26.668  1.00  0.00    -0.356 N 
ATOM      4  C   UNL A   1      34.508  22.685  26.933  1.00  0.00     0.224 C 
ATOM      5  O   UNL A   1      34.123  22.323  28.048  1.00  0.00    -0.275 OA
ATOM      6  H   UNL A   1      36.356  22.165  27.402  1.00  0.00     0.163 HD
BRANCH   4   7
ATOM      7  C   UNL A   1      33.506  23.217  25.915  1.00  0.00     0.098 C 
BRANCH   7   8
ATOM      8  C   UNL A   1      32.972  24.624  26.273  1.00  0.00     0.018 C 
BRANCH   8   9
ATOM      9  C   UNL A   1      33.800  25.790  25.689  1.00  0.00    -0.017 C 
ATOM     10  C   UNL A   1      33.967  25.656  24.175  1.00  0.00     0.007 C 
ATOM     11  C   UNL A   1      33.129  27.125  26.021  1.00  0.00     0.007 C 
ENDBRANCH   8   9
ENDBRANCH   7   8
BRANCH   7  12
ATOM     12  C   UNL A   1      32.385  22.201  25.625  1.00  0.00     0.131 C 
BRANCH  12  13
ATOM     13  N   UNL A   1      32.253  21.927  24.196  1.00  0.00    -0.337 N 
ATOM     14  C   UNL A   1      32.270  20.857  23.396  1.00  0.00     0.314 C 
ATOM     15  H   UNL A   1      32.113  22.755  23.684  1.00  0.00     0.165 HD
ATOM     16  O   UNL A   1      32.011  21.034  22.204  1.00  0.00    -0.249 OA
ATOM     17  N   UNL A   1      32.533  19.612  23.790  1.00  0.00    -0.336 N 
ATOM     18  H   UNL A   1      32.394  18.948  23.077  1.00  0.00     0.165 HD
BRANCH  17  19
ATOM     19  C   UNL A   1      32.973  19.022  25.027  1.00  0.00     0.142 C 
BRANCH  19  20
ATOM     20  C   UNL A   1      32.697  17.502  25.180  1.00  0.00     0.101 C 
ATOM     21  C   UNL A   1      32.772  16.669  23.906  1.00  0.00     0.036 C 
ATOM     22  N   UNL A   1      33.730  16.882  25.981  1.00  0.00    -0.352 N 
ATOM     23  C   UNL A   1      34.259  16.369  23.764  1.00  0.00     0.102 C 
ATOM     24  C   UNL A   1      34.696  16.269  25.204  1.00  0.00     0.220 C 
ATOM     25  H   UNL A   1      33.743  16.894  26.965  1.00  0.00     0.163 HD
ATOM     26  O   UNL A   1      35.727  15.781  25.619  1.00  0.00    -0.275 OA
ENDBRANCH  19  20
ENDBRANCH  17  19
ENDBRANCH  12  13
ENDBRANCH   7  12
ENDBRANCH   4   7
ENDBRANCH   2   3
ENDBRANCH   1   2
BRANCH   1  27
ATOM     27  C   UNL A   1      38.940  22.268  26.437  1.00  0.00     0.023 C 
BRANCH  27  28
ATOM     28  C   UNL A   1      39.381  23.713  26.520  1.00  0.00     0.116 C 
BRANCH  28  29
ATOM     29  N   UNL A   1      40.759  23.884  26.069  1.00  0.00    -0.352 N 
ATOM     30  C   UNL A   1      41.626  24.927  26.291  1.00  0.00     0.251 C 
ATOM     31  H   UNL A   1      41.120  23.145  25.526  1.00  0.00     0.163 HD
ATOM     32  O   UNL A   1      42.657  25.020  25.636  1.00  0.00    -0.269 OA
BRANCH  30  33
ATOM     33  C   UNL A   1      41.282  25.930  27.317  1.00  0.00     0.039 A 
ATOM     34  C   UNL A   1      40.368  25.613  28.320  1.00  0.00     0.014 A 
ATOM     35  C   UNL A   1      41.919  27.172  27.304  1.00  0.00     0.014 A 
ATOM     36  C   UNL A   1      40.152  26.523  29.356  1.00  0.00     0.010 A 
ATOM     37  C   UNL A   1      41.812  28.006  28.402  1.00  0.00     0.010 A 
ATOM     38  C   UNL A   1      40.907  27.706  29.427  1.00  0.00    -0.014 A 
BRANCH  38  39
ATOM     39  C   UNL A   1      40.748  28.674  30.539  1.00  0.00     0.031 A 
ATOM     40  C   UNL A   1      41.613  28.540  31.765  1.00  0.00     0.074 A 
ATOM     41  C   UNL A   1      39.783  29.612  30.476  1.00  0.00     0.049 A 
ATOM     42  N   UNL A   1      41.572  29.219  32.881  1.00  0.00    -0.248 NA
ATOM     43  C   UNL A   1      42.632  27.475  31.752  1.00  0.00     0.031 C 
ATOM     44  C   UNL A   1      38.843  29.792  29.366  1.00  0.00     0.029 A 
ATOM     45  N   UNL A   1      39.424  30.586  31.372  1.00  0.00    -0.354 N 
ATOM     46  C   UNL A   1      42.537  28.649  33.704  1.00  0.00     0.074 A 
ATOM     47  C   UNL A   1      43.095  27.523  32.991  1.00  0.00     0.031 C 
ATOM     48  C   UNL A   1      38.042  30.838  29.630  1.00  0.00     0.029 A 
ATOM     49  C   UNL A   1      38.377  31.371  30.946  1.00  0.00     0.049 A 
ATOM     50  H   UNL A   1      39.873  30.713  32.238  1.00  0.00     0.167 HD
ATOM     51  C   UNL A   1      42.949  29.050  34.928  1.00  0.00     0.037 A 
ATOM     52  C   UNL A   1      37.757  32.400  31.554  1.00  0.00     0.037 A 
ATOM     53  C   UNL A   1      42.414  30.198  35.608  1.00  0.00     0.049 A 
ATOM     54  C   UNL A   1      38.237  32.833  32.914  1.00  0.00     0.074 A 
ATOM     55  C   UNL A   1      42.802  30.738  36.820  1.00  0.00     0.029 A 
ATOM     56  N   UNL A   1      41.374  30.986  35.132  1.00  0.00    -0.354 N 
ATOM     57  N   UNL A   1      39.202  32.329  33.647  1.00  0.00    -0.248 NA
ATOM     58  C   UNL A   1      37.549  33.977  33.527  1.00  0.00     0.031 C 
ATOM     59  C   UNL A   1      41.962  31.818  37.104  1.00  0.00     0.029 A 
ATOM     60  C   UNL A   1      41.091  31.992  36.039  1.00  0.00     0.049 A 
ATOM     61  H   UNL A   1      40.907  30.849  34.276  1.00  0.00     0.167 HD
ATOM     62  C   UNL A   1      39.259  33.114  34.793  1.00  0.00     0.074 A 
ATOM     63  C   UNL A   1      38.239  34.134  34.649  1.00  0.00     0.031 C 
ATOM     64  C   UNL A   1      40.078  33.004  35.867  1.00  0.00     0.037 A 
BRANCH  51  65
ATOM     65  C   UNL A   1      44.033  28.253  35.602  1.00  0.00     0.058 A 
ATOM     66  C   UNL A   1      45.394  28.537  35.403  1.00  0.00     0.135 A 
ATOM     67  C   UNL A   1      43.706  27.212  36.486  1.00  0.00     0.135 A 
ATOM     68  F   UNL A   1      45.766  29.508  34.552  1.00  0.00    -0.206 F 
ATOM     69  C   UNL A   1      46.392  27.803  36.034  1.00  0.00     0.059 A 
ATOM     70  C   UNL A   1      44.687  26.486  37.155  1.00  0.00     0.059 A 
ATOM     71  F   UNL A   1      42.422  26.892  36.709  1.00  0.00    -0.206 F 
ATOM     72  C   UNL A   1      46.028  26.782  36.913  1.00  0.00     0.060 A 
BRANCH  72  73
ATOM     73  S   UNL A   1      47.337  25.852  37.739  1.00  0.00     0.124 S 
ATOM     74  O   UNL A   1      47.194  26.311  39.117  1.00  0.00    -0.237 OA
ATOM     75  O   UNL A   1      46.939  24.470  37.488  1.00  0.00    -0.237 OA
ATOM     76  O   UNL A   1      48.548  26.288  37.055  1.00  0.00    -0.744 OA
ENDBRANCH  72  73
ENDBRANCH  51  65
BRANCH  52  77
ATOM     77  C   UNL A   1      36.637  33.107  30.873  1.00  0.00     0.058 A 
ATOM     78  C   UNL A   1      35.311  32.937  31.299  1.00  0.00     0.135 A 
ATOM     79  C   UNL A   1      36.868  33.970  29.790  1.00  0.00     0.135 A 
ATOM     80  F   UNL A   1      35.036  32.122  32.329  1.00  0.00    -0.206 F 
ATOM     81  C   UNL A   1      34.251  33.573  30.660  1.00  0.00     0.059 A 
ATOM     82  C   UNL A   1      35.828  34.641  29.153  1.00  0.00     0.059 A 
ATOM     83  F   UNL A   1      38.119  34.184  29.356  1.00  0.00    -0.206 F 
ATOM     84  C   UNL A   1      34.521  34.425  29.587  1.00  0.00     0.060 A 
BRANCH  84  85
ATOM     85  S   UNL A   1      33.140  35.266  28.784  1.00  0.00     0.124 S 
ATOM     86  O   UNL A   1      32.349  35.693  29.932  1.00  0.00    -0.237 OA
ATOM     87  O   UNL A   1      33.817  36.326  28.044  1.00  0.00    -0.237 OA
ATOM     88  O   UNL A   1      32.542  34.219  27.960  1.00  0.00    -0.744 OA
ENDBRANCH  84  85
ENDBRANCH  52  77
BRANCH  64  89
ATOM     89  C   UNL A   1      39.940  34.034  36.954  1.00  0.00     0.058 A 
ATOM     90  C   UNL A   1      40.533  35.302  36.853  1.00  0.00     0.135 A 
ATOM     91  C   UNL A   1      39.152  33.766  38.086  1.00  0.00     0.135 A 
ATOM     92  F   UNL A   1      41.299  35.608  35.794  1.00  0.00    -0.206 F 
ATOM     93  C   UNL A   1      40.369  36.260  37.849  1.00  0.00     0.059 A 
ATOM     94  C   UNL A   1      38.947  34.720  39.075  1.00  0.00     0.059 A 
ATOM     95  F   UNL A   1      38.551  32.573  38.224  1.00  0.00    -0.206 F 
ATOM     96  C   UNL A   1      39.571  35.960  38.954  1.00  0.00     0.060 A 
BRANCH  96  97
ATOM     97  S   UNL A   1      39.338  37.225  40.219  1.00  0.00     0.124 S 
ATOM     98  O   UNL A   1      38.601  36.488  41.240  1.00  0.00    -0.237 OA
ATOM     99  O   UNL A   1      40.713  37.580  40.561  1.00  0.00    -0.237 OA
ATOM    100  O   UNL A   1      38.582  38.264  39.527  1.00  0.00    -0.744 OA
ENDBRANCH  96  97
ENDBRANCH  64  89
ENDBRANCH  38  39
ENDBRANCH  30  33
ENDBRANCH  28  29
ENDBRANCH  27  28
ENDBRANCH   1  27
TORSDOF 20
ENDMDL
