MODEL 1
REMARK VINA RESULT:     -14.2      0.000      0.000
REMARK SMILES Cc1cc([N+](=O)[O-])ccc1NC(=O)[C@@H]1[C@@H](C(=O)NCCCCNC(=O)c2ccc(-c3c4nc(c(-c5c(F)cc(S(=O)(=O)[O-])cc5F)c5ccc([nH]5)c(-c5c(F)cc(S(=O)(=O)[O-])cc5F)c5nc(c(-c6c(F)cc(S(=O)(=O)[O-])cc6F)c6ccc3[nH]6)C=C5)C=C4)cc2)[C@H]2C=C[C@@H]1C2
REMARK SMILES IDX 20 1 19 2 18 3 16 4 17 5 15 7 14 8 95 9 92 10 94 11 96 12
REMARK SMILES IDX 93 13 12 14 11 15 13 17 10 18 1 19 2 20 3 21 4 22 9 23 8 24
REMARK SMILES IDX 5 25 6 26 7 27 21 28 22 29 23 30 24 31 25 33 26 34 27 35
REMARK SMILES IDX 91 36 28 37 90 38 29 39 30 40 31 41 84 42 32 43 89 44 83 45
REMARK SMILES IDX 85 46 33 47 88 48 82 49 81 50 34 52 68 53 47 54 67 55 48 56
REMARK SMILES IDX 51 57 66 58 86 59 49 60 50 61 65 63 87 64 52 65 35 66 36 67
REMARK SMILES IDX 45 68 37 69 38 70 44 71 46 72 39 73 40 74 41 75 42 76 43 77
REMARK SMILES IDX 69 78 70 79 79 80 71 81 72 82 78 83 80 84 73 85 74 86 75 87
REMARK SMILES IDX 76 88 77 89 53 90 54 91 63 92 55 93 56 94 62 95 64 96 57 97
REMARK SMILES IDX 58 98 59 99 60 100 61 101
REMARK H PARENT 18 6 11 16 23 32 85 51 51 62
REMARK Flexibility Score: inf
ROOT
ATOM      1  C   UNL A   1      31.967  29.174  27.251  1.00  0.00     0.023 C 
ENDROOT
BRANCH   1   2
ATOM      2  C   UNL A   1      32.278  27.676  27.158  1.00  0.00     0.116 C 
BRANCH   2   3
ATOM      3  N   UNL A   1      31.236  26.904  26.504  1.00  0.00    -0.356 N 
ATOM      4  C   UNL A   1      31.260  25.692  25.885  1.00  0.00     0.224 C 
ATOM      5  O   UNL A   1      30.196  25.299  25.396  1.00  0.00    -0.275 OA
ATOM      6  H   UNL A   1      30.350  27.335  26.509  1.00  0.00     0.163 HD
BRANCH   4   7
ATOM      7  C   UNL A   1      32.557  24.907  25.714  1.00  0.00     0.098 C 
ATOM      8  C   UNL A   1      32.554  24.074  24.361  1.00  0.00     0.099 C 
ATOM      9  C   UNL A   1      32.983  22.661  24.842  1.00  0.00     0.025 C 
ATOM     10  C   UNL A   1      32.815  23.789  26.759  1.00  0.00     0.025 C 
ATOM     11  C   UNL A   1      31.806  22.083  25.592  1.00  0.00    -0.027 C 
ATOM     12  C   UNL A   1      33.889  22.979  26.029  1.00  0.00     0.017 C 
ATOM     13  C   UNL A   1      31.697  22.773  26.735  1.00  0.00    -0.027 C 
BRANCH   8  14
ATOM     14  C   UNL A   1      33.466  24.602  23.268  1.00  0.00     0.228 C 
ATOM     15  N   UNL A   1      33.251  25.812  22.655  1.00  0.00    -0.326 N 
ATOM     16  H   UNL A   1      33.917  26.015  21.959  1.00  0.00     0.169 HD
ATOM     17  O   UNL A   1      34.424  23.939  22.854  1.00  0.00    -0.274 OA
BRANCH  15  18
ATOM     18  C   UNL A   1      32.281  26.829  22.806  1.00  0.00     0.044 A 
ATOM     19  C   UNL A   1      34.068  28.442  23.760  1.00  0.00     0.047 C 
ATOM     20  C   UNL A   1      32.685  28.107  23.262  1.00  0.00    -0.021 A 
ATOM     21  C   UNL A   1      31.750  29.169  23.272  1.00  0.00     0.091 A 
ATOM     22  C   UNL A   1      30.432  28.963  22.854  1.00  0.00     0.269 A 
ATOM     23  C   UNL A   1      30.927  26.634  22.503  1.00  0.00     0.033 A 
ATOM     24  C   UNL A   1      30.008  27.689  22.498  1.00  0.00     0.088 A 
BRANCH  22  25
ATOM     25  N   UNL A   1      29.497  30.091  22.790  1.00  0.00     0.062 N 
ATOM     26  O   UNL A   1      29.398  30.812  23.795  1.00  0.00    -0.258 OA
ATOM     27  O   UNL A   1      28.872  30.265  21.736  1.00  0.00    -0.258 OA
ENDBRANCH  22  25
ENDBRANCH  15  18
ENDBRANCH   8  14
ENDBRANCH   4   7
ENDBRANCH   2   3
ENDBRANCH   1   2
BRANCH   1  28
ATOM     28  C   UNL A   1      33.017  30.117  26.668  1.00  0.00     0.023 C 
BRANCH  28  29
ATOM     29  C   UNL A   1      34.442  29.843  27.129  1.00  0.00     0.116 C 
BRANCH  29  30
ATOM     30  N   UNL A   1      35.169  31.049  27.494  1.00  0.00    -0.352 N 
ATOM     31  C   UNL A   1      36.362  31.143  28.192  1.00  0.00     0.251 C 
ATOM     32  H   UNL A   1      34.764  31.900  27.211  1.00  0.00     0.163 HD
ATOM     33  O   UNL A   1      36.736  32.178  28.715  1.00  0.00    -0.269 OA
BRANCH  31  34
ATOM     34  C   UNL A   1      37.247  29.960  28.153  1.00  0.00     0.039 A 
ATOM     35  C   UNL A   1      37.319  29.181  29.314  1.00  0.00     0.014 A 
ATOM     36  C   UNL A   1      38.167  29.802  27.121  1.00  0.00     0.014 A 
ATOM     37  C   UNL A   1      38.428  28.367  29.525  1.00  0.00     0.010 A 
ATOM     38  C   UNL A   1      39.308  29.067  27.370  1.00  0.00     0.010 A 
ATOM     39  C   UNL A   1      39.459  28.385  28.587  1.00  0.00    -0.014 A 
BRANCH  39  40
ATOM     40  C   UNL A   1      40.768  27.786  28.817  1.00  0.00     0.031 A 
ATOM     41  C   UNL A   1      41.017  26.380  28.432  1.00  0.00     0.074 A 
ATOM     42  C   UNL A   1      41.779  28.560  29.267  1.00  0.00     0.049 A 
ATOM     43  N   UNL A   1      41.990  25.656  28.871  1.00  0.00    -0.248 NA
ATOM     44  C   UNL A   1      40.133  25.658  27.526  1.00  0.00     0.031 C 
ATOM     45  C   UNL A   1      43.207  28.261  29.223  1.00  0.00     0.029 A 
ATOM     46  N   UNL A   1      41.691  29.718  30.040  1.00  0.00    -0.354 N 
ATOM     47  C   UNL A   1      42.037  24.505  28.113  1.00  0.00     0.074 A 
ATOM     48  C   UNL A   1      40.819  24.528  27.337  1.00  0.00     0.031 C 
ATOM     49  C   UNL A   1      43.843  29.045  30.107  1.00  0.00     0.029 A 
ATOM     50  C   UNL A   1      42.829  29.756  30.866  1.00  0.00     0.049 A 
ATOM     51  H   UNL A   1      40.968  30.385  30.012  1.00  0.00     0.167 HD
ATOM     52  C   UNL A   1      43.169  23.739  28.125  1.00  0.00     0.037 A 
ATOM     53  C   UNL A   1      42.704  29.697  32.226  1.00  0.00     0.037 A 
ATOM     54  C   UNL A   1      44.132  24.252  29.101  1.00  0.00     0.049 A 
ATOM     55  C   UNL A   1      43.326  28.465  32.847  1.00  0.00     0.074 A 
ATOM     56  C   UNL A   1      45.236  25.081  28.974  1.00  0.00     0.029 A 
ATOM     57  N   UNL A   1      43.844  24.191  30.461  1.00  0.00    -0.354 N 
ATOM     58  N   UNL A   1      43.668  27.401  32.175  1.00  0.00    -0.248 NA
ATOM     59  C   UNL A   1      43.599  28.330  34.276  1.00  0.00     0.031 C 
ATOM     60  C   UNL A   1      45.557  25.587  30.257  1.00  0.00     0.029 A 
ATOM     61  C   UNL A   1      44.667  25.049  31.169  1.00  0.00     0.049 A 
ATOM     62  H   UNL A   1      43.152  23.617  30.864  1.00  0.00     0.167 HD
ATOM     63  C   UNL A   1      44.149  26.448  33.035  1.00  0.00     0.074 A 
ATOM     64  C   UNL A   1      44.113  27.089  34.336  1.00  0.00     0.031 C 
ATOM     65  C   UNL A   1      44.528  25.206  32.609  1.00  0.00     0.037 A 
BRANCH  52  66
ATOM     66  C   UNL A   1      43.527  22.749  27.026  1.00  0.00     0.058 A 
ATOM     67  C   UNL A   1      42.829  21.527  26.899  1.00  0.00     0.135 A 
ATOM     68  C   UNL A   1      44.595  22.898  26.118  1.00  0.00     0.135 A 
ATOM     69  F   UNL A   1      41.712  21.280  27.598  1.00  0.00    -0.206 F 
ATOM     70  C   UNL A   1      43.241  20.491  26.056  1.00  0.00     0.059 A 
ATOM     71  C   UNL A   1      45.064  21.859  25.305  1.00  0.00     0.059 A 
ATOM     72  F   UNL A   1      45.194  24.082  25.936  1.00  0.00    -0.206 F 
ATOM     73  C   UNL A   1      44.388  20.648  25.293  1.00  0.00     0.060 A 
BRANCH  73  74
ATOM     74  S   UNL A   1      44.962  19.269  24.284  1.00  0.00     0.124 S 
ATOM     75  O   UNL A   1      44.231  18.142  24.856  1.00  0.00    -0.237 OA
ATOM     76  O   UNL A   1      44.552  19.680  22.946  1.00  0.00    -0.237 OA
ATOM     77  O   UNL A   1      46.404  19.251  24.520  1.00  0.00    -0.744 OA
ENDBRANCH  73  74
ENDBRANCH  52  66
BRANCH  53  78
ATOM     78  C   UNL A   1      41.492  30.400  32.730  1.00  0.00     0.058 A 
ATOM     79  C   UNL A   1      40.344  29.621  32.975  1.00  0.00     0.135 A 
ATOM     80  C   UNL A   1      41.579  31.645  33.369  1.00  0.00     0.135 A 
ATOM     81  F   UNL A   1      40.203  28.427  32.376  1.00  0.00    -0.206 F 
ATOM     82  C   UNL A   1      39.410  29.978  33.939  1.00  0.00     0.059 A 
ATOM     83  C   UNL A   1      40.647  32.028  34.337  1.00  0.00     0.059 A 
ATOM     84  F   UNL A   1      42.646  32.433  33.170  1.00  0.00    -0.206 F 
ATOM     85  C   UNL A   1      39.610  31.151  34.664  1.00  0.00     0.060 A 
BRANCH  85  86
ATOM     86  S   UNL A   1      38.607  31.400  36.149  1.00  0.00     0.124 S 
ATOM     87  O   UNL A   1      38.543  30.052  36.700  1.00  0.00    -0.237 OA
ATOM     88  O   UNL A   1      39.426  32.350  36.904  1.00  0.00    -0.237 OA
ATOM     89  O   UNL A   1      37.355  31.929  35.623  1.00  0.00    -0.744 OA
ENDBRANCH  85  86
ENDBRANCH  53  78
BRANCH  65  90
ATOM     90  C   UNL A   1      44.899  24.058  33.513  1.00  0.00     0.058 A 
ATOM     91  C   UNL A   1      44.006  23.041  33.890  1.00  0.00     0.135 A 
ATOM     92  C   UNL A   1      46.240  23.884  33.929  1.00  0.00     0.135 A 
ATOM     93  F   UNL A   1      42.735  23.039  33.461  1.00  0.00    -0.206 F 
ATOM     94  C   UNL A   1      44.395  21.965  34.689  1.00  0.00     0.059 A 
ATOM     95  C   UNL A   1      46.660  22.792  34.684  1.00  0.00     0.059 A 
ATOM     96  F   UNL A   1      47.191  24.776  33.609  1.00  0.00    -0.206 F 
ATOM     97  C   UNL A   1      45.724  21.851  35.086  1.00  0.00     0.060 A 
BRANCH  97  98
ATOM     98  S   UNL A   1      46.244  20.444  36.085  1.00  0.00     0.124 S 
ATOM     99  O   UNL A   1      45.791  20.847  37.412  1.00  0.00    -0.237 OA
ATOM    100  O   UNL A   1      45.518  19.330  35.483  1.00  0.00    -0.237 OA
ATOM    101  O   UNL A   1      47.690  20.416  35.891  1.00  0.00    -0.744 OA
ENDBRANCH  97  98
ENDBRANCH  65  90
ENDBRANCH  39  40
ENDBRANCH  31  34
ENDBRANCH  29  30
ENDBRANCH  28  29
ENDBRANCH   1  28
TORSDOF 17
ENDMDL
MODEL 2
REMARK VINA RESULT:     -14.1      4.831     11.001
REMARK SMILES Cc1cc([N+](=O)[O-])ccc1NC(=O)[C@@H]1[C@@H](C(=O)NCCCCNC(=O)c2ccc(-c3c4nc(c(-c5c(F)cc(S(=O)(=O)[O-])cc5F)c5ccc([nH]5)c(-c5c(F)cc(S(=O)(=O)[O-])cc5F)c5nc(c(-c6c(F)cc(S(=O)(=O)[O-])cc6F)c6ccc3[nH]6)C=C5)C=C4)cc2)[C@H]2C=C[C@@H]1C2
REMARK SMILES IDX 20 1 19 2 18 3 16 4 17 5 15 7 14 8 95 9 92 10 94 11 96 12
REMARK SMILES IDX 93 13 12 14 11 15 13 17 10 18 1 19 2 20 3 21 4 22 9 23 8 24
REMARK SMILES IDX 5 25 6 26 7 27 21 28 22 29 23 30 24 31 25 33 26 34 27 35
REMARK SMILES IDX 91 36 28 37 90 38 29 39 30 40 31 41 84 42 32 43 89 44 83 45
REMARK SMILES IDX 85 46 33 47 88 48 82 49 81 50 34 52 68 53 47 54 67 55 48 56
REMARK SMILES IDX 51 57 66 58 86 59 49 60 50 61 65 63 87 64 52 65 35 66 36 67
REMARK SMILES IDX 45 68 37 69 38 70 44 71 46 72 39 73 40 74 41 75 42 76 43 77
REMARK SMILES IDX 69 78 70 79 79 80 71 81 72 82 78 83 80 84 73 85 74 86 75 87
REMARK SMILES IDX 76 88 77 89 53 90 54 91 63 92 55 93 56 94 62 95 64 96 57 97
REMARK SMILES IDX 58 98 59 99 60 100 61 101
REMARK H PARENT 18 6 11 16 23 32 85 51 51 62
REMARK Flexibility Score: inf
ROOT
ATOM      1  C   UNL A   1      35.555  23.799  26.017  1.00  0.00     0.023 C 
ENDROOT
BRANCH   1   2
ATOM      2  C   UNL A   1      34.621  23.623  24.815  1.00  0.00     0.116 C 
BRANCH   2   3
ATOM      3  N   UNL A   1      34.575  24.782  23.939  1.00  0.00    -0.356 N 
ATOM      4  C   UNL A   1      33.791  25.894  23.948  1.00  0.00     0.224 C 
ATOM      5  O   UNL A   1      33.977  26.710  23.041  1.00  0.00    -0.275 OA
ATOM      6  H   UNL A   1      35.231  24.759  23.205  1.00  0.00     0.163 HD
BRANCH   4   7
ATOM      7  C   UNL A   1      32.669  26.072  24.967  1.00  0.00     0.098 C 
ATOM      8  C   UNL A   1      31.521  27.016  24.402  1.00  0.00     0.099 C 
ATOM      9  C   UNL A   1      31.325  28.027  25.564  1.00  0.00     0.025 C 
ATOM     10  C   UNL A   1      33.053  26.810  26.277  1.00  0.00     0.025 C 
ATOM     11  C   UNL A   1      32.533  28.933  25.559  1.00  0.00    -0.027 C 
ATOM     12  C   UNL A   1      31.663  27.186  26.793  1.00  0.00     0.017 C 
ATOM     13  C   UNL A   1      33.574  28.195  25.970  1.00  0.00    -0.027 C 
BRANCH   8  14
ATOM     14  C   UNL A   1      30.224  26.317  24.035  1.00  0.00     0.228 C 
ATOM     15  N   UNL A   1      29.186  26.975  23.422  1.00  0.00    -0.326 N 
ATOM     16  H   UNL A   1      28.406  26.396  23.257  1.00  0.00     0.169 HD
ATOM     17  O   UNL A   1      30.033  25.127  24.311  1.00  0.00    -0.274 OA
BRANCH  15  18
ATOM     18  C   UNL A   1      28.992  28.303  22.979  1.00  0.00     0.044 A 
ATOM     19  C   UNL A   1      26.492  28.199  23.645  1.00  0.00     0.047 C 
ATOM     20  C   UNL A   1      27.726  28.913  23.154  1.00  0.00    -0.021 A 
ATOM     21  C   UNL A   1      27.567  30.285  22.852  1.00  0.00     0.091 A 
ATOM     22  C   UNL A   1      28.641  31.038  22.367  1.00  0.00     0.269 A 
ATOM     23  C   UNL A   1      30.012  29.060  22.386  1.00  0.00     0.033 A 
ATOM     24  C   UNL A   1      29.857  30.421  22.103  1.00  0.00     0.088 A 
BRANCH  22  25
ATOM     25  N   UNL A   1      28.484  32.477  22.137  1.00  0.00     0.062 N 
ATOM     26  O   UNL A   1      29.117  33.249  22.874  1.00  0.00    -0.258 OA
ATOM     27  O   UNL A   1      27.742  32.838  21.214  1.00  0.00    -0.258 OA
ENDBRANCH  22  25
ENDBRANCH  15  18
ENDBRANCH   8  14
ENDBRANCH   4   7
ENDBRANCH   2   3
ENDBRANCH   1   2
BRANCH   1  28
ATOM     28  C   UNL A   1      36.748  22.848  26.086  1.00  0.00     0.023 C 
BRANCH  28  29
ATOM     29  C   UNL A   1      38.090  23.489  25.757  1.00  0.00     0.116 C 
BRANCH  29  30
ATOM     30  N   UNL A   1      39.160  23.072  26.650  1.00  0.00    -0.352 N 
ATOM     31  C   UNL A   1      40.050  23.876  27.342  1.00  0.00     0.251 C 
ATOM     32  H   UNL A   1      39.263  22.101  26.777  1.00  0.00     0.163 HD
ATOM     33  O   UNL A   1      41.089  23.449  27.814  1.00  0.00    -0.269 OA
BRANCH  31  34
ATOM     34  C   UNL A   1      39.615  25.261  27.618  1.00  0.00     0.039 A 
ATOM     35  C   UNL A   1      40.184  26.274  26.836  1.00  0.00     0.014 A 
ATOM     36  C   UNL A   1      38.901  25.559  28.775  1.00  0.00     0.014 A 
ATOM     37  C   UNL A   1      40.197  27.581  27.314  1.00  0.00     0.010 A 
ATOM     38  C   UNL A   1      38.995  26.836  29.290  1.00  0.00     0.010 A 
ATOM     39  C   UNL A   1      39.679  27.835  28.582  1.00  0.00    -0.014 A 
BRANCH  39  40
ATOM     40  C   UNL A   1      39.866  29.094  29.292  1.00  0.00     0.031 A 
ATOM     41  C   UNL A   1      38.831  30.148  29.219  1.00  0.00     0.074 A 
ATOM     42  C   UNL A   1      40.930  29.239  30.112  1.00  0.00     0.049 A 
ATOM     43  N   UNL A   1      39.019  31.390  29.514  1.00  0.00    -0.248 NA
ATOM     44  C   UNL A   1      37.478  29.871  28.753  1.00  0.00     0.031 C 
ATOM     45  C   UNL A   1      41.109  30.241  31.158  1.00  0.00     0.029 A 
ATOM     46  N   UNL A   1      42.168  28.601  30.027  1.00  0.00    -0.354 N 
ATOM     47  C   UNL A   1      37.786  32.005  29.560  1.00  0.00     0.074 A 
ATOM     48  C   UNL A   1      36.870  31.031  29.014  1.00  0.00     0.031 C 
ATOM     49  C   UNL A   1      42.414  30.326  31.460  1.00  0.00     0.029 A 
ATOM     50  C   UNL A   1      43.136  29.503  30.505  1.00  0.00     0.049 A 
ATOM     51  H   UNL A   1      42.333  27.689  29.696  1.00  0.00     0.167 HD
ATOM     52  C   UNL A   1      37.661  33.213  30.189  1.00  0.00     0.037 A 
ATOM     53  C   UNL A   1      44.122  29.967  29.680  1.00  0.00     0.037 A 
ATOM     54  C   UNL A   1      38.971  33.715  30.609  1.00  0.00     0.049 A 
ATOM     55  C   UNL A   1      44.066  31.459  29.435  1.00  0.00     0.074 A 
ATOM     56  C   UNL A   1      39.644  33.662  31.820  1.00  0.00     0.029 A 
ATOM     57  N   UNL A   1      39.912  34.090  29.655  1.00  0.00    -0.354 N 
ATOM     58  N   UNL A   1      43.029  32.205  29.698  1.00  0.00    -0.248 NA
ATOM     59  C   UNL A   1      45.169  32.226  28.862  1.00  0.00     0.031 C 
ATOM     60  C   UNL A   1      41.013  33.924  31.575  1.00  0.00     0.029 A 
ATOM     61  C   UNL A   1      41.173  34.160  30.221  1.00  0.00     0.049 A 
ATOM     62  H   UNL A   1      39.709  34.280  28.711  1.00  0.00     0.167 HD
ATOM     63  C   UNL A   1      43.279  33.495  29.311  1.00  0.00     0.074 A 
ATOM     64  C   UNL A   1      44.644  33.463  28.821  1.00  0.00     0.031 C 
ATOM     65  C   UNL A   1      42.341  34.483  29.416  1.00  0.00     0.037 A 
BRANCH  52  66
ATOM     66  C   UNL A   1      36.340  33.758  30.710  1.00  0.00     0.058 A 
ATOM     67  C   UNL A   1      35.367  34.268  29.821  1.00  0.00     0.135 A 
ATOM     68  C   UNL A   1      35.999  33.887  32.072  1.00  0.00     0.135 A 
ATOM     69  F   UNL A   1      35.477  34.109  28.495  1.00  0.00    -0.206 F 
ATOM     70  C   UNL A   1      34.235  34.969  30.242  1.00  0.00     0.059 A 
ATOM     71  C   UNL A   1      34.903  34.633  32.522  1.00  0.00     0.059 A 
ATOM     72  F   UNL A   1      36.683  33.241  33.025  1.00  0.00    -0.206 F 
ATOM     73  C   UNL A   1      34.032  35.188  31.597  1.00  0.00     0.060 A 
BRANCH  73  74
ATOM     74  S   UNL A   1      32.620  36.178  32.121  1.00  0.00     0.124 S 
ATOM     75  O   UNL A   1      31.677  35.157  32.569  1.00  0.00    -0.237 OA
ATOM     76  O   UNL A   1      33.202  37.009  33.169  1.00  0.00    -0.237 OA
ATOM     77  O   UNL A   1      32.230  36.886  30.905  1.00  0.00    -0.744 OA
ENDBRANCH  73  74
ENDBRANCH  52  66
BRANCH  53  78
ATOM     78  C   UNL A   1      44.588  28.947  28.700  1.00  0.00     0.058 A 
ATOM     79  C   UNL A   1      44.013  28.971  27.414  1.00  0.00     0.135 A 
ATOM     80  C   UNL A   1      45.826  28.303  28.844  1.00  0.00     0.135 A 
ATOM     81  F   UNL A   1      42.821  29.562  27.224  1.00  0.00    -0.206 F 
ATOM     82  C   UNL A   1      44.707  28.532  26.294  1.00  0.00     0.059 A 
ATOM     83  C   UNL A   1      46.538  27.848  27.732  1.00  0.00     0.059 A 
ATOM     84  F   UNL A   1      46.420  28.244  30.045  1.00  0.00    -0.206 F 
ATOM     85  C   UNL A   1      45.999  28.037  26.457  1.00  0.00     0.060 A 
BRANCH  85  86
ATOM     86  S   UNL A   1      47.010  27.830  24.972  1.00  0.00     0.124 S 
ATOM     87  O   UNL A   1      46.744  29.067  24.250  1.00  0.00    -0.237 OA
ATOM     88  O   UNL A   1      48.353  27.711  25.543  1.00  0.00    -0.237 OA
ATOM     89  O   UNL A   1      46.475  26.616  24.369  1.00  0.00    -0.744 OA
ENDBRANCH  85  86
ENDBRANCH  53  78
BRANCH  65  90
ATOM     90  C   UNL A   1      42.485  35.875  28.855  1.00  0.00     0.058 A 
ATOM     91  C   UNL A   1      41.855  36.310  27.676  1.00  0.00     0.135 A 
ATOM     92  C   UNL A   1      43.180  36.869  29.583  1.00  0.00     0.135 A 
ATOM     93  F   UNL A   1      41.076  35.485  26.960  1.00  0.00    -0.206 F 
ATOM     94  C   UNL A   1      41.969  37.620  27.209  1.00  0.00     0.059 A 
ATOM     95  C   UNL A   1      43.263  38.193  29.162  1.00  0.00     0.059 A 
ATOM     96  F   UNL A   1      43.800  36.581  30.738  1.00  0.00    -0.206 F 
ATOM     97  C   UNL A   1      42.680  38.555  27.956  1.00  0.00     0.060 A 
BRANCH  97  98
ATOM     98  S   UNL A   1      42.800  40.259  27.383  1.00  0.00     0.124 S 
ATOM     99  O   UNL A   1      43.611  40.863  28.434  1.00  0.00    -0.237 OA
ATOM    100  O   UNL A   1      43.453  40.120  26.084  1.00  0.00    -0.237 OA
ATOM    101  O   UNL A   1      41.406  40.690  27.330  1.00  0.00    -0.744 OA
ENDBRANCH  97  98
ENDBRANCH  65  90
ENDBRANCH  39  40
ENDBRANCH  31  34
ENDBRANCH  29  30
ENDBRANCH  28  29
ENDBRANCH   1  28
TORSDOF 17
ENDMDL
MODEL 3
REMARK VINA RESULT:     -13.9      0.905      1.634
REMARK SMILES Cc1cc([N+](=O)[O-])ccc1NC(=O)[C@@H]1[C@@H](C(=O)NCCCCNC(=O)c2ccc(-c3c4nc(c(-c5c(F)cc(S(=O)(=O)[O-])cc5F)c5ccc([nH]5)c(-c5c(F)cc(S(=O)(=O)[O-])cc5F)c5nc(c(-c6c(F)cc(S(=O)(=O)[O-])cc6F)c6ccc3[nH]6)C=C5)C=C4)cc2)[C@H]2C=C[C@@H]1C2
REMARK SMILES IDX 20 1 19 2 18 3 16 4 17 5 15 7 14 8 95 9 92 10 94 11 96 12
REMARK SMILES IDX 93 13 12 14 11 15 13 17 10 18 1 19 2 20 3 21 4 22 9 23 8 24
REMARK SMILES IDX 5 25 6 26 7 27 21 28 22 29 23 30 24 31 25 33 26 34 27 35
REMARK SMILES IDX 91 36 28 37 90 38 29 39 30 40 31 41 84 42 32 43 89 44 83 45
REMARK SMILES IDX 85 46 33 47 88 48 82 49 81 50 34 52 68 53 47 54 67 55 48 56
REMARK SMILES IDX 51 57 66 58 86 59 49 60 50 61 65 63 87 64 52 65 35 66 36 67
REMARK SMILES IDX 45 68 37 69 38 70 44 71 46 72 39 73 40 74 41 75 42 76 43 77
REMARK SMILES IDX 69 78 70 79 79 80 71 81 72 82 78 83 80 84 73 85 74 86 75 87
REMARK SMILES IDX 76 88 77 89 53 90 54 91 63 92 55 93 56 94 62 95 64 96 57 97
REMARK SMILES IDX 58 98 59 99 60 100 61 101
REMARK H PARENT 18 6 11 16 23 32 85 51 51 62
REMARK Flexibility Score: inf
ROOT
ATOM      1  C   UNL A   1      32.048  28.965  27.267  1.00  0.00     0.023 C 
ENDROOT
BRANCH   1   2
ATOM      2  C   UNL A   1      32.495  27.518  27.035  1.00  0.00     0.116 C 
BRANCH   2   3
ATOM      3  N   UNL A   1      31.512  26.710  26.333  1.00  0.00    -0.356 N 
ATOM      4  C   UNL A   1      31.607  25.499  25.720  1.00  0.00     0.224 C 
ATOM      5  O   UNL A   1      30.583  25.070  25.180  1.00  0.00    -0.275 OA
ATOM      6  H   UNL A   1      30.614  27.111  26.293  1.00  0.00     0.163 HD
BRANCH   4   7
ATOM      7  C   UNL A   1      32.937  24.757  25.615  1.00  0.00     0.098 C 
ATOM      8  C   UNL A   1      33.034  23.934  24.259  1.00  0.00     0.099 C 
ATOM      9  C   UNL A   1      33.483  22.533  24.755  1.00  0.00     0.025 C 
ATOM     10  C   UNL A   1      33.175  23.641  26.667  1.00  0.00     0.025 C 
ATOM     11  C   UNL A   1      32.287  21.911  25.437  1.00  0.00    -0.027 C 
ATOM     12  C   UNL A   1      34.312  22.872  25.991  1.00  0.00     0.017 C 
ATOM     13  C   UNL A   1      32.093  22.590  26.577  1.00  0.00    -0.027 C 
BRANCH   8  14
ATOM     14  C   UNL A   1      33.987  24.499  23.220  1.00  0.00     0.228 C 
ATOM     15  N   UNL A   1      33.753  25.695  22.586  1.00  0.00    -0.326 N 
ATOM     16  H   UNL A   1      34.451  25.926  21.930  1.00  0.00     0.169 HD
ATOM     17  O   UNL A   1      34.999  23.882  22.872  1.00  0.00    -0.274 OA
BRANCH  15  18
ATOM     18  C   UNL A   1      32.729  26.665  22.669  1.00  0.00     0.044 A 
ATOM     19  C   UNL A   1      34.335  28.313  23.856  1.00  0.00     0.047 C 
ATOM     20  C   UNL A   1      33.026  27.941  23.206  1.00  0.00    -0.021 A 
ATOM     21  C   UNL A   1      32.050  28.962  23.154  1.00  0.00     0.091 A 
ATOM     22  C   UNL A   1      30.792  28.719  22.593  1.00  0.00     0.269 A 
ATOM     23  C   UNL A   1      31.422  26.427  22.220  1.00  0.00     0.033 A 
ATOM     24  C   UNL A   1      30.463  27.443  22.154  1.00  0.00     0.088 A 
BRANCH  22  25
ATOM     25  N   UNL A   1      29.819  29.809  22.470  1.00  0.00     0.062 N 
ATOM     26  O   UNL A   1      29.480  30.397  23.509  1.00  0.00    -0.258 OA
ATOM     27  O   UNL A   1      29.405  30.089  21.337  1.00  0.00    -0.258 OA
ENDBRANCH  22  25
ENDBRANCH  15  18
ENDBRANCH   8  14
ENDBRANCH   4   7
ENDBRANCH   2   3
ENDBRANCH   1   2
BRANCH   1  28
ATOM     28  C   UNL A   1      33.042  30.050  26.859  1.00  0.00     0.023 C 
BRANCH  28  29
ATOM     29  C   UNL A   1      34.487  29.764  27.248  1.00  0.00     0.116 C 
BRANCH  29  30
ATOM     30  N   UNL A   1      35.190  30.937  27.745  1.00  0.00    -0.352 N 
ATOM     31  C   UNL A   1      36.312  30.974  28.557  1.00  0.00     0.251 C 
ATOM     32  H   UNL A   1      34.824  31.809  27.471  1.00  0.00     0.163 HD
ATOM     33  O   UNL A   1      36.647  31.973  29.168  1.00  0.00    -0.269 OA
BRANCH  31  34
ATOM     34  C   UNL A   1      37.183  29.780  28.537  1.00  0.00     0.039 A 
ATOM     35  C   UNL A   1      37.361  29.103  29.749  1.00  0.00     0.014 A 
ATOM     36  C   UNL A   1      37.999  29.521  27.441  1.00  0.00     0.014 A 
ATOM     37  C   UNL A   1      38.481  28.295  29.924  1.00  0.00     0.010 A 
ATOM     38  C   UNL A   1      39.155  28.794  27.643  1.00  0.00     0.010 A 
ATOM     39  C   UNL A   1      39.418  28.218  28.895  1.00  0.00    -0.014 A 
BRANCH  39  40
ATOM     40  C   UNL A   1      40.739  27.624  29.051  1.00  0.00     0.031 A 
ATOM     41  C   UNL A   1      40.978  26.227  28.626  1.00  0.00     0.074 A 
ATOM     42  C   UNL A   1      41.766  28.394  29.469  1.00  0.00     0.049 A 
ATOM     43  N   UNL A   1      41.975  25.500  29.005  1.00  0.00    -0.248 NA
ATOM     44  C   UNL A   1      40.057  25.518  27.748  1.00  0.00     0.031 C 
ATOM     45  C   UNL A   1      43.192  28.107  29.352  1.00  0.00     0.029 A 
ATOM     46  N   UNL A   1      41.708  29.536  30.269  1.00  0.00    -0.354 N 
ATOM     47  C   UNL A   1      41.992  24.366  28.222  1.00  0.00     0.074 A 
ATOM     48  C   UNL A   1      40.740  24.397  27.504  1.00  0.00     0.031 C 
ATOM     49  C   UNL A   1      43.864  28.877  30.222  1.00  0.00     0.029 A 
ATOM     50  C   UNL A   1      42.883  29.565  31.042  1.00  0.00     0.049 A 
ATOM     51  H   UNL A   1      40.980  30.199  30.289  1.00  0.00     0.167 HD
ATOM     52  C   UNL A   1      43.129  23.607  28.165  1.00  0.00     0.037 A 
ATOM     53  C   UNL A   1      42.822  29.478  32.405  1.00  0.00     0.037 A 
ATOM     54  C   UNL A   1      44.133  24.107  29.106  1.00  0.00     0.049 A 
ATOM     55  C   UNL A   1      43.479  28.238  32.971  1.00  0.00     0.074 A 
ATOM     56  C   UNL A   1      45.225  24.945  28.945  1.00  0.00     0.029 A 
ATOM     57  N   UNL A   1      43.909  24.016  30.477  1.00  0.00    -0.354 N 
ATOM     58  N   UNL A   1      43.795  27.190  32.262  1.00  0.00    -0.248 NA
ATOM     59  C   UNL A   1      43.819  28.076  34.382  1.00  0.00     0.031 C 
ATOM     60  C   UNL A   1      45.603  25.427  30.221  1.00  0.00     0.029 A 
ATOM     61  C   UNL A   1      44.760  24.865  31.163  1.00  0.00     0.049 A 
ATOM     62  H   UNL A   1      43.240  23.430  30.899  1.00  0.00     0.167 HD
ATOM     63  C   UNL A   1      44.322  26.223  33.078  1.00  0.00     0.074 A 
ATOM     64  C   UNL A   1      44.342  26.838  34.393  1.00  0.00     0.031 C 
ATOM     65  C   UNL A   1      44.687  24.993  32.611  1.00  0.00     0.037 A 
BRANCH  52  66
ATOM     66  C   UNL A   1      43.441  22.642  27.031  1.00  0.00     0.058 A 
ATOM     67  C   UNL A   1      42.753  21.412  26.919  1.00  0.00     0.135 A 
ATOM     68  C   UNL A   1      44.456  22.822  26.071  1.00  0.00     0.135 A 
ATOM     69  F   UNL A   1      41.678  21.138  27.671  1.00  0.00    -0.206 F 
ATOM     70  C   UNL A   1      43.132  20.398  26.036  1.00  0.00     0.059 A 
ATOM     71  C   UNL A   1      44.894  21.804  25.215  1.00  0.00     0.059 A 
ATOM     72  F   UNL A   1      45.028  24.018  25.879  1.00  0.00    -0.206 F 
ATOM     73  C   UNL A   1      44.235  20.584  25.217  1.00  0.00     0.060 A 
BRANCH  73  74
ATOM     74  S   UNL A   1      44.773  19.231  24.153  1.00  0.00     0.124 S 
ATOM     75  O   UNL A   1      46.185  19.106  24.503  1.00  0.00    -0.237 OA
ATOM     76  O   UNL A   1      43.911  18.139  24.590  1.00  0.00    -0.237 OA
ATOM     77  O   UNL A   1      44.514  19.734  22.806  1.00  0.00    -0.744 OA
ENDBRANCH  73  74
ENDBRANCH  52  66
BRANCH  53  78
ATOM     78  C   UNL A   1      41.631  30.163  32.979  1.00  0.00     0.058 A 
ATOM     79  C   UNL A   1      41.698  31.561  33.135  1.00  0.00     0.135 A 
ATOM     80  C   UNL A   1      40.358  29.576  32.941  1.00  0.00     0.135 A 
ATOM     81  F   UNL A   1      42.893  32.173  33.193  1.00  0.00    -0.206 F 
ATOM     82  C   UNL A   1      40.562  32.359  33.082  1.00  0.00     0.059 A 
ATOM     83  C   UNL A   1      39.201  30.358  32.894  1.00  0.00     0.059 A 
ATOM     84  F   UNL A   1      40.230  28.248  32.799  1.00  0.00    -0.206 F 
ATOM     85  C   UNL A   1      39.324  31.749  32.890  1.00  0.00     0.060 A 
BRANCH  85  86
ATOM     86  S   UNL A   1      37.927  32.811  32.449  1.00  0.00     0.124 S 
ATOM     87  O   UNL A   1      37.799  33.650  33.634  1.00  0.00    -0.237 OA
ATOM     88  O   UNL A   1      38.434  33.485  31.252  1.00  0.00    -0.237 OA
ATOM     89  O   UNL A   1      36.844  31.863  32.224  1.00  0.00    -0.744 OA
ENDBRANCH  85  86
ENDBRANCH  53  78
BRANCH  65  90
ATOM     90  C   UNL A   1      45.107  23.829  33.472  1.00  0.00     0.058 A 
ATOM     91  C   UNL A   1      46.398  23.680  34.007  1.00  0.00     0.135 A 
ATOM     92  C   UNL A   1      44.152  22.875  33.895  1.00  0.00     0.135 A 
ATOM     93  F   UNL A   1      47.358  24.585  33.767  1.00  0.00    -0.206 F 
ATOM     94  C   UNL A   1      46.741  22.616  34.842  1.00  0.00     0.059 A 
ATOM     95  C   UNL A   1      44.461  21.835  34.768  1.00  0.00     0.059 A 
ATOM     96  F   UNL A   1      42.880  22.927  33.473  1.00  0.00    -0.206 F 
ATOM     97  C   UNL A   1      45.767  21.694  35.214  1.00  0.00     0.060 A 
BRANCH  97  98
ATOM     98  S   UNL A   1      46.191  20.338  36.323  1.00  0.00     0.124 S 
ATOM     99  O   UNL A   1      45.757  20.871  37.610  1.00  0.00    -0.237 OA
ATOM    100  O   UNL A   1      45.398  19.229  35.801  1.00  0.00    -0.237 OA
ATOM    101  O   UNL A   1      47.633  20.203  36.146  1.00  0.00    -0.744 OA
ENDBRANCH  97  98
ENDBRANCH  65  90
ENDBRANCH  39  40
ENDBRANCH  31  34
ENDBRANCH  29  30
ENDBRANCH  28  29
ENDBRANCH   1  28
TORSDOF 17
ENDMDL
