MODEL 1
REMARK VINA RESULT:     -12.5      0.000      0.000
REMARK SMILES CCCOC(=O)c1c(NC(=O)[C@@H]2CC=CC[C@H]2C(=O)NCCCCNC(=O)c2ccc(-c3c4nc(c(-c5c(F)cc(S(=O)(=O)[O-])cc5F)c5ccc([nH]5)c(-c5c(F)cc(S(=O)(=O)[O-])cc5F)c5nc(c(-c6c(F)cc(S(=O)(=O)[O-])cc6F)c6ccc3[nH]6)C=C5)C=C4)cc2)sc2c1CCCC2
REMARK SMILES IDX 21 1 20 2 18 3 19 4 17 6 12 7 13 8 14 9 16 10 15 11 10 12
REMARK SMILES IDX 9 13 11 15 8 16 7 17 96 18 94 19 95 20 97 21 100 22 98 23
REMARK SMILES IDX 99 24 5 25 6 26 4 27 3 28 2 29 1 30 22 31 23 32 24 33 25 34
REMARK SMILES IDX 26 35 27 37 28 38 29 39 93 40 30 41 92 42 31 43 32 44 33 45
REMARK SMILES IDX 86 46 34 47 91 48 85 49 87 50 35 51 90 52 84 53 83 54 36 56
REMARK SMILES IDX 70 57 49 58 69 59 50 60 53 61 68 62 88 63 51 64 52 65 67 67
REMARK SMILES IDX 89 68 54 69 37 70 38 71 47 72 39 73 40 74 46 75 48 76 41 77
REMARK SMILES IDX 42 78 43 79 44 80 45 81 71 82 72 83 81 84 73 85 74 86 80 87
REMARK SMILES IDX 82 88 75 89 76 90 77 91 78 92 79 93 55 94 56 95 65 96 57 97
REMARK SMILES IDX 58 98 64 99 66 100 59 101 60 102 61 103 62 104 63 105
REMARK H PARENT 20 5 9 14 25 36 87 55 53 66
REMARK Flexibility Score: inf
ROOT
ATOM      1  C   UNL A   1      36.398  23.378  23.859  1.00  0.00     0.116 C 
ENDROOT
BRANCH   1   2
ATOM      2  N   UNL A   1      35.250  22.537  23.583  1.00  0.00    -0.356 N 
ATOM      3  C   UNL A   1      33.924  22.831  23.475  1.00  0.00     0.224 C 
ATOM      4  O   UNL A   1      33.165  21.920  23.132  1.00  0.00    -0.275 OA
ATOM      5  H   UNL A   1      35.466  21.585  23.450  1.00  0.00     0.163 HD
BRANCH   3   6
ATOM      6  C   UNL A   1      33.358  24.234  23.735  1.00  0.00     0.095 C 
ATOM      7  C   UNL A   1      32.310  24.609  22.675  1.00  0.00     0.095 C 
ATOM      8  C   UNL A   1      30.873  24.836  23.131  1.00  0.00     0.041 C 
ATOM      9  C   UNL A   1      30.597  24.786  24.595  1.00  0.00    -0.030 C 
ATOM     10  C   UNL A   1      32.975  24.358  25.220  1.00  0.00     0.041 C 
ATOM     11  C   UNL A   1      31.533  24.590  25.526  1.00  0.00    -0.030 C 
BRANCH   7  12
ATOM     12  C   UNL A   1      32.683  25.662  21.633  1.00  0.00     0.229 C 
ATOM     13  N   UNL A   1      32.643  27.008  21.793  1.00  0.00    -0.317 N 
ATOM     14  H   UNL A   1      32.668  27.540  20.965  1.00  0.00     0.170 HD
ATOM     15  O   UNL A   1      33.029  25.274  20.507  1.00  0.00    -0.274 OA
BRANCH  13  16
ATOM     16  C   UNL A   1      32.571  27.720  22.956  1.00  0.00     0.110 A 
ATOM     17  C   UNL A   1      31.594  28.398  23.662  1.00  0.00     0.098 A 
ATOM     18  C   UNL A   1      32.155  28.815  24.949  1.00  0.00    -0.017 A 
ATOM     19  S   UNL A   1      34.132  27.874  23.632  1.00  0.00    -0.122 S 
ATOM     20  C   UNL A   1      33.505  28.536  25.054  1.00  0.00     0.011 A 
ATOM     21  C   UNL A   1      31.419  29.478  26.084  1.00  0.00     0.038 C 
ATOM     22  C   UNL A   1      34.383  28.839  26.228  1.00  0.00     0.047 C 
ATOM     23  C   UNL A   1      32.379  30.128  27.095  1.00  0.00     0.005 C 
ATOM     24  C   UNL A   1      33.539  29.195  27.459  1.00  0.00     0.006 C 
BRANCH  17  25
ATOM     25  C   UNL A   1      30.219  28.712  23.245  1.00  0.00     0.341 C 
ATOM     26  O   UNL A   1      29.353  27.844  23.169  1.00  0.00    -0.246 OA
BRANCH  25  27
ATOM     27  O   UNL A   1      29.945  30.047  23.040  1.00  0.00    -0.462 OA
BRANCH  27  28
ATOM     28  C   UNL A   1      29.260  30.279  21.793  1.00  0.00     0.233 C 
BRANCH  28  29
ATOM     29  C   UNL A   1      27.909  30.981  21.961  1.00  0.00     0.038 C 
ATOM     30  C   UNL A   1      27.668  31.596  23.335  1.00  0.00     0.007 C 
ENDBRANCH  28  29
ENDBRANCH  27  28
ENDBRANCH  25  27
ENDBRANCH  17  25
ENDBRANCH  13  16
ENDBRANCH   7  12
ENDBRANCH   3   6
ENDBRANCH   1   2
BRANCH   1  31
ATOM     31  C   UNL A   1      37.167  22.979  25.120  1.00  0.00     0.023 C 
BRANCH  31  32
ATOM     32  C   UNL A   1      37.795  24.137  25.887  1.00  0.00     0.023 C 
BRANCH  32  33
ATOM     33  C   UNL A   1      38.904  23.724  26.836  1.00  0.00     0.116 C 
BRANCH  33  34
ATOM     34  N   UNL A   1      40.234  23.809  26.247  1.00  0.00    -0.352 N 
ATOM     35  C   UNL A   1      41.161  24.804  26.451  1.00  0.00     0.251 C 
ATOM     36  H   UNL A   1      40.496  23.079  25.641  1.00  0.00     0.163 HD
ATOM     37  O   UNL A   1      42.224  24.820  25.844  1.00  0.00    -0.269 OA
BRANCH  35  38
ATOM     38  C   UNL A   1      40.800  25.879  27.391  1.00  0.00     0.039 A 
ATOM     39  C   UNL A   1      39.899  25.601  28.418  1.00  0.00     0.014 A 
ATOM     40  C   UNL A   1      41.481  27.098  27.335  1.00  0.00     0.014 A 
ATOM     41  C   UNL A   1      39.725  26.533  29.439  1.00  0.00     0.010 A 
ATOM     42  C   UNL A   1      41.365  27.989  28.393  1.00  0.00     0.010 A 
ATOM     43  C   UNL A   1      40.485  27.715  29.452  1.00  0.00    -0.014 A 
BRANCH  43  44
ATOM     44  C   UNL A   1      40.364  28.694  30.559  1.00  0.00     0.031 A 
ATOM     45  C   UNL A   1      41.242  28.549  31.770  1.00  0.00     0.074 A 
ATOM     46  C   UNL A   1      39.423  29.658  30.503  1.00  0.00     0.049 A 
ATOM     47  N   UNL A   1      41.245  29.248  32.874  1.00  0.00    -0.248 NA
ATOM     48  C   UNL A   1      42.224  27.450  31.754  1.00  0.00     0.031 C 
ATOM     49  C   UNL A   1      38.471  29.855  29.405  1.00  0.00     0.029 A 
ATOM     50  N   UNL A   1      39.103  30.647  31.398  1.00  0.00    -0.354 N 
ATOM     51  C   UNL A   1      42.201  28.659  33.691  1.00  0.00     0.074 A 
ATOM     52  C   UNL A   1      42.729  27.518  32.976  1.00  0.00     0.031 C 
ATOM     53  C   UNL A   1      37.694  30.915  29.682  1.00  0.00     0.029 A 
ATOM     54  C   UNL A   1      38.068  31.454  30.985  1.00  0.00     0.049 A 
ATOM     55  H   UNL A   1      39.570  30.768  32.255  1.00  0.00     0.167 HD
ATOM     56  C   UNL A   1      42.619  29.048  34.917  1.00  0.00     0.037 A 
ATOM     57  C   UNL A   1      37.491  32.508  31.594  1.00  0.00     0.037 A 
ATOM     58  C   UNL A   1      42.134  30.221  35.593  1.00  0.00     0.049 A 
ATOM     59  C   UNL A   1      38.005  32.945  32.940  1.00  0.00     0.074 A 
ATOM     60  C   UNL A   1      42.564  30.760  36.793  1.00  0.00     0.029 A 
ATOM     61  N   UNL A   1      41.118  31.039  35.125  1.00  0.00    -0.354 N 
ATOM     62  N   UNL A   1      38.971  32.426  33.661  1.00  0.00    -0.248 NA
ATOM     63  C   UNL A   1      37.358  34.112  33.553  1.00  0.00     0.031 C 
ATOM     64  C   UNL A   1      41.783  31.889  37.065  1.00  0.00     0.029 A 
ATOM     65  C   UNL A   1      40.894  32.070  36.018  1.00  0.00     0.049 A 
ATOM     66  H   UNL A   1      40.627  30.904  34.281  1.00  0.00     0.167 HD
ATOM     67  C   UNL A   1      39.067  33.223  34.795  1.00  0.00     0.074 A 
ATOM     68  C   UNL A   1      38.067  34.263  34.662  1.00  0.00     0.031 C 
ATOM     69  C   UNL A   1      39.907  33.106  35.853  1.00  0.00     0.037 A 
BRANCH  56  70
ATOM     70  C   UNL A   1      43.663  28.214  35.601  1.00  0.00     0.058 A 
ATOM     71  C   UNL A   1      43.315  27.183  36.487  1.00  0.00     0.135 A 
ATOM     72  C   UNL A   1      45.025  28.413  35.327  1.00  0.00     0.135 A 
ATOM     73  F   UNL A   1      42.027  26.964  36.800  1.00  0.00    -0.206 F 
ATOM     74  C   UNL A   1      44.283  26.388  37.092  1.00  0.00     0.059 A 
ATOM     75  C   UNL A   1      46.009  27.614  35.902  1.00  0.00     0.059 A 
ATOM     76  F   UNL A   1      45.411  29.390  34.492  1.00  0.00    -0.206 F 
ATOM     77  C   UNL A   1      45.628  26.609  36.791  1.00  0.00     0.060 A 
BRANCH  77  78
ATOM     78  S   UNL A   1      46.870  25.548  37.557  1.00  0.00     0.124 S 
ATOM     79  O   UNL A   1      46.033  24.548  38.213  1.00  0.00    -0.237 OA
ATOM     80  O   UNL A   1      47.634  25.077  36.406  1.00  0.00    -0.237 OA
ATOM     81  O   UNL A   1      47.585  26.453  38.452  1.00  0.00    -0.744 OA
ENDBRANCH  77  78
ENDBRANCH  56  70
BRANCH  57  82
ATOM     82  C   UNL A   1      36.382  33.248  30.934  1.00  0.00     0.058 A 
ATOM     83  C   UNL A   1      36.632  34.073  29.827  1.00  0.00     0.135 A 
ATOM     84  C   UNL A   1      35.064  33.169  31.406  1.00  0.00     0.135 A 
ATOM     85  F   UNL A   1      37.876  34.184  29.339  1.00  0.00    -0.206 F 
ATOM     86  C   UNL A   1      35.620  34.820  29.231  1.00  0.00     0.059 A 
ATOM     87  C   UNL A   1      34.031  33.889  30.814  1.00  0.00     0.059 A 
ATOM     88  F   UNL A   1      34.771  32.379  32.451  1.00  0.00    -0.206 F 
ATOM     89  C   UNL A   1      34.323  34.727  29.738  1.00  0.00     0.060 A 
BRANCH  89  90
ATOM     90  S   UNL A   1      33.013  35.690  28.952  1.00  0.00     0.124 S 
ATOM     91  O   UNL A   1      33.782  36.713  28.253  1.00  0.00    -0.237 OA
ATOM     92  O   UNL A   1      32.358  34.695  28.108  1.00  0.00    -0.237 OA
ATOM     93  O   UNL A   1      32.219  36.158  30.085  1.00  0.00    -0.744 OA
ENDBRANCH  89  90
ENDBRANCH  57  82
BRANCH  69  94
ATOM     94  C   UNL A   1      39.813  34.151  36.927  1.00  0.00     0.058 A 
ATOM     95  C   UNL A   1      40.406  35.413  36.778  1.00  0.00     0.135 A 
ATOM     96  C   UNL A   1      39.069  33.904  38.092  1.00  0.00     0.135 A 
ATOM     97  F   UNL A   1      41.133  35.694  35.686  1.00  0.00    -0.206 F 
ATOM     98  C   UNL A   1      40.283  36.391  37.759  1.00  0.00     0.059 A 
ATOM     99  C   UNL A   1      38.911  34.875  39.075  1.00  0.00     0.059 A 
ATOM    100  F   UNL A   1      38.473  32.715  38.274  1.00  0.00    -0.206 F 
ATOM    101  C   UNL A   1      39.531  36.112  38.903  1.00  0.00     0.060 A 
BRANCH 101 102
ATOM    102  S   UNL A   1      39.343  37.402  40.152  1.00  0.00     0.124 S 
ATOM    103  O   UNL A   1      40.730  37.788  40.388  1.00  0.00    -0.237 OA
ATOM    104  O   UNL A   1      38.517  38.390  39.464  1.00  0.00    -0.237 OA
ATOM    105  O   UNL A   1      38.686  36.709  41.257  1.00  0.00    -0.744 OA
ENDBRANCH 101 102
ENDBRANCH  69  94
ENDBRANCH  43  44
ENDBRANCH  35  38
ENDBRANCH  33  34
ENDBRANCH  32  33
ENDBRANCH  31  32
ENDBRANCH   1  31
TORSDOF 20
ENDMDL
MODEL 2
REMARK VINA RESULT:     -12.3      4.909     10.756
REMARK SMILES CCCOC(=O)c1c(NC(=O)[C@@H]2CC=CC[C@H]2C(=O)NCCCCNC(=O)c2ccc(-c3c4nc(c(-c5c(F)cc(S(=O)(=O)[O-])cc5F)c5ccc([nH]5)c(-c5c(F)cc(S(=O)(=O)[O-])cc5F)c5nc(c(-c6c(F)cc(S(=O)(=O)[O-])cc6F)c6ccc3[nH]6)C=C5)C=C4)cc2)sc2c1CCCC2
REMARK SMILES IDX 21 1 20 2 18 3 19 4 17 6 12 7 13 8 14 9 16 10 15 11 10 12
REMARK SMILES IDX 9 13 11 15 8 16 7 17 96 18 94 19 95 20 97 21 100 22 98 23
REMARK SMILES IDX 99 24 5 25 6 26 4 27 3 28 2 29 1 30 22 31 23 32 24 33 25 34
REMARK SMILES IDX 26 35 27 37 28 38 29 39 93 40 30 41 92 42 31 43 32 44 33 45
REMARK SMILES IDX 86 46 34 47 91 48 85 49 87 50 35 51 90 52 84 53 83 54 36 56
REMARK SMILES IDX 70 57 49 58 69 59 50 60 53 61 68 62 88 63 51 64 52 65 67 67
REMARK SMILES IDX 89 68 54 69 37 70 38 71 47 72 39 73 40 74 46 75 48 76 41 77
REMARK SMILES IDX 42 78 43 79 44 80 45 81 71 82 72 83 81 84 73 85 74 86 80 87
REMARK SMILES IDX 82 88 75 89 76 90 77 91 78 92 79 93 55 94 56 95 65 96 57 97
REMARK SMILES IDX 58 98 64 99 66 100 59 101 60 102 61 103 62 104 63 105
REMARK H PARENT 20 5 9 14 25 36 87 55 53 66
REMARK Flexibility Score: inf
ROOT
ATOM      1  C   UNL A   1      30.711  26.834  26.326  1.00  0.00     0.116 C 
ENDROOT
BRANCH   1   2
ATOM      2  N   UNL A   1      30.674  26.881  24.877  1.00  0.00    -0.356 N 
ATOM      3  C   UNL A   1      31.215  26.057  23.937  1.00  0.00     0.224 C 
ATOM      4  O   UNL A   1      30.940  26.285  22.755  1.00  0.00    -0.275 OA
ATOM      5  H   UNL A   1      30.169  27.641  24.508  1.00  0.00     0.163 HD
BRANCH   3   6
ATOM      6  C   UNL A   1      32.115  24.864  24.291  1.00  0.00     0.095 C 
ATOM      7  C   UNL A   1      31.292  23.573  24.414  1.00  0.00     0.095 C 
ATOM      8  C   UNL A   1      31.571  22.443  23.430  1.00  0.00     0.041 C 
ATOM      9  C   UNL A   1      32.703  22.622  22.476  1.00  0.00    -0.030 C 
ATOM     10  C   UNL A   1      33.343  24.866  23.364  1.00  0.00     0.041 C 
ATOM     11  C   UNL A   1      33.501  23.692  22.456  1.00  0.00    -0.030 C 
BRANCH   7  12
ATOM     12  C   UNL A   1      31.074  22.987  25.809  1.00  0.00     0.229 C 
ATOM     13  N   UNL A   1      31.903  22.142  26.470  1.00  0.00    -0.317 N 
ATOM     14  H   UNL A   1      31.508  21.664  27.235  1.00  0.00     0.170 HD
ATOM     15  O   UNL A   1      30.024  23.271  26.405  1.00  0.00    -0.274 OA
BRANCH  13  16
ATOM     16  C   UNL A   1      33.215  21.868  26.209  1.00  0.00     0.110 A 
ATOM     17  C   UNL A   1      33.937  20.816  25.675  1.00  0.00     0.098 A 
ATOM     18  C   UNL A   1      35.330  21.237  25.521  1.00  0.00    -0.017 A 
ATOM     19  S   UNL A   1      34.195  23.137  26.799  1.00  0.00    -0.122 S 
ATOM     20  C   UNL A   1      35.566  22.493  26.050  1.00  0.00     0.011 A 
ATOM     21  C   UNL A   1      36.445  20.458  24.873  1.00  0.00     0.038 C 
ATOM     22  C   UNL A   1      36.877  23.214  26.068  1.00  0.00     0.047 C 
ATOM     23  C   UNL A   1      37.830  21.016  25.239  1.00  0.00     0.005 C 
ATOM     24  C   UNL A   1      37.878  22.543  25.119  1.00  0.00     0.006 C 
BRANCH  17  25
ATOM     25  C   UNL A   1      33.461  19.467  25.328  1.00  0.00     0.341 C 
ATOM     26  O   UNL A   1      32.568  18.914  25.965  1.00  0.00    -0.246 OA
BRANCH  25  27
ATOM     27  O   UNL A   1      34.012  18.910  24.195  1.00  0.00    -0.462 OA
BRANCH  27  28
ATOM     28  C   UNL A   1      33.249  17.787  23.710  1.00  0.00     0.233 C 
BRANCH  28  29
ATOM     29  C   UNL A   1      34.075  16.506  23.566  1.00  0.00     0.038 C 
ATOM     30  C   UNL A   1      34.544  15.889  24.878  1.00  0.00     0.007 C 
ENDBRANCH  28  29
ENDBRANCH  27  28
ENDBRANCH  25  27
ENDBRANCH  17  25
ENDBRANCH  13  16
ENDBRANCH   7  12
ENDBRANCH   3   6
ENDBRANCH   1   2
BRANCH   1  31
ATOM     31  C   UNL A   1      31.670  27.849  26.953  1.00  0.00     0.023 C 
BRANCH  31  32
ATOM     32  C   UNL A   1      32.871  28.220  26.091  1.00  0.00     0.023 C 
BRANCH  32  33
ATOM     33  C   UNL A   1      34.094  28.650  26.881  1.00  0.00     0.116 C 
BRANCH  33  34
ATOM     34  N   UNL A   1      33.912  29.908  27.593  1.00  0.00    -0.352 N 
ATOM     35  C   UNL A   1      34.843  30.553  28.372  1.00  0.00     0.251 C 
ATOM     36  H   UNL A   1      33.032  30.341  27.507  1.00  0.00     0.163 HD
ATOM     37  O   UNL A   1      34.562  31.571  28.992  1.00  0.00    -0.269 OA
BRANCH  35  38
ATOM     38  C   UNL A   1      36.178  29.939  28.473  1.00  0.00     0.039 A 
ATOM     39  C   UNL A   1      37.072  30.096  27.415  1.00  0.00     0.014 A 
ATOM     40  C   UNL A   1      36.578  29.357  29.679  1.00  0.00     0.014 A 
ATOM     41  C   UNL A   1      38.403  29.720  27.590  1.00  0.00     0.010 A 
ATOM     42  C   UNL A   1      37.919  29.057  29.876  1.00  0.00     0.010 A 
ATOM     43  C   UNL A   1      38.842  29.234  28.833  1.00  0.00    -0.014 A 
BRANCH  43  44
ATOM     44  C   UNL A   1      40.264  28.887  29.063  1.00  0.00     0.031 A 
ATOM     45  C   UNL A   1      41.195  29.924  29.627  1.00  0.00     0.074 A 
ATOM     46  C   UNL A   1      40.726  27.673  28.700  1.00  0.00     0.049 A 
ATOM     47  N   UNL A   1      42.483  29.849  29.835  1.00  0.00    -0.248 NA
ATOM     48  C   UNL A   1      40.606  31.230  29.970  1.00  0.00     0.031 C 
ATOM     49  C   UNL A   1      39.928  26.608  28.084  1.00  0.00     0.029 A 
ATOM     50  N   UNL A   1      41.984  27.134  28.785  1.00  0.00    -0.354 N 
ATOM     51  C   UNL A   1      42.862  31.101  30.302  1.00  0.00     0.074 A 
ATOM     52  C   UNL A   1      41.679  31.932  30.307  1.00  0.00     0.031 C 
ATOM     53  C   UNL A   1      40.711  25.538  27.872  1.00  0.00     0.029 A 
ATOM     54  C   UNL A   1      42.070  25.847  28.307  1.00  0.00     0.049 A 
ATOM     55  H   UNL A   1      42.755  27.622  29.155  1.00  0.00     0.167 HD
ATOM     56  C   UNL A   1      44.083  31.514  30.713  1.00  0.00     0.037 A 
ATOM     57  C   UNL A   1      43.126  25.015  28.229  1.00  0.00     0.037 A 
ATOM     58  C   UNL A   1      45.241  30.662  30.765  1.00  0.00     0.049 A 
ATOM     59  C   UNL A   1      44.464  25.487  28.733  1.00  0.00     0.074 A 
ATOM     60  C   UNL A   1      46.499  30.953  31.260  1.00  0.00     0.029 A 
ATOM     61  N   UNL A   1      45.278  29.352  30.313  1.00  0.00    -0.354 N 
ATOM     62  N   UNL A   1      44.786  26.649  29.253  1.00  0.00    -0.248 NA
ATOM     63  C   UNL A   1      45.581  24.537  28.648  1.00  0.00     0.031 C 
ATOM     64  C   UNL A   1      47.308  29.826  31.077  1.00  0.00     0.029 A 
ATOM     65  C   UNL A   1      46.542  28.825  30.502  1.00  0.00     0.049 A 
ATOM     66  H   UNL A   1      44.517  28.869  29.916  1.00  0.00     0.167 HD
ATOM     67  C   UNL A   1      46.132  26.555  29.585  1.00  0.00     0.074 A 
ATOM     68  C   UNL A   1      46.564  25.223  29.215  1.00  0.00     0.031 C 
ATOM     69  C   UNL A   1      46.941  27.488  30.146  1.00  0.00     0.037 A 
BRANCH  56  70
ATOM     70  C   UNL A   1      44.229  32.941  31.156  1.00  0.00     0.058 A 
ATOM     71  C   UNL A   1      44.594  33.956  30.258  1.00  0.00     0.135 A 
ATOM     72  C   UNL A   1      43.951  33.306  32.482  1.00  0.00     0.135 A 
ATOM     73  F   UNL A   1      44.891  33.657  28.983  1.00  0.00    -0.206 F 
ATOM     74  C   UNL A   1      44.694  35.282  30.664  1.00  0.00     0.059 A 
ATOM     75  C   UNL A   1      44.022  34.630  32.905  1.00  0.00     0.059 A 
ATOM     76  F   UNL A   1      43.605  32.372  33.383  1.00  0.00    -0.206 F 
ATOM     77  C   UNL A   1      44.403  35.610  31.989  1.00  0.00     0.060 A 
BRANCH  77  78
ATOM     78  S   UNL A   1      44.505  37.341  32.492  1.00  0.00     0.124 S 
ATOM     79  O   UNL A   1      44.136  38.024  31.256  1.00  0.00    -0.237 OA
ATOM     80  O   UNL A   1      43.525  37.412  33.571  1.00  0.00    -0.237 OA
ATOM     81  O   UNL A   1      45.897  37.494  32.903  1.00  0.00    -0.744 OA
ENDBRANCH  77  78
ENDBRANCH  56  70
BRANCH  57  82
ATOM     82  C   UNL A   1      42.969  23.641  27.682  1.00  0.00     0.058 A 
ATOM     83  C   UNL A   1      43.235  23.374  26.331  1.00  0.00     0.135 A 
ATOM     84  C   UNL A   1      42.527  22.579  28.484  1.00  0.00     0.135 A 
ATOM     85  F   UNL A   1      43.657  24.357  25.523  1.00  0.00    -0.206 F 
ATOM     86  C   UNL A   1      43.037  22.110  25.785  1.00  0.00     0.059 A 
ATOM     87  C   UNL A   1      42.343  21.300  27.966  1.00  0.00     0.059 A 
ATOM     88  F   UNL A   1      42.277  22.779  29.787  1.00  0.00    -0.206 F 
ATOM     89  C   UNL A   1      42.583  21.080  26.610  1.00  0.00     0.060 A 
BRANCH  89  90
ATOM     90  S   UNL A   1      42.340  19.438  25.898  1.00  0.00     0.124 S 
ATOM     91  O   UNL A   1      42.901  18.583  26.937  1.00  0.00    -0.237 OA
ATOM     92  O   UNL A   1      40.891  19.380  25.737  1.00  0.00    -0.237 OA
ATOM     93  O   UNL A   1      43.098  19.501  24.652  1.00  0.00    -0.744 OA
ENDBRANCH  89  90
ENDBRANCH  57  82
BRANCH  69  94
ATOM     94  C   UNL A   1      48.359  27.087  30.435  1.00  0.00     0.058 A 
ATOM     95  C   UNL A   1      49.405  27.405  29.558  1.00  0.00     0.135 A 
ATOM     96  C   UNL A   1      48.678  26.429  31.633  1.00  0.00     0.135 A 
ATOM     97  F   UNL A   1      49.149  28.027  28.397  1.00  0.00    -0.206 F 
ATOM     98  C   UNL A   1      50.722  27.067  29.850  1.00  0.00     0.059 A 
ATOM     99  C   UNL A   1      49.990  26.103  31.958  1.00  0.00     0.059 A 
ATOM    100  F   UNL A   1      47.711  26.113  32.510  1.00  0.00    -0.206 F 
ATOM    101  C   UNL A   1      51.004  26.417  31.054  1.00  0.00     0.060 A 
BRANCH 101 102
ATOM    102  S   UNL A   1      52.721  26.018  31.443  1.00  0.00     0.124 S 
ATOM    103  O   UNL A   1      52.588  24.688  32.027  1.00  0.00    -0.237 OA
ATOM    104  O   UNL A   1      53.363  26.075  30.132  1.00  0.00    -0.237 OA
ATOM    105  O   UNL A   1      53.112  27.076  32.370  1.00  0.00    -0.744 OA
ENDBRANCH 101 102
ENDBRANCH  69  94
ENDBRANCH  43  44
ENDBRANCH  35  38
ENDBRANCH  33  34
ENDBRANCH  32  33
ENDBRANCH  31  32
ENDBRANCH   1  31
TORSDOF 20
ENDMDL
MODEL 3
REMARK VINA RESULT:     -12.2      6.443     12.084
REMARK SMILES CCCOC(=O)c1c(NC(=O)[C@@H]2CC=CC[C@H]2C(=O)NCCCCNC(=O)c2ccc(-c3c4nc(c(-c5c(F)cc(S(=O)(=O)[O-])cc5F)c5ccc([nH]5)c(-c5c(F)cc(S(=O)(=O)[O-])cc5F)c5nc(c(-c6c(F)cc(S(=O)(=O)[O-])cc6F)c6ccc3[nH]6)C=C5)C=C4)cc2)sc2c1CCCC2
REMARK SMILES IDX 21 1 20 2 18 3 19 4 17 6 12 7 13 8 14 9 16 10 15 11 10 12
REMARK SMILES IDX 9 13 11 15 8 16 7 17 96 18 94 19 95 20 97 21 100 22 98 23
REMARK SMILES IDX 99 24 5 25 6 26 4 27 3 28 2 29 1 30 22 31 23 32 24 33 25 34
REMARK SMILES IDX 26 35 27 37 28 38 29 39 93 40 30 41 92 42 31 43 32 44 33 45
REMARK SMILES IDX 86 46 34 47 91 48 85 49 87 50 35 51 90 52 84 53 83 54 36 56
REMARK SMILES IDX 70 57 49 58 69 59 50 60 53 61 68 62 88 63 51 64 52 65 67 67
REMARK SMILES IDX 89 68 54 69 37 70 38 71 47 72 39 73 40 74 46 75 48 76 41 77
REMARK SMILES IDX 42 78 43 79 44 80 45 81 71 82 72 83 81 84 73 85 74 86 80 87
REMARK SMILES IDX 82 88 75 89 76 90 77 91 78 92 79 93 55 94 56 95 65 96 57 97
REMARK SMILES IDX 58 98 64 99 66 100 59 101 60 102 61 103 62 104 63 105
REMARK H PARENT 20 5 9 14 25 36 87 55 53 66
REMARK Flexibility Score: inf
ROOT
ATOM      1  C   UNL A   1      32.842  27.812  27.211  1.00  0.00     0.116 C 
ENDROOT
BRANCH   1   2
ATOM      2  N   UNL A   1      31.693  27.666  26.338  1.00  0.00    -0.356 N 
ATOM      3  C   UNL A   1      31.254  26.610  25.598  1.00  0.00     0.224 C 
ATOM      4  O   UNL A   1      30.173  26.735  25.014  1.00  0.00    -0.275 OA
ATOM      5  H   UNL A   1      31.131  28.472  26.269  1.00  0.00     0.163 HD
BRANCH   3   6
ATOM      6  C   UNL A   1      32.027  25.288  25.490  1.00  0.00     0.095 C 
ATOM      7  C   UNL A   1      31.064  24.095  25.393  1.00  0.00     0.095 C 
ATOM      8  C   UNL A   1      31.076  23.260  24.117  1.00  0.00     0.041 C 
ATOM      9  C   UNL A   1      32.100  23.591  23.086  1.00  0.00    -0.030 C 
ATOM     10  C   UNL A   1      33.126  25.432  24.423  1.00  0.00     0.041 C 
ATOM     11  C   UNL A   1      33.023  24.545  23.228  1.00  0.00    -0.030 C 
BRANCH   7  12
ATOM     12  C   UNL A   1      30.939  23.169  26.603  1.00  0.00     0.229 C 
ATOM     13  N   UNL A   1      31.778  22.157  26.937  1.00  0.00    -0.317 N 
ATOM     14  H   UNL A   1      31.427  21.506  27.587  1.00  0.00     0.170 HD
ATOM     15  O   UNL A   1      29.962  23.315  27.353  1.00  0.00    -0.274 OA
BRANCH  13  16
ATOM     16  C   UNL A   1      33.045  21.925  26.486  1.00  0.00     0.110 A 
ATOM     17  C   UNL A   1      33.663  21.020  25.641  1.00  0.00     0.098 A 
ATOM     18  C   UNL A   1      35.055  21.434  25.455  1.00  0.00    -0.017 A 
ATOM     19  S   UNL A   1      34.135  22.984  27.266  1.00  0.00    -0.122 S 
ATOM     20  C   UNL A   1      35.399  22.513  26.248  1.00  0.00     0.011 A 
ATOM     21  C   UNL A   1      36.067  20.813  24.527  1.00  0.00     0.038 C 
ATOM     22  C   UNL A   1      36.739  23.176  26.309  1.00  0.00     0.047 C 
ATOM     23  C   UNL A   1      37.505  21.229  24.876  1.00  0.00     0.005 C 
ATOM     24  C   UNL A   1      37.615  22.737  25.129  1.00  0.00     0.006 C 
BRANCH  17  25
ATOM     25  C   UNL A   1      33.094  19.812  25.025  1.00  0.00     0.341 C 
ATOM     26  O   UNL A   1      31.989  19.821  24.486  1.00  0.00    -0.246 OA
BRANCH  25  27
ATOM     27  O   UNL A   1      33.914  18.705  25.008  1.00  0.00    -0.462 OA
BRANCH  27  28
ATOM     28  C   UNL A   1      33.603  17.811  23.920  1.00  0.00     0.233 C 
BRANCH  28  29
ATOM     29  C   UNL A   1      33.666  16.331  24.311  1.00  0.00     0.038 C 
ATOM     30  C   UNL A   1      32.783  15.937  25.489  1.00  0.00     0.007 C 
ENDBRANCH  28  29
ENDBRANCH  27  28
ENDBRANCH  25  27
ENDBRANCH  17  25
ENDBRANCH  13  16
ENDBRANCH   7  12
ENDBRANCH   3   6
ENDBRANCH   1   2
BRANCH   1  31
ATOM     31  C   UNL A   1      34.082  28.372  26.511  1.00  0.00     0.023 C 
BRANCH  31  32
ATOM     32  C   UNL A   1      34.592  29.697  27.063  1.00  0.00     0.023 C 
BRANCH  32  33
ATOM     33  C   UNL A   1      35.769  29.564  28.012  1.00  0.00     0.116 C 
BRANCH  33  34
ATOM     34  N   UNL A   1      35.484  30.039  29.360  1.00  0.00    -0.352 N 
ATOM     35  C   UNL A   1      36.404  30.329  30.339  1.00  0.00     0.251 C 
ATOM     36  H   UNL A   1      34.536  30.166  29.593  1.00  0.00     0.163 HD
ATOM     37  O   UNL A   1      36.054  30.650  31.469  1.00  0.00    -0.269 OA
BRANCH  35  38
ATOM     38  C   UNL A   1      37.828  30.187  29.991  1.00  0.00     0.039 A 
ATOM     39  C   UNL A   1      38.727  29.791  30.980  1.00  0.00     0.014 A 
ATOM     40  C   UNL A   1      38.222  30.293  28.654  1.00  0.00     0.014 A 
ATOM     41  C   UNL A   1      40.024  29.435  30.615  1.00  0.00     0.010 A 
ATOM     42  C   UNL A   1      39.489  29.864  28.284  1.00  0.00     0.010 A 
ATOM     43  C   UNL A   1      40.401  29.433  29.261  1.00  0.00    -0.014 A 
BRANCH  43  44
ATOM     44  C   UNL A   1      41.755  29.000  28.842  1.00  0.00     0.031 A 
ATOM     45  C   UNL A   1      42.870  30.006  28.795  1.00  0.00     0.074 A 
ATOM     46  C   UNL A   1      41.958  27.729  28.439  1.00  0.00     0.049 A 
ATOM     47  N   UNL A   1      44.102  29.852  28.388  1.00  0.00    -0.248 NA
ATOM     48  C   UNL A   1      42.548  31.377  29.228  1.00  0.00     0.031 C 
ATOM     49  C   UNL A   1      40.935  26.680  28.382  1.00  0.00     0.029 A 
ATOM     50  N   UNL A   1      43.094  27.105  27.989  1.00  0.00    -0.354 N 
ATOM     51  C   UNL A   1      44.692  31.106  28.488  1.00  0.00     0.074 A 
ATOM     52  C   UNL A   1      43.672  32.021  28.952  1.00  0.00     0.031 C 
ATOM     53  C   UNL A   1      41.496  25.540  27.947  1.00  0.00     0.029 A 
ATOM     54  C   UNL A   1      42.908  25.780  27.667  1.00  0.00     0.049 A 
ATOM     55  H   UNL A   1      43.961  27.563  27.904  1.00  0.00     0.167 HD
ATOM     56  C   UNL A   1      45.973  31.458  28.240  1.00  0.00     0.037 A 
ATOM     57  C   UNL A   1      43.781  24.868  27.198  1.00  0.00     0.037 A 
ATOM     58  C   UNL A   1      46.996  30.528  27.840  1.00  0.00     0.049 A 
ATOM     59  C   UNL A   1      45.212  25.278  26.971  1.00  0.00     0.074 A 
ATOM     60  C   UNL A   1      48.347  30.763  27.661  1.00  0.00     0.029 A 
ATOM     61  N   UNL A   1      46.780  29.187  27.567  1.00  0.00    -0.354 N 
ATOM     62  N   UNL A   1      45.772  26.450  27.154  1.00  0.00    -0.248 NA
ATOM     63  C   UNL A   1      46.131  24.242  26.480  1.00  0.00     0.031 C 
ATOM     64  C   UNL A   1      48.944  29.568  27.247  1.00  0.00     0.029 A 
ATOM     65  C   UNL A   1      47.970  28.583  27.204  1.00  0.00     0.049 A 
ATOM     66  H   UNL A   1      45.909  28.732  27.622  1.00  0.00     0.167 HD
ATOM     67  C   UNL A   1      47.114  26.283  26.832  1.00  0.00     0.074 A 
ATOM     68  C   UNL A   1      47.284  24.896  26.450  1.00  0.00     0.031 C 
ATOM     69  C   UNL A   1      48.117  27.195  26.850  1.00  0.00     0.037 A 
BRANCH  56  70
ATOM     70  C   UNL A   1      46.351  32.901  28.408  1.00  0.00     0.058 A 
ATOM     71  C   UNL A   1      46.835  33.396  29.629  1.00  0.00     0.135 A 
ATOM     72  C   UNL A   1      46.277  33.787  27.323  1.00  0.00     0.135 A 
ATOM     73  F   UNL A   1      46.906  32.596  30.705  1.00  0.00    -0.206 F 
ATOM     74  C   UNL A   1      47.218  34.726  29.772  1.00  0.00     0.059 A 
ATOM     75  C   UNL A   1      46.677  35.116  27.437  1.00  0.00     0.059 A 
ATOM     76  F   UNL A   1      45.814  33.365  26.135  1.00  0.00    -0.206 F 
ATOM     77  C   UNL A   1      47.138  35.578  28.669  1.00  0.00     0.060 A 
BRANCH  77  78
ATOM     78  S   UNL A   1      47.670  37.291  28.862  1.00  0.00     0.124 S 
ATOM     79  O   UNL A   1      47.912  37.678  27.475  1.00  0.00    -0.237 OA
ATOM     80  O   UNL A   1      46.512  37.910  29.499  1.00  0.00    -0.237 OA
ATOM     81  O   UNL A   1      48.860  37.185  29.700  1.00  0.00    -0.744 OA
ENDBRANCH  77  78
ENDBRANCH  56  70
BRANCH  57  82
ATOM     82  C   UNL A   1      43.347  23.470  26.938  1.00  0.00     0.058 A 
ATOM     83  C   UNL A   1      43.113  22.583  28.000  1.00  0.00     0.135 A 
ATOM     84  C   UNL A   1      43.182  22.984  25.633  1.00  0.00     0.135 A 
ATOM     85  F   UNL A   1      43.259  23.000  29.267  1.00  0.00    -0.206 F 
ATOM     86  C   UNL A   1      42.764  21.255  27.779  1.00  0.00     0.059 A 
ATOM     87  C   UNL A   1      42.812  21.665  25.386  1.00  0.00     0.059 A 
ATOM     88  F   UNL A   1      43.376  23.797  24.584  1.00  0.00    -0.206 F 
ATOM     89  C   UNL A   1      42.623  20.803  26.465  1.00  0.00     0.060 A 
BRANCH  89  90
ATOM     90  S   UNL A   1      42.158  19.081  26.185  1.00  0.00     0.124 S 
ATOM     91  O   UNL A   1      42.438  18.487  27.487  1.00  0.00    -0.237 OA
ATOM     92  O   UNL A   1      40.748  19.194  25.825  1.00  0.00    -0.237 OA
ATOM     93  O   UNL A   1      43.042  18.670  25.098  1.00  0.00    -0.744 OA
ENDBRANCH  89  90
ENDBRANCH  57  82
BRANCH  69  94
ATOM     94  C   UNL A   1      49.493  26.714  26.490  1.00  0.00     0.058 A 
ATOM     95  C   UNL A   1      50.350  26.156  27.448  1.00  0.00     0.135 A 
ATOM     96  C   UNL A   1      49.933  26.760  25.157  1.00  0.00     0.135 A 
ATOM     97  F   UNL A   1      49.978  26.097  28.737  1.00  0.00    -0.206 F 
ATOM     98  C   UNL A   1      51.609  25.676  27.102  1.00  0.00     0.059 A 
ATOM     99  C   UNL A   1      51.177  26.263  24.783  1.00  0.00     0.059 A 
ATOM    100  F   UNL A   1      49.143  27.274  24.201  1.00  0.00    -0.206 F 
ATOM    101  C   UNL A   1      52.012  25.732  25.766  1.00  0.00     0.060 A 
BRANCH 101 102
ATOM    102  S   UNL A   1      53.630  25.069  25.319  1.00  0.00     0.124 S 
ATOM    103  O   UNL A   1      53.361  23.635  25.286  1.00  0.00    -0.237 OA
ATOM    104  O   UNL A   1      53.883  25.698  24.026  1.00  0.00    -0.237 OA
ATOM    105  O   UNL A   1      54.493  25.522  26.407  1.00  0.00    -0.744 OA
ENDBRANCH 101 102
ENDBRANCH  69  94
ENDBRANCH  43  44
ENDBRANCH  35  38
ENDBRANCH  33  34
ENDBRANCH  32  33
ENDBRANCH  31  32
ENDBRANCH   1  31
TORSDOF 20
ENDMDL
