MODEL 1
REMARK VINA RESULT:     -13.6      0.000      0.000
REMARK SMILES Cc1ccc(-c2cc([C@@H](C)C(=O)NCCCCNC(=O)c3ccc(-c4c5nc(c(-c6c(F)cc(S(=O)(=O)[O-])cc6F)c6ccc([nH]6)c(-c6c(F)cc(S(=O)(=O)[O-])cc6F)c6nc(c(-c7c(F)cc(S(=O)(=O)[O-])cc7F)c7ccc4[nH]7)C=C6)C=C5)cc3)ccc2C[C@H]2CCCC2=O)cc1
REMARK SMILES IDX 15 1 14 2 13 3 11 4 12 5 9 7 10 8 8 9 6 10 7 11 89 12 88 13
REMARK SMILES IDX 87 14 5 15 1 16 2 17 3 18 98 19 4 20 97 21 90 22 91 23 92 24
REMARK SMILES IDX 95 25 93 26 94 27 96 28 16 29 17 30 18 31 19 32 20 34 21 35
REMARK SMILES IDX 22 36 86 37 23 38 85 39 24 40 25 41 26 42 79 43 27 44 84 45
REMARK SMILES IDX 78 46 80 47 28 48 83 49 77 50 76 51 29 53 63 54 42 55 62 56
REMARK SMILES IDX 43 57 46 58 61 59 81 60 44 61 45 62 60 64 82 65 47 66 30 67
REMARK SMILES IDX 31 68 40 69 32 70 33 71 39 72 41 73 34 74 35 75 36 76 37 77
REMARK SMILES IDX 38 78 64 79 65 80 74 81 66 82 67 83 73 84 75 85 68 86 69 87
REMARK SMILES IDX 70 88 71 89 72 90 48 91 49 92 58 93 50 94 51 95 57 96 59 97
REMARK SMILES IDX 52 98 53 99 54 100 55 101 56 102
REMARK H PARENT 13 6 18 33 80 52 46 63
REMARK Flexibility Score: inf
ROOT
ATOM      1  C   UNL A   1      36.772  22.254  23.854  1.00  0.00     0.023 C 
ENDROOT
BRANCH   1   2
ATOM      2  C   UNL A   1      35.311  22.690  23.667  1.00  0.00     0.116 C 
BRANCH   2   3
ATOM      3  N   UNL A   1      34.375  21.698  24.177  1.00  0.00    -0.356 N 
ATOM      4  C   UNL A   1      33.661  21.620  25.332  1.00  0.00     0.227 C 
ATOM      5  O   UNL A   1      33.029  20.571  25.517  1.00  0.00    -0.274 OA
ATOM      6  H   UNL A   1      34.230  20.939  23.568  1.00  0.00     0.163 HD
BRANCH   4   7
ATOM      7  C   UNL A   1      33.588  22.743  26.380  1.00  0.00     0.105 C 
ATOM      8  C   UNL A   1      33.409  22.238  27.811  1.00  0.00     0.023 C 
BRANCH   7   9
ATOM      9  C   UNL A   1      32.708  23.911  25.963  1.00  0.00    -0.035 A 
ATOM     10  C   UNL A   1      32.407  26.349  25.751  1.00  0.00    -0.015 A 
ATOM     11  C   UNL A   1      33.143  25.229  26.193  1.00  0.00     0.013 A 
ATOM     12  C   UNL A   1      31.282  26.132  24.922  1.00  0.00    -0.039 A 
ATOM     13  C   UNL A   1      30.799  24.825  24.774  1.00  0.00     0.004 A 
ATOM     14  C   UNL A   1      31.472  23.740  25.339  1.00  0.00     0.005 A 
BRANCH  10  15
ATOM     15  C   UNL A   1      32.747  27.684  26.273  1.00  0.00    -0.018 A 
ATOM     16  C   UNL A   1      33.951  31.540  27.824  1.00  0.00     0.044 C 
ATOM     17  C   UNL A   1      33.518  30.218  27.265  1.00  0.00    -0.051 A 
ATOM     18  C   UNL A   1      34.485  29.302  26.848  1.00  0.00     0.004 A 
ATOM     19  C   UNL A   1      32.165  29.870  27.166  1.00  0.00     0.004 A 
ATOM     20  C   UNL A   1      34.101  28.062  26.345  1.00  0.00     0.009 A 
ATOM     21  C   UNL A   1      31.783  28.616  26.672  1.00  0.00     0.009 A 
ENDBRANCH  10  15
BRANCH  12  22
ATOM     22  C   UNL A   1      30.577  27.249  24.176  1.00  0.00     0.047 C 
BRANCH  22  23
ATOM     23  C   UNL A   1      31.220  27.723  22.865  1.00  0.00     0.060 C 
ATOM     24  C   UNL A   1      32.210  28.892  22.926  1.00  0.00     0.012 C 
ATOM     25  C   UNL A   1      32.041  26.646  22.200  1.00  0.00     0.136 C 
ATOM     26  C   UNL A   1      33.602  28.269  22.904  1.00  0.00     0.009 C 
ATOM     27  C   UNL A   1      33.473  27.056  21.993  1.00  0.00     0.076 C 
ATOM     28  O   UNL A   1      31.572  25.581  21.822  1.00  0.00    -0.299 OA
ENDBRANCH  22  23
ENDBRANCH  12  22
ENDBRANCH   7   9
ENDBRANCH   4   7
ENDBRANCH   2   3
ENDBRANCH   1   2
BRANCH   1  29
ATOM     29  C   UNL A   1      37.554  23.099  24.855  1.00  0.00     0.023 C 
BRANCH  29  30
ATOM     30  C   UNL A   1      37.833  22.361  26.151  1.00  0.00     0.116 C 
BRANCH  30  31
ATOM     31  N   UNL A   1      39.238  22.106  26.427  1.00  0.00    -0.352 N 
ATOM     32  C   UNL A   1      40.240  23.055  26.586  1.00  0.00     0.251 C 
ATOM     33  H   UNL A   1      39.507  21.163  26.509  1.00  0.00     0.163 HD
ATOM     34  O   UNL A   1      41.423  22.762  26.555  1.00  0.00    -0.269 OA
BRANCH  32  35
ATOM     35  C   UNL A   1      39.806  24.436  26.908  1.00  0.00     0.039 A 
ATOM     36  C   UNL A   1      40.380  25.477  26.170  1.00  0.00     0.014 A 
ATOM     37  C   UNL A   1      39.130  24.692  28.095  1.00  0.00     0.014 A 
ATOM     38  C   UNL A   1      40.448  26.754  26.729  1.00  0.00     0.010 A 
ATOM     39  C   UNL A   1      39.309  25.921  28.699  1.00  0.00     0.010 A 
ATOM     40  C   UNL A   1      40.000  26.947  28.035  1.00  0.00    -0.014 A 
BRANCH  40  41
ATOM     41  C   UNL A   1      40.271  28.146  28.826  1.00  0.00     0.031 A 
ATOM     42  C   UNL A   1      39.261  29.235  28.904  1.00  0.00     0.074 A 
ATOM     43  C   UNL A   1      41.409  28.264  29.550  1.00  0.00     0.049 A 
ATOM     44  N   UNL A   1      39.531  30.448  29.254  1.00  0.00    -0.248 NA
ATOM     45  C   UNL A   1      37.855  29.050  28.553  1.00  0.00     0.031 C 
ATOM     46  C   UNL A   1      41.660  29.212  30.634  1.00  0.00     0.029 A 
ATOM     47  N   UNL A   1      42.644  27.666  29.345  1.00  0.00    -0.354 N 
ATOM     48  C   UNL A   1      38.344  31.121  29.420  1.00  0.00     0.074 A 
ATOM     49  C   UNL A   1      37.328  30.214  28.943  1.00  0.00     0.031 C 
ATOM     50  C   UNL A   1      42.981  29.308  30.840  1.00  0.00     0.029 A 
ATOM     51  C   UNL A   1      43.642  28.534  29.807  1.00  0.00     0.049 A 
ATOM     52  H   UNL A   1      42.795  26.781  28.942  1.00  0.00     0.167 HD
ATOM     53  C   UNL A   1      38.333  32.334  30.043  1.00  0.00     0.037 A 
ATOM     54  C   UNL A   1      44.619  29.024  28.986  1.00  0.00     0.037 A 
ATOM     55  C   UNL A   1      39.680  32.762  30.401  1.00  0.00     0.049 A 
ATOM     56  C   UNL A   1      44.609  30.529  28.832  1.00  0.00     0.074 A 
ATOM     57  C   UNL A   1      40.415  32.671  31.573  1.00  0.00     0.029 A 
ATOM     58  N   UNL A   1      40.575  33.118  29.402  1.00  0.00    -0.354 N 
ATOM     59  N   UNL A   1      43.623  31.296  29.204  1.00  0.00    -0.248 NA
ATOM     60  C   UNL A   1      45.700  31.289  28.229  1.00  0.00     0.031 C 
ATOM     61  C   UNL A   1      41.769  32.947  31.266  1.00  0.00     0.029 A 
ATOM     62  C   UNL A   1      41.856  33.215  29.911  1.00  0.00     0.049 A 
ATOM     63  H   UNL A   1      40.331  33.278  28.461  1.00  0.00     0.167 HD
ATOM     64  C   UNL A   1      43.889  32.599  28.857  1.00  0.00     0.074 A 
ATOM     65  C   UNL A   1      45.222  32.545  28.291  1.00  0.00     0.031 C 
ATOM     66  C   UNL A   1      42.971  33.595  29.055  1.00  0.00     0.037 A 
BRANCH  53  67
ATOM     67  C   UNL A   1      37.075  32.999  30.553  1.00  0.00     0.058 A 
ATOM     68  C   UNL A   1      36.234  33.726  29.682  1.00  0.00     0.135 A 
ATOM     69  C   UNL A   1      36.664  32.988  31.900  1.00  0.00     0.135 A 
ATOM     70  F   UNL A   1      36.454  33.765  28.362  1.00  0.00    -0.206 F 
ATOM     71  C   UNL A   1      35.140  34.470  30.127  1.00  0.00     0.059 A 
ATOM     72  C   UNL A   1      35.608  33.770  32.380  1.00  0.00     0.059 A 
ATOM     73  F   UNL A   1      37.259  32.188  32.797  1.00  0.00    -0.206 F 
ATOM     74  C   UNL A   1      34.855  34.517  31.485  1.00  0.00     0.060 A 
BRANCH  74  75
ATOM     75  S   UNL A   1      33.509  35.575  32.050  1.00  0.00     0.124 S 
ATOM     76  O   UNL A   1      34.223  36.632  32.763  1.00  0.00    -0.237 OA
ATOM     77  O   UNL A   1      32.883  35.969  30.793  1.00  0.00    -0.237 OA
ATOM     78  O   UNL A   1      32.716  34.689  32.898  1.00  0.00    -0.744 OA
ENDBRANCH  74  75
ENDBRANCH  53  67
BRANCH  54  79
ATOM     79  C   UNL A   1      45.057  28.050  27.952  1.00  0.00     0.058 A 
ATOM     80  C   UNL A   1      44.508  28.198  26.664  1.00  0.00     0.135 A 
ATOM     81  C   UNL A   1      46.276  27.368  28.071  1.00  0.00     0.135 A 
ATOM     82  F   UNL A   1      43.330  28.823  26.503  1.00  0.00    -0.206 F 
ATOM     83  C   UNL A   1      45.230  27.864  25.527  1.00  0.00     0.059 A 
ATOM     84  C   UNL A   1      47.014  27.017  26.940  1.00  0.00     0.059 A 
ATOM     85  F   UNL A   1      46.837  27.192  29.276  1.00  0.00    -0.206 F 
ATOM     86  C   UNL A   1      46.516  27.349  25.681  1.00  0.00     0.060 A 
BRANCH  86  87
ATOM     87  S   UNL A   1      47.591  27.343  24.227  1.00  0.00     0.124 S 
ATOM     88  O   UNL A   1      47.682  25.920  23.923  1.00  0.00    -0.237 OA
ATOM     89  O   UNL A   1      46.802  28.145  23.292  1.00  0.00    -0.237 OA
ATOM     90  O   UNL A   1      48.814  27.966  24.717  1.00  0.00    -0.744 OA
ENDBRANCH  86  87
ENDBRANCH  54  79
BRANCH  66  91
ATOM     91  C   UNL A   1      43.039  35.027  28.554  1.00  0.00     0.058 A 
ATOM     92  C   UNL A   1      42.909  35.414  27.210  1.00  0.00     0.135 A 
ATOM     93  C   UNL A   1      43.111  36.103  29.481  1.00  0.00     0.135 A 
ATOM     94  F   UNL A   1      42.714  34.514  26.238  1.00  0.00    -0.206 F 
ATOM     95  C   UNL A   1      42.918  36.753  26.807  1.00  0.00     0.059 A 
ATOM     96  C   UNL A   1      43.060  37.444  29.106  1.00  0.00     0.059 A 
ATOM     97  F   UNL A   1      43.218  35.889  30.801  1.00  0.00    -0.206 F 
ATOM     98  C   UNL A   1      42.991  37.763  27.760  1.00  0.00     0.060 A 
BRANCH  98  99
ATOM     99  S   UNL A   1      42.923  39.491  27.252  1.00  0.00     0.124 S 
ATOM    100  O   UNL A   1      44.123  39.600  26.429  1.00  0.00    -0.237 OA
ATOM    101  O   UNL A   1      41.657  39.568  26.531  1.00  0.00    -0.237 OA
ATOM    102  O   UNL A   1      42.957  40.213  28.520  1.00  0.00    -0.744 OA
ENDBRANCH  98  99
ENDBRANCH  66  91
ENDBRANCH  40  41
ENDBRANCH  32  35
ENDBRANCH  30  31
ENDBRANCH  29  30
ENDBRANCH   1  29
TORSDOF 18
ENDMDL
MODEL 2
REMARK VINA RESULT:     -13.5      1.275      2.031
REMARK SMILES Cc1ccc(-c2cc([C@@H](C)C(=O)NCCCCNC(=O)c3ccc(-c4c5nc(c(-c6c(F)cc(S(=O)(=O)[O-])cc6F)c6ccc([nH]6)c(-c6c(F)cc(S(=O)(=O)[O-])cc6F)c6nc(c(-c7c(F)cc(S(=O)(=O)[O-])cc7F)c7ccc4[nH]7)C=C6)C=C5)cc3)ccc2C[C@H]2CCCC2=O)cc1
REMARK SMILES IDX 15 1 14 2 13 3 11 4 12 5 9 7 10 8 8 9 6 10 7 11 89 12 88 13
REMARK SMILES IDX 87 14 5 15 1 16 2 17 3 18 98 19 4 20 97 21 90 22 91 23 92 24
REMARK SMILES IDX 95 25 93 26 94 27 96 28 16 29 17 30 18 31 19 32 20 34 21 35
REMARK SMILES IDX 22 36 86 37 23 38 85 39 24 40 25 41 26 42 79 43 27 44 84 45
REMARK SMILES IDX 78 46 80 47 28 48 83 49 77 50 76 51 29 53 63 54 42 55 62 56
REMARK SMILES IDX 43 57 46 58 61 59 81 60 44 61 45 62 60 64 82 65 47 66 30 67
REMARK SMILES IDX 31 68 40 69 32 70 33 71 39 72 41 73 34 74 35 75 36 76 37 77
REMARK SMILES IDX 38 78 64 79 65 80 74 81 66 82 67 83 73 84 75 85 68 86 69 87
REMARK SMILES IDX 70 88 71 89 72 90 48 91 49 92 58 93 50 94 51 95 57 96 59 97
REMARK SMILES IDX 52 98 53 99 54 100 55 101 56 102
REMARK H PARENT 13 6 18 33 80 52 46 63
REMARK Flexibility Score: inf
ROOT
ATOM      1  C   UNL A   1      36.364  21.981  24.693  1.00  0.00     0.023 C 
ENDROOT
BRANCH   1   2
ATOM      2  C   UNL A   1      35.741  20.667  25.188  1.00  0.00     0.116 C 
BRANCH   2   3
ATOM      3  N   UNL A   1      34.319  20.588  24.885  1.00  0.00    -0.356 N 
ATOM      4  C   UNL A   1      33.239  21.250  25.378  1.00  0.00     0.227 C 
ATOM      5  O   UNL A   1      32.130  20.862  24.983  1.00  0.00    -0.274 OA
ATOM      6  H   UNL A   1      34.098  19.928  24.189  1.00  0.00     0.163 HD
BRANCH   4   7
ATOM      7  C   UNL A   1      33.322  22.432  26.357  1.00  0.00     0.105 C 
ATOM      8  C   UNL A   1      33.221  22.022  27.826  1.00  0.00     0.023 C 
BRANCH   7   9
ATOM      9  C   UNL A   1      32.493  23.635  25.936  1.00  0.00    -0.035 A 
ATOM     10  C   UNL A   1      32.302  26.081  25.702  1.00  0.00    -0.015 A 
ATOM     11  C   UNL A   1      32.989  24.933  26.150  1.00  0.00     0.013 A 
ATOM     12  C   UNL A   1      31.163  25.909  24.883  1.00  0.00    -0.039 A 
ATOM     13  C   UNL A   1      30.620  24.623  24.751  1.00  0.00     0.004 A 
ATOM     14  C   UNL A   1      31.246  23.515  25.321  1.00  0.00     0.005 A 
BRANCH  10  15
ATOM     15  C   UNL A   1      32.705  27.405  26.210  1.00  0.00    -0.018 A 
ATOM     16  C   UNL A   1      33.680  31.347  27.706  1.00  0.00     0.044 C 
ATOM     17  C   UNL A   1      33.361  29.969  27.208  1.00  0.00    -0.051 A 
ATOM     18  C   UNL A   1      32.041  29.518  27.240  1.00  0.00     0.004 A 
ATOM     19  C   UNL A   1      34.355  29.126  26.693  1.00  0.00     0.004 A 
ATOM     20  C   UNL A   1      31.724  28.249  26.763  1.00  0.00     0.009 A 
ATOM     21  C   UNL A   1      34.030  27.855  26.202  1.00  0.00     0.009 A 
ENDBRANCH  10  15
BRANCH  12  22
ATOM     22  C   UNL A   1      30.504  27.050  24.131  1.00  0.00     0.047 C 
BRANCH  22  23
ATOM     23  C   UNL A   1      31.153  27.476  22.807  1.00  0.00     0.060 C 
ATOM     24  C   UNL A   1      31.726  28.894  22.706  1.00  0.00     0.012 C 
ATOM     25  C   UNL A   1      32.346  26.625  22.447  1.00  0.00     0.136 C 
ATOM     26  C   UNL A   1      33.229  28.759  22.925  1.00  0.00     0.009 C 
ATOM     27  C   UNL A   1      33.601  27.433  22.276  1.00  0.00     0.076 C 
ATOM     28  O   UNL A   1      32.278  25.417  22.260  1.00  0.00    -0.299 OA
ENDBRANCH  22  23
ENDBRANCH  12  22
ENDBRANCH   7   9
ENDBRANCH   4   7
ENDBRANCH   2   3
ENDBRANCH   1   2
BRANCH   1  29
ATOM     29  C   UNL A   1      36.914  22.871  25.803  1.00  0.00     0.023 C 
BRANCH  29  30
ATOM     30  C   UNL A   1      38.280  23.442  25.472  1.00  0.00     0.116 C 
BRANCH  30  31
ATOM     31  N   UNL A   1      39.357  23.019  26.352  1.00  0.00    -0.352 N 
ATOM     32  C   UNL A   1      40.199  23.839  27.092  1.00  0.00     0.251 C 
ATOM     33  H   UNL A   1      39.505  22.049  26.431  1.00  0.00     0.163 HD
ATOM     34  O   UNL A   1      41.231  23.428  27.595  1.00  0.00    -0.269 OA
BRANCH  32  35
ATOM     35  C   UNL A   1      39.730  25.224  27.341  1.00  0.00     0.039 A 
ATOM     36  C   UNL A   1      40.353  26.251  26.623  1.00  0.00     0.014 A 
ATOM     37  C   UNL A   1      38.961  25.505  28.464  1.00  0.00     0.014 A 
ATOM     38  C   UNL A   1      40.368  27.542  27.151  1.00  0.00     0.010 A 
ATOM     39  C   UNL A   1      39.083  26.752  29.046  1.00  0.00     0.010 A 
ATOM     40  C   UNL A   1      39.816  27.766  28.411  1.00  0.00    -0.014 A 
BRANCH  40  41
ATOM     41  C   UNL A   1      40.016  28.988  29.189  1.00  0.00     0.031 A 
ATOM     42  C   UNL A   1      38.954  30.029  29.229  1.00  0.00     0.074 A 
ATOM     43  C   UNL A   1      41.132  29.170  29.931  1.00  0.00     0.049 A 
ATOM     44  N   UNL A   1      39.160  31.259  29.565  1.00  0.00    -0.248 NA
ATOM     45  C   UNL A   1      37.566  29.773  28.855  1.00  0.00     0.031 C 
ATOM     46  C   UNL A   1      41.317  30.145  31.005  1.00  0.00     0.029 A 
ATOM     47  N   UNL A   1      42.398  28.628  29.759  1.00  0.00    -0.354 N 
ATOM     48  C   UNL A   1      37.940  31.878  29.698  1.00  0.00     0.074 A 
ATOM     49  C   UNL A   1      36.977  30.916  29.217  1.00  0.00     0.031 C 
ATOM     50  C   UNL A   1      42.628  30.306  31.235  1.00  0.00     0.029 A 
ATOM     51  C   UNL A   1      43.345  29.549  30.227  1.00  0.00     0.049 A 
ATOM     52  H   UNL A   1      42.598  27.745  29.374  1.00  0.00     0.167 HD
ATOM     53  C   UNL A   1      37.860  33.098  30.302  1.00  0.00     0.037 A 
ATOM     54  C   UNL A   1      44.313  30.072  29.417  1.00  0.00     0.037 A 
ATOM     55  C   UNL A   1      39.178  33.594  30.679  1.00  0.00     0.049 A 
ATOM     56  C   UNL A   1      44.236  31.572  29.240  1.00  0.00     0.074 A 
ATOM     57  C   UNL A   1      39.893  33.555  31.866  1.00  0.00     0.029 A 
ATOM     58  N   UNL A   1      40.075  33.976  29.691  1.00  0.00    -0.354 N 
ATOM     59  N   UNL A   1      43.208  32.298  29.580  1.00  0.00    -0.248 NA
ATOM     60  C   UNL A   1      45.302  32.374  28.645  1.00  0.00     0.031 C 
ATOM     61  C   UNL A   1      41.238  33.889  31.580  1.00  0.00     0.029 A 
ATOM     62  C   UNL A   1      41.339  34.142  30.223  1.00  0.00     0.049 A 
ATOM     63  H   UNL A   1      39.842  34.111  28.744  1.00  0.00     0.167 HD
ATOM     64  C   UNL A   1      43.419  33.606  29.218  1.00  0.00     0.074 A 
ATOM     65  C   UNL A   1      44.765  33.607  28.679  1.00  0.00     0.031 C 
ATOM     66  C   UNL A   1      42.452  34.560  29.383  1.00  0.00     0.037 A 
BRANCH  53  67
ATOM     67  C   UNL A   1      36.562  33.710  30.777  1.00  0.00     0.058 A 
ATOM     68  C   UNL A   1      35.578  34.132  29.856  1.00  0.00     0.135 A 
ATOM     69  C   UNL A   1      36.245  33.943  32.129  1.00  0.00     0.135 A 
ATOM     70  F   UNL A   1      35.704  33.909  28.542  1.00  0.00    -0.206 F 
ATOM     71  C   UNL A   1      34.428  34.825  30.237  1.00  0.00     0.059 A 
ATOM     72  C   UNL A   1      35.130  34.686  32.533  1.00  0.00     0.059 A 
ATOM     73  F   UNL A   1      36.997  33.429  33.114  1.00  0.00    -0.206 F 
ATOM     74  C   UNL A   1      34.229  35.132  31.576  1.00  0.00     0.060 A 
BRANCH  74  75
ATOM     75  S   UNL A   1      32.797  36.128  32.032  1.00  0.00     0.124 S 
ATOM     76  O   UNL A   1      31.825  35.111  32.427  1.00  0.00    -0.237 OA
ATOM     77  O   UNL A   1      33.330  36.950  33.113  1.00  0.00    -0.237 OA
ATOM     78  O   UNL A   1      32.475  36.841  30.799  1.00  0.00    -0.744 OA
ENDBRANCH  74  75
ENDBRANCH  53  67
BRANCH  54  79
ATOM     79  C   UNL A   1      44.817  29.105  28.407  1.00  0.00     0.058 A 
ATOM     80  C   UNL A   1      45.729  28.131  28.855  1.00  0.00     0.135 A 
ATOM     81  C   UNL A   1      44.088  28.833  27.240  1.00  0.00     0.135 A 
ATOM     82  F   UNL A   1      46.466  28.357  29.954  1.00  0.00    -0.206 F 
ATOM     83  C   UNL A   1      45.772  26.865  28.290  1.00  0.00     0.059 A 
ATOM     84  C   UNL A   1      44.123  27.568  26.652  1.00  0.00     0.059 A 
ATOM     85  F   UNL A   1      43.212  29.731  26.765  1.00  0.00    -0.206 F 
ATOM     86  C   UNL A   1      44.903  26.573  27.240  1.00  0.00     0.060 A 
BRANCH  86  87
ATOM     87  S   UNL A   1      44.655  24.832  26.823  1.00  0.00     0.124 S 
ATOM     88  O   UNL A   1      45.945  24.471  26.246  1.00  0.00    -0.237 OA
ATOM     89  O   UNL A   1      44.365  24.267  28.140  1.00  0.00    -0.237 OA
ATOM     90  O   UNL A   1      43.534  24.871  25.891  1.00  0.00    -0.744 OA
ENDBRANCH  86  87
ENDBRANCH  54  79
BRANCH  66  91
ATOM     91  C   UNL A   1      42.463  35.987  28.861  1.00  0.00     0.058 A 
ATOM     92  C   UNL A   1      43.129  37.061  29.475  1.00  0.00     0.135 A 
ATOM     93  C   UNL A   1      41.882  36.288  27.599  1.00  0.00     0.135 A 
ATOM     94  F   UNL A   1      43.822  36.900  30.610  1.00  0.00    -0.206 F 
ATOM     95  C   UNL A   1      43.160  38.345  28.921  1.00  0.00     0.059 A 
ATOM     96  C   UNL A   1      41.954  37.544  27.000  1.00  0.00     0.059 A 
ATOM     97  F   UNL A   1      41.230  35.358  26.884  1.00  0.00    -0.206 F 
ATOM     98  C   UNL A   1      42.573  38.579  27.682  1.00  0.00     0.060 A 
BRANCH  98  99
ATOM     99  S   UNL A   1      42.679  40.212  26.927  1.00  0.00     0.124 S 
ATOM    100  O   UNL A   1      41.424  40.271  26.184  1.00  0.00    -0.237 OA
ATOM    101  O   UNL A   1      42.767  41.099  28.083  1.00  0.00    -0.237 OA
ATOM    102  O   UNL A   1      43.891  40.128  26.118  1.00  0.00    -0.744 OA
ENDBRANCH  98  99
ENDBRANCH  66  91
ENDBRANCH  40  41
ENDBRANCH  32  35
ENDBRANCH  30  31
ENDBRANCH  29  30
ENDBRANCH   1  29
TORSDOF 18
ENDMDL
MODEL 3
REMARK VINA RESULT:     -12.5      1.543      2.380
REMARK SMILES Cc1ccc(-c2cc([C@@H](C)C(=O)NCCCCNC(=O)c3ccc(-c4c5nc(c(-c6c(F)cc(S(=O)(=O)[O-])cc6F)c6ccc([nH]6)c(-c6c(F)cc(S(=O)(=O)[O-])cc6F)c6nc(c(-c7c(F)cc(S(=O)(=O)[O-])cc7F)c7ccc4[nH]7)C=C6)C=C5)cc3)ccc2C[C@H]2CCCC2=O)cc1
REMARK SMILES IDX 15 1 14 2 13 3 11 4 12 5 9 7 10 8 8 9 6 10 7 11 89 12 88 13
REMARK SMILES IDX 87 14 5 15 1 16 2 17 3 18 98 19 4 20 97 21 90 22 91 23 92 24
REMARK SMILES IDX 95 25 93 26 94 27 96 28 16 29 17 30 18 31 19 32 20 34 21 35
REMARK SMILES IDX 22 36 86 37 23 38 85 39 24 40 25 41 26 42 79 43 27 44 84 45
REMARK SMILES IDX 78 46 80 47 28 48 83 49 77 50 76 51 29 53 63 54 42 55 62 56
REMARK SMILES IDX 43 57 46 58 61 59 81 60 44 61 45 62 60 64 82 65 47 66 30 67
REMARK SMILES IDX 31 68 40 69 32 70 33 71 39 72 41 73 34 74 35 75 36 76 37 77
REMARK SMILES IDX 38 78 64 79 65 80 74 81 66 82 67 83 73 84 75 85 68 86 69 87
REMARK SMILES IDX 70 88 71 89 72 90 48 91 49 92 58 93 50 94 51 95 57 96 59 97
REMARK SMILES IDX 52 98 53 99 54 100 55 101 56 102
REMARK H PARENT 13 6 18 33 80 52 46 63
REMARK Flexibility Score: inf
ROOT
ATOM      1  C   UNL A   1      36.209  20.737  25.123  1.00  0.00     0.023 C 
ENDROOT
BRANCH   1   2
ATOM      2  C   UNL A   1      34.745  20.824  24.666  1.00  0.00     0.116 C 
BRANCH   2   3
ATOM      3  N   UNL A   1      34.497  22.003  23.848  1.00  0.00    -0.356 N 
ATOM      4  C   UNL A   1      33.598  23.018  23.952  1.00  0.00     0.227 C 
ATOM      5  O   UNL A   1      33.570  23.826  23.013  1.00  0.00    -0.274 OA
ATOM      6  H   UNL A   1      35.096  22.080  23.071  1.00  0.00     0.163 HD
BRANCH   4   7
ATOM      7  C   UNL A   1      32.655  23.218  25.150  1.00  0.00     0.105 C 
ATOM      8  C   UNL A   1      31.811  21.987  25.480  1.00  0.00     0.023 C 
BRANCH   7   9
ATOM      9  C   UNL A   1      31.924  24.551  25.138  1.00  0.00    -0.035 A 
ATOM     10  C   UNL A   1      32.010  27.001  25.397  1.00  0.00    -0.015 A 
ATOM     11  C   UNL A   1      32.615  25.729  25.475  1.00  0.00     0.013 A 
ATOM     12  C   UNL A   1      30.724  27.102  24.818  1.00  0.00    -0.039 A 
ATOM     13  C   UNL A   1      30.004  25.924  24.571  1.00  0.00     0.004 A 
ATOM     14  C   UNL A   1      30.579  24.671  24.787  1.00  0.00     0.005 A 
BRANCH  10  15
ATOM     15  C   UNL A   1      32.669  28.151  26.039  1.00  0.00    -0.018 A 
ATOM     16  C   UNL A   1      34.430  31.650  27.880  1.00  0.00     0.044 C 
ATOM     17  C   UNL A   1      33.829  30.422  27.266  1.00  0.00    -0.051 A 
ATOM     18  C   UNL A   1      32.471  30.413  26.942  1.00  0.00     0.004 A 
ATOM     19  C   UNL A   1      34.599  29.284  26.992  1.00  0.00     0.004 A 
ATOM     20  C   UNL A   1      31.900  29.288  26.353  1.00  0.00     0.009 A 
ATOM     21  C   UNL A   1      34.025  28.159  26.387  1.00  0.00     0.009 A 
ENDBRANCH  10  15
BRANCH  12  22
ATOM     22  C   UNL A   1      30.088  28.427  24.440  1.00  0.00     0.047 C 
BRANCH  22  23
ATOM     23  C   UNL A   1      29.367  28.491  23.086  1.00  0.00     0.060 C 
ATOM     24  C   UNL A   1      27.853  28.727  23.084  1.00  0.00     0.012 C 
ATOM     25  C   UNL A   1      29.866  29.619  22.217  1.00  0.00     0.136 C 
ATOM     26  C   UNL A   1      27.657  30.212  22.794  1.00  0.00     0.009 C 
ATOM     27  C   UNL A   1      28.772  30.570  21.821  1.00  0.00     0.076 C 
ATOM     28  O   UNL A   1      31.025  29.710  21.834  1.00  0.00    -0.299 OA
ENDBRANCH  22  23
ENDBRANCH  12  22
ENDBRANCH   7   9
ENDBRANCH   4   7
ENDBRANCH   2   3
ENDBRANCH   1   2
BRANCH   1  29
ATOM     29  C   UNL A   1      36.688  21.944  25.924  1.00  0.00     0.023 C 
BRANCH  29  30
ATOM     30  C   UNL A   1      37.965  22.546  25.366  1.00  0.00     0.116 C 
BRANCH  30  31
ATOM     31  N   UNL A   1      39.193  22.069  25.981  1.00  0.00    -0.352 N 
ATOM     32  C   UNL A   1      40.223  22.847  26.494  1.00  0.00     0.251 C 
ATOM     33  H   UNL A   1      39.306  21.093  26.040  1.00  0.00     0.163 HD
ATOM     34  O   UNL A   1      41.321  22.383  26.751  1.00  0.00    -0.269 OA
BRANCH  32  35
ATOM     35  C   UNL A   1      39.896  24.255  26.820  1.00  0.00     0.039 A 
ATOM     36  C   UNL A   1      40.566  25.253  26.104  1.00  0.00     0.014 A 
ATOM     37  C   UNL A   1      39.220  24.556  27.998  1.00  0.00     0.014 A 
ATOM     38  C   UNL A   1      40.727  26.515  26.676  1.00  0.00     0.010 A 
ATOM     39  C   UNL A   1      39.487  25.761  28.616  1.00  0.00     0.010 A 
ATOM     40  C   UNL A   1      40.271  26.734  27.975  1.00  0.00    -0.014 A 
BRANCH  40  41
ATOM     41  C   UNL A   1      40.624  27.900  28.783  1.00  0.00     0.031 A 
ATOM     42  C   UNL A   1      39.646  29.005  28.965  1.00  0.00     0.074 A 
ATOM     43  C   UNL A   1      41.811  27.971  29.428  1.00  0.00     0.049 A 
ATOM     44  N   UNL A   1      39.966  30.201  29.334  1.00  0.00    -0.248 NA
ATOM     45  C   UNL A   1      38.215  28.860  28.709  1.00  0.00     0.031 C 
ATOM     46  C   UNL A   1      42.157  28.877  30.521  1.00  0.00     0.029 A 
ATOM     47  N   UNL A   1      43.016  27.356  29.118  1.00  0.00    -0.354 N 
ATOM     48  C   UNL A   1      38.808  30.892  29.604  1.00  0.00     0.074 A 
ATOM     49  C   UNL A   1      37.742  30.021  29.171  1.00  0.00     0.031 C 
ATOM     50  C   UNL A   1      43.492  28.940  30.637  1.00  0.00     0.029 A 
ATOM     51  C   UNL A   1      44.062  28.188  29.537  1.00  0.00     0.049 A 
ATOM     52  H   UNL A   1      43.118  26.481  28.678  1.00  0.00     0.167 HD
ATOM     53  C   UNL A   1      38.868  32.083  30.264  1.00  0.00     0.037 A 
ATOM     54  C   UNL A   1      44.990  28.685  28.665  1.00  0.00     0.037 A 
ATOM     55  C   UNL A   1      40.246  32.472  30.540  1.00  0.00     0.049 A 
ATOM     56  C   UNL A   1      45.003  30.194  28.560  1.00  0.00     0.074 A 
ATOM     57  C   UNL A   1      41.058  32.328  31.654  1.00  0.00     0.029 A 
ATOM     58  N   UNL A   1      41.077  32.843  29.492  1.00  0.00    -0.354 N 
ATOM     59  N   UNL A   1      44.062  30.969  29.023  1.00  0.00    -0.248 NA
ATOM     60  C   UNL A   1      46.066  30.952  27.905  1.00  0.00     0.031 C 
ATOM     61  C   UNL A   1      42.393  32.586  31.261  1.00  0.00     0.029 A 
ATOM     62  C   UNL A   1      42.392  32.898  29.913  1.00  0.00     0.049 A 
ATOM     63  H   UNL A   1      40.772  33.038  28.577  1.00  0.00     0.167 HD
ATOM     64  C   UNL A   1      44.332  32.276  28.700  1.00  0.00     0.074 A 
ATOM     65  C   UNL A   1      45.622  32.214  28.041  1.00  0.00     0.031 C 
ATOM     66  C   UNL A   1      43.453  33.283  28.994  1.00  0.00     0.037 A 
BRANCH  53  67
ATOM     67  C   UNL A   1      37.663  32.756  30.882  1.00  0.00     0.058 A 
ATOM     68  C   UNL A   1      37.186  32.366  32.152  1.00  0.00     0.135 A 
ATOM     69  C   UNL A   1      36.912  33.768  30.253  1.00  0.00     0.135 A 
ATOM     70  F   UNL A   1      37.838  31.469  32.903  1.00  0.00    -0.206 F 
ATOM     71  C   UNL A   1      36.002  32.858  32.703  1.00  0.00     0.059 A 
ATOM     72  C   UNL A   1      35.694  34.236  30.756  1.00  0.00     0.059 A 
ATOM     73  F   UNL A   1      37.355  34.363  29.135  1.00  0.00    -0.206 F 
ATOM     74  C   UNL A   1      35.240  33.767  31.981  1.00  0.00     0.060 A 
BRANCH  74  75
ATOM     75  S   UNL A   1      33.658  34.302  32.660  1.00  0.00     0.124 S 
ATOM     76  O   UNL A   1      33.138  33.068  33.246  1.00  0.00    -0.237 OA
ATOM     77  O   UNL A   1      34.066  35.332  33.608  1.00  0.00    -0.237 OA
ATOM     78  O   UNL A   1      32.931  34.779  31.486  1.00  0.00    -0.744 OA
ENDBRANCH  74  75
ENDBRANCH  53  67
BRANCH  54  79
ATOM     79  C   UNL A   1      45.333  27.737  27.572  1.00  0.00     0.058 A 
ATOM     80  C   UNL A   1      46.205  26.682  27.894  1.00  0.00     0.135 A 
ATOM     81  C   UNL A   1      44.490  27.577  26.463  1.00  0.00     0.135 A 
ATOM     82  F   UNL A   1      47.048  26.799  28.933  1.00  0.00    -0.206 F 
ATOM     83  C   UNL A   1      46.107  25.445  27.272  1.00  0.00     0.059 A 
ATOM     84  C   UNL A   1      44.381  26.344  25.818  1.00  0.00     0.059 A 
ATOM     85  F   UNL A   1      43.646  28.557  26.108  1.00  0.00    -0.206 F 
ATOM     86  C   UNL A   1      45.133  25.268  26.291  1.00  0.00     0.060 A 
BRANCH  86  87
ATOM     87  S   UNL A   1      44.723  23.572  25.820  1.00  0.00     0.124 S 
ATOM     88  O   UNL A   1      45.906  23.170  25.069  1.00  0.00    -0.237 OA
ATOM     89  O   UNL A   1      44.559  22.949  27.132  1.00  0.00    -0.237 OA
ATOM     90  O   UNL A   1      43.501  23.731  25.039  1.00  0.00    -0.744 OA
ENDBRANCH  86  87
ENDBRANCH  54  79
BRANCH  66  91
ATOM     91  C   UNL A   1      43.518  34.729  28.535  1.00  0.00     0.058 A 
ATOM     92  C   UNL A   1      43.369  35.157  27.205  1.00  0.00     0.135 A 
ATOM     93  C   UNL A   1      43.607  35.777  29.492  1.00  0.00     0.135 A 
ATOM     94  F   UNL A   1      43.157  34.287  26.209  1.00  0.00    -0.206 F 
ATOM     95  C   UNL A   1      43.375  36.507  26.841  1.00  0.00     0.059 A 
ATOM     96  C   UNL A   1      43.555  37.129  29.158  1.00  0.00     0.059 A 
ATOM     97  F   UNL A   1      43.733  35.524  30.803  1.00  0.00    -0.206 F 
ATOM     98  C   UNL A   1      43.466  37.489  27.823  1.00  0.00     0.060 A 
BRANCH  98  99
ATOM     99  S   UNL A   1      43.396  39.231  27.368  1.00  0.00     0.124 S 
ATOM    100  O   UNL A   1      41.971  39.406  27.103  1.00  0.00    -0.237 OA
ATOM    101  O   UNL A   1      43.900  39.899  28.563  1.00  0.00    -0.237 OA
ATOM    102  O   UNL A   1      44.271  39.307  26.202  1.00  0.00    -0.744 OA
ENDBRANCH  98  99
ENDBRANCH  66  91
ENDBRANCH  40  41
ENDBRANCH  32  35
ENDBRANCH  30  31
ENDBRANCH  29  30
ENDBRANCH   1  29
TORSDOF 18
ENDMDL
