MODEL 1
REMARK VINA RESULT:      -9.5      0.000      0.000
REMARK SMILES O=C(NCCCCNC(=O)c1ccccc1NC(=O)c1ccc(N2C(=O)[C@H]3CC=CC[C@H]3C2=O)cc1)c1ccc(-c2c3nc(c(-c4c(F)cc(S(=O)(=O)[O-])cc4F)c4ccc([nH]4)c(-c4c(F)cc(S(=O)(=O)[O-])cc4F)c4nc(c(-c5c(F)cc(S(=O)(=O)[O-])cc5F)c5ccc2[nH]5)C=C4)C=C3)cc1
REMARK SMILES IDX 5 1 4 2 3 3 1 4 2 5 37 7 38 8 102 9 39 10 101 11 40 12 41 13
REMARK SMILES IDX 42 14 95 15 43 16 100 17 94 18 96 19 44 20 99 21 93 22 92 23
REMARK SMILES IDX 45 25 79 26 58 27 78 28 59 29 62 30 77 31 97 32 60 33 61 34
REMARK SMILES IDX 76 36 98 37 63 38 46 39 47 40 56 41 48 42 49 43 55 44 57 45
REMARK SMILES IDX 50 46 51 47 52 48 53 49 54 50 80 51 81 52 90 53 82 54 83 55
REMARK SMILES IDX 89 56 91 57 84 58 85 59 86 60 87 61 88 62 64 63 65 64 74 65
REMARK SMILES IDX 66 66 67 67 73 68 75 69 68 70 69 71 70 72 71 73 72 74 6 75
REMARK SMILES IDX 7 76 8 77 9 78 10 80 11 81 12 82 16 83 13 84 15 85 14 86
REMARK SMILES IDX 17 87 18 88 19 90 20 91 21 92 36 93 22 94 35 95 23 96 24 97
REMARK SMILES IDX 25 98 33 99 26 100 27 101 32 102 34 103 28 104 31 105 29 106
REMARK SMILES IDX 30 107
REMARK H PARENT 3 6 96 24 62 35 8 79 17 89
REMARK Flexibility Score: inf
ROOT
ATOM      1  C   UNL A   1      44.463  25.976  25.088  1.00  0.00     0.023 C 
ENDROOT
BRANCH   1   2
ATOM      2  C   UNL A   1      42.990  26.294  25.299  1.00  0.00     0.116 C 
BRANCH   2   3
ATOM      3  N   UNL A   1      42.161  25.108  25.456  1.00  0.00    -0.352 N 
ATOM      4  O   UNL A   1      40.772  23.673  26.509  1.00  0.00    -0.269 OA
ATOM      5  C   UNL A   1      41.294  24.785  26.476  1.00  0.00     0.251 C 
ATOM      6  H   UNL A   1      42.231  24.444  24.732  1.00  0.00     0.163 HD
BRANCH   5   7
ATOM      7  C   UNL A   1      41.024  25.768  27.548  1.00  0.00     0.039 A 
ATOM      8  C   UNL A   1      41.929  26.799  27.806  1.00  0.00     0.014 A 
ATOM      9  C   UNL A   1      39.870  25.640  28.327  1.00  0.00     0.014 A 
ATOM     10  C   UNL A   1      41.774  27.580  28.943  1.00  0.00     0.010 A 
ATOM     11  C   UNL A   1      39.663  26.499  29.413  1.00  0.00     0.010 A 
ATOM     12  C   UNL A   1      40.634  27.450  29.756  1.00  0.00    -0.014 A 
BRANCH  12  13
ATOM     13  C   UNL A   1      40.479  28.371  30.914  1.00  0.00     0.031 A 
ATOM     14  C   UNL A   1      41.393  28.301  32.107  1.00  0.00     0.074 A 
ATOM     15  C   UNL A   1      39.538  29.334  30.838  1.00  0.00     0.049 A 
ATOM     16  N   UNL A   1      41.438  29.088  33.154  1.00  0.00    -0.248 NA
ATOM     17  C   UNL A   1      42.378  27.209  32.143  1.00  0.00     0.031 C 
ATOM     18  C   UNL A   1      38.573  29.478  29.744  1.00  0.00     0.029 A 
ATOM     19  N   UNL A   1      39.259  30.389  31.666  1.00  0.00    -0.354 N 
ATOM     20  C   UNL A   1      42.441  28.585  33.974  1.00  0.00     0.074 A 
ATOM     21  C   UNL A   1      42.963  27.405  33.317  1.00  0.00     0.031 C 
ATOM     22  C   UNL A   1      37.856  30.595  29.934  1.00  0.00     0.029 A 
ATOM     23  C   UNL A   1      38.266  31.213  31.188  1.00  0.00     0.049 A 
ATOM     24  H   UNL A   1      39.724  30.543  32.520  1.00  0.00     0.167 HD
ATOM     25  C   UNL A   1      42.890  29.070  35.158  1.00  0.00     0.037 A 
ATOM     26  C   UNL A   1      37.737  32.337  31.703  1.00  0.00     0.037 A 
ATOM     27  C   UNL A   1      42.373  30.253  35.798  1.00  0.00     0.049 A 
ATOM     28  C   UNL A   1      38.272  32.864  33.001  1.00  0.00     0.074 A 
ATOM     29  C   UNL A   1      42.764  30.826  36.997  1.00  0.00     0.029 A 
ATOM     30  N   UNL A   1      41.358  31.053  35.290  1.00  0.00    -0.354 N 
ATOM     31  N   UNL A   1      39.227  32.374  33.755  1.00  0.00    -0.248 NA
ATOM     32  C   UNL A   1      37.660  34.094  33.519  1.00  0.00     0.031 C 
ATOM     33  C   UNL A   1      41.969  31.955  37.228  1.00  0.00     0.029 A 
ATOM     34  C   UNL A   1      41.107  32.109  36.153  1.00  0.00     0.049 A 
ATOM     35  H   UNL A   1      40.888  30.893  34.441  1.00  0.00     0.167 HD
ATOM     36  C   UNL A   1      39.325  33.233  34.843  1.00  0.00     0.074 A 
ATOM     37  C   UNL A   1      38.361  34.292  34.627  1.00  0.00     0.031 C 
ATOM     38  C   UNL A   1      40.131  33.144  35.929  1.00  0.00     0.037 A 
BRANCH  25  39
ATOM     39  C   UNL A   1      44.000  28.322  35.847  1.00  0.00     0.058 A 
ATOM     40  C   UNL A   1      45.348  28.657  35.644  1.00  0.00     0.135 A 
ATOM     41  C   UNL A   1      43.712  27.303  36.769  1.00  0.00     0.135 A 
ATOM     42  F   UNL A   1      45.681  29.614  34.763  1.00  0.00    -0.206 F 
ATOM     43  C   UNL A   1      46.372  28.000  36.320  1.00  0.00     0.059 A 
ATOM     44  C   UNL A   1      44.720  26.645  37.472  1.00  0.00     0.059 A 
ATOM     45  F   UNL A   1      42.441  26.942  37.002  1.00  0.00    -0.206 F 
ATOM     46  C   UNL A   1      46.047  26.995  37.234  1.00  0.00     0.060 A 
BRANCH  46  47
ATOM     47  S   UNL A   1      47.387  26.165  38.118  1.00  0.00     0.124 S 
ATOM     48  O   UNL A   1      47.049  26.466  39.506  1.00  0.00    -0.237 OA
ATOM     49  O   UNL A   1      47.216  24.773  37.713  1.00  0.00    -0.237 OA
ATOM     50  O   UNL A   1      48.587  26.819  37.607  1.00  0.00    -0.744 OA
ENDBRANCH  46  47
ENDBRANCH  25  39
BRANCH  26  51
ATOM     51  C   UNL A   1      36.630  33.023  30.988  1.00  0.00     0.058 A 
ATOM     52  C   UNL A   1      35.306  32.937  31.442  1.00  0.00     0.135 A 
ATOM     53  C   UNL A   1      36.885  33.804  29.850  1.00  0.00     0.135 A 
ATOM     54  F   UNL A   1      35.014  32.201  32.525  1.00  0.00    -0.206 F 
ATOM     55  C   UNL A   1      34.268  33.588  30.782  1.00  0.00     0.059 A 
ATOM     56  C   UNL A   1      35.870  34.486  29.190  1.00  0.00     0.059 A 
ATOM     57  F   UNL A   1      38.139  33.935  29.391  1.00  0.00    -0.206 F 
ATOM     58  C   UNL A   1      34.562  34.361  29.657  1.00  0.00     0.060 A 
BRANCH  58  59
ATOM     59  S   UNL A   1      33.223  35.246  28.829  1.00  0.00     0.124 S 
ATOM     60  O   UNL A   1      32.486  35.787  29.965  1.00  0.00    -0.237 OA
ATOM     61  O   UNL A   1      33.947  36.219  28.016  1.00  0.00    -0.237 OA
ATOM     62  O   UNL A   1      32.545  34.195  28.077  1.00  0.00    -0.744 OA
ENDBRANCH  58  59
ENDBRANCH  26  51
BRANCH  38  63
ATOM     63  C   UNL A   1      39.992  34.227  36.961  1.00  0.00     0.058 A 
ATOM     64  C   UNL A   1      39.154  34.069  38.075  1.00  0.00     0.135 A 
ATOM     65  C   UNL A   1      40.700  35.433  36.833  1.00  0.00     0.135 A 
ATOM     66  F   UNL A   1      38.452  32.937  38.237  1.00  0.00    -0.206 F 
ATOM     67  C   UNL A   1      38.991  35.086  39.010  1.00  0.00     0.059 A 
ATOM     68  C   UNL A   1      40.570  36.454  37.769  1.00  0.00     0.059 A 
ATOM     69  F   UNL A   1      41.522  35.628  35.790  1.00  0.00    -0.206 F 
ATOM     70  C   UNL A   1      39.698  36.279  38.843  1.00  0.00     0.060 A 
BRANCH  70  71
ATOM     71  S   UNL A   1      39.476  37.595  40.057  1.00  0.00     0.124 S 
ATOM     72  O   UNL A   1      38.963  36.852  41.203  1.00  0.00    -0.237 OA
ATOM     73  O   UNL A   1      40.827  38.127  40.200  1.00  0.00    -0.237 OA
ATOM     74  O   UNL A   1      38.521  38.492  39.412  1.00  0.00    -0.744 OA
ENDBRANCH  70  71
ENDBRANCH  38  63
ENDBRANCH  12  13
ENDBRANCH   5   7
ENDBRANCH   2   3
ENDBRANCH   1   2
BRANCH   1  75
ATOM     75  C   UNL A   1      45.419  27.159  25.218  1.00  0.00     0.023 C 
BRANCH  75  76
ATOM     76  C   UNL A   1      46.165  27.252  26.545  1.00  0.00     0.116 C 
BRANCH  76  77
ATOM     77  N   UNL A   1      47.161  26.203  26.705  1.00  0.00    -0.352 N 
ATOM     78  C   UNL A   1      47.212  25.180  27.613  1.00  0.00     0.253 C 
ATOM     79  H   UNL A   1      47.908  26.234  26.065  1.00  0.00     0.163 HD
ATOM     80  O   UNL A   1      48.204  24.460  27.677  1.00  0.00    -0.269 OA
BRANCH  78  81
ATOM     81  C   UNL A   1      46.079  24.928  28.525  1.00  0.00     0.063 A 
ATOM     82  C   UNL A   1      45.040  24.142  27.998  1.00  0.00     0.016 A 
ATOM     83  C   UNL A   1      46.002  25.476  29.823  1.00  0.00     0.054 A 
ATOM     84  C   UNL A   1      43.911  23.879  28.764  1.00  0.00     0.001 A 
ATOM     85  C   UNL A   1      44.824  25.248  30.542  1.00  0.00     0.027 A 
ATOM     86  C   UNL A   1      43.799  24.441  30.029  1.00  0.00     0.002 A 
BRANCH  83  87
ATOM     87  N   UNL A   1      47.097  26.228  30.320  1.00  0.00    -0.321 N 
ATOM     88  C   UNL A   1      47.305  27.564  30.569  1.00  0.00     0.255 C 
ATOM     89  H   UNL A   1      47.879  25.670  30.534  1.00  0.00     0.170 HD
ATOM     90  O   UNL A   1      48.390  27.953  30.995  1.00  0.00    -0.269 OA
BRANCH  88  91
ATOM     91  C   UNL A   1      46.251  28.562  30.355  1.00  0.00     0.040 A 
ATOM     92  C   UNL A   1      45.667  29.134  31.479  1.00  0.00     0.016 A 
ATOM     93  C   UNL A   1      45.888  28.981  29.075  1.00  0.00     0.016 A 
ATOM     94  C   UNL A   1      44.827  30.238  31.328  1.00  0.00     0.027 A 
ATOM     95  C   UNL A   1      45.035  30.084  28.933  1.00  0.00     0.027 A 
ATOM     96  C   UNL A   1      44.547  30.773  30.059  1.00  0.00     0.052 A 
BRANCH  96  97
ATOM     97  N   UNL A   1      43.886  32.030  29.923  1.00  0.00    -0.250 N 
ATOM     98  C   UNL A   1      42.517  32.172  29.873  1.00  0.00     0.238 C 
ATOM     99  C   UNL A   1      44.523  33.247  29.905  1.00  0.00     0.238 C 
ATOM    100  O   UNL A   1      41.656  31.300  29.849  1.00  0.00    -0.274 OA
ATOM    101  C   UNL A   1      42.156  33.637  29.903  1.00  0.00     0.096 C 
ATOM    102  C   UNL A   1      43.500  34.357  29.949  1.00  0.00     0.096 C 
ATOM    103  O   UNL A   1      45.724  33.476  29.823  1.00  0.00    -0.274 OA
ATOM    104  C   UNL A   1      41.205  33.909  31.074  1.00  0.00     0.041 C 
ATOM    105  C   UNL A   1      43.759  35.239  31.175  1.00  0.00     0.041 C 
ATOM    106  C   UNL A   1      41.919  34.110  32.376  1.00  0.00    -0.030 C 
ATOM    107  C   UNL A   1      43.107  34.725  32.422  1.00  0.00    -0.030 C 
ENDBRANCH  96  97
ENDBRANCH  88  91
ENDBRANCH  83  87
ENDBRANCH  78  81
ENDBRANCH  76  77
ENDBRANCH  75  76
ENDBRANCH   1  75
TORSDOF 17
ENDMDL
MODEL 2
REMARK VINA RESULT:      -9.5      5.575     13.689
REMARK SMILES O=C(NCCCCNC(=O)c1ccccc1NC(=O)c1ccc(N2C(=O)[C@H]3CC=CC[C@H]3C2=O)cc1)c1ccc(-c2c3nc(c(-c4c(F)cc(S(=O)(=O)[O-])cc4F)c4ccc([nH]4)c(-c4c(F)cc(S(=O)(=O)[O-])cc4F)c4nc(c(-c5c(F)cc(S(=O)(=O)[O-])cc5F)c5ccc2[nH]5)C=C4)C=C3)cc1
REMARK SMILES IDX 5 1 4 2 3 3 1 4 2 5 37 7 38 8 102 9 39 10 101 11 40 12 41 13
REMARK SMILES IDX 42 14 95 15 43 16 100 17 94 18 96 19 44 20 99 21 93 22 92 23
REMARK SMILES IDX 45 25 79 26 58 27 78 28 59 29 62 30 77 31 97 32 60 33 61 34
REMARK SMILES IDX 76 36 98 37 63 38 46 39 47 40 56 41 48 42 49 43 55 44 57 45
REMARK SMILES IDX 50 46 51 47 52 48 53 49 54 50 80 51 81 52 90 53 82 54 83 55
REMARK SMILES IDX 89 56 91 57 84 58 85 59 86 60 87 61 88 62 64 63 65 64 74 65
REMARK SMILES IDX 66 66 67 67 73 68 75 69 68 70 69 71 70 72 71 73 72 74 6 75
REMARK SMILES IDX 7 76 8 77 9 78 10 80 11 81 12 82 16 83 13 84 15 85 14 86
REMARK SMILES IDX 17 87 18 88 19 90 20 91 21 92 36 93 22 94 35 95 23 96 24 97
REMARK SMILES IDX 25 98 33 99 26 100 27 101 32 102 34 103 28 104 31 105 29 106
REMARK SMILES IDX 30 107
REMARK H PARENT 3 6 96 24 62 35 8 79 17 89
REMARK Flexibility Score: inf
ROOT
ATOM      1  C   UNL A   1      37.295  32.940  31.793  1.00  0.00     0.023 C 
ENDROOT
BRANCH   1   2
ATOM      2  C   UNL A   1      38.055  32.326  32.961  1.00  0.00     0.116 C 
BRANCH   2   3
ATOM      3  N   UNL A   1      37.440  31.111  33.473  1.00  0.00    -0.352 N 
ATOM      4  O   UNL A   1      36.999  28.900  33.589  1.00  0.00    -0.269 OA
ATOM      5  C   UNL A   1      37.712  29.800  33.152  1.00  0.00     0.251 C 
ATOM      6  H   UNL A   1      36.729  31.245  34.141  1.00  0.00     0.163 HD
BRANCH   5   7
ATOM      7  C   UNL A   1      38.843  29.485  32.252  1.00  0.00     0.039 A 
ATOM      8  C   UNL A   1      40.016  28.925  32.759  1.00  0.00     0.014 A 
ATOM      9  C   UNL A   1      38.743  29.782  30.888  1.00  0.00     0.014 A 
ATOM     10  C   UNL A   1      41.140  28.834  31.950  1.00  0.00     0.010 A 
ATOM     11  C   UNL A   1      39.848  29.589  30.051  1.00  0.00     0.010 A 
ATOM     12  C   UNL A   1      41.070  29.152  30.582  1.00  0.00    -0.014 A 
BRANCH  12  13
ATOM     13  C   UNL A   1      42.283  28.955  29.744  1.00  0.00     0.031 A 
ATOM     14  C   UNL A   1      43.357  30.005  29.646  1.00  0.00     0.074 A 
ATOM     15  C   UNL A   1      42.441  27.768  29.125  1.00  0.00     0.049 A 
ATOM     16  N   UNL A   1      44.509  29.946  29.026  1.00  0.00    -0.248 NA
ATOM     17  C   UNL A   1      43.109  31.290  30.320  1.00  0.00     0.031 C 
ATOM     18  C   UNL A   1      41.451  26.685  29.121  1.00  0.00     0.029 A 
ATOM     19  N   UNL A   1      43.494  27.253  28.415  1.00  0.00    -0.354 N 
ATOM     20  C   UNL A   1      45.118  31.179  29.223  1.00  0.00     0.074 A 
ATOM     21  C   UNL A   1      44.195  31.981  29.998  1.00  0.00     0.031 C 
ATOM     22  C   UNL A   1      41.971  25.615  28.504  1.00  0.00     0.029 A 
ATOM     23  C   UNL A   1      43.302  25.951  28.015  1.00  0.00     0.049 A 
ATOM     24  H   UNL A   1      44.309  27.766  28.212  1.00  0.00     0.167 HD
ATOM     25  C   UNL A   1      46.338  31.598  28.805  1.00  0.00     0.037 A 
ATOM     26  C   UNL A   1      44.103  25.119  27.326  1.00  0.00     0.037 A 
ATOM     27  C   UNL A   1      47.257  30.788  28.044  1.00  0.00     0.049 A 
ATOM     28  C   UNL A   1      45.457  25.601  26.899  1.00  0.00     0.074 A 
ATOM     29  C   UNL A   1      48.517  31.122  27.576  1.00  0.00     0.029 A 
ATOM     30  N   UNL A   1      47.020  29.479  27.647  1.00  0.00    -0.354 N 
ATOM     31  N   UNL A   1      46.014  26.770  27.103  1.00  0.00    -0.248 NA
ATOM     32  C   UNL A   1      46.291  24.653  26.149  1.00  0.00     0.031 C 
ATOM     33  C   UNL A   1      49.031  30.026  26.873  1.00  0.00     0.029 A 
ATOM     34  C   UNL A   1      48.108  28.995  26.935  1.00  0.00     0.049 A 
ATOM     35  H   UNL A   1      46.201  28.970  27.843  1.00  0.00     0.167 HD
ATOM     36  C   UNL A   1      47.264  26.702  26.500  1.00  0.00     0.074 A 
ATOM     37  C   UNL A   1      47.394  25.364  25.959  1.00  0.00     0.031 C 
ATOM     38  C   UNL A   1      48.212  27.665  26.390  1.00  0.00     0.037 A 
BRANCH  25  39
ATOM     39  C   UNL A   1      46.759  33.000  29.157  1.00  0.00     0.058 A 
ATOM     40  C   UNL A   1      47.500  33.275  30.318  1.00  0.00     0.135 A 
ATOM     41  C   UNL A   1      46.474  34.071  28.295  1.00  0.00     0.135 A 
ATOM     42  F   UNL A   1      47.787  32.291  31.184  1.00  0.00    -0.206 F 
ATOM     43  C   UNL A   1      47.933  34.563  30.618  1.00  0.00     0.059 A 
ATOM     44  C   UNL A   1      46.915  35.365  28.565  1.00  0.00     0.059 A 
ATOM     45  F   UNL A   1      45.769  33.866  27.171  1.00  0.00    -0.206 F 
ATOM     46  C   UNL A   1      47.635  35.603  29.734  1.00  0.00     0.060 A 
BRANCH  46  47
ATOM     47  S   UNL A   1      48.221  37.266  30.128  1.00  0.00     0.124 S 
ATOM     48  O   UNL A   1      48.681  37.094  31.502  1.00  0.00    -0.237 OA
ATOM     49  O   UNL A   1      49.268  37.474  29.133  1.00  0.00    -0.237 OA
ATOM     50  O   UNL A   1      47.030  38.093  29.963  1.00  0.00    -0.744 OA
ENDBRANCH  46  47
ENDBRANCH  25  39
BRANCH  26  51
ATOM     51  C   UNL A   1      43.627  23.753  26.990  1.00  0.00     0.058 A 
ATOM     52  C   UNL A   1      43.128  23.447  25.716  1.00  0.00     0.135 A 
ATOM     53  C   UNL A   1      43.693  22.717  27.935  1.00  0.00     0.135 A 
ATOM     54  F   UNL A   1      43.045  24.406  24.779  1.00  0.00    -0.206 F 
ATOM     55  C   UNL A   1      42.694  22.165  25.393  1.00  0.00     0.059 A 
ATOM     56  C   UNL A   1      43.291  21.421  27.627  1.00  0.00     0.059 A 
ATOM     57  F   UNL A   1      44.184  22.954  29.160  1.00  0.00    -0.206 F 
ATOM     58  C   UNL A   1      42.780  21.159  26.357  1.00  0.00     0.060 A 
BRANCH  58  59
ATOM     59  S   UNL A   1      42.263  19.485  25.924  1.00  0.00     0.124 S 
ATOM     60  O   UNL A   1      43.102  19.212  24.763  1.00  0.00    -0.237 OA
ATOM     61  O   UNL A   1      42.585  18.735  27.135  1.00  0.00    -0.237 OA
ATOM     62  O   UNL A   1      40.837  19.637  25.654  1.00  0.00    -0.744 OA
ENDBRANCH  58  59
ENDBRANCH  26  51
BRANCH  38  63
ATOM     63  C   UNL A   1      49.467  27.294  25.654  1.00  0.00     0.058 A 
ATOM     64  C   UNL A   1      50.606  26.841  26.337  1.00  0.00     0.135 A 
ATOM     65  C   UNL A   1      49.533  27.395  24.255  1.00  0.00     0.135 A 
ATOM     66  F   UNL A   1      50.594  26.734  27.674  1.00  0.00    -0.206 F 
ATOM     67  C   UNL A   1      51.783  26.537  25.661  1.00  0.00     0.059 A 
ATOM     68  C   UNL A   1      50.692  27.073  23.557  1.00  0.00     0.059 A 
ATOM     69  F   UNL A   1      48.466  27.814  23.556  1.00  0.00    -0.206 F 
ATOM     70  C   UNL A   1      51.818  26.664  24.271  1.00  0.00     0.060 A 
BRANCH  70  71
ATOM     71  S   UNL A   1      53.352  26.273  23.403  1.00  0.00     0.124 S 
ATOM     72  O   UNL A   1      54.099  27.516  23.556  1.00  0.00    -0.237 OA
ATOM     73  O   UNL A   1      53.860  25.130  24.155  1.00  0.00    -0.237 OA
ATOM     74  O   UNL A   1      52.904  25.972  22.046  1.00  0.00    -0.744 OA
ENDBRANCH  70  71
ENDBRANCH  38  63
ENDBRANCH  12  13
ENDBRANCH   5   7
ENDBRANCH   2   3
ENDBRANCH   1   2
BRANCH   1  75
ATOM     75  C   UNL A   1      35.832  33.280  32.063  1.00  0.00     0.023 C 
BRANCH  75  76
ATOM     76  C   UNL A   1      34.845  32.798  31.005  1.00  0.00     0.116 C 
BRANCH  76  77
ATOM     77  N   UNL A   1      34.853  33.627  29.810  1.00  0.00    -0.352 N 
ATOM     78  C   UNL A   1      35.130  33.287  28.514  1.00  0.00     0.253 C 
ATOM     79  H   UNL A   1      34.625  34.573  29.955  1.00  0.00     0.163 HD
ATOM     80  O   UNL A   1      35.211  34.156  27.650  1.00  0.00    -0.269 OA
BRANCH  78  81
ATOM     81  C   UNL A   1      35.335  31.875  28.135  1.00  0.00     0.063 A 
ATOM     82  C   UNL A   1      36.603  31.346  28.428  1.00  0.00     0.016 A 
ATOM     83  C   UNL A   1      34.353  31.108  27.474  1.00  0.00     0.054 A 
ATOM     84  C   UNL A   1      36.909  30.037  28.077  1.00  0.00     0.001 A 
ATOM     85  C   UNL A   1      34.714  29.817  27.074  1.00  0.00     0.027 A 
ATOM     86  C   UNL A   1      35.969  29.279  27.390  1.00  0.00     0.002 A 
BRANCH  83  87
ATOM     87  N   UNL A   1      33.075  31.677  27.239  1.00  0.00    -0.321 N 
ATOM     88  C   UNL A   1      31.876  31.181  26.783  1.00  0.00     0.255 C 
ATOM     89  H   UNL A   1      33.038  32.638  27.449  1.00  0.00     0.170 HD
ATOM     90  O   UNL A   1      30.906  31.925  26.657  1.00  0.00    -0.269 OA
BRANCH  88  91
ATOM     91  C   UNL A   1      31.704  29.762  26.452  1.00  0.00     0.040 A 
ATOM     92  C   UNL A   1      31.646  29.416  25.106  1.00  0.00     0.016 A 
ATOM     93  C   UNL A   1      31.670  28.778  27.440  1.00  0.00     0.016 A 
ATOM     94  C   UNL A   1      31.708  28.071  24.742  1.00  0.00     0.027 A 
ATOM     95  C   UNL A   1      31.722  27.429  27.064  1.00  0.00     0.027 A 
ATOM     96  C   UNL A   1      31.813  27.057  25.709  1.00  0.00     0.052 A 
BRANCH  96  97
ATOM     97  N   UNL A   1      32.110  25.713  25.333  1.00  0.00    -0.250 N 
ATOM     98  C   UNL A   1      33.342  25.302  24.873  1.00  0.00     0.238 C 
ATOM     99  C   UNL A   1      31.238  24.659  25.458  1.00  0.00     0.238 C 
ATOM    100  O   UNL A   1      34.333  25.980  24.628  1.00  0.00    -0.274 OA
ATOM    101  C   UNL A   1      33.359  23.800  24.737  1.00  0.00     0.096 C 
ATOM    102  C   UNL A   1      31.956  23.366  25.153  1.00  0.00     0.096 C 
ATOM    103  O   UNL A   1      30.043  24.688  25.728  1.00  0.00    -0.274 OA
ATOM    104  C   UNL A   1      34.515  23.222  25.562  1.00  0.00     0.041 C 
ATOM    105  C   UNL A   1      31.863  22.434  26.366  1.00  0.00     0.041 C 
ATOM    106  C   UNL A   1      34.171  23.037  27.008  1.00  0.00    -0.030 C 
ATOM    107  C   UNL A   1      32.938  22.674  27.382  1.00  0.00    -0.030 C 
ENDBRANCH  96  97
ENDBRANCH  88  91
ENDBRANCH  83  87
ENDBRANCH  78  81
ENDBRANCH  76  77
ENDBRANCH  75  76
ENDBRANCH   1  75
TORSDOF 17
ENDMDL
MODEL 3
REMARK VINA RESULT:      -9.4      4.513     12.103
REMARK SMILES O=C(NCCCCNC(=O)c1ccccc1NC(=O)c1ccc(N2C(=O)[C@H]3CC=CC[C@H]3C2=O)cc1)c1ccc(-c2c3nc(c(-c4c(F)cc(S(=O)(=O)[O-])cc4F)c4ccc([nH]4)c(-c4c(F)cc(S(=O)(=O)[O-])cc4F)c4nc(c(-c5c(F)cc(S(=O)(=O)[O-])cc5F)c5ccc2[nH]5)C=C4)C=C3)cc1
REMARK SMILES IDX 5 1 4 2 3 3 1 4 2 5 37 7 38 8 102 9 39 10 101 11 40 12 41 13
REMARK SMILES IDX 42 14 95 15 43 16 100 17 94 18 96 19 44 20 99 21 93 22 92 23
REMARK SMILES IDX 45 25 79 26 58 27 78 28 59 29 62 30 77 31 97 32 60 33 61 34
REMARK SMILES IDX 76 36 98 37 63 38 46 39 47 40 56 41 48 42 49 43 55 44 57 45
REMARK SMILES IDX 50 46 51 47 52 48 53 49 54 50 80 51 81 52 90 53 82 54 83 55
REMARK SMILES IDX 89 56 91 57 84 58 85 59 86 60 87 61 88 62 64 63 65 64 74 65
REMARK SMILES IDX 66 66 67 67 73 68 75 69 68 70 69 71 70 72 71 73 72 74 6 75
REMARK SMILES IDX 7 76 8 77 9 78 10 80 11 81 12 82 16 83 13 84 15 85 14 86
REMARK SMILES IDX 17 87 18 88 19 90 20 91 21 92 36 93 22 94 35 95 23 96 24 97
REMARK SMILES IDX 25 98 33 99 26 100 27 101 32 102 34 103 28 104 31 105 29 106
REMARK SMILES IDX 30 107
REMARK H PARENT 3 6 96 24 62 35 8 79 17 89
REMARK Flexibility Score: inf
ROOT
ATOM      1  C   UNL A   1      38.049  34.121  30.662  1.00  0.00     0.023 C 
ENDROOT
BRANCH   1   2
ATOM      2  C   UNL A   1      37.046  33.302  29.861  1.00  0.00     0.116 C 
BRANCH   2   3
ATOM      3  N   UNL A   1      36.377  32.278  30.651  1.00  0.00    -0.352 N 
ATOM      4  O   UNL A   1      35.969  30.202  31.436  1.00  0.00    -0.269 OA
ATOM      5  C   UNL A   1      36.728  30.961  30.839  1.00  0.00     0.251 C 
ATOM      6  H   UNL A   1      35.557  32.569  31.114  1.00  0.00     0.163 HD
BRANCH   5   7
ATOM      7  C   UNL A   1      38.006  30.457  30.287  1.00  0.00     0.039 A 
ATOM      8  C   UNL A   1      39.073  30.159  31.135  1.00  0.00     0.014 A 
ATOM      9  C   UNL A   1      38.149  30.310  28.904  1.00  0.00     0.014 A 
ATOM     10  C   UNL A   1      40.325  29.895  30.597  1.00  0.00     0.010 A 
ATOM     11  C   UNL A   1      39.389  29.939  28.368  1.00  0.00     0.010 A 
ATOM     12  C   UNL A   1      40.499  29.768  29.207  1.00  0.00    -0.014 A 
BRANCH  12  13
ATOM     13  C   UNL A   1      41.844  29.401  28.690  1.00  0.00     0.031 A 
ATOM     14  C   UNL A   1      42.981  30.387  28.672  1.00  0.00     0.074 A 
ATOM     15  C   UNL A   1      42.049  28.125  28.306  1.00  0.00     0.049 A 
ATOM     16  N   UNL A   1      44.231  30.192  28.331  1.00  0.00    -0.248 NA
ATOM     17  C   UNL A   1      42.684  31.770  29.075  1.00  0.00     0.031 C 
ATOM     18  C   UNL A   1      41.013  27.089  28.250  1.00  0.00     0.029 A 
ATOM     19  N   UNL A   1      43.191  27.470  27.926  1.00  0.00    -0.354 N 
ATOM     20  C   UNL A   1      44.865  31.420  28.468  1.00  0.00     0.074 A 
ATOM     21  C   UNL A   1      43.856  32.366  28.896  1.00  0.00     0.031 C 
ATOM     22  C   UNL A   1      41.579  25.917  27.927  1.00  0.00     0.029 A 
ATOM     23  C   UNL A   1      43.002  26.128  27.693  1.00  0.00     0.049 A 
ATOM     24  H   UNL A   1      44.063  27.917  27.829  1.00  0.00     0.167 HD
ATOM     25  C   UNL A   1      46.171  31.728  28.266  1.00  0.00     0.037 A 
ATOM     26  C   UNL A   1      43.872  25.170  27.326  1.00  0.00     0.037 A 
ATOM     27  C   UNL A   1      47.172  30.777  27.852  1.00  0.00     0.049 A 
ATOM     28  C   UNL A   1      45.315  25.533  27.135  1.00  0.00     0.074 A 
ATOM     29  C   UNL A   1      48.522  30.990  27.623  1.00  0.00     0.029 A 
ATOM     30  N   UNL A   1      46.939  29.430  27.613  1.00  0.00    -0.354 N 
ATOM     31  N   UNL A   1      45.893  26.702  27.277  1.00  0.00    -0.248 NA
ATOM     32  C   UNL A   1      46.222  24.452  26.733  1.00  0.00     0.031 C 
ATOM     33  C   UNL A   1      49.098  29.780  27.220  1.00  0.00     0.029 A 
ATOM     34  C   UNL A   1      48.116  28.802  27.235  1.00  0.00     0.049 A 
ATOM     35  H   UNL A   1      46.065  28.985  27.702  1.00  0.00     0.167 HD
ATOM     36  C   UNL A   1      47.233  26.498  26.975  1.00  0.00     0.074 A 
ATOM     37  C   UNL A   1      47.385  25.087  26.682  1.00  0.00     0.031 C 
ATOM     38  C   UNL A   1      48.244  27.400  26.931  1.00  0.00     0.037 A 
BRANCH  25  39
ATOM     39  C   UNL A   1      46.600  33.153  28.487  1.00  0.00     0.058 A 
ATOM     40  C   UNL A   1      46.592  34.093  27.445  1.00  0.00     0.135 A 
ATOM     41  C   UNL A   1      46.960  33.602  29.769  1.00  0.00     0.135 A 
ATOM     42  F   UNL A   1      46.270  33.715  26.198  1.00  0.00    -0.206 F 
ATOM     43  C   UNL A   1      46.939  35.424  27.661  1.00  0.00     0.059 A 
ATOM     44  C   UNL A   1      47.292  34.933  30.012  1.00  0.00     0.059 A 
ATOM     45  F   UNL A   1      46.984  32.746  30.802  1.00  0.00    -0.206 F 
ATOM     46  C   UNL A   1      47.287  35.834  28.949  1.00  0.00     0.060 A 
BRANCH  46  47
ATOM     47  S   UNL A   1      47.716  37.569  29.217  1.00  0.00     0.124 S 
ATOM     48  O   UNL A   1      47.092  38.204  28.060  1.00  0.00    -0.237 OA
ATOM     49  O   UNL A   1      47.094  37.851  30.506  1.00  0.00    -0.237 OA
ATOM     50  O   UNL A   1      49.176  37.562  29.218  1.00  0.00    -0.744 OA
ENDBRANCH  46  47
ENDBRANCH  25  39
BRANCH  26  51
ATOM     51  C   UNL A   1      43.389  23.784  27.103  1.00  0.00     0.058 A 
ATOM     52  C   UNL A   1      43.157  22.911  28.176  1.00  0.00     0.135 A 
ATOM     53  C   UNL A   1      43.121  23.316  25.807  1.00  0.00     0.135 A 
ATOM     54  F   UNL A   1      43.400  23.313  29.433  1.00  0.00    -0.206 F 
ATOM     55  C   UNL A   1      42.692  21.615  27.972  1.00  0.00     0.059 A 
ATOM     56  C   UNL A   1      42.629  22.035  25.579  1.00  0.00     0.059 A 
ATOM     57  F   UNL A   1      43.305  24.121  24.750  1.00  0.00    -0.206 F 
ATOM     58  C   UNL A   1      42.431  21.188  26.669  1.00  0.00     0.060 A 
BRANCH  58  59
ATOM     59  S   UNL A   1      41.782  19.524  26.407  1.00  0.00     0.124 S 
ATOM     60  O   UNL A   1      42.189  18.855  27.637  1.00  0.00    -0.237 OA
ATOM     61  O   UNL A   1      40.349  19.767  26.256  1.00  0.00    -0.237 OA
ATOM     62  O   UNL A   1      42.464  19.088  25.193  1.00  0.00    -0.744 OA
ENDBRANCH  58  59
ENDBRANCH  26  51
BRANCH  38  63
ATOM     63  C   UNL A   1      49.598  26.875  26.547  1.00  0.00     0.058 A 
ATOM     64  C   UNL A   1      49.983  26.763  25.202  1.00  0.00     0.135 A 
ATOM     65  C   UNL A   1      50.517  26.478  27.531  1.00  0.00     0.135 A 
ATOM     66  F   UNL A   1      49.136  27.124  24.225  1.00  0.00    -0.206 F 
ATOM     67  C   UNL A   1      51.220  26.238  24.843  1.00  0.00     0.059 A 
ATOM     68  C   UNL A   1      51.769  25.973  27.195  1.00  0.00     0.059 A 
ATOM     69  F   UNL A   1      50.200  26.575  28.832  1.00  0.00    -0.206 F 
ATOM     70  C   UNL A   1      52.103  25.838  25.848  1.00  0.00     0.060 A 
BRANCH  70  71
ATOM     71  S   UNL A   1      53.704  25.153  25.372  1.00  0.00     0.124 S 
ATOM     72  O   UNL A   1      54.545  25.578  26.485  1.00  0.00    -0.237 OA
ATOM     73  O   UNL A   1      53.426  23.722  25.297  1.00  0.00    -0.237 OA
ATOM     74  O   UNL A   1      53.980  25.799  24.092  1.00  0.00    -0.744 OA
ENDBRANCH  70  71
ENDBRANCH  38  63
ENDBRANCH  12  13
ENDBRANCH   5   7
ENDBRANCH   2   3
ENDBRANCH   1   2
BRANCH   1  75
ATOM     75  C   UNL A   1      39.519  33.839  30.363  1.00  0.00     0.023 C 
BRANCH  75  76
ATOM     76  C   UNL A   1      40.405  33.630  31.586  1.00  0.00     0.116 C 
BRANCH  76  77
ATOM     77  N   UNL A   1      40.160  34.611  32.632  1.00  0.00    -0.352 N 
ATOM     78  C   UNL A   1      39.608  34.443  33.873  1.00  0.00     0.253 C 
ATOM     79  H   UNL A   1      40.432  35.531  32.416  1.00  0.00     0.163 HD
ATOM     80  O   UNL A   1      39.362  35.417  34.578  1.00  0.00    -0.269 OA
BRANCH  78  81
ATOM     81  C   UNL A   1      39.301  33.092  34.382  1.00  0.00     0.063 A 
ATOM     82  C   UNL A   1      38.064  32.559  33.981  1.00  0.00     0.016 A 
ATOM     83  C   UNL A   1      40.155  32.388  35.257  1.00  0.00     0.054 A 
ATOM     84  C   UNL A   1      37.664  31.309  34.438  1.00  0.00     0.001 A 
ATOM     85  C   UNL A   1      39.695  31.164  35.752  1.00  0.00     0.027 A 
ATOM     86  C   UNL A   1      38.474  30.618  35.331  1.00  0.00     0.002 A 
BRANCH  83  87
ATOM     87  N   UNL A   1      41.411  32.954  35.597  1.00  0.00    -0.321 N 
ATOM     88  C   UNL A   1      42.714  32.650  35.280  1.00  0.00     0.255 C 
ATOM     89  H   UNL A   1      41.332  33.735  36.190  1.00  0.00     0.170 HD
ATOM     90  O   UNL A   1      43.636  33.317  35.743  1.00  0.00    -0.269 OA
BRANCH  88  91
ATOM     91  C   UNL A   1      43.050  31.544  34.376  1.00  0.00     0.040 A 
ATOM     92  C   UNL A   1      43.127  31.824  33.016  1.00  0.00     0.016 A 
ATOM     93  C   UNL A   1      43.353  30.270  34.857  1.00  0.00     0.016 A 
ATOM     94  C   UNL A   1      43.657  30.867  32.150  1.00  0.00     0.027 A 
ATOM     95  C   UNL A   1      43.874  29.313  33.977  1.00  0.00     0.027 A 
ATOM     96  C   UNL A   1      44.100  29.620  32.622  1.00  0.00     0.052 A 
BRANCH  96  97
ATOM     97  N   UNL A   1      44.850  28.742  31.783  1.00  0.00    -0.250 N 
ATOM     98  C   UNL A   1      46.176  28.938  31.464  1.00  0.00     0.238 C 
ATOM     99  C   UNL A   1      44.371  27.565  31.262  1.00  0.00     0.238 C 
ATOM    100  O   UNL A   1      46.900  29.886  31.744  1.00  0.00    -0.274 OA
ATOM    101  C   UNL A   1      46.698  27.740  30.710  1.00  0.00     0.096 C 
ATOM    102  C   UNL A   1      45.495  26.809  30.597  1.00  0.00     0.096 C 
ATOM    103  O   UNL A   1      43.219  27.148  31.260  1.00  0.00    -0.274 OA
ATOM    104  C   UNL A   1      47.925  27.172  31.434  1.00  0.00     0.041 C 
ATOM    105  C   UNL A   1      45.636  25.430  31.249  1.00  0.00     0.041 C 
ATOM    106  C   UNL A   1      47.567  26.247  32.557  1.00  0.00    -0.030 C 
ATOM    107  C   UNL A   1      46.502  25.440  32.472  1.00  0.00    -0.030 C 
ENDBRANCH  96  97
ENDBRANCH  88  91
ENDBRANCH  83  87
ENDBRANCH  78  81
ENDBRANCH  76  77
ENDBRANCH  75  76
ENDBRANCH   1  75
TORSDOF 17
ENDMDL
