MODEL 1
REMARK VINA RESULT:     -11.6      0.000      0.000
REMARK SMILES C[C@H](C(=O)NCCCCNC(=O)c1ccc(-c2c3nc(c(-c4c(F)cc(S(=O)(=O)[O-])cc4F)c4ccc([nH]4)c(-c4c(F)cc(S(=O)(=O)[O-])cc4F)c4nc(c(-c5c(F)cc(S(=O)(=O)[O-])cc5F)c5ccc2[nH]5)C=C4)C=C3)cc1)S(=O)(=O)Cc1ccc(O)cc1
REMARK SMILES IDX 7 1 6 2 5 3 3 4 4 5 2 7 1 8 79 9 80 10 81 11 82 12 83 13
REMARK SMILES IDX 84 14 89 15 85 16 88 17 86 18 87 19 8 21 9 22 10 23 11 24
REMARK SMILES IDX 12 26 13 27 14 28 78 29 15 30 77 31 16 32 17 33 18 34 71 35
REMARK SMILES IDX 19 36 76 37 70 38 72 39 20 40 75 41 69 42 68 43 21 45 55 46
REMARK SMILES IDX 34 47 54 48 35 49 38 50 53 51 73 52 36 53 37 54 52 56 74 57
REMARK SMILES IDX 39 58 22 59 23 60 32 61 24 62 25 63 31 64 33 65 26 66 27 67
REMARK SMILES IDX 28 68 29 69 30 70 56 71 57 72 66 73 58 74 59 75 65 76 67 77
REMARK SMILES IDX 60 78 61 79 62 80 63 81 64 82 40 83 41 84 50 85 42 86 43 87
REMARK SMILES IDX 49 88 51 89 44 90 45 91 46 92 47 93 48 94
REMARK H PARENT 5 6 87 20 10 25 72 44 38 55
REMARK Flexibility Score: inf
ROOT
ATOM      1  C   UNL A   1      37.519  23.844  25.921  1.00  0.00     0.023 C 
ENDROOT
BRANCH   1   2
ATOM      2  C   UNL A   1      36.537  23.339  24.859  1.00  0.00     0.116 C 
BRANCH   2   3
ATOM      3  N   UNL A   1      36.597  21.893  24.758  1.00  0.00    -0.355 N 
ATOM      4  C   UNL A   1      35.828  20.840  25.088  1.00  0.00     0.238 C 
ATOM      5  O   UNL A   1      36.428  19.766  24.890  1.00  0.00    -0.274 OA
ATOM      6  H   UNL A   1      37.434  21.602  24.330  1.00  0.00     0.163 HD
BRANCH   4   7
ATOM      7  C   UNL A   1      34.369  20.766  25.505  1.00  0.00     0.194 C 
ATOM      8  C   UNL A   1      34.237  21.415  26.895  1.00  0.00     0.035 C 
BRANCH   7   9
ATOM      9  S   UNL A   1      33.076  21.325  24.426  1.00  0.00     0.166 S 
ATOM     10  O   UNL A   1      32.052  21.942  25.255  1.00  0.00    -0.228 OA
ATOM     11  O   UNL A   1      33.667  22.177  23.406  1.00  0.00    -0.228 OA
BRANCH   9  12
ATOM     12  C   UNL A   1      32.345  19.896  23.631  1.00  0.00     0.173 C 
BRANCH  12  13
ATOM     13  C   UNL A   1      32.881  18.578  24.117  1.00  0.00    -0.033 A 
ATOM     14  C   UNL A   1      33.705  17.788  23.303  1.00  0.00     0.008 A 
ATOM     15  C   UNL A   1      32.469  18.064  25.358  1.00  0.00     0.008 A 
ATOM     16  C   UNL A   1      34.141  16.536  23.735  1.00  0.00     0.046 A 
ATOM     17  C   UNL A   1      32.895  16.804  25.786  1.00  0.00     0.046 A 
ATOM     18  C   UNL A   1      33.733  16.052  24.970  1.00  0.00     0.115 A 
BRANCH  18  19
ATOM     19  O   UNL A   1      34.173  14.817  25.345  1.00  0.00    -0.508 OA
ATOM     20  H   UNL A   1      34.067  14.088  24.766  1.00  0.00     0.293 HD
ENDBRANCH  18  19
ENDBRANCH  12  13
ENDBRANCH   9  12
ENDBRANCH   7   9
ENDBRANCH   4   7
ENDBRANCH   2   3
ENDBRANCH   1   2
BRANCH   1  21
ATOM     21  C   UNL A   1      38.684  22.907  26.220  1.00  0.00     0.023 C 
BRANCH  21  22
ATOM     22  C   UNL A   1      39.854  23.549  26.949  1.00  0.00     0.116 C 
BRANCH  22  23
ATOM     23  N   UNL A   1      40.880  24.060  26.052  1.00  0.00    -0.352 N 
ATOM     24  C   UNL A   1      41.462  25.306  26.020  1.00  0.00     0.251 C 
ATOM     25  H   UNL A   1      41.204  23.425  25.375  1.00  0.00     0.163 HD
ATOM     26  O   UNL A   1      42.226  25.601  25.112  1.00  0.00    -0.269 OA
BRANCH  24  27
ATOM     27  C   UNL A   1      41.121  26.289  27.068  1.00  0.00     0.039 A 
ATOM     28  C   UNL A   1      40.172  25.942  28.032  1.00  0.00     0.014 A 
ATOM     29  C   UNL A   1      41.767  27.527  27.127  1.00  0.00     0.014 A 
ATOM     30  C   UNL A   1      39.929  26.810  29.096  1.00  0.00     0.010 A 
ATOM     31  C   UNL A   1      41.595  28.344  28.238  1.00  0.00     0.010 A 
ATOM     32  C   UNL A   1      40.671  27.997  29.232  1.00  0.00    -0.014 A 
BRANCH  32  33
ATOM     33  C   UNL A   1      40.488  28.873  30.416  1.00  0.00     0.031 A 
ATOM     34  C   UNL A   1      41.338  28.682  31.642  1.00  0.00     0.074 A 
ATOM     35  C   UNL A   1      39.525  29.815  30.394  1.00  0.00     0.049 A 
ATOM     36  N   UNL A   1      41.325  29.351  32.766  1.00  0.00    -0.248 NA
ATOM     37  C   UNL A   1      42.312  27.576  31.618  1.00  0.00     0.031 C 
ATOM     38  C   UNL A   1      38.580  30.037  29.295  1.00  0.00     0.029 A 
ATOM     39  N   UNL A   1      39.179  30.766  31.320  1.00  0.00    -0.354 N 
ATOM     40  C   UNL A   1      42.284  28.754  33.575  1.00  0.00     0.074 A 
ATOM     41  C   UNL A   1      42.807  27.620  32.846  1.00  0.00     0.031 C 
ATOM     42  C   UNL A   1      37.789  31.079  29.596  1.00  0.00     0.029 A 
ATOM     43  C   UNL A   1      38.149  31.583  30.917  1.00  0.00     0.049 A 
ATOM     44  H   UNL A   1      39.627  30.856  32.192  1.00  0.00     0.167 HD
ATOM     45  C   UNL A   1      42.717  29.137  34.799  1.00  0.00     0.037 A 
ATOM     46  C   UNL A   1      37.564  32.623  31.540  1.00  0.00     0.037 A 
ATOM     47  C   UNL A   1      42.207  30.280  35.510  1.00  0.00     0.049 A 
ATOM     48  C   UNL A   1      38.086  33.049  32.885  1.00  0.00     0.074 A 
ATOM     49  C   UNL A   1      42.605  30.780  36.738  1.00  0.00     0.029 A 
ATOM     50  N   UNL A   1      41.189  31.105  35.054  1.00  0.00    -0.354 N 
ATOM     51  N   UNL A   1      39.044  32.513  33.606  1.00  0.00    -0.248 NA
ATOM     52  C   UNL A   1      37.463  34.231  33.496  1.00  0.00     0.031 C 
ATOM     53  C   UNL A   1      41.806  31.888  37.039  1.00  0.00     0.029 A 
ATOM     54  C   UNL A   1      40.940  32.106  35.979  1.00  0.00     0.049 A 
ATOM     55  H   UNL A   1      40.714  30.996  34.199  1.00  0.00     0.167 HD
ATOM     56  C   UNL A   1      39.146  33.300  34.746  1.00  0.00     0.074 A 
ATOM     57  C   UNL A   1      38.176  34.367  34.604  1.00  0.00     0.031 C 
ATOM     58  C   UNL A   1      39.963  33.153  35.820  1.00  0.00     0.037 A 
BRANCH  45  59
ATOM     59  C   UNL A   1      43.818  28.331  35.432  1.00  0.00     0.058 A 
ATOM     60  C   UNL A   1      45.170  28.611  35.170  1.00  0.00     0.135 A 
ATOM     61  C   UNL A   1      43.529  27.301  36.340  1.00  0.00     0.135 A 
ATOM     62  F   UNL A   1      45.506  29.572  34.294  1.00  0.00    -0.206 F 
ATOM     63  C   UNL A   1      46.193  27.886  35.771  1.00  0.00     0.059 A 
ATOM     64  C   UNL A   1      44.538  26.582  36.975  1.00  0.00     0.059 A 
ATOM     65  F   UNL A   1      42.254  26.988  36.623  1.00  0.00    -0.206 F 
ATOM     66  C   UNL A   1      45.867  26.875  36.675  1.00  0.00     0.060 A 
BRANCH  66  67
ATOM     67  S   UNL A   1      47.210  25.964  37.466  1.00  0.00     0.124 S 
ATOM     68  O   UNL A   1      46.596  24.652  37.660  1.00  0.00    -0.237 OA
ATOM     69  O   UNL A   1      48.264  26.027  36.460  1.00  0.00    -0.237 OA
ATOM     70  O   UNL A   1      47.465  26.723  38.686  1.00  0.00    -0.744 OA
ENDBRANCH  66  67
ENDBRANCH  45  59
BRANCH  46  71
ATOM     71  C   UNL A   1      36.439  33.348  30.891  1.00  0.00     0.058 A 
ATOM     72  C   UNL A   1      36.657  34.195  29.792  1.00  0.00     0.135 A 
ATOM     73  C   UNL A   1      35.123  33.211  31.357  1.00  0.00     0.135 A 
ATOM     74  F   UNL A   1      37.897  34.361  29.310  1.00  0.00    -0.206 F 
ATOM     75  C   UNL A   1      35.616  34.903  29.199  1.00  0.00     0.059 A 
ATOM     76  C   UNL A   1      34.061  33.886  30.764  1.00  0.00     0.059 A 
ATOM     77  F   UNL A   1      34.857  32.396  32.389  1.00  0.00    -0.206 F 
ATOM     78  C   UNL A   1      34.321  34.742  29.694  1.00  0.00     0.060 A 
BRANCH  78  79
ATOM     79  S   UNL A   1      32.969  35.639  28.899  1.00  0.00     0.124 S 
ATOM     80  O   UNL A   1      32.194  36.082  30.051  1.00  0.00    -0.237 OA
ATOM     81  O   UNL A   1      33.679  36.681  28.166  1.00  0.00    -0.237 OA
ATOM     82  O   UNL A   1      32.337  34.619  28.066  1.00  0.00    -0.744 OA
ENDBRANCH  78  79
ENDBRANCH  46  71
BRANCH  58  83
ATOM     83  C   UNL A   1      39.844  34.181  36.910  1.00  0.00     0.058 A 
ATOM     84  C   UNL A   1      40.486  35.427  36.819  1.00  0.00     0.135 A 
ATOM     85  C   UNL A   1      39.074  33.921  38.055  1.00  0.00     0.135 A 
ATOM     86  F   UNL A   1      41.235  35.723  35.746  1.00  0.00    -0.206 F 
ATOM     87  C   UNL A   1      40.407  36.360  37.846  1.00  0.00     0.059 A 
ATOM     88  C   UNL A   1      38.957  34.853  39.081  1.00  0.00     0.059 A 
ATOM     89  F   UNL A   1      38.427  32.752  38.186  1.00  0.00    -0.206 F 
ATOM     90  C   UNL A   1      39.645  36.060  38.977  1.00  0.00     0.060 A 
BRANCH  90  91
ATOM     91  S   UNL A   1      39.559  37.276  40.309  1.00  0.00     0.124 S 
ATOM     92  O   UNL A   1      40.965  37.407  40.675  1.00  0.00    -0.237 OA
ATOM     93  O   UNL A   1      38.966  38.431  39.642  1.00  0.00    -0.237 OA
ATOM     94  O   UNL A   1      38.708  36.629  41.303  1.00  0.00    -0.744 OA
ENDBRANCH  90  91
ENDBRANCH  58  83
ENDBRANCH  32  33
ENDBRANCH  24  27
ENDBRANCH  22  23
ENDBRANCH  21  22
ENDBRANCH   1  21
TORSDOF 18
ENDMDL
MODEL 2
REMARK VINA RESULT:     -11.5      5.533      8.010
REMARK SMILES C[C@H](C(=O)NCCCCNC(=O)c1ccc(-c2c3nc(c(-c4c(F)cc(S(=O)(=O)[O-])cc4F)c4ccc([nH]4)c(-c4c(F)cc(S(=O)(=O)[O-])cc4F)c4nc(c(-c5c(F)cc(S(=O)(=O)[O-])cc5F)c5ccc2[nH]5)C=C4)C=C3)cc1)S(=O)(=O)Cc1ccc(O)cc1
REMARK SMILES IDX 7 1 6 2 5 3 3 4 4 5 2 7 1 8 79 9 80 10 81 11 82 12 83 13
REMARK SMILES IDX 84 14 89 15 85 16 88 17 86 18 87 19 8 21 9 22 10 23 11 24
REMARK SMILES IDX 12 26 13 27 14 28 78 29 15 30 77 31 16 32 17 33 18 34 71 35
REMARK SMILES IDX 19 36 76 37 70 38 72 39 20 40 75 41 69 42 68 43 21 45 55 46
REMARK SMILES IDX 34 47 54 48 35 49 38 50 53 51 73 52 36 53 37 54 52 56 74 57
REMARK SMILES IDX 39 58 22 59 23 60 32 61 24 62 25 63 31 64 33 65 26 66 27 67
REMARK SMILES IDX 28 68 29 69 30 70 56 71 57 72 66 73 58 74 59 75 65 76 67 77
REMARK SMILES IDX 60 78 61 79 62 80 63 81 64 82 40 83 41 84 50 85 42 86 43 87
REMARK SMILES IDX 49 88 51 89 44 90 45 91 46 92 47 93 48 94
REMARK H PARENT 5 6 87 20 10 25 72 44 38 55
REMARK Flexibility Score: inf
ROOT
ATOM      1  C   UNL A   1      42.185  20.077  26.533  1.00  0.00     0.023 C 
ENDROOT
BRANCH   1   2
ATOM      2  C   UNL A   1      42.738  18.716  26.099  1.00  0.00     0.116 C 
BRANCH   2   3
ATOM      3  N   UNL A   1      43.470  18.839  24.853  1.00  0.00    -0.355 N 
ATOM      4  C   UNL A   1      44.253  19.748  24.244  1.00  0.00     0.238 C 
ATOM      5  O   UNL A   1      44.532  19.395  23.083  1.00  0.00    -0.274 OA
ATOM      6  H   UNL A   1      43.363  18.033  24.298  1.00  0.00     0.163 HD
BRANCH   4   7
ATOM      7  C   UNL A   1      44.927  20.998  24.783  1.00  0.00     0.194 C 
ATOM      8  C   UNL A   1      46.406  20.665  25.051  1.00  0.00     0.035 C 
BRANCH   7   9
ATOM      9  S   UNL A   1      44.777  22.556  23.946  1.00  0.00     0.166 S 
ATOM     10  O   UNL A   1      46.097  23.166  23.920  1.00  0.00    -0.228 OA
ATOM     11  O   UNL A   1      44.160  22.321  22.649  1.00  0.00    -0.228 OA
BRANCH   9  12
ATOM     12  C   UNL A   1      43.705  23.616  24.911  1.00  0.00     0.173 C 
BRANCH  12  13
ATOM     13  C   UNL A   1      43.904  23.508  26.397  1.00  0.00    -0.033 A 
ATOM     14  C   UNL A   1      42.812  23.379  27.266  1.00  0.00     0.008 A 
ATOM     15  C   UNL A   1      45.189  23.649  26.948  1.00  0.00     0.008 A 
ATOM     16  C   UNL A   1      43.001  23.348  28.647  1.00  0.00     0.046 A 
ATOM     17  C   UNL A   1      45.378  23.632  28.332  1.00  0.00     0.046 A 
ATOM     18  C   UNL A   1      44.280  23.476  29.171  1.00  0.00     0.115 A 
BRANCH  18  19
ATOM     19  O   UNL A   1      44.416  23.454  30.527  1.00  0.00    -0.508 OA
ATOM     20  H   UNL A   1      44.361  24.252  31.015  1.00  0.00     0.293 HD
ENDBRANCH  18  19
ENDBRANCH  12  13
ENDBRANCH   9  12
ENDBRANCH   7   9
ENDBRANCH   4   7
ENDBRANCH   2   3
ENDBRANCH   1   2
BRANCH   1  21
ATOM     21  C   UNL A   1      40.698  20.285  26.266  1.00  0.00     0.023 C 
BRANCH  21  22
ATOM     22  C   UNL A   1      40.081  21.484  26.969  1.00  0.00     0.116 C 
BRANCH  22  23
ATOM     23  N   UNL A   1      38.888  21.989  26.305  1.00  0.00    -0.352 N 
ATOM     24  C   UNL A   1      38.422  23.280  26.224  1.00  0.00     0.251 C 
ATOM     25  H   UNL A   1      38.339  21.312  25.848  1.00  0.00     0.163 HD
ATOM     26  O   UNL A   1      37.328  23.506  25.725  1.00  0.00    -0.269 OA
BRANCH  24  27
ATOM     27  C   UNL A   1      39.237  24.379  26.782  1.00  0.00     0.039 A 
ATOM     28  C   UNL A   1      39.993  25.164  25.910  1.00  0.00     0.014 A 
ATOM     29  C   UNL A   1      39.218  24.661  28.152  1.00  0.00     0.014 A 
ATOM     30  C   UNL A   1      40.671  26.277  26.406  1.00  0.00     0.010 A 
ATOM     31  C   UNL A   1      39.812  25.824  28.625  1.00  0.00     0.010 A 
ATOM     32  C   UNL A   1      40.549  26.643  27.759  1.00  0.00    -0.014 A 
BRANCH  32  33
ATOM     33  C   UNL A   1      41.184  27.883  28.268  1.00  0.00     0.031 A 
ATOM     34  C   UNL A   1      42.679  28.046  28.221  1.00  0.00     0.074 A 
ATOM     35  C   UNL A   1      40.410  28.844  28.809  1.00  0.00     0.049 A 
ATOM     36  N   UNL A   1      43.410  29.057  28.614  1.00  0.00    -0.248 NA
ATOM     37  C   UNL A   1      43.461  26.915  27.691  1.00  0.00     0.031 C 
ATOM     38  C   UNL A   1      38.957  28.762  28.989  1.00  0.00     0.029 A 
ATOM     39  N   UNL A   1      40.733  30.082  29.307  1.00  0.00    -0.354 N 
ATOM     40  C   UNL A   1      44.728  28.689  28.377  1.00  0.00     0.074 A 
ATOM     41  C   UNL A   1      44.705  27.331  27.878  1.00  0.00     0.031 C 
ATOM     42  C   UNL A   1      38.512  29.911  29.522  1.00  0.00     0.029 A 
ATOM     43  C   UNL A   1      39.647  30.801  29.747  1.00  0.00     0.049 A 
ATOM     44  H   UNL A   1      41.655  30.423  29.344  1.00  0.00     0.167 HD
ATOM     45  C   UNL A   1      45.854  29.425  28.524  1.00  0.00     0.037 A 
ATOM     46  C   UNL A   1      39.574  32.040  30.269  1.00  0.00     0.037 A 
ATOM     47  C   UNL A   1      45.868  30.783  29.001  1.00  0.00     0.049 A 
ATOM     48  C   UNL A   1      40.835  32.851  30.391  1.00  0.00     0.074 A 
ATOM     49  C   UNL A   1      46.949  31.635  29.149  1.00  0.00     0.029 A 
ATOM     50  N   UNL A   1      44.744  31.492  29.403  1.00  0.00    -0.354 N 
ATOM     51  N   UNL A   1      42.067  32.509  30.095  1.00  0.00    -0.248 NA
ATOM     52  C   UNL A   1      40.697  34.221  30.902  1.00  0.00     0.031 C 
ATOM     53  C   UNL A   1      46.484  32.846  29.671  1.00  0.00     0.029 A 
ATOM     54  C   UNL A   1      45.108  32.766  29.807  1.00  0.00     0.049 A 
ATOM     55  H   UNL A   1      43.825  31.141  29.401  1.00  0.00     0.167 HD
ATOM     56  C   UNL A   1      42.847  33.625  30.370  1.00  0.00     0.074 A 
ATOM     57  C   UNL A   1      41.943  34.662  30.825  1.00  0.00     0.031 C 
ATOM     58  C   UNL A   1      44.191  33.780  30.264  1.00  0.00     0.037 A 
BRANCH  45  59
ATOM     59  C   UNL A   1      47.160  28.788  28.136  1.00  0.00     0.058 A 
ATOM     60  C   UNL A   1      47.947  28.104  29.078  1.00  0.00     0.135 A 
ATOM     61  C   UNL A   1      47.612  28.818  26.808  1.00  0.00     0.135 A 
ATOM     62  F   UNL A   1      47.573  28.060  30.367  1.00  0.00    -0.206 F 
ATOM     63  C   UNL A   1      49.143  27.492  28.721  1.00  0.00     0.059 A 
ATOM     64  C   UNL A   1      48.792  28.188  26.422  1.00  0.00     0.059 A 
ATOM     65  F   UNL A   1      46.902  29.462  25.866  1.00  0.00    -0.206 F 
ATOM     66  C   UNL A   1      49.556  27.535  27.389  1.00  0.00     0.060 A 
BRANCH  66  67
ATOM     67  S   UNL A   1      51.097  26.710  26.940  1.00  0.00     0.124 S 
ATOM     68  O   UNL A   1      52.048  27.817  27.002  1.00  0.00    -0.237 OA
ATOM     69  O   UNL A   1      51.228  25.703  27.987  1.00  0.00    -0.237 OA
ATOM     70  O   UNL A   1      50.827  26.189  25.604  1.00  0.00    -0.744 OA
ENDBRANCH  66  67
ENDBRANCH  45  59
BRANCH  46  71
ATOM     71  C   UNL A   1      38.260  32.599  30.690  1.00  0.00     0.058 A 
ATOM     72  C   UNL A   1      37.468  33.344  29.802  1.00  0.00     0.135 A 
ATOM     73  C   UNL A   1      37.771  32.400  31.990  1.00  0.00     0.135 A 
ATOM     74  F   UNL A   1      37.892  33.563  28.549  1.00  0.00    -0.206 F 
ATOM     75  C   UNL A   1      36.254  33.897  30.197  1.00  0.00     0.059 A 
ATOM     76  C   UNL A   1      36.548  32.919  32.400  1.00  0.00     0.059 A 
ATOM     77  F   UNL A   1      38.479  31.675  32.870  1.00  0.00    -0.206 F 
ATOM     78  C   UNL A   1      35.803  33.680  31.500  1.00  0.00     0.060 A 
BRANCH  78  79
ATOM     79  S   UNL A   1      34.211  34.375  31.996  1.00  0.00     0.124 S 
ATOM     80  O   UNL A   1      33.514  34.451  30.718  1.00  0.00    -0.237 OA
ATOM     81  O   UNL A   1      33.717  33.374  32.935  1.00  0.00    -0.237 OA
ATOM     82  O   UNL A   1      34.579  35.656  32.594  1.00  0.00    -0.744 OA
ENDBRANCH  78  79
ENDBRANCH  46  71
BRANCH  58  83
ATOM     83  C   UNL A   1      44.752  35.125  30.634  1.00  0.00     0.058 A 
ATOM     84  C   UNL A   1      45.169  35.412  31.945  1.00  0.00     0.135 A 
ATOM     85  C   UNL A   1      44.881  36.135  29.668  1.00  0.00     0.135 A 
ATOM     86  F   UNL A   1      45.064  34.481  32.905  1.00  0.00    -0.206 F 
ATOM     87  C   UNL A   1      45.650  36.668  32.293  1.00  0.00     0.059 A 
ATOM     88  C   UNL A   1      45.388  37.389  29.989  1.00  0.00     0.059 A 
ATOM     89  F   UNL A   1      44.511  35.908  28.397  1.00  0.00    -0.206 F 
ATOM     90  C   UNL A   1      45.749  37.653  31.309  1.00  0.00     0.060 A 
BRANCH  90  91
ATOM     91  S   UNL A   1      46.365  39.285  31.776  1.00  0.00     0.124 S 
ATOM     92  O   UNL A   1      45.200  40.123  31.512  1.00  0.00    -0.237 OA
ATOM     93  O   UNL A   1      46.709  39.100  33.182  1.00  0.00    -0.237 OA
ATOM     94  O   UNL A   1      47.500  39.486  30.881  1.00  0.00    -0.744 OA
ENDBRANCH  90  91
ENDBRANCH  58  83
ENDBRANCH  32  33
ENDBRANCH  24  27
ENDBRANCH  22  23
ENDBRANCH  21  22
ENDBRANCH   1  21
TORSDOF 18
ENDMDL
MODEL 3
REMARK VINA RESULT:     -11.4      1.544      3.053
REMARK SMILES C[C@H](C(=O)NCCCCNC(=O)c1ccc(-c2c3nc(c(-c4c(F)cc(S(=O)(=O)[O-])cc4F)c4ccc([nH]4)c(-c4c(F)cc(S(=O)(=O)[O-])cc4F)c4nc(c(-c5c(F)cc(S(=O)(=O)[O-])cc5F)c5ccc2[nH]5)C=C4)C=C3)cc1)S(=O)(=O)Cc1ccc(O)cc1
REMARK SMILES IDX 7 1 6 2 5 3 3 4 4 5 2 7 1 8 79 9 80 10 81 11 82 12 83 13
REMARK SMILES IDX 84 14 89 15 85 16 88 17 86 18 87 19 8 21 9 22 10 23 11 24
REMARK SMILES IDX 12 26 13 27 14 28 78 29 15 30 77 31 16 32 17 33 18 34 71 35
REMARK SMILES IDX 19 36 76 37 70 38 72 39 20 40 75 41 69 42 68 43 21 45 55 46
REMARK SMILES IDX 34 47 54 48 35 49 38 50 53 51 73 52 36 53 37 54 52 56 74 57
REMARK SMILES IDX 39 58 22 59 23 60 32 61 24 62 25 63 31 64 33 65 26 66 27 67
REMARK SMILES IDX 28 68 29 69 30 70 56 71 57 72 66 73 58 74 59 75 65 76 67 77
REMARK SMILES IDX 60 78 61 79 62 80 63 81 64 82 40 83 41 84 50 85 42 86 43 87
REMARK SMILES IDX 49 88 51 89 44 90 45 91 46 92 47 93 48 94
REMARK H PARENT 5 6 87 20 10 25 72 44 38 55
REMARK Flexibility Score: inf
ROOT
ATOM      1  C   UNL A   1      38.722  23.232  26.331  1.00  0.00     0.023 C 
ENDROOT
BRANCH   1   2
ATOM      2  C   UNL A   1      37.788  22.476  25.379  1.00  0.00     0.116 C 
BRANCH   2   3
ATOM      3  N   UNL A   1      36.623  21.988  26.091  1.00  0.00    -0.355 N 
ATOM      4  C   UNL A   1      35.332  21.719  25.822  1.00  0.00     0.238 C 
ATOM      5  O   UNL A   1      34.707  21.434  26.861  1.00  0.00    -0.274 OA
ATOM      6  H   UNL A   1      36.836  21.803  27.034  1.00  0.00     0.163 HD
BRANCH   4   7
ATOM      7  C   UNL A   1      34.602  21.579  24.498  1.00  0.00     0.194 C 
ATOM      8  C   UNL A   1      33.343  20.724  24.736  1.00  0.00     0.035 C 
BRANCH   7   9
ATOM      9  S   UNL A   1      34.217  22.999  23.505  1.00  0.00     0.166 S 
ATOM     10  O   UNL A   1      35.332  23.210  22.596  1.00  0.00    -0.228 OA
ATOM     11  O   UNL A   1      32.920  22.784  22.882  1.00  0.00    -0.228 OA
BRANCH   9  12
ATOM     12  C   UNL A   1      34.111  24.428  24.579  1.00  0.00     0.173 C 
BRANCH  12  13
ATOM     13  C   UNL A   1      32.744  24.665  25.157  1.00  0.00    -0.033 A 
ATOM     14  C   UNL A   1      32.240  23.851  26.180  1.00  0.00     0.008 A 
ATOM     15  C   UNL A   1      31.902  25.642  24.599  1.00  0.00     0.008 A 
ATOM     16  C   UNL A   1      30.945  24.035  26.664  1.00  0.00     0.046 A 
ATOM     17  C   UNL A   1      30.600  25.819  25.074  1.00  0.00     0.046 A 
ATOM     18  C   UNL A   1      30.134  25.015  26.108  1.00  0.00     0.115 A 
BRANCH  18  19
ATOM     19  O   UNL A   1      28.871  25.150  26.602  1.00  0.00    -0.508 OA
ATOM     20  H   UNL A   1      28.491  24.460  27.111  1.00  0.00     0.293 HD
ENDBRANCH  18  19
ENDBRANCH  12  13
ENDBRANCH   9  12
ENDBRANCH   7   9
ENDBRANCH   4   7
ENDBRANCH   2   3
ENDBRANCH   1   2
BRANCH   1  21
ATOM     21  C   UNL A   1      39.926  22.435  26.821  1.00  0.00     0.023 C 
BRANCH  21  22
ATOM     22  C   UNL A   1      41.177  23.259  27.085  1.00  0.00     0.116 C 
BRANCH  22  23
ATOM     23  N   UNL A   1      41.521  24.151  25.987  1.00  0.00    -0.352 N 
ATOM     24  C   UNL A   1      41.652  25.520  25.992  1.00  0.00     0.251 C 
ATOM     25  H   UNL A   1      41.684  23.713  25.122  1.00  0.00     0.163 HD
ATOM     26  O   UNL A   1      41.828  26.120  24.941  1.00  0.00    -0.269 OA
BRANCH  24  27
ATOM     27  C   UNL A   1      41.537  26.253  27.269  1.00  0.00     0.039 A 
ATOM     28  C   UNL A   1      42.441  27.283  27.536  1.00  0.00     0.014 A 
ATOM     29  C   UNL A   1      40.515  25.956  28.176  1.00  0.00     0.014 A 
ATOM     30  C   UNL A   1      42.271  28.063  28.679  1.00  0.00     0.010 A 
ATOM     31  C   UNL A   1      40.291  26.794  29.261  1.00  0.00     0.010 A 
ATOM     32  C   UNL A   1      41.168  27.854  29.527  1.00  0.00    -0.014 A 
BRANCH  32  33
ATOM     33  C   UNL A   1      40.926  28.746  30.688  1.00  0.00     0.031 A 
ATOM     34  C   UNL A   1      41.751  28.606  31.939  1.00  0.00     0.074 A 
ATOM     35  C   UNL A   1      39.934  29.655  30.624  1.00  0.00     0.049 A 
ATOM     36  N   UNL A   1      41.687  29.296  33.048  1.00  0.00    -0.248 NA
ATOM     37  C   UNL A   1      42.760  27.533  31.961  1.00  0.00     0.031 C 
ATOM     38  C   UNL A   1      39.010  29.825  29.498  1.00  0.00     0.029 A 
ATOM     39  N   UNL A   1      39.533  30.611  31.523  1.00  0.00    -0.354 N 
ATOM     40  C   UNL A   1      42.644  28.747  33.893  1.00  0.00     0.074 A 
ATOM     41  C   UNL A   1      43.223  27.617  33.199  1.00  0.00     0.031 C 
ATOM     42  C   UNL A   1      38.178  30.845  29.759  1.00  0.00     0.029 A 
ATOM     43  C   UNL A   1      38.487  31.385  31.078  1.00  0.00     0.049 A 
ATOM     44  H   UNL A   1      39.956  30.732  32.404  1.00  0.00     0.167 HD
ATOM     45  C   UNL A   1      43.034  29.167  35.119  1.00  0.00     0.037 A 
ATOM     46  C   UNL A   1      37.853  32.417  31.666  1.00  0.00     0.037 A 
ATOM     47  C   UNL A   1      42.468  30.305  35.795  1.00  0.00     0.049 A 
ATOM     48  C   UNL A   1      38.327  32.885  33.015  1.00  0.00     0.074 A 
ATOM     49  C   UNL A   1      42.818  30.842  37.022  1.00  0.00     0.029 A 
ATOM     50  N   UNL A   1      41.435  31.088  35.297  1.00  0.00    -0.354 N 
ATOM     51  N   UNL A   1      39.282  32.395  33.769  1.00  0.00    -0.248 NA
ATOM     52  C   UNL A   1      37.650  34.057  33.586  1.00  0.00     0.031 C 
ATOM     53  C   UNL A   1      41.976  31.928  37.281  1.00  0.00     0.029 A 
ATOM     54  C   UNL A   1      41.130  32.096  36.196  1.00  0.00     0.049 A 
ATOM     55  H   UNL A   1      40.986  30.946  34.434  1.00  0.00     0.167 HD
ATOM     56  C   UNL A   1      39.330  33.207  34.896  1.00  0.00     0.074 A 
ATOM     57  C   UNL A   1      38.329  34.238  34.708  1.00  0.00     0.031 C 
ATOM     58  C   UNL A   1      40.123  33.107  35.992  1.00  0.00     0.037 A 
BRANCH  45  59
ATOM     59  C   UNL A   1      44.144  28.410  35.795  1.00  0.00     0.058 A 
ATOM     60  C   UNL A   1      43.875  27.330  36.652  1.00  0.00     0.135 A 
ATOM     61  C   UNL A   1      45.488  28.733  35.555  1.00  0.00     0.135 A 
ATOM     62  F   UNL A   1      42.606  26.989  36.934  1.00  0.00    -0.206 F 
ATOM     63  C   UNL A   1      44.897  26.611  37.260  1.00  0.00     0.059 A 
ATOM     64  C   UNL A   1      46.528  28.008  36.131  1.00  0.00     0.059 A 
ATOM     65  F   UNL A   1      45.804  29.760  34.748  1.00  0.00    -0.206 F 
ATOM     66  C   UNL A   1      46.222  26.955  36.991  1.00  0.00     0.060 A 
BRANCH  66  67
ATOM     67  S   UNL A   1      47.535  25.991  37.768  1.00  0.00     0.124 S 
ATOM     68  O   UNL A   1      48.062  26.948  38.738  1.00  0.00    -0.237 OA
ATOM     69  O   UNL A   1      46.803  24.861  38.328  1.00  0.00    -0.237 OA
ATOM     70  O   UNL A   1      48.425  25.670  36.657  1.00  0.00    -0.744 OA
ENDBRANCH  66  67
ENDBRANCH  45  59
BRANCH  46  71
ATOM     71  C   UNL A   1      36.722  33.092  30.974  1.00  0.00     0.058 A 
ATOM     72  C   UNL A   1      36.930  33.865  29.821  1.00  0.00     0.135 A 
ATOM     73  C   UNL A   1      35.408  32.980  31.455  1.00  0.00     0.135 A 
ATOM     74  F   UNL A   1      38.168  34.004  29.323  1.00  0.00    -0.206 F 
ATOM     75  C   UNL A   1      35.883  34.526  29.187  1.00  0.00     0.059 A 
ATOM     76  C   UNL A   1      34.341  33.608  30.823  1.00  0.00     0.059 A 
ATOM     77  F   UNL A   1      35.151  32.234  32.540  1.00  0.00    -0.206 F 
ATOM     78  C   UNL A   1      34.591  34.392  29.697  1.00  0.00     0.060 A 
BRANCH  78  79
ATOM     79  S   UNL A   1      33.231  35.227  28.850  1.00  0.00     0.124 S 
ATOM     80  O   UNL A   1      32.719  34.162  27.998  1.00  0.00    -0.237 OA
ATOM     81  O   UNL A   1      32.374  35.626  29.961  1.00  0.00    -0.237 OA
ATOM     82  O   UNL A   1      33.897  36.327  28.157  1.00  0.00    -0.744 OA
ENDBRANCH  78  79
ENDBRANCH  46  71
BRANCH  58  83
ATOM     83  C   UNL A   1      39.943  34.151  37.059  1.00  0.00     0.058 A 
ATOM     84  C   UNL A   1      39.146  33.915  38.191  1.00  0.00     0.135 A 
ATOM     85  C   UNL A   1      40.581  35.397  36.952  1.00  0.00     0.135 A 
ATOM     86  F   UNL A   1      38.514  32.740  38.339  1.00  0.00    -0.206 F 
ATOM     87  C   UNL A   1      38.950  34.896  39.156  1.00  0.00     0.059 A 
ATOM     88  C   UNL A   1      40.422  36.382  37.922  1.00  0.00     0.059 A 
ATOM     89  F   UNL A   1      41.366  35.669  35.898  1.00  0.00    -0.206 F 
ATOM     90  C   UNL A   1      39.586  36.129  39.009  1.00  0.00     0.060 A 
BRANCH  90  91
ATOM     91  S   UNL A   1      39.315  37.399  40.263  1.00  0.00     0.124 S 
ATOM     92  O   UNL A   1      40.686  37.768  40.605  1.00  0.00    -0.237 OA
ATOM     93  O   UNL A   1      38.551  38.405  39.533  1.00  0.00    -0.237 OA
ATOM     94  O   UNL A   1      38.576  36.693  41.305  1.00  0.00    -0.744 OA
ENDBRANCH  90  91
ENDBRANCH  58  83
ENDBRANCH  32  33
ENDBRANCH  24  27
ENDBRANCH  22  23
ENDBRANCH  21  22
ENDBRANCH   1  21
TORSDOF 18
ENDMDL
