MODEL 1
REMARK VINA RESULT:     -11.9      0.000      0.000
REMARK SMILES Nc1ccc(C(=O)NC[C@@H]2CC[C@@H](C(=O)NCCCCNC(=O)c3ccc(-c4c5nc(c(-c6c(F)cc(S(=O)(=O)[O-])cc6F)c6ccc([nH]6)c(-c6c(F)cc(S(=O)(=O)[O-])cc6F)c6nc(c(-c7c(F)cc(S(=O)(=O)[O-])cc7F)c7ccc4[nH]7)C=C6)C=C5)cc3)O2)cc1Cl
REMARK SMILES IDX 18 1 17 2 16 3 14 4 15 5 13 7 10 8 11 9 90 10 12 11 9 12
REMARK SMILES IDX 8 13 6 14 7 15 5 17 2 18 3 19 92 20 4 21 91 22 93 23 1 24
REMARK SMILES IDX 19 27 20 28 21 29 22 30 23 32 24 33 25 34 89 35 26 36 88 37
REMARK SMILES IDX 27 38 28 39 29 40 82 41 30 42 87 43 81 44 83 45 31 46 86 47
REMARK SMILES IDX 80 48 79 49 32 51 66 52 45 53 65 54 46 55 49 56 64 57 84 58
REMARK SMILES IDX 47 59 48 60 63 62 85 63 50 64 33 65 34 66 43 67 35 68 36 69
REMARK SMILES IDX 42 70 44 71 37 72 38 73 39 74 40 75 41 76 67 77 68 78 77 79
REMARK SMILES IDX 69 80 70 81 76 82 78 83 71 84 72 85 73 86 74 87 75 88 51 89
REMARK SMILES IDX 52 90 61 91 53 92 54 93 60 94 62 95 55 96 56 97 57 98 58 99
REMARK SMILES IDX 59 100
REMARK H PARENT 16 6 8 16 1 25 1 26 21 31 83 50 49 61
REMARK Flexibility Score: inf
ROOT
ATOM      1  C   UNL A   1      33.843  31.513  27.752  1.00  0.00     0.023 C 
ENDROOT
BRANCH   1   2
ATOM      2  C   UNL A   1      33.332  30.351  26.908  1.00  0.00     0.116 C 
BRANCH   2   3
ATOM      3  N   UNL A   1      32.279  29.604  27.569  1.00  0.00    -0.354 N 
ATOM      4  C   UNL A   1      31.887  28.311  27.369  1.00  0.00     0.249 C 
ATOM      5  O   UNL A   1      30.981  27.867  28.077  1.00  0.00    -0.272 OA
ATOM      6  H   UNL A   1      31.779  30.098  28.259  1.00  0.00     0.163 HD
BRANCH   4   7
ATOM      7  C   UNL A   1      32.524  27.490  26.231  1.00  0.00     0.207 C 
ATOM      8  C   UNL A   1      31.938  25.355  25.474  1.00  0.00     0.138 C 
ATOM      9  C   UNL A   1      31.954  26.280  24.270  1.00  0.00     0.037 C 
ATOM     10  O   UNL A   1      32.621  26.081  26.506  1.00  0.00    -0.363 OA
ATOM     11  C   UNL A   1      31.740  27.622  24.926  1.00  0.00     0.045 C 
BRANCH   8  12
ATOM     12  C   UNL A   1      32.549  23.954  25.291  1.00  0.00     0.148 C 
BRANCH  12  13
ATOM     13  N   UNL A   1      33.114  23.703  23.974  1.00  0.00    -0.349 N 
ATOM     14  C   UNL A   1      34.339  23.381  23.466  1.00  0.00     0.251 C 
ATOM     15  O   UNL A   1      34.392  23.316  22.232  1.00  0.00    -0.269 OA
ATOM     16  H   UNL A   1      32.436  23.788  23.265  1.00  0.00     0.163 HD
BRANCH  14  17
ATOM     17  C   UNL A   1      35.580  23.093  24.243  1.00  0.00     0.041 A 
ATOM     18  C   UNL A   1      37.901  22.269  25.677  1.00  0.00     0.050 A 
ATOM     19  C   UNL A   1      37.450  23.591  25.721  1.00  0.00     0.028 A 
ATOM     20  C   UNL A   1      37.164  21.354  24.913  1.00  0.00     0.064 A 
ATOM     21  C   UNL A   1      36.314  24.003  25.002  1.00  0.00     0.016 A 
ATOM     22  C   UNL A   1      36.032  21.760  24.203  1.00  0.00     0.036 A 
ATOM     23  Cl  UNL A   1      37.642  19.693  24.821  1.00  0.00    -0.082 Cl
BRANCH  18  24
ATOM     24  N   UNL A   1      38.977  21.880  26.465  1.00  0.00    -0.398 N 
ATOM     25  H   UNL A   1      39.796  21.533  26.044  1.00  0.00     0.156 HD
ATOM     26  H   UNL A   1      38.920  21.951  27.445  1.00  0.00     0.156 HD
ENDBRANCH  18  24
ENDBRANCH  14  17
ENDBRANCH  12  13
ENDBRANCH   8  12
ENDBRANCH   4   7
ENDBRANCH   2   3
ENDBRANCH   1   2
BRANCH   1  27
ATOM     27  C   UNL A   1      35.352  31.750  27.698  1.00  0.00     0.023 C 
BRANCH  27  28
ATOM     28  C   UNL A   1      35.983  32.272  28.983  1.00  0.00     0.116 C 
BRANCH  28  29
ATOM     29  N   UNL A   1      35.684  31.443  30.141  1.00  0.00    -0.352 N 
ATOM     30  C   UNL A   1      36.445  30.461  30.734  1.00  0.00     0.251 C 
ATOM     31  H   UNL A   1      34.810  31.609  30.561  1.00  0.00     0.163 HD
ATOM     32  O   UNL A   1      35.961  29.770  31.621  1.00  0.00    -0.269 OA
BRANCH  30  33
ATOM     33  C   UNL A   1      37.833  30.222  30.275  1.00  0.00     0.039 A 
ATOM     34  C   UNL A   1      38.864  30.219  31.217  1.00  0.00     0.014 A 
ATOM     35  C   UNL A   1      38.117  29.993  28.927  1.00  0.00     0.014 A 
ATOM     36  C   UNL A   1      40.168  29.909  30.818  1.00  0.00     0.010 A 
ATOM     37  C   UNL A   1      39.399  29.608  28.544  1.00  0.00     0.010 A 
ATOM     38  C   UNL A   1      40.439  29.560  29.486  1.00  0.00    -0.014 A 
BRANCH  38  39
ATOM     39  C   UNL A   1      41.797  29.131  29.058  1.00  0.00     0.031 A 
ATOM     40  C   UNL A   1      42.920  30.129  28.984  1.00  0.00     0.074 A 
ATOM     41  C   UNL A   1      42.000  27.859  28.663  1.00  0.00     0.049 A 
ATOM     42  N   UNL A   1      44.147  29.963  28.563  1.00  0.00    -0.248 NA
ATOM     43  C   UNL A   1      42.614  31.502  29.414  1.00  0.00     0.031 C 
ATOM     44  C   UNL A   1      40.980  26.809  28.633  1.00  0.00     0.029 A 
ATOM     45  N   UNL A   1      43.130  27.235  28.195  1.00  0.00    -0.354 N 
ATOM     46  C   UNL A   1      44.756  31.208  28.665  1.00  0.00     0.074 A 
ATOM     47  C   UNL A   1      43.744  32.132  29.129  1.00  0.00     0.031 C 
ATOM     48  C   UNL A   1      41.533  25.670  28.185  1.00  0.00     0.029 A 
ATOM     49  C   UNL A   1      42.936  25.916  27.860  1.00  0.00     0.049 A 
ATOM     50  H   UNL A   1      44.000  27.690  28.107  1.00  0.00     0.167 HD
ATOM     51  C   UNL A   1      46.044  31.548  28.419  1.00  0.00     0.037 A 
ATOM     52  C   UNL A   1      43.783  25.007  27.339  1.00  0.00     0.037 A 
ATOM     53  C   UNL A   1      47.049  30.620  27.966  1.00  0.00     0.049 A 
ATOM     54  C   UNL A   1      45.209  25.401  27.071  1.00  0.00     0.074 A 
ATOM     55  C   UNL A   1      48.395  30.852  27.736  1.00  0.00     0.029 A 
ATOM     56  N   UNL A   1      46.819  29.284  27.667  1.00  0.00    -0.354 N 
ATOM     57  N   UNL A   1      45.786  26.568  27.237  1.00  0.00    -0.248 NA
ATOM     58  C   UNL A   1      46.104  24.356  26.556  1.00  0.00     0.031 C 
ATOM     59  C   UNL A   1      48.967  29.670  27.256  1.00  0.00     0.029 A 
ATOM     60  C   UNL A   1      47.992  28.685  27.236  1.00  0.00     0.049 A 
ATOM     61  H   UNL A   1      45.951  28.830  27.750  1.00  0.00     0.167 HD
ATOM     62  C   UNL A   1      47.115  26.393  26.867  1.00  0.00     0.074 A 
ATOM     63  C   UNL A   1      47.259  25.003  26.482  1.00  0.00     0.031 C 
ATOM     64  C   UNL A   1      48.123  27.301  26.852  1.00  0.00     0.037 A 
BRANCH  51  65
ATOM     65  C   UNL A   1      46.432  32.987  28.634  1.00  0.00     0.058 A 
ATOM     66  C   UNL A   1      46.792  33.471  29.902  1.00  0.00     0.135 A 
ATOM     67  C   UNL A   1      46.442  33.894  27.562  1.00  0.00     0.135 A 
ATOM     68  F   UNL A   1      46.789  32.652  30.965  1.00  0.00    -0.206 F 
ATOM     69  C   UNL A   1      47.098  34.812  30.110  1.00  0.00     0.059 A 
ATOM     70  C   UNL A   1      46.776  35.234  27.742  1.00  0.00     0.059 A 
ATOM     71  F   UNL A   1      46.111  33.486  26.327  1.00  0.00    -0.206 F 
ATOM     72  C   UNL A   1      47.080  35.688  29.024  1.00  0.00     0.060 A 
BRANCH  72  73
ATOM     73  S   UNL A   1      47.446  37.431  29.316  1.00  0.00     0.124 S 
ATOM     74  O   UNL A   1      48.582  37.643  28.423  1.00  0.00    -0.237 OA
ATOM     75  O   UNL A   1      46.201  38.083  28.923  1.00  0.00    -0.237 OA
ATOM     76  O   UNL A   1      47.752  37.480  30.743  1.00  0.00    -0.744 OA
ENDBRANCH  72  73
ENDBRANCH  51  65
BRANCH  52  77
ATOM     77  C   UNL A   1      43.298  23.629  27.059  1.00  0.00     0.058 A 
ATOM     78  C   UNL A   1      43.036  23.207  25.749  1.00  0.00     0.135 A 
ATOM     79  C   UNL A   1      43.138  22.692  28.092  1.00  0.00     0.135 A 
ATOM     80  F   UNL A   1      43.168  24.069  24.728  1.00  0.00    -0.206 F 
ATOM     81  C   UNL A   1      42.633  21.906  25.469  1.00  0.00     0.059 A 
ATOM     82  C   UNL A   1      42.759  21.379  27.836  1.00  0.00     0.059 A 
ATOM     83  F   UNL A   1      43.393  23.042  29.363  1.00  0.00    -0.206 F 
ATOM     84  C   UNL A   1      42.506  20.996  26.520  1.00  0.00     0.060 A 
BRANCH  84  85
ATOM     85  S   UNL A   1      42.062  19.287  26.136  1.00  0.00     0.124 S 
ATOM     86  O   UNL A   1      40.618  19.387  25.968  1.00  0.00    -0.237 OA
ATOM     87  O   UNL A   1      42.833  19.038  24.921  1.00  0.00    -0.237 OA
ATOM     88  O   UNL A   1      42.513  18.550  27.314  1.00  0.00    -0.744 OA
ENDBRANCH  84  85
ENDBRANCH  52  77
BRANCH  64  89
ATOM     89  C   UNL A   1      49.484  26.818  26.428  1.00  0.00     0.058 A 
ATOM     90  C   UNL A   1      50.327  26.120  27.306  1.00  0.00     0.135 A 
ATOM     91  C   UNL A   1      49.926  27.010  25.109  1.00  0.00     0.135 A 
ATOM     92  F   UNL A   1      49.958  25.916  28.581  1.00  0.00    -0.206 F 
ATOM     93  C   UNL A   1      51.570  25.646  26.897  1.00  0.00     0.059 A 
ATOM     94  C   UNL A   1      51.152  26.520  24.671  1.00  0.00     0.059 A 
ATOM     95  F   UNL A   1      49.154  27.663  24.226  1.00  0.00    -0.206 F 
ATOM     96  C   UNL A   1      51.972  25.849  25.576  1.00  0.00     0.060 A 
BRANCH  96  97
ATOM     97  S   UNL A   1      53.571  25.196  25.047  1.00  0.00     0.124 S 
ATOM     98  O   UNL A   1      53.391  23.764  25.264  1.00  0.00    -0.237 OA
ATOM     99  O   UNL A   1      53.637  25.623  23.653  1.00  0.00    -0.237 OA
ATOM    100  O   UNL A   1      54.519  25.851  25.943  1.00  0.00    -0.744 OA
ENDBRANCH  96  97
ENDBRANCH  64  89
ENDBRANCH  38  39
ENDBRANCH  30  33
ENDBRANCH  28  29
ENDBRANCH  27  28
ENDBRANCH   1  27
TORSDOF 18
ENDMDL
MODEL 2
REMARK VINA RESULT:     -11.7      6.673     12.173
REMARK SMILES Nc1ccc(C(=O)NC[C@@H]2CC[C@@H](C(=O)NCCCCNC(=O)c3ccc(-c4c5nc(c(-c6c(F)cc(S(=O)(=O)[O-])cc6F)c6ccc([nH]6)c(-c6c(F)cc(S(=O)(=O)[O-])cc6F)c6nc(c(-c7c(F)cc(S(=O)(=O)[O-])cc7F)c7ccc4[nH]7)C=C6)C=C5)cc3)O2)cc1Cl
REMARK SMILES IDX 18 1 17 2 16 3 14 4 15 5 13 7 10 8 11 9 90 10 12 11 9 12
REMARK SMILES IDX 8 13 6 14 7 15 5 17 2 18 3 19 92 20 4 21 91 22 93 23 1 24
REMARK SMILES IDX 19 27 20 28 21 29 22 30 23 32 24 33 25 34 89 35 26 36 88 37
REMARK SMILES IDX 27 38 28 39 29 40 82 41 30 42 87 43 81 44 83 45 31 46 86 47
REMARK SMILES IDX 80 48 79 49 32 51 66 52 45 53 65 54 46 55 49 56 64 57 84 58
REMARK SMILES IDX 47 59 48 60 63 62 85 63 50 64 33 65 34 66 43 67 35 68 36 69
REMARK SMILES IDX 42 70 44 71 37 72 38 73 39 74 40 75 41 76 67 77 68 78 77 79
REMARK SMILES IDX 69 80 70 81 76 82 78 83 71 84 72 85 73 86 74 87 75 88 51 89
REMARK SMILES IDX 52 90 61 91 53 92 54 93 60 94 62 95 55 96 56 97 57 98 58 99
REMARK SMILES IDX 59 100
REMARK H PARENT 16 6 8 16 1 25 1 26 21 31 83 50 49 61
REMARK Flexibility Score: inf
ROOT
ATOM      1  C   UNL A   1      36.017  23.123  26.032  1.00  0.00     0.023 C 
ENDROOT
BRANCH   1   2
ATOM      2  C   UNL A   1      35.322  21.768  26.126  1.00  0.00     0.116 C 
BRANCH   2   3
ATOM      3  N   UNL A   1      34.510  21.479  24.959  1.00  0.00    -0.354 N 
ATOM      4  C   UNL A   1      33.380  22.109  24.521  1.00  0.00     0.249 C 
ATOM      5  O   UNL A   1      32.867  21.713  23.473  1.00  0.00    -0.272 OA
ATOM      6  H   UNL A   1      34.818  20.724  24.406  1.00  0.00     0.163 HD
BRANCH   4   7
ATOM      7  C   UNL A   1      32.748  23.223  25.380  1.00  0.00     0.207 C 
ATOM      8  C   UNL A   1      30.740  24.369  25.026  1.00  0.00     0.138 C 
ATOM      9  C   UNL A   1      30.712  23.821  26.441  1.00  0.00     0.037 C 
ATOM     10  O   UNL A   1      32.111  24.263  24.617  1.00  0.00    -0.363 OA
ATOM     11  C   UNL A   1      31.688  22.675  26.333  1.00  0.00     0.045 C 
BRANCH   8  12
ATOM     12  C   UNL A   1      30.213  25.801  24.818  1.00  0.00     0.148 C 
BRANCH  12  13
ATOM     13  N   UNL A   1      30.905  26.560  23.787  1.00  0.00    -0.349 N 
ATOM     14  C   UNL A   1      31.752  27.628  23.742  1.00  0.00     0.251 C 
ATOM     15  O   UNL A   1      32.067  27.998  22.606  1.00  0.00    -0.269 OA
ATOM     16  H   UNL A   1      30.710  26.211  22.886  1.00  0.00     0.163 HD
BRANCH  14  17
ATOM     17  C   UNL A   1      32.327  28.361  24.909  1.00  0.00     0.041 A 
ATOM     18  C   UNL A   1      33.261  29.977  27.063  1.00  0.00     0.050 A 
ATOM     19  C   UNL A   1      33.880  28.767  26.740  1.00  0.00     0.028 A 
ATOM     20  C   UNL A   1      32.169  30.379  26.281  1.00  0.00     0.064 A 
ATOM     21  C   UNL A   1      33.412  27.961  25.688  1.00  0.00     0.016 A 
ATOM     22  C   UNL A   1      31.706  29.582  25.231  1.00  0.00     0.036 A 
ATOM     23  Cl  UNL A   1      31.356  31.874  26.600  1.00  0.00    -0.082 Cl
BRANCH  18  24
ATOM     24  N   UNL A   1      33.800  30.786  28.054  1.00  0.00    -0.398 N 
ATOM     25  H   UNL A   1      33.297  30.951  28.884  1.00  0.00     0.156 HD
ATOM     26  H   UNL A   1      34.687  31.195  27.928  1.00  0.00     0.156 HD
ENDBRANCH  18  24
ENDBRANCH  14  17
ENDBRANCH  12  13
ENDBRANCH   8  12
ENDBRANCH   4   7
ENDBRANCH   2   3
ENDBRANCH   1   2
BRANCH   1  27
ATOM     27  C   UNL A   1      37.501  23.075  25.673  1.00  0.00     0.023 C 
BRANCH  27  28
ATOM     28  C   UNL A   1      38.382  24.102  26.374  1.00  0.00     0.116 C 
BRANCH  28  29
ATOM     29  N   UNL A   1      39.800  23.906  26.115  1.00  0.00    -0.352 N 
ATOM     30  C   UNL A   1      40.879  24.644  26.547  1.00  0.00     0.251 C 
ATOM     31  H   UNL A   1      40.020  23.132  25.548  1.00  0.00     0.163 HD
ATOM     32  O   UNL A   1      41.995  24.404  26.105  1.00  0.00    -0.269 OA
BRANCH  30  33
ATOM     33  C   UNL A   1      40.680  25.745  27.517  1.00  0.00     0.039 A 
ATOM     34  C   UNL A   1      39.669  25.627  28.474  1.00  0.00     0.014 A 
ATOM     35  C   UNL A   1      41.491  26.883  27.493  1.00  0.00     0.014 A 
ATOM     36  C   UNL A   1      39.522  26.614  29.453  1.00  0.00     0.010 A 
ATOM     37  C   UNL A   1      41.395  27.824  28.515  1.00  0.00     0.010 A 
ATOM     38  C   UNL A   1      40.410  27.700  29.507  1.00  0.00    -0.014 A 
BRANCH  38  39
ATOM     39  C   UNL A   1      40.336  28.709  30.597  1.00  0.00     0.031 A 
ATOM     40  C   UNL A   1      41.205  28.576  31.816  1.00  0.00     0.074 A 
ATOM     41  C   UNL A   1      39.430  29.704  30.522  1.00  0.00     0.049 A 
ATOM     42  N   UNL A   1      41.229  29.309  32.900  1.00  0.00    -0.248 NA
ATOM     43  C   UNL A   1      42.155  27.452  31.832  1.00  0.00     0.031 C 
ATOM     44  C   UNL A   1      38.489  29.910  29.419  1.00  0.00     0.029 A 
ATOM     45  N   UNL A   1      39.140  30.720  31.398  1.00  0.00    -0.354 N 
ATOM     46  C   UNL A   1      42.183  28.732  33.729  1.00  0.00     0.074 A 
ATOM     47  C   UNL A   1      42.671  27.551  33.048  1.00  0.00     0.031 C 
ATOM     48  C   UNL A   1      37.737  30.992  29.678  1.00  0.00     0.029 A 
ATOM     49  C   UNL A   1      38.114  31.535  30.981  1.00  0.00     0.049 A 
ATOM     50  H   UNL A   1      39.621  30.854  32.247  1.00  0.00     0.167 HD
ATOM     51  C   UNL A   1      42.630  29.156  34.935  1.00  0.00     0.037 A 
ATOM     52  C   UNL A   1      37.532  32.592  31.579  1.00  0.00     0.037 A 
ATOM     53  C   UNL A   1      42.147  30.338  35.603  1.00  0.00     0.049 A 
ATOM     54  C   UNL A   1      38.040  33.050  32.918  1.00  0.00     0.074 A 
ATOM     55  C   UNL A   1      42.570  30.883  36.804  1.00  0.00     0.029 A 
ATOM     56  N   UNL A   1      41.127  31.154  35.133  1.00  0.00    -0.354 N 
ATOM     57  N   UNL A   1      38.990  32.531  33.659  1.00  0.00    -0.248 NA
ATOM     58  C   UNL A   1      37.408  34.242  33.499  1.00  0.00     0.031 C 
ATOM     59  C   UNL A   1      41.777  32.001  37.080  1.00  0.00     0.029 A 
ATOM     60  C   UNL A   1      40.894  32.187  36.027  1.00  0.00     0.049 A 
ATOM     61  H   UNL A   1      40.642  31.020  34.288  1.00  0.00     0.167 HD
ATOM     62  C   UNL A   1      39.085  33.344  34.784  1.00  0.00     0.074 A 
ATOM     63  C   UNL A   1      38.103  34.397  34.618  1.00  0.00     0.031 C 
ATOM     64  C   UNL A   1      39.912  33.229  35.853  1.00  0.00     0.037 A 
BRANCH  51  65
ATOM     65  C   UNL A   1      43.695  28.330  35.606  1.00  0.00     0.058 A 
ATOM     66  C   UNL A   1      43.373  27.320  36.528  1.00  0.00     0.135 A 
ATOM     67  C   UNL A   1      45.054  28.551  35.329  1.00  0.00     0.135 A 
ATOM     68  F   UNL A   1      42.092  27.074  36.841  1.00  0.00    -0.206 F 
ATOM     69  C   UNL A   1      44.359  26.595  37.188  1.00  0.00     0.059 A 
ATOM     70  C   UNL A   1      46.057  27.814  35.954  1.00  0.00     0.059 A 
ATOM     71  F   UNL A   1      45.421  29.500  34.453  1.00  0.00    -0.206 F 
ATOM     72  C   UNL A   1      45.700  26.854  36.899  1.00  0.00     0.060 A 
BRANCH  72  73
ATOM     73  S   UNL A   1      46.968  25.927  37.788  1.00  0.00     0.124 S 
ATOM     74  O   UNL A   1      47.857  27.000  38.226  1.00  0.00    -0.237 OA
ATOM     75  O   UNL A   1      46.198  25.273  38.841  1.00  0.00    -0.237 OA
ATOM     76  O   UNL A   1      47.515  25.035  36.770  1.00  0.00    -0.744 OA
ENDBRANCH  72  73
ENDBRANCH  51  65
BRANCH  52  77
ATOM     77  C   UNL A   1      36.415  33.298  30.896  1.00  0.00     0.058 A 
ATOM     78  C   UNL A   1      35.100  33.199  31.371  1.00  0.00     0.135 A 
ATOM     79  C   UNL A   1      36.649  34.128  29.788  1.00  0.00     0.135 A 
ATOM     80  F   UNL A   1      34.825  32.413  32.423  1.00  0.00    -0.206 F 
ATOM     81  C   UNL A   1      34.055  33.895  30.773  1.00  0.00     0.059 A 
ATOM     82  C   UNL A   1      35.626  34.852  29.187  1.00  0.00     0.059 A 
ATOM     83  F   UNL A   1      37.894  34.269  29.306  1.00  0.00    -0.206 F 
ATOM     84  C   UNL A   1      34.330  34.727  29.686  1.00  0.00     0.060 A 
BRANCH  84  85
ATOM     85  S   UNL A   1      32.979  35.690  28.971  1.00  0.00     0.124 S 
ATOM     86  O   UNL A   1      32.386  34.729  28.050  1.00  0.00    -0.237 OA
ATOM     87  O   UNL A   1      32.185  36.023  30.149  1.00  0.00    -0.237 OA
ATOM     88  O   UNL A   1      33.666  36.821  28.350  1.00  0.00    -0.744 OA
ENDBRANCH  84  85
ENDBRANCH  52  77
BRANCH  64  89
ATOM     89  C   UNL A   1      39.812  34.282  36.923  1.00  0.00     0.058 A 
ATOM     90  C   UNL A   1      40.434  35.533  36.788  1.00  0.00     0.135 A 
ATOM     91  C   UNL A   1      39.039  34.055  38.073  1.00  0.00     0.135 A 
ATOM     92  F   UNL A   1      41.191  35.800  35.712  1.00  0.00    -0.206 F 
ATOM     93  C   UNL A   1      40.308  36.516  37.766  1.00  0.00     0.059 A 
ATOM     94  C   UNL A   1      38.877  35.033  39.050  1.00  0.00     0.059 A 
ATOM     95  F   UNL A   1      38.415  32.879  38.247  1.00  0.00    -0.206 F 
ATOM     96  C   UNL A   1      39.525  36.257  38.892  1.00  0.00     0.060 A 
BRANCH  96  97
ATOM     97  S   UNL A   1      39.340  37.553  40.135  1.00  0.00     0.124 S 
ATOM     98  O   UNL A   1      40.665  38.163  40.124  1.00  0.00    -0.237 OA
ATOM     99  O   UNL A   1      38.262  38.367  39.580  1.00  0.00    -0.237 OA
ATOM    100  O   UNL A   1      38.999  36.816  41.348  1.00  0.00    -0.744 OA
ENDBRANCH  96  97
ENDBRANCH  64  89
ENDBRANCH  38  39
ENDBRANCH  30  33
ENDBRANCH  28  29
ENDBRANCH  27  28
ENDBRANCH   1  27
TORSDOF 18
ENDMDL
MODEL 3
REMARK VINA RESULT:     -11.6      6.423     12.127
REMARK SMILES Nc1ccc(C(=O)NC[C@@H]2CC[C@@H](C(=O)NCCCCNC(=O)c3ccc(-c4c5nc(c(-c6c(F)cc(S(=O)(=O)[O-])cc6F)c6ccc([nH]6)c(-c6c(F)cc(S(=O)(=O)[O-])cc6F)c6nc(c(-c7c(F)cc(S(=O)(=O)[O-])cc7F)c7ccc4[nH]7)C=C6)C=C5)cc3)O2)cc1Cl
REMARK SMILES IDX 18 1 17 2 16 3 14 4 15 5 13 7 10 8 11 9 90 10 12 11 9 12
REMARK SMILES IDX 8 13 6 14 7 15 5 17 2 18 3 19 92 20 4 21 91 22 93 23 1 24
REMARK SMILES IDX 19 27 20 28 21 29 22 30 23 32 24 33 25 34 89 35 26 36 88 37
REMARK SMILES IDX 27 38 28 39 29 40 82 41 30 42 87 43 81 44 83 45 31 46 86 47
REMARK SMILES IDX 80 48 79 49 32 51 66 52 45 53 65 54 46 55 49 56 64 57 84 58
REMARK SMILES IDX 47 59 48 60 63 62 85 63 50 64 33 65 34 66 43 67 35 68 36 69
REMARK SMILES IDX 42 70 44 71 37 72 38 73 39 74 40 75 41 76 67 77 68 78 77 79
REMARK SMILES IDX 69 80 70 81 76 82 78 83 71 84 72 85 73 86 74 87 75 88 51 89
REMARK SMILES IDX 52 90 61 91 53 92 54 93 60 94 62 95 55 96 56 97 57 98 58 99
REMARK SMILES IDX 59 100
REMARK H PARENT 16 6 8 16 1 25 1 26 21 31 83 50 49 61
REMARK Flexibility Score: inf
ROOT
ATOM      1  C   UNL A   1      38.553  22.326  26.401  1.00  0.00     0.023 C 
ENDROOT
BRANCH   1   2
ATOM      2  C   UNL A   1      38.102  21.931  24.998  1.00  0.00     0.116 C 
BRANCH   2   3
ATOM      3  N   UNL A   1      37.206  20.791  25.003  1.00  0.00    -0.354 N 
ATOM      4  C   UNL A   1      35.840  20.772  24.988  1.00  0.00     0.249 C 
ATOM      5  O   UNL A   1      35.278  19.676  24.960  1.00  0.00    -0.272 OA
ATOM      6  H   UNL A   1      37.643  19.909  25.018  1.00  0.00     0.163 HD
BRANCH   4   7
ATOM      7  C   UNL A   1      35.059  22.098  25.087  1.00  0.00     0.207 C 
ATOM      8  C   UNL A   1      32.758  22.413  25.369  1.00  0.00     0.138 C 
ATOM      9  C   UNL A   1      33.466  23.219  26.443  1.00  0.00     0.037 C 
ATOM     10  O   UNL A   1      33.784  22.080  24.423  1.00  0.00    -0.363 OA
ATOM     11  C   UNL A   1      34.785  22.490  26.538  1.00  0.00     0.045 C 
BRANCH   8  12
ATOM     12  C   UNL A   1      31.559  23.078  24.669  1.00  0.00     0.148 C 
BRANCH  12  13
ATOM     13  N   UNL A   1      30.540  23.598  25.569  1.00  0.00    -0.349 N 
ATOM     14  C   UNL A   1      30.166  24.823  26.040  1.00  0.00     0.251 C 
ATOM     15  O   UNL A   1      29.247  24.806  26.866  1.00  0.00    -0.269 OA
ATOM     16  H   UNL A   1      29.975  22.879  25.933  1.00  0.00     0.163 HD
BRANCH  14  17
ATOM     17  C   UNL A   1      30.739  26.144  25.646  1.00  0.00     0.041 A 
ATOM     18  C   UNL A   1      31.976  28.662  25.140  1.00  0.00     0.050 A 
ATOM     19  C   UNL A   1      30.933  28.189  24.339  1.00  0.00     0.028 A 
ATOM     20  C   UNL A   1      32.386  27.860  26.214  1.00  0.00     0.064 A 
ATOM     21  C   UNL A   1      30.332  26.941  24.578  1.00  0.00     0.016 A 
ATOM     22  C   UNL A   1      31.786  26.622  26.456  1.00  0.00     0.036 A 
ATOM     23  Cl  UNL A   1      33.658  28.379  27.268  1.00  0.00    -0.082 Cl
BRANCH  18  24
ATOM     24  N   UNL A   1      32.490  29.934  24.926  1.00  0.00    -0.398 N 
ATOM     25  H   UNL A   1      32.778  30.484  25.689  1.00  0.00     0.156 HD
ATOM     26  H   UNL A   1      32.567  30.286  24.010  1.00  0.00     0.156 HD
ENDBRANCH  18  24
ENDBRANCH  14  17
ENDBRANCH  12  13
ENDBRANCH   8  12
ENDBRANCH   4   7
ENDBRANCH   2   3
ENDBRANCH   1   2
BRANCH   1  27
ATOM     27  C   UNL A   1      39.981  21.924  26.768  1.00  0.00     0.023 C 
BRANCH  27  28
ATOM     28  C   UNL A   1      40.888  23.061  27.224  1.00  0.00     0.116 C 
BRANCH  28  29
ATOM     29  N   UNL A   1      41.381  23.872  26.121  1.00  0.00    -0.352 N 
ATOM     30  C   UNL A   1      41.617  25.227  26.068  1.00  0.00     0.251 C 
ATOM     31  H   UNL A   1      41.573  23.379  25.291  1.00  0.00     0.163 HD
ATOM     32  O   UNL A   1      41.899  25.753  25.000  1.00  0.00    -0.269 OA
BRANCH  30  33
ATOM     33  C   UNL A   1      41.497  26.047  27.296  1.00  0.00     0.039 A 
ATOM     34  C   UNL A   1      42.521  26.944  27.611  1.00  0.00     0.014 A 
ATOM     35  C   UNL A   1      40.379  25.942  28.127  1.00  0.00     0.014 A 
ATOM     36  C   UNL A   1      42.387  27.789  28.716  1.00  0.00     0.010 A 
ATOM     37  C   UNL A   1      40.212  26.837  29.180  1.00  0.00     0.010 A 
ATOM     38  C   UNL A   1      41.213  27.772  29.485  1.00  0.00    -0.014 A 
BRANCH  38  39
ATOM     39  C   UNL A   1      41.006  28.729  30.605  1.00  0.00     0.031 A 
ATOM     40  C   UNL A   1      41.819  28.611  31.865  1.00  0.00     0.074 A 
ATOM     41  C   UNL A   1      40.033  29.657  30.517  1.00  0.00     0.049 A 
ATOM     42  N   UNL A   1      41.730  29.299  32.974  1.00  0.00    -0.248 NA
ATOM     43  C   UNL A   1      42.848  27.560  31.891  1.00  0.00     0.031 C 
ATOM     44  C   UNL A   1      39.138  29.838  29.372  1.00  0.00     0.029 A 
ATOM     45  N   UNL A   1      39.622  30.614  31.412  1.00  0.00    -0.354 N 
ATOM     46  C   UNL A   1      42.681  28.760  33.832  1.00  0.00     0.074 A 
ATOM     47  C   UNL A   1      43.291  27.647  33.137  1.00  0.00     0.031 C 
ATOM     48  C   UNL A   1      38.294  30.851  29.629  1.00  0.00     0.029 A 
ATOM     49  C   UNL A   1      38.561  31.367  30.969  1.00  0.00     0.049 A 
ATOM     50  H   UNL A   1      40.048  30.748  32.291  1.00  0.00     0.167 HD
ATOM     51  C   UNL A   1      43.031  29.167  35.076  1.00  0.00     0.037 A 
ATOM     52  C   UNL A   1      37.871  32.354  31.573  1.00  0.00     0.037 A 
ATOM     53  C   UNL A   1      42.427  30.282  35.759  1.00  0.00     0.049 A 
ATOM     54  C   UNL A   1      38.273  32.794  32.953  1.00  0.00     0.074 A 
ATOM     55  C   UNL A   1      42.745  30.808  37.000  1.00  0.00     0.029 A 
ATOM     56  N   UNL A   1      41.374  31.041  35.263  1.00  0.00    -0.354 N 
ATOM     57  N   UNL A   1      39.220  32.316  33.726  1.00  0.00    -0.248 NA
ATOM     58  C   UNL A   1      37.524  33.911  33.542  1.00  0.00     0.031 C 
ATOM     59  C   UNL A   1      41.857  31.854  37.273  1.00  0.00     0.029 A 
ATOM     60  C   UNL A   1      41.018  32.016  36.181  1.00  0.00     0.049 A 
ATOM     61  H   UNL A   1      40.946  30.905  34.389  1.00  0.00     0.167 HD
ATOM     62  C   UNL A   1      39.194  33.087  34.883  1.00  0.00     0.074 A 
ATOM     63  C   UNL A   1      38.146  34.072  34.702  1.00  0.00     0.031 C 
ATOM     64  C   UNL A   1      39.971  32.990  35.991  1.00  0.00     0.037 A 
BRANCH  51  65
ATOM     65  C   UNL A   1      44.119  28.395  35.774  1.00  0.00     0.058 A 
ATOM     66  C   UNL A   1      43.827  27.323  36.634  1.00  0.00     0.135 A 
ATOM     67  C   UNL A   1      45.470  28.730  35.585  1.00  0.00     0.135 A 
ATOM     68  F   UNL A   1      42.553  26.967  36.862  1.00  0.00    -0.206 F 
ATOM     69  C   UNL A   1      44.829  26.645  37.320  1.00  0.00     0.059 A 
ATOM     70  C   UNL A   1      46.492  28.043  36.237  1.00  0.00     0.059 A 
ATOM     71  F   UNL A   1      45.809  29.741  34.771  1.00  0.00    -0.206 F 
ATOM     72  C   UNL A   1      46.159  27.018  37.120  1.00  0.00     0.060 A 
BRANCH  72  73
ATOM     73  S   UNL A   1      47.445  26.151  38.043  1.00  0.00     0.124 S 
ATOM     74  O   UNL A   1      48.599  27.017  37.816  1.00  0.00    -0.237 OA
ATOM     75  O   UNL A   1      46.911  26.152  39.402  1.00  0.00    -0.237 OA
ATOM     76  O   UNL A   1      47.505  24.843  37.399  1.00  0.00    -0.744 OA
ENDBRANCH  72  73
ENDBRANCH  51  65
BRANCH  52  77
ATOM     77  C   UNL A   1      36.741  33.004  30.856  1.00  0.00     0.058 A 
ATOM     78  C   UNL A   1      35.412  32.724  31.199  1.00  0.00     0.135 A 
ATOM     79  C   UNL A   1      36.970  33.956  29.850  1.00  0.00     0.135 A 
ATOM     80  F   UNL A   1      35.141  31.816  32.150  1.00  0.00    -0.206 F 
ATOM     81  C   UNL A   1      34.347  33.363  30.572  1.00  0.00     0.059 A 
ATOM     82  C   UNL A   1      35.925  34.625  29.225  1.00  0.00     0.059 A 
ATOM     83  F   UNL A   1      38.226  34.271  29.497  1.00  0.00    -0.206 F 
ATOM     84  C   UNL A   1      34.615  34.319  29.591  1.00  0.00     0.060 A 
BRANCH  84  85
ATOM     85  S   UNL A   1      33.227  35.203  28.843  1.00  0.00     0.124 S 
ATOM     86  O   UNL A   1      32.630  34.165  28.013  1.00  0.00    -0.237 OA
ATOM     87  O   UNL A   1      32.456  35.608  30.015  1.00  0.00    -0.237 OA
ATOM     88  O   UNL A   1      33.875  36.296  28.123  1.00  0.00    -0.744 OA
ENDBRANCH  84  85
ENDBRANCH  52  77
BRANCH  64  89
ATOM     89  C   UNL A   1      39.737  33.989  37.092  1.00  0.00     0.058 A 
ATOM     90  C   UNL A   1      38.932  33.692  38.201  1.00  0.00     0.135 A 
ATOM     91  C   UNL A   1      40.374  35.241  37.060  1.00  0.00     0.135 A 
ATOM     92  F   UNL A   1      38.293  32.514  38.278  1.00  0.00    -0.206 F 
ATOM     93  C   UNL A   1      38.749  34.609  39.232  1.00  0.00     0.059 A 
ATOM     94  C   UNL A   1      40.227  36.162  38.093  1.00  0.00     0.059 A 
ATOM     95  F   UNL A   1      41.164  35.572  36.026  1.00  0.00    -0.206 F 
ATOM     96  C   UNL A   1      39.403  35.840  39.170  1.00  0.00     0.060 A 
BRANCH  96  97
ATOM     97  S   UNL A   1      39.187  37.006  40.532  1.00  0.00     0.124 S 
ATOM     98  O   UNL A   1      38.562  36.163  41.545  1.00  0.00    -0.237 OA
ATOM     99  O   UNL A   1      40.559  37.420  40.810  1.00  0.00    -0.237 OA
ATOM    100  O   UNL A   1      38.330  38.041  39.962  1.00  0.00    -0.744 OA
ENDBRANCH  96  97
ENDBRANCH  64  89
ENDBRANCH  38  39
ENDBRANCH  30  33
ENDBRANCH  28  29
ENDBRANCH  27  28
ENDBRANCH   1  27
TORSDOF 18
ENDMDL
