MODEL 1
REMARK VINA RESULT:     -13.5      0.000      0.000
REMARK SMILES COc1ccc(S(=O)(=O)N2CCCC[C@@H]2C(=O)NCCCCNC(=O)c2ccc(-c3c4nc(c(-c5c(F)cc(S(=O)(=O)[O-])cc5F)c5ccc([nH]5)c(-c5c(F)cc(S(=O)(=O)[O-])cc5F)c5nc(c(-c6c(F)cc(S(=O)(=O)[O-])cc6F)c6ccc3[nH]6)C=C5)C=C4)cc2)cc1C
REMARK SMILES IDX 20 1 19 2 18 3 16 4 17 5 15 7 10 8 11 9 12 10 14 11 13 12
REMARK SMILES IDX 7 13 8 14 9 15 6 16 3 17 4 18 93 19 5 20 92 21 94 22 2 23
REMARK SMILES IDX 1 24 21 25 22 26 23 27 24 28 25 30 26 31 27 32 91 33 28 34
REMARK SMILES IDX 90 35 29 36 30 37 31 38 84 39 32 40 89 41 83 42 85 43 33 44
REMARK SMILES IDX 88 45 82 46 81 47 34 49 68 50 47 51 67 52 48 53 51 54 66 55
REMARK SMILES IDX 86 56 49 57 50 58 65 60 87 61 52 62 35 63 36 64 45 65 37 66
REMARK SMILES IDX 38 67 44 68 46 69 39 70 40 71 41 72 42 73 43 74 69 75 70 76
REMARK SMILES IDX 79 77 71 78 72 79 78 80 80 81 73 82 74 83 75 84 76 85 77 86
REMARK SMILES IDX 53 87 54 88 63 89 55 90 56 91 62 92 64 93 57 94 58 95 59 96
REMARK SMILES IDX 60 97 61 98
REMARK H PARENT 18 6 23 29 85 48 51 59
REMARK Flexibility Score: inf
ROOT
ATOM      1  C   UNL A   1      33.767  27.564  26.215  1.00  0.00     0.023 C 
ENDROOT
BRANCH   1   2
ATOM      2  C   UNL A   1      32.248  27.336  26.315  1.00  0.00     0.116 C 
BRANCH   2   3
ATOM      3  N   UNL A   1      31.931  26.078  26.976  1.00  0.00    -0.355 N 
ATOM      4  C   UNL A   1      31.573  24.871  26.455  1.00  0.00     0.238 C 
ATOM      5  O   UNL A   1      31.183  23.990  27.230  1.00  0.00    -0.273 OA
ATOM      6  H   UNL A   1      31.983  26.105  27.959  1.00  0.00     0.163 HD
BRANCH   4   7
ATOM      7  C   UNL A   1      31.591  24.610  24.945  1.00  0.00     0.162 C 
ATOM      8  N   UNL A   1      32.946  24.768  24.317  1.00  0.00    -0.185 NA
ATOM      9  C   UNL A   1      33.043  25.035  22.860  1.00  0.00     0.103 C 
ATOM     10  C   UNL A   1      31.942  25.941  22.344  1.00  0.00     0.017 C 
ATOM     11  C   UNL A   1      30.486  25.425  24.265  1.00  0.00     0.030 C 
ATOM     12  C   UNL A   1      30.577  25.421  22.752  1.00  0.00     0.004 C 
BRANCH   8  13
ATOM     13  S   UNL A   1      34.208  23.765  24.935  1.00  0.00     0.243 S 
ATOM     14  O   UNL A   1      34.415  24.085  26.324  1.00  0.00    -0.207 OA
ATOM     15  O   UNL A   1      35.298  23.811  23.978  1.00  0.00    -0.207 OA
BRANCH  13  16
ATOM     16  C   UNL A   1      33.610  22.077  24.888  1.00  0.00     0.083 A 
ATOM     17  C   UNL A   1      32.588  19.465  24.916  1.00  0.00     0.121 A 
ATOM     18  C   UNL A   1      33.003  20.082  26.104  1.00  0.00     0.048 A 
ATOM     19  C   UNL A   1      32.646  20.168  23.707  1.00  0.00    -0.008 A 
ATOM     20  C   UNL A   1      33.507  21.387  26.097  1.00  0.00     0.025 A 
ATOM     21  C   UNL A   1      33.207  21.453  23.707  1.00  0.00     0.029 A 
ATOM     22  C   UNL A   1      32.117  19.647  22.403  1.00  0.00     0.048 C 
BRANCH  17  23
ATOM     23  O   UNL A   1      32.047  18.215  25.059  1.00  0.00    -0.496 OA
ATOM     24  C   UNL A   1      32.951  17.247  25.584  1.00  0.00     0.278 C 
ENDBRANCH  17  23
ENDBRANCH  13  16
ENDBRANCH   8  13
ENDBRANCH   4   7
ENDBRANCH   2   3
ENDBRANCH   1   2
BRANCH   1  25
ATOM     25  C   UNL A   1      34.200  29.025  26.177  1.00  0.00     0.023 C 
BRANCH  25  26
ATOM     26  C   UNL A   1      34.755  29.526  27.494  1.00  0.00     0.116 C 
BRANCH  26  27
ATOM     27  N   UNL A   1      35.687  30.636  27.366  1.00  0.00    -0.352 N 
ATOM     28  C   UNL A   1      36.920  30.741  28.000  1.00  0.00     0.251 C 
ATOM     29  H   UNL A   1      35.421  31.379  26.778  1.00  0.00     0.163 HD
ATOM     30  O   UNL A   1      37.412  31.806  28.349  1.00  0.00    -0.269 OA
BRANCH  28  31
ATOM     31  C   UNL A   1      37.717  29.498  28.064  1.00  0.00     0.039 A 
ATOM     32  C   UNL A   1      37.626  28.745  29.243  1.00  0.00     0.014 A 
ATOM     33  C   UNL A   1      38.792  29.359  27.197  1.00  0.00     0.014 A 
ATOM     34  C   UNL A   1      38.739  28.046  29.684  1.00  0.00     0.010 A 
ATOM     35  C   UNL A   1      39.942  28.832  27.714  1.00  0.00     0.010 A 
ATOM     36  C   UNL A   1      39.915  28.215  28.971  1.00  0.00    -0.014 A 
BRANCH  36  37
ATOM     37  C   UNL A   1      41.197  27.666  29.340  1.00  0.00     0.031 A 
ATOM     38  C   UNL A   1      41.410  26.264  28.955  1.00  0.00     0.074 A 
ATOM     39  C   UNL A   1      42.167  28.538  29.683  1.00  0.00     0.049 A 
ATOM     40  N   UNL A   1      42.448  25.579  29.251  1.00  0.00    -0.248 NA
ATOM     41  C   UNL A   1      40.420  25.499  28.193  1.00  0.00     0.031 C 
ATOM     42  C   UNL A   1      43.613  28.360  29.663  1.00  0.00     0.029 A 
ATOM     43  N   UNL A   1      41.986  29.759  30.345  1.00  0.00    -0.354 N 
ATOM     44  C   UNL A   1      42.431  24.445  28.464  1.00  0.00     0.074 A 
ATOM     45  C   UNL A   1      41.096  24.379  27.933  1.00  0.00     0.031 C 
ATOM     46  C   UNL A   1      44.161  29.223  30.540  1.00  0.00     0.029 A 
ATOM     47  C   UNL A   1      43.063  29.853  31.258  1.00  0.00     0.049 A 
ATOM     48  H   UNL A   1      41.262  30.413  30.205  1.00  0.00     0.167 HD
ATOM     49  C   UNL A   1      43.618  23.809  28.264  1.00  0.00     0.037 A 
ATOM     50  C   UNL A   1      42.796  29.675  32.590  1.00  0.00     0.037 A 
ATOM     51  C   UNL A   1      44.623  24.383  29.170  1.00  0.00     0.049 A 
ATOM     52  C   UNL A   1      43.348  28.367  33.146  1.00  0.00     0.074 A 
ATOM     53  C   UNL A   1      45.628  25.329  29.048  1.00  0.00     0.029 A 
ATOM     54  N   UNL A   1      44.391  24.260  30.526  1.00  0.00    -0.354 N 
ATOM     55  N   UNL A   1      43.898  27.427  32.419  1.00  0.00    -0.248 NA
ATOM     56  C   UNL A   1      43.305  28.001  34.560  1.00  0.00     0.031 C 
ATOM     57  C   UNL A   1      45.915  25.831  30.361  1.00  0.00     0.029 A 
ATOM     58  C   UNL A   1      45.109  25.169  31.273  1.00  0.00     0.049 A 
ATOM     59  H   UNL A   1      43.779  23.596  30.917  1.00  0.00     0.167 HD
ATOM     60  C   UNL A   1      44.256  26.364  33.203  1.00  0.00     0.074 A 
ATOM     61  C   UNL A   1      43.843  26.767  34.540  1.00  0.00     0.031 C 
ATOM     62  C   UNL A   1      44.849  25.232  32.709  1.00  0.00     0.037 A 
BRANCH  49  63
ATOM     63  C   UNL A   1      43.948  22.815  27.169  1.00  0.00     0.058 A 
ATOM     64  C   UNL A   1      43.191  21.626  27.071  1.00  0.00     0.135 A 
ATOM     65  C   UNL A   1      45.009  22.901  26.240  1.00  0.00     0.135 A 
ATOM     66  F   UNL A   1      42.131  21.406  27.862  1.00  0.00    -0.206 F 
ATOM     67  C   UNL A   1      43.487  20.600  26.173  1.00  0.00     0.059 A 
ATOM     68  C   UNL A   1      45.323  21.889  25.327  1.00  0.00     0.059 A 
ATOM     69  F   UNL A   1      45.810  23.964  26.152  1.00  0.00    -0.206 F 
ATOM     70  C   UNL A   1      44.563  20.733  25.308  1.00  0.00     0.060 A 
BRANCH  70  71
ATOM     71  S   UNL A   1      44.941  19.394  24.168  1.00  0.00     0.124 S 
ATOM     72  O   UNL A   1      44.466  19.934  22.898  1.00  0.00    -0.237 OA
ATOM     73  O   UNL A   1      46.388  19.274  24.308  1.00  0.00    -0.237 OA
ATOM     74  O   UNL A   1      44.170  18.270  24.692  1.00  0.00    -0.744 OA
ENDBRANCH  70  71
ENDBRANCH  49  63
BRANCH  50  75
ATOM     75  C   UNL A   1      41.507  30.351  32.967  1.00  0.00     0.058 A 
ATOM     76  C   UNL A   1      40.400  29.514  33.245  1.00  0.00     0.135 A 
ATOM     77  C   UNL A   1      41.489  31.633  33.536  1.00  0.00     0.135 A 
ATOM     78  F   UNL A   1      40.340  28.284  32.709  1.00  0.00    -0.206 F 
ATOM     79  C   UNL A   1      39.440  29.847  34.199  1.00  0.00     0.059 A 
ATOM     80  C   UNL A   1      40.516  31.998  34.476  1.00  0.00     0.059 A 
ATOM     81  F   UNL A   1      42.495  32.489  33.304  1.00  0.00    -0.206 F 
ATOM     82  C   UNL A   1      39.549  31.066  34.861  1.00  0.00     0.060 A 
BRANCH  82  83
ATOM     83  S   UNL A   1      38.515  31.331  36.325  1.00  0.00     0.124 S 
ATOM     84  O   UNL A   1      37.395  32.085  35.770  1.00  0.00    -0.237 OA
ATOM     85  O   UNL A   1      38.208  29.962  36.745  1.00  0.00    -0.237 OA
ATOM     86  O   UNL A   1      39.390  32.078  37.220  1.00  0.00    -0.744 OA
ENDBRANCH  82  83
ENDBRANCH  50  75
BRANCH  62  87
ATOM     87  C   UNL A   1      45.217  24.047  33.570  1.00  0.00     0.058 A 
ATOM     88  C   UNL A   1      46.512  23.860  34.076  1.00  0.00     0.135 A 
ATOM     89  C   UNL A   1      44.303  22.997  33.828  1.00  0.00     0.135 A 
ATOM     90  F   UNL A   1      47.488  24.743  33.813  1.00  0.00    -0.206 F 
ATOM     91  C   UNL A   1      46.849  22.756  34.860  1.00  0.00     0.059 A 
ATOM     92  C   UNL A   1      44.638  21.853  34.538  1.00  0.00     0.059 A 
ATOM     93  F   UNL A   1      43.019  23.056  33.445  1.00  0.00    -0.206 F 
ATOM     94  C   UNL A   1      45.903  21.759  35.088  1.00  0.00     0.060 A 
BRANCH  94  95
ATOM     95  S   UNL A   1      46.326  20.343  36.113  1.00  0.00     0.124 S 
ATOM     96  O   UNL A   1      47.784  20.337  36.055  1.00  0.00    -0.237 OA
ATOM     97  O   UNL A   1      45.745  20.733  37.394  1.00  0.00    -0.237 OA
ATOM     98  O   UNL A   1      45.672  19.225  35.440  1.00  0.00    -0.744 OA
ENDBRANCH  94  95
ENDBRANCH  62  87
ENDBRANCH  36  37
ENDBRANCH  28  31
ENDBRANCH  26  27
ENDBRANCH  25  26
ENDBRANCH   1  25
TORSDOF 17
ENDMDL
MODEL 2
REMARK VINA RESULT:     -13.5      5.073     11.578
REMARK SMILES COc1ccc(S(=O)(=O)N2CCCC[C@@H]2C(=O)NCCCCNC(=O)c2ccc(-c3c4nc(c(-c5c(F)cc(S(=O)(=O)[O-])cc5F)c5ccc([nH]5)c(-c5c(F)cc(S(=O)(=O)[O-])cc5F)c5nc(c(-c6c(F)cc(S(=O)(=O)[O-])cc6F)c6ccc3[nH]6)C=C5)C=C4)cc2)cc1C
REMARK SMILES IDX 20 1 19 2 18 3 16 4 17 5 15 7 10 8 11 9 12 10 14 11 13 12
REMARK SMILES IDX 7 13 8 14 9 15 6 16 3 17 4 18 93 19 5 20 92 21 94 22 2 23
REMARK SMILES IDX 1 24 21 25 22 26 23 27 24 28 25 30 26 31 27 32 91 33 28 34
REMARK SMILES IDX 90 35 29 36 30 37 31 38 84 39 32 40 89 41 83 42 85 43 33 44
REMARK SMILES IDX 88 45 82 46 81 47 34 49 68 50 47 51 67 52 48 53 51 54 66 55
REMARK SMILES IDX 86 56 49 57 50 58 65 60 87 61 52 62 35 63 36 64 45 65 37 66
REMARK SMILES IDX 38 67 44 68 46 69 39 70 40 71 41 72 42 73 43 74 69 75 70 76
REMARK SMILES IDX 79 77 71 78 72 79 78 80 80 81 73 82 74 83 75 84 76 85 77 86
REMARK SMILES IDX 53 87 54 88 63 89 55 90 56 91 62 92 64 93 57 94 58 95 59 96
REMARK SMILES IDX 60 97 61 98
REMARK H PARENT 18 6 23 29 85 48 51 59
REMARK Flexibility Score: inf
ROOT
ATOM      1  C   UNL A   1      36.206  22.359  25.141  1.00  0.00     0.023 C 
ENDROOT
BRANCH   1   2
ATOM      2  C   UNL A   1      35.517  23.656  24.682  1.00  0.00     0.116 C 
BRANCH   2   3
ATOM      3  N   UNL A   1      35.039  23.560  23.311  1.00  0.00    -0.355 N 
ATOM      4  C   UNL A   1      33.770  23.485  22.819  1.00  0.00     0.238 C 
ATOM      5  O   UNL A   1      33.620  23.236  21.618  1.00  0.00    -0.273 OA
ATOM      6  H   UNL A   1      35.748  23.548  22.627  1.00  0.00     0.163 HD
BRANCH   4   7
ATOM      7  C   UNL A   1      32.546  23.644  23.727  1.00  0.00     0.162 C 
ATOM      8  N   UNL A   1      32.458  24.985  24.398  1.00  0.00    -0.185 NA
ATOM      9  C   UNL A   1      31.654  25.123  25.639  1.00  0.00     0.103 C 
ATOM     10  C   UNL A   1      31.742  23.911  26.546  1.00  0.00     0.017 C 
ATOM     11  C   UNL A   1      32.455  22.455  24.688  1.00  0.00     0.030 C 
ATOM     12  C   UNL A   1      31.422  22.640  25.782  1.00  0.00     0.004 C 
BRANCH   8  13
ATOM     13  S   UNL A   1      32.402  26.367  23.365  1.00  0.00     0.243 S 
ATOM     14  O   UNL A   1      31.108  26.421  22.734  1.00  0.00    -0.207 OA
ATOM     15  O   UNL A   1      33.625  26.366  22.583  1.00  0.00    -0.207 OA
BRANCH  13  16
ATOM     16  C   UNL A   1      32.514  27.814  24.414  1.00  0.00     0.083 A 
ATOM     17  C   UNL A   1      32.560  30.059  26.096  1.00  0.00     0.121 A 
ATOM     18  C   UNL A   1      31.511  29.871  25.185  1.00  0.00     0.048 A 
ATOM     19  C   UNL A   1      33.577  29.102  26.199  1.00  0.00    -0.008 A 
ATOM     20  C   UNL A   1      31.480  28.750  24.349  1.00  0.00     0.025 A 
ATOM     21  C   UNL A   1      33.561  28.013  25.314  1.00  0.00     0.029 A 
ATOM     22  C   UNL A   1      34.675  29.145  27.220  1.00  0.00     0.048 C 
BRANCH  17  23
ATOM     23  O   UNL A   1      32.445  31.154  26.910  1.00  0.00    -0.496 OA
ATOM     24  C   UNL A   1      31.323  31.982  26.614  1.00  0.00     0.278 C 
ENDBRANCH  17  23
ENDBRANCH  13  16
ENDBRANCH   8  13
ENDBRANCH   4   7
ENDBRANCH   2   3
ENDBRANCH   1   2
BRANCH   1  25
ATOM     25  C   UNL A   1      37.703  22.480  25.404  1.00  0.00     0.023 C 
BRANCH  25  26
ATOM     26  C   UNL A   1      38.079  23.708  26.206  1.00  0.00     0.116 C 
BRANCH  26  27
ATOM     27  N   UNL A   1      39.008  23.449  27.295  1.00  0.00    -0.352 N 
ATOM     28  C   UNL A   1      39.946  24.345  27.797  1.00  0.00     0.251 C 
ATOM     29  H   UNL A   1      38.970  22.559  27.714  1.00  0.00     0.163 HD
ATOM     30  O   UNL A   1      41.027  24.005  28.259  1.00  0.00    -0.269 OA
BRANCH  28  31
ATOM     31  C   UNL A   1      39.489  25.745  27.928  1.00  0.00     0.039 A 
ATOM     32  C   UNL A   1      39.945  26.654  26.962  1.00  0.00     0.014 A 
ATOM     33  C   UNL A   1      39.022  26.173  29.162  1.00  0.00     0.014 A 
ATOM     34  C   UNL A   1      40.177  27.970  27.332  1.00  0.00     0.010 A 
ATOM     35  C   UNL A   1      39.422  27.410  29.582  1.00  0.00     0.010 A 
ATOM     36  C   UNL A   1      40.032  28.285  28.674  1.00  0.00    -0.014 A 
BRANCH  36  37
ATOM     37  C   UNL A   1      40.339  29.563  29.266  1.00  0.00     0.031 A 
ATOM     38  C   UNL A   1      39.279  30.575  29.155  1.00  0.00     0.074 A 
ATOM     39  C   UNL A   1      41.380  29.614  30.123  1.00  0.00     0.049 A 
ATOM     40  N   UNL A   1      39.384  31.785  29.552  1.00  0.00    -0.248 NA
ATOM     41  C   UNL A   1      37.978  30.284  28.547  1.00  0.00     0.031 C 
ATOM     42  C   UNL A   1      41.656  30.579  31.179  1.00  0.00     0.029 A 
ATOM     43  N   UNL A   1      42.553  28.853  30.045  1.00  0.00    -0.354 N 
ATOM     44  C   UNL A   1      38.112  32.321  29.576  1.00  0.00     0.074 A 
ATOM     45  C   UNL A   1      37.304  31.403  28.819  1.00  0.00     0.031 C 
ATOM     46  C   UNL A   1      42.980  30.581  31.420  1.00  0.00     0.029 A 
ATOM     47  C   UNL A   1      43.597  29.738  30.407  1.00  0.00     0.049 A 
ATOM     48  H   UNL A   1      42.635  27.905  29.793  1.00  0.00     0.167 HD
ATOM     49  C   UNL A   1      37.910  33.406  30.374  1.00  0.00     0.037 A 
ATOM     50  C   UNL A   1      44.431  30.188  29.417  1.00  0.00     0.037 A 
ATOM     51  C   UNL A   1      39.212  33.896  30.850  1.00  0.00     0.049 A 
ATOM     52  C   UNL A   1      44.233  31.663  29.087  1.00  0.00     0.074 A 
ATOM     53  C   UNL A   1      39.952  33.746  32.011  1.00  0.00     0.029 A 
ATOM     54  N   UNL A   1      40.107  34.334  29.892  1.00  0.00    -0.354 N 
ATOM     55  N   UNL A   1      43.277  32.410  29.579  1.00  0.00    -0.248 NA
ATOM     56  C   UNL A   1      45.080  32.411  28.160  1.00  0.00     0.031 C 
ATOM     57  C   UNL A   1      41.324  34.016  31.691  1.00  0.00     0.029 A 
ATOM     58  C   UNL A   1      41.406  34.356  30.350  1.00  0.00     0.049 A 
ATOM     59  H   UNL A   1      39.844  34.603  28.983  1.00  0.00     0.167 HD
ATOM     60  C   UNL A   1      43.344  33.676  29.061  1.00  0.00     0.074 A 
ATOM     61  C   UNL A   1      44.485  33.618  28.157  1.00  0.00     0.031 C 
ATOM     62  C   UNL A   1      42.463  34.671  29.393  1.00  0.00     0.037 A 
BRANCH  49  63
ATOM     63  C   UNL A   1      36.582  33.933  30.879  1.00  0.00     0.058 A 
ATOM     64  C   UNL A   1      35.619  34.374  29.944  1.00  0.00     0.135 A 
ATOM     65  C   UNL A   1      36.200  34.112  32.227  1.00  0.00     0.135 A 
ATOM     66  F   UNL A   1      35.818  34.247  28.624  1.00  0.00    -0.206 F 
ATOM     67  C   UNL A   1      34.416  34.979  30.310  1.00  0.00     0.059 A 
ATOM     68  C   UNL A   1      34.998  34.710  32.619  1.00  0.00     0.059 A 
ATOM     69  F   UNL A   1      36.959  33.720  33.252  1.00  0.00    -0.206 F 
ATOM     70  C   UNL A   1      34.115  35.153  31.652  1.00  0.00     0.060 A 
BRANCH  70  71
ATOM     71  S   UNL A   1      32.567  35.949  32.105  1.00  0.00     0.124 S 
ATOM     72  O   UNL A   1      33.006  36.921  33.101  1.00  0.00    -0.237 OA
ATOM     73  O   UNL A   1      32.122  36.501  30.830  1.00  0.00    -0.237 OA
ATOM     74  O   UNL A   1      31.755  34.852  32.625  1.00  0.00    -0.744 OA
ENDBRANCH  70  71
ENDBRANCH  49  63
BRANCH  50  75
ATOM     75  C   UNL A   1      44.764  29.078  28.458  1.00  0.00     0.058 A 
ATOM     76  C   UNL A   1      44.165  29.135  27.178  1.00  0.00     0.135 A 
ATOM     77  C   UNL A   1      45.955  28.346  28.567  1.00  0.00     0.135 A 
ATOM     78  F   UNL A   1      43.007  29.796  27.009  1.00  0.00    -0.206 F 
ATOM     79  C   UNL A   1      44.815  28.676  26.034  1.00  0.00     0.059 A 
ATOM     80  C   UNL A   1      46.611  27.851  27.432  1.00  0.00     0.059 A 
ATOM     81  F   UNL A   1      46.573  28.234  29.752  1.00  0.00    -0.206 F 
ATOM     82  C   UNL A   1      46.074  28.098  26.166  1.00  0.00     0.060 A 
BRANCH  82  83
ATOM     83  S   UNL A   1      47.046  27.829  24.661  1.00  0.00     0.124 S 
ATOM     84  O   UNL A   1      46.586  26.510  24.238  1.00  0.00    -0.237 OA
ATOM     85  O   UNL A   1      46.626  28.947  23.813  1.00  0.00    -0.237 OA
ATOM     86  O   UNL A   1      48.422  27.889  25.138  1.00  0.00    -0.744 OA
ENDBRANCH  82  83
ENDBRANCH  50  75
BRANCH  62  87
ATOM     87  C   UNL A   1      42.519  36.059  28.799  1.00  0.00     0.058 A 
ATOM     88  C   UNL A   1      42.014  36.350  27.523  1.00  0.00     0.135 A 
ATOM     89  C   UNL A   1      43.182  37.126  29.452  1.00  0.00     0.135 A 
ATOM     90  F   UNL A   1      41.450  35.391  26.771  1.00  0.00    -0.206 F 
ATOM     91  C   UNL A   1      42.079  37.631  26.974  1.00  0.00     0.059 A 
ATOM     92  C   UNL A   1      43.330  38.387  28.891  1.00  0.00     0.059 A 
ATOM     93  F   UNL A   1      43.676  37.009  30.692  1.00  0.00    -0.206 F 
ATOM     94  C   UNL A   1      42.737  38.644  27.669  1.00  0.00     0.060 A 
BRANCH  94  95
ATOM     95  S   UNL A   1      42.809  40.302  26.974  1.00  0.00     0.124 S 
ATOM     96  O   UNL A   1      43.752  40.140  25.873  1.00  0.00    -0.237 OA
ATOM     97  O   UNL A   1      41.417  40.512  26.591  1.00  0.00    -0.237 OA
ATOM     98  O   UNL A   1      43.285  41.118  28.087  1.00  0.00    -0.744 OA
ENDBRANCH  94  95
ENDBRANCH  62  87
ENDBRANCH  36  37
ENDBRANCH  28  31
ENDBRANCH  26  27
ENDBRANCH  25  26
ENDBRANCH   1  25
TORSDOF 17
ENDMDL
MODEL 3
REMARK VINA RESULT:     -13.1      2.552      4.071
REMARK SMILES COc1ccc(S(=O)(=O)N2CCCC[C@@H]2C(=O)NCCCCNC(=O)c2ccc(-c3c4nc(c(-c5c(F)cc(S(=O)(=O)[O-])cc5F)c5ccc([nH]5)c(-c5c(F)cc(S(=O)(=O)[O-])cc5F)c5nc(c(-c6c(F)cc(S(=O)(=O)[O-])cc6F)c6ccc3[nH]6)C=C5)C=C4)cc2)cc1C
REMARK SMILES IDX 20 1 19 2 18 3 16 4 17 5 15 7 10 8 11 9 12 10 14 11 13 12
REMARK SMILES IDX 7 13 8 14 9 15 6 16 3 17 4 18 93 19 5 20 92 21 94 22 2 23
REMARK SMILES IDX 1 24 21 25 22 26 23 27 24 28 25 30 26 31 27 32 91 33 28 34
REMARK SMILES IDX 90 35 29 36 30 37 31 38 84 39 32 40 89 41 83 42 85 43 33 44
REMARK SMILES IDX 88 45 82 46 81 47 34 49 68 50 47 51 67 52 48 53 51 54 66 55
REMARK SMILES IDX 86 56 49 57 50 58 65 60 87 61 52 62 35 63 36 64 45 65 37 66
REMARK SMILES IDX 38 67 44 68 46 69 39 70 40 71 41 72 42 73 43 74 69 75 70 76
REMARK SMILES IDX 79 77 71 78 72 79 78 80 80 81 73 82 74 83 75 84 76 85 77 86
REMARK SMILES IDX 53 87 54 88 63 89 55 90 56 91 62 92 64 93 57 94 58 95 59 96
REMARK SMILES IDX 60 97 61 98
REMARK H PARENT 18 6 23 29 85 48 51 59
REMARK Flexibility Score: inf
ROOT
ATOM      1  C   UNL A   1      33.043  27.141  26.516  1.00  0.00     0.023 C 
ENDROOT
BRANCH   1   2
ATOM      2  C   UNL A   1      31.694  26.430  26.308  1.00  0.00     0.116 C 
BRANCH   2   3
ATOM      3  N   UNL A   1      31.719  25.063  26.811  1.00  0.00    -0.355 N 
ATOM      4  C   UNL A   1      32.505  24.006  26.462  1.00  0.00     0.238 C 
ATOM      5  O   UNL A   1      32.221  22.891  26.912  1.00  0.00    -0.273 OA
ATOM      6  H   UNL A   1      31.059  24.873  27.517  1.00  0.00     0.163 HD
BRANCH   4   7
ATOM      7  C   UNL A   1      33.680  24.165  25.492  1.00  0.00     0.162 C 
ATOM      8  N   UNL A   1      33.602  23.267  24.291  1.00  0.00    -0.185 NA
ATOM      9  C   UNL A   1      34.845  22.944  23.546  1.00  0.00     0.103 C 
ATOM     10  C   UNL A   1      36.054  22.776  24.445  1.00  0.00     0.017 C 
ATOM     11  C   UNL A   1      35.003  24.071  26.261  1.00  0.00     0.030 C 
ATOM     12  C   UNL A   1      36.218  23.975  25.361  1.00  0.00     0.004 C 
BRANCH   8  13
ATOM     13  S   UNL A   1      32.204  23.430  23.292  1.00  0.00     0.243 S 
ATOM     14  O   UNL A   1      31.053  22.977  24.029  1.00  0.00    -0.207 OA
ATOM     15  O   UNL A   1      32.538  22.872  21.994  1.00  0.00    -0.207 OA
BRANCH  13  16
ATOM     16  C   UNL A   1      31.963  25.181  23.004  1.00  0.00     0.083 A 
ATOM     17  C   UNL A   1      31.516  27.930  22.669  1.00  0.00     0.121 A 
ATOM     18  C   UNL A   1      30.453  27.064  22.962  1.00  0.00     0.048 A 
ATOM     19  C   UNL A   1      32.820  27.430  22.578  1.00  0.00    -0.008 A 
ATOM     20  C   UNL A   1      30.672  25.694  23.137  1.00  0.00     0.025 A 
ATOM     21  C   UNL A   1      33.015  26.046  22.699  1.00  0.00     0.029 A 
ATOM     22  C   UNL A   1      34.039  28.284  22.389  1.00  0.00     0.048 C 
BRANCH  17  23
ATOM     23  O   UNL A   1      31.189  29.258  22.591  1.00  0.00    -0.496 OA
ATOM     24  C   UNL A   1      30.028  29.616  23.334  1.00  0.00     0.278 C 
ENDBRANCH  17  23
ENDBRANCH  13  16
ENDBRANCH   8  13
ENDBRANCH   4   7
ENDBRANCH   2   3
ENDBRANCH   1   2
BRANCH   1  25
ATOM     25  C   UNL A   1      33.076  28.603  26.085  1.00  0.00     0.023 C 
BRANCH  25  26
ATOM     26  C   UNL A   1      32.822  29.574  27.219  1.00  0.00     0.116 C 
BRANCH  26  27
ATOM     27  N   UNL A   1      33.555  30.826  27.109  1.00  0.00    -0.352 N 
ATOM     28  C   UNL A   1      34.644  31.204  27.887  1.00  0.00     0.251 C 
ATOM     29  H   UNL A   1      33.253  31.462  26.422  1.00  0.00     0.163 HD
ATOM     30  O   UNL A   1      34.886  32.364  28.193  1.00  0.00    -0.269 OA
BRANCH  28  31
ATOM     31  C   UNL A   1      35.627  30.138  28.174  1.00  0.00     0.039 A 
ATOM     32  C   UNL A   1      35.751  29.732  29.511  1.00  0.00     0.014 A 
ATOM     33  C   UNL A   1      36.637  29.906  27.251  1.00  0.00     0.014 A 
ATOM     34  C   UNL A   1      36.991  29.328  29.981  1.00  0.00     0.010 A 
ATOM     35  C   UNL A   1      37.893  29.693  27.745  1.00  0.00     0.010 A 
ATOM     36  C   UNL A   1      38.065  29.445  29.113  1.00  0.00    -0.014 A 
BRANCH  36  37
ATOM     37  C   UNL A   1      39.442  29.187  29.455  1.00  0.00     0.031 A 
ATOM     38  C   UNL A   1      39.930  27.845  29.111  1.00  0.00     0.074 A 
ATOM     39  C   UNL A   1      40.219  30.253  29.734  1.00  0.00     0.049 A 
ATOM     40  N   UNL A   1      41.095  27.400  29.393  1.00  0.00    -0.248 NA
ATOM     41  C   UNL A   1      39.100  26.863  28.410  1.00  0.00     0.031 C 
ATOM     42  C   UNL A   1      41.669  30.376  29.671  1.00  0.00     0.029 A 
ATOM     43  N   UNL A   1      39.807  31.436  30.360  1.00  0.00    -0.354 N 
ATOM     44  C   UNL A   1      41.291  26.257  28.646  1.00  0.00     0.074 A 
ATOM     45  C   UNL A   1      39.985  25.895  28.164  1.00  0.00     0.031 C 
ATOM     46  C   UNL A   1      42.050  31.368  30.498  1.00  0.00     0.029 A 
ATOM     47  C   UNL A   1      40.866  31.787  31.232  1.00  0.00     0.049 A 
ATOM     48  H   UNL A   1      38.960  31.921  30.225  1.00  0.00     0.167 HD
ATOM     49  C   UNL A   1      42.579  25.871  28.427  1.00  0.00     0.037 A 
ATOM     50  C   UNL A   1      40.677  31.611  32.578  1.00  0.00     0.037 A 
ATOM     51  C   UNL A   1      43.468  26.676  29.277  1.00  0.00     0.049 A 
ATOM     52  C   UNL A   1      41.503  30.468  33.158  1.00  0.00     0.074 A 
ATOM     53  C   UNL A   1      44.251  27.802  29.088  1.00  0.00     0.029 A 
ATOM     54  N   UNL A   1      43.303  26.562  30.644  1.00  0.00    -0.354 N 
ATOM     55  N   UNL A   1      42.216  29.634  32.444  1.00  0.00    -0.248 NA
ATOM     56  C   UNL A   1      41.575  30.158  34.584  1.00  0.00     0.031 C 
ATOM     57  C   UNL A   1      44.464  28.405  30.372  1.00  0.00     0.029 A 
ATOM     58  C   UNL A   1      43.837  27.629  31.334  1.00  0.00     0.049 A 
ATOM     59  H   UNL A   1      42.852  25.803  31.077  1.00  0.00     0.167 HD
ATOM     60  C   UNL A   1      42.808  28.699  33.251  1.00  0.00     0.074 A 
ATOM     61  C   UNL A   1      42.356  29.061  34.587  1.00  0.00     0.031 C 
ATOM     62  C   UNL A   1      43.609  27.695  32.775  1.00  0.00     0.037 A 
BRANCH  49  63
ATOM     63  C   UNL A   1      43.078  24.924  27.354  1.00  0.00     0.058 A 
ATOM     64  C   UNL A   1      42.986  23.531  27.574  1.00  0.00     0.135 A 
ATOM     65  C   UNL A   1      43.715  25.276  26.144  1.00  0.00     0.135 A 
ATOM     66  F   UNL A   1      42.382  23.033  28.663  1.00  0.00    -0.206 F 
ATOM     67  C   UNL A   1      43.518  22.580  26.701  1.00  0.00     0.059 A 
ATOM     68  C   UNL A   1      44.252  24.342  25.251  1.00  0.00     0.059 A 
ATOM     69  F   UNL A   1      43.860  26.540  25.743  1.00  0.00    -0.206 F 
ATOM     70  C   UNL A   1      44.160  22.994  25.544  1.00  0.00     0.060 A 
BRANCH  70  71
ATOM     71  S   UNL A   1      44.855  21.756  24.439  1.00  0.00     0.124 S 
ATOM     72  O   UNL A   1      44.123  20.556  24.830  1.00  0.00    -0.237 OA
ATOM     73  O   UNL A   1      44.529  22.301  23.126  1.00  0.00    -0.237 OA
ATOM     74  O   UNL A   1      46.276  21.754  24.776  1.00  0.00    -0.744 OA
ENDBRANCH  70  71
ENDBRANCH  49  63
BRANCH  50  75
ATOM     75  C   UNL A   1      39.287  32.022  32.977  1.00  0.00     0.058 A 
ATOM     76  C   UNL A   1      38.998  33.407  32.962  1.00  0.00     0.135 A 
ATOM     77  C   UNL A   1      38.198  31.147  32.850  1.00  0.00     0.135 A 
ATOM     78  F   UNL A   1      39.992  34.299  33.108  1.00  0.00    -0.206 F 
ATOM     79  C   UNL A   1      37.737  33.897  32.629  1.00  0.00     0.059 A 
ATOM     80  C   UNL A   1      36.915  31.622  32.542  1.00  0.00     0.059 A 
ATOM     81  F   UNL A   1      38.391  29.820  32.871  1.00  0.00    -0.206 F 
ATOM     82  C   UNL A   1      36.718  32.992  32.351  1.00  0.00     0.060 A 
BRANCH  82  83
ATOM     83  S   UNL A   1      35.203  33.628  31.587  1.00  0.00     0.124 S 
ATOM     84  O   UNL A   1      34.401  32.416  31.456  1.00  0.00    -0.237 OA
ATOM     85  O   UNL A   1      34.731  34.593  32.583  1.00  0.00    -0.237 OA
ATOM     86  O   UNL A   1      35.677  34.203  30.335  1.00  0.00    -0.744 OA
ENDBRANCH  82  83
ENDBRANCH  50  75
BRANCH  62  87
ATOM     87  C   UNL A   1      44.238  26.646  33.662  1.00  0.00     0.058 A 
ATOM     88  C   UNL A   1      45.627  26.483  33.762  1.00  0.00     0.135 A 
ATOM     89  C   UNL A   1      43.458  25.695  34.364  1.00  0.00     0.135 A 
ATOM     90  F   UNL A   1      46.464  27.266  33.064  1.00  0.00    -0.206 F 
ATOM     91  C   UNL A   1      46.202  25.503  34.573  1.00  0.00     0.059 A 
ATOM     92  C   UNL A   1      44.008  24.664  35.113  1.00  0.00     0.059 A 
ATOM     93  F   UNL A   1      42.119  25.752  34.397  1.00  0.00    -0.206 F 
ATOM     94  C   UNL A   1      45.383  24.601  35.248  1.00  0.00     0.060 A 
BRANCH  94  95
ATOM     95  S   UNL A   1      46.117  23.348  36.309  1.00  0.00     0.124 S 
ATOM     96  O   UNL A   1      46.092  23.992  37.618  1.00  0.00    -0.237 OA
ATOM     97  O   UNL A   1      45.186  22.240  36.131  1.00  0.00    -0.237 OA
ATOM     98  O   UNL A   1      47.446  23.152  35.738  1.00  0.00    -0.744 OA
ENDBRANCH  94  95
ENDBRANCH  62  87
ENDBRANCH  36  37
ENDBRANCH  28  31
ENDBRANCH  26  27
ENDBRANCH  25  26
ENDBRANCH   1  25
TORSDOF 17
ENDMDL
