MODEL 1
REMARK VINA RESULT:     -11.6      0.000      0.000
REMARK SMILES COc1cc2c(cc1OC)[C@@H](CC(=O)NCCCCNC(=O)c1ccc(-c3c4nc(c(-c5c(F)cc(S(=O)(=O)[O-])cc5F)c5ccc([nH]5)c(-c5c(F)cc(S(=O)(=O)[O-])cc5F)c5nc(c(-c6c(F)cc(S(=O)(=O)[O-])cc6F)c6ccc3[nH]6)C=C5)C=C4)cc1)N(C(=O)Nc1ccc(Cl)cc1)CC2
REMARK SMILES IDX 17 1 16 2 15 3 13 4 14 5 12 7 11 8 3 9 4 10 8 11 5 12 7 13
REMARK SMILES IDX 6 14 101 15 100 16 89 17 2 18 1 19 9 20 10 21 90 22 91 23
REMARK SMILES IDX 92 24 93 26 94 27 99 28 95 29 98 30 96 31 97 32 18 33 19 34
REMARK SMILES IDX 20 35 21 36 22 38 23 39 24 40 88 41 25 42 87 43 26 44 27 45
REMARK SMILES IDX 28 46 81 47 29 48 86 49 80 50 82 51 30 52 85 53 79 54 78 55
REMARK SMILES IDX 31 57 65 58 44 59 64 60 45 61 48 62 63 63 83 64 46 65 47 66
REMARK SMILES IDX 62 68 84 69 49 70 32 71 33 72 42 73 34 74 35 75 41 76 43 77
REMARK SMILES IDX 36 78 37 79 38 80 39 81 40 82 66 83 67 84 76 85 68 86 69 87
REMARK SMILES IDX 75 88 77 89 70 90 71 91 72 92 73 93 74 94 50 95 51 96 60 97
REMARK SMILES IDX 52 98 53 99 59 100 61 101 54 102 55 103 56 104 57 105 58 106
REMARK H PARENT 15 6 92 25 20 37 82 56 48 67
REMARK Flexibility Score: inf
ROOT
ATOM      1  C   UNL A   1      33.548  31.596  27.592  1.00  0.00     0.023 C 
ENDROOT
BRANCH   1   2
ATOM      2  C   UNL A   1      33.752  30.229  26.934  1.00  0.00     0.116 C 
BRANCH   2   3
ATOM      3  N   UNL A   1      32.714  29.296  27.355  1.00  0.00    -0.356 N 
ATOM      4  C   UNL A   1      32.378  28.046  26.936  1.00  0.00     0.222 C 
ATOM      5  O   UNL A   1      31.357  27.530  27.396  1.00  0.00    -0.275 OA
ATOM      6  H   UNL A   1      32.145  29.637  28.084  1.00  0.00     0.163 HD
BRANCH   4   7
ATOM      7  C   UNL A   1      33.256  27.265  25.982  1.00  0.00     0.130 C 
BRANCH   7   8
ATOM      8  C   UNL A   1      32.413  26.533  24.906  1.00  0.00     0.127 C 
ATOM      9  C   UNL A   1      31.805  22.217  25.212  1.00  0.00     0.161 A 
ATOM     10  C   UNL A   1      31.571  22.886  24.024  1.00  0.00     0.054 A 
ATOM     11  C   UNL A   1      32.163  22.916  26.374  1.00  0.00     0.161 A 
ATOM     12  C   UNL A   1      31.754  24.266  23.975  1.00  0.00    -0.037 A 
ATOM     13  C   UNL A   1      32.286  24.321  26.329  1.00  0.00     0.056 A 
ATOM     14  C   UNL A   1      32.143  25.018  25.117  1.00  0.00    -0.018 A 
ATOM     15  C   UNL A   1      31.770  24.947  22.638  1.00  0.00     0.057 C 
ATOM     16  C   UNL A   1      33.118  25.645  22.627  1.00  0.00     0.127 C 
ATOM     17  N   UNL A   1      33.086  26.753  23.584  1.00  0.00    -0.317 N 
BRANCH   9  18
ATOM     18  O   UNL A   1      31.821  20.846  25.143  1.00  0.00    -0.493 OA
ATOM     19  C   UNL A   1      32.804  20.401  24.217  1.00  0.00     0.278 C 
ENDBRANCH   9  18
BRANCH  11  20
ATOM     20  O   UNL A   1      32.398  22.135  27.475  1.00  0.00    -0.493 OA
ATOM     21  C   UNL A   1      33.728  22.068  27.963  1.00  0.00     0.278 C 
ENDBRANCH  11  20
BRANCH  17  22
ATOM     22  C   UNL A   1      33.004  27.983  22.949  1.00  0.00     0.322 C 
ATOM     23  O   UNL A   1      33.906  28.806  22.985  1.00  0.00    -0.248 OA
ATOM     24  N   UNL A   1      31.737  28.146  22.420  1.00  0.00    -0.308 N 
ATOM     25  H   UNL A   1      31.416  27.453  21.799  1.00  0.00     0.171 HD
BRANCH  24  26
ATOM     26  C   UNL A   1      30.869  29.212  22.692  1.00  0.00     0.042 A 
ATOM     27  C   UNL A   1      30.053  29.645  21.640  1.00  0.00     0.028 A 
ATOM     28  C   UNL A   1      30.664  29.710  23.979  1.00  0.00     0.028 A 
ATOM     29  C   UNL A   1      28.992  30.516  21.887  1.00  0.00     0.022 A 
ATOM     30  C   UNL A   1      29.597  30.579  24.226  1.00  0.00     0.022 A 
ATOM     31  C   UNL A   1      28.755  30.961  23.183  1.00  0.00     0.041 A 
ATOM     32  Cl  UNL A   1      27.390  31.956  23.508  1.00  0.00    -0.084 Cl
ENDBRANCH  24  26
ENDBRANCH  17  22
ENDBRANCH   7   8
ENDBRANCH   4   7
ENDBRANCH   2   3
ENDBRANCH   1   2
BRANCH   1  33
ATOM     33  C   UNL A   1      34.798  32.250  28.154  1.00  0.00     0.023 C 
BRANCH  33  34
ATOM     34  C   UNL A   1      34.870  33.759  27.982  1.00  0.00     0.116 C 
BRANCH  34  35
ATOM     35  N   UNL A   1      33.682  34.500  28.407  1.00  0.00    -0.352 N 
ATOM     36  C   UNL A   1      33.363  34.947  29.678  1.00  0.00     0.251 C 
ATOM     37  H   UNL A   1      33.029  34.707  27.701  1.00  0.00     0.163 HD
ATOM     38  O   UNL A   1      32.371  35.625  29.892  1.00  0.00    -0.269 OA
BRANCH  36  39
ATOM     39  C   UNL A   1      34.232  34.514  30.792  1.00  0.00     0.039 A 
ATOM     40  C   UNL A   1      33.828  33.427  31.569  1.00  0.00     0.014 A 
ATOM     41  C   UNL A   1      35.528  35.018  30.876  1.00  0.00     0.014 A 
ATOM     42  C   UNL A   1      34.781  32.738  32.323  1.00  0.00     0.010 A 
ATOM     43  C   UNL A   1      36.489  34.260  31.531  1.00  0.00     0.010 A 
ATOM     44  C   UNL A   1      36.135  33.090  32.229  1.00  0.00    -0.014 A 
BRANCH  44  45
ATOM     45  C   UNL A   1      37.228  32.256  32.805  1.00  0.00     0.031 A 
ATOM     46  C   UNL A   1      37.786  32.626  34.152  1.00  0.00     0.074 A 
ATOM     47  C   UNL A   1      37.814  31.282  32.076  1.00  0.00     0.049 A 
ATOM     48  N   UNL A   1      38.918  32.279  34.704  1.00  0.00    -0.248 NA
ATOM     49  C   UNL A   1      36.989  33.571  34.952  1.00  0.00     0.031 C 
ATOM     50  C   UNL A   1      37.405  30.841  30.740  1.00  0.00     0.029 A 
ATOM     51  N   UNL A   1      38.906  30.494  32.356  1.00  0.00    -0.354 N 
ATOM     52  C   UNL A   1      38.998  33.014  35.881  1.00  0.00     0.074 A 
ATOM     53  C   UNL A   1      37.822  33.854  35.940  1.00  0.00     0.031 C 
ATOM     54  C   UNL A   1      38.210  29.844  30.333  1.00  0.00     0.029 A 
ATOM     55  C   UNL A   1      39.232  29.614  31.347  1.00  0.00     0.049 A 
ATOM     56  H   UNL A   1      39.409  30.553  33.200  1.00  0.00     0.167 HD
ATOM     57  C   UNL A   1      39.956  32.975  36.838  1.00  0.00     0.037 A 
ATOM     58  C   UNL A   1      40.251  28.736  31.245  1.00  0.00     0.037 A 
ATOM     59  C   UNL A   1      41.074  32.074  36.813  1.00  0.00     0.049 A 
ATOM     60  C   UNL A   1      41.263  28.658  32.359  1.00  0.00     0.074 A 
ATOM     61  C   UNL A   1      42.085  31.928  37.747  1.00  0.00     0.029 A 
ATOM     62  N   UNL A   1      41.304  31.134  35.820  1.00  0.00    -0.354 N 
ATOM     63  N   UNL A   1      41.336  29.374  33.455  1.00  0.00    -0.248 NA
ATOM     64  C   UNL A   1      42.334  27.660  32.221  1.00  0.00     0.031 C 
ATOM     65  C   UNL A   1      42.925  30.894  37.320  1.00  0.00     0.029 A 
ATOM     66  C   UNL A   1      42.424  30.384  36.133  1.00  0.00     0.049 A 
ATOM     67  H   UNL A   1      40.753  31.017  35.013  1.00  0.00     0.167 HD
ATOM     68  C   UNL A   1      42.433  28.886  34.155  1.00  0.00     0.074 A 
ATOM     69  C   UNL A   1      42.999  27.818  33.359  1.00  0.00     0.031 C 
ATOM     70  C   UNL A   1      42.931  29.288  35.349  1.00  0.00     0.037 A 
BRANCH  57  71
ATOM     71  C   UNL A   1      39.813  33.920  37.995  1.00  0.00     0.058 A 
ATOM     72  C   UNL A   1      40.416  35.188  37.984  1.00  0.00     0.135 A 
ATOM     73  C   UNL A   1      39.066  33.557  39.128  1.00  0.00     0.135 A 
ATOM     74  F   UNL A   1      41.158  35.574  36.934  1.00  0.00    -0.206 F 
ATOM     75  C   UNL A   1      40.321  36.047  39.072  1.00  0.00     0.059 A 
ATOM     76  C   UNL A   1      38.932  34.415  40.216  1.00  0.00     0.059 A 
ATOM     77  F   UNL A   1      38.469  32.358  39.190  1.00  0.00    -0.206 F 
ATOM     78  C   UNL A   1      39.582  35.649  40.187  1.00  0.00     0.060 A 
BRANCH  78  79
ATOM     79  S   UNL A   1      39.478  36.767  41.599  1.00  0.00     0.124 S 
ATOM     80  O   UNL A   1      38.913  37.962  40.979  1.00  0.00    -0.237 OA
ATOM     81  O   UNL A   1      38.592  36.046  42.508  1.00  0.00    -0.237 OA
ATOM     82  O   UNL A   1      40.864  36.883  42.041  1.00  0.00    -0.744 OA
ENDBRANCH  78  79
ENDBRANCH  57  71
BRANCH  58  83
ATOM     83  C   UNL A   1      40.361  27.836  30.066  1.00  0.00     0.058 A 
ATOM     84  C   UNL A   1      41.351  28.057  29.095  1.00  0.00     0.135 A 
ATOM     85  C   UNL A   1      39.480  26.764  29.867  1.00  0.00     0.135 A 
ATOM     86  F   UNL A   1      42.214  29.075  29.239  1.00  0.00    -0.206 F 
ATOM     87  C   UNL A   1      41.446  27.266  27.955  1.00  0.00     0.059 A 
ATOM     88  C   UNL A   1      39.569  25.943  28.744  1.00  0.00     0.059 A 
ATOM     89  F   UNL A   1      38.527  26.499  30.774  1.00  0.00    -0.206 F 
ATOM     90  C   UNL A   1      40.546  26.214  27.785  1.00  0.00     0.060 A 
BRANCH  90  91
ATOM     91  S   UNL A   1      40.684  25.183  26.308  1.00  0.00     0.124 S 
ATOM     92  O   UNL A   1      39.308  24.731  26.138  1.00  0.00    -0.237 OA
ATOM     93  O   UNL A   1      41.172  26.132  25.311  1.00  0.00    -0.237 OA
ATOM     94  O   UNL A   1      41.643  24.157  26.706  1.00  0.00    -0.744 OA
ENDBRANCH  90  91
ENDBRANCH  58  83
BRANCH  70  95
ATOM     95  C   UNL A   1      44.091  28.527  35.917  1.00  0.00     0.058 A 
ATOM     96  C   UNL A   1      43.908  27.363  36.674  1.00  0.00     0.135 A 
ATOM     97  C   UNL A   1      45.404  28.911  35.598  1.00  0.00     0.135 A 
ATOM     98  F   UNL A   1      42.672  26.962  37.009  1.00  0.00    -0.206 F 
ATOM     99  C   UNL A   1      44.990  26.595  37.091  1.00  0.00     0.059 A 
ATOM    100  C   UNL A   1      46.498  28.150  35.988  1.00  0.00     0.059 A 
ATOM    101  F   UNL A   1      45.626  30.017  34.869  1.00  0.00    -0.206 F 
ATOM    102  C   UNL A   1      46.281  26.992  36.734  1.00  0.00     0.060 A 
BRANCH 102 103
ATOM    103  S   UNL A   1      47.672  25.938  37.199  1.00  0.00     0.124 S 
ATOM    104  O   UNL A   1      48.793  26.645  36.591  1.00  0.00    -0.237 OA
ATOM    105  O   UNL A   1      47.617  25.972  38.658  1.00  0.00    -0.237 OA
ATOM    106  O   UNL A   1      47.338  24.651  36.597  1.00  0.00    -0.744 OA
ENDBRANCH 102 103
ENDBRANCH  70  95
ENDBRANCH  44  45
ENDBRANCH  36  39
ENDBRANCH  34  35
ENDBRANCH  33  34
ENDBRANCH   1  33
TORSDOF 19
ENDMDL
MODEL 2
REMARK VINA RESULT:     -11.3      3.798      5.979
REMARK SMILES COc1cc2c(cc1OC)[C@@H](CC(=O)NCCCCNC(=O)c1ccc(-c3c4nc(c(-c5c(F)cc(S(=O)(=O)[O-])cc5F)c5ccc([nH]5)c(-c5c(F)cc(S(=O)(=O)[O-])cc5F)c5nc(c(-c6c(F)cc(S(=O)(=O)[O-])cc6F)c6ccc3[nH]6)C=C5)C=C4)cc1)N(C(=O)Nc1ccc(Cl)cc1)CC2
REMARK SMILES IDX 17 1 16 2 15 3 13 4 14 5 12 7 11 8 3 9 4 10 8 11 5 12 7 13
REMARK SMILES IDX 6 14 101 15 100 16 89 17 2 18 1 19 9 20 10 21 90 22 91 23
REMARK SMILES IDX 92 24 93 26 94 27 99 28 95 29 98 30 96 31 97 32 18 33 19 34
REMARK SMILES IDX 20 35 21 36 22 38 23 39 24 40 88 41 25 42 87 43 26 44 27 45
REMARK SMILES IDX 28 46 81 47 29 48 86 49 80 50 82 51 30 52 85 53 79 54 78 55
REMARK SMILES IDX 31 57 65 58 44 59 64 60 45 61 48 62 63 63 83 64 46 65 47 66
REMARK SMILES IDX 62 68 84 69 49 70 32 71 33 72 42 73 34 74 35 75 41 76 43 77
REMARK SMILES IDX 36 78 37 79 38 80 39 81 40 82 66 83 67 84 76 85 68 86 69 87
REMARK SMILES IDX 75 88 77 89 70 90 71 91 72 92 73 93 74 94 50 95 51 96 60 97
REMARK SMILES IDX 52 98 53 99 59 100 61 101 54 102 55 103 56 104 57 105 58 106
REMARK H PARENT 15 6 92 25 20 37 82 56 48 67
REMARK Flexibility Score: inf
ROOT
ATOM      1  C   UNL A   1      32.722  28.535  24.321  1.00  0.00     0.023 C 
ENDROOT
BRANCH   1   2
ATOM      2  C   UNL A   1      33.143  28.760  22.867  1.00  0.00     0.116 C 
BRANCH   2   3
ATOM      3  N   UNL A   1      32.967  27.541  22.087  1.00  0.00    -0.356 N 
ATOM      4  C   UNL A   1      33.541  26.310  22.167  1.00  0.00     0.222 C 
ATOM      5  O   UNL A   1      33.288  25.488  21.283  1.00  0.00    -0.275 OA
ATOM      6  H   UNL A   1      32.304  27.624  21.363  1.00  0.00     0.163 HD
BRANCH   4   7
ATOM      7  C   UNL A   1      34.418  25.915  23.337  1.00  0.00     0.130 C 
BRANCH   7   8
ATOM      8  C   UNL A   1      34.040  24.512  23.880  1.00  0.00     0.127 C 
ATOM      9  C   UNL A   1      30.331  24.000  26.133  1.00  0.00     0.161 A 
ATOM     10  C   UNL A   1      31.335  23.048  26.186  1.00  0.00     0.054 A 
ATOM     11  C   UNL A   1      30.442  25.115  25.289  1.00  0.00     0.161 A 
ATOM     12  C   UNL A   1      32.491  23.238  25.434  1.00  0.00    -0.037 A 
ATOM     13  C   UNL A   1      31.591  25.267  24.485  1.00  0.00     0.056 A 
ATOM     14  C   UNL A   1      32.664  24.365  24.585  1.00  0.00    -0.018 A 
ATOM     15  C   UNL A   1      33.680  22.360  25.700  1.00  0.00     0.057 C 
ATOM     16  C   UNL A   1      34.774  23.360  26.027  1.00  0.00     0.127 C 
ATOM     17  N   UNL A   1      35.138  24.082  24.807  1.00  0.00    -0.317 N 
BRANCH   9  18
ATOM     18  O   UNL A   1      29.322  23.869  27.054  1.00  0.00    -0.493 OA
ATOM     19  C   UNL A   1      29.218  22.521  27.497  1.00  0.00     0.278 C 
ENDBRANCH   9  18
BRANCH  11  20
ATOM     20  O   UNL A   1      29.397  25.999  25.353  1.00  0.00    -0.493 OA
ATOM     21  C   UNL A   1      28.941  26.568  24.137  1.00  0.00     0.278 C 
ENDBRANCH  11  20
BRANCH  17  22
ATOM     22  C   UNL A   1      36.360  23.663  24.302  1.00  0.00     0.322 C 
ATOM     23  O   UNL A   1      36.488  23.209  23.175  1.00  0.00    -0.248 OA
ATOM     24  N   UNL A   1      37.316  23.722  25.298  1.00  0.00    -0.308 N 
ATOM     25  H   UNL A   1      37.445  24.589  25.746  1.00  0.00     0.171 HD
BRANCH  24  26
ATOM     26  C   UNL A   1      38.118  22.655  25.726  1.00  0.00     0.042 A 
ATOM     27  C   UNL A   1      37.831  21.395  25.188  1.00  0.00     0.028 A 
ATOM     28  C   UNL A   1      39.269  22.835  26.494  1.00  0.00     0.028 A 
ATOM     29  C   UNL A   1      38.727  20.339  25.355  1.00  0.00     0.022 A 
ATOM     30  C   UNL A   1      40.167  21.778  26.657  1.00  0.00     0.022 A 
ATOM     31  C   UNL A   1      39.902  20.541  26.071  1.00  0.00     0.041 A 
ATOM     32  Cl  UNL A   1      41.054  19.270  26.197  1.00  0.00    -0.084 Cl
ENDBRANCH  24  26
ENDBRANCH  17  22
ENDBRANCH   7   8
ENDBRANCH   4   7
ENDBRANCH   2   3
ENDBRANCH   1   2
BRANCH   1  33
ATOM     33  C   UNL A   1      33.730  28.962  25.373  1.00  0.00     0.023 C 
BRANCH  33  34
ATOM     34  C   UNL A   1      33.132  29.397  26.702  1.00  0.00     0.116 C 
BRANCH  34  35
ATOM     35  N   UNL A   1      33.428  30.771  27.108  1.00  0.00    -0.352 N 
ATOM     36  C   UNL A   1      34.603  31.270  27.644  1.00  0.00     0.251 C 
ATOM     37  H   UNL A   1      32.700  31.422  26.985  1.00  0.00     0.163 HD
ATOM     38  O   UNL A   1      34.753  32.460  27.873  1.00  0.00    -0.269 OA
BRANCH  36  39
ATOM     39  C   UNL A   1      35.657  30.298  27.999  1.00  0.00     0.039 A 
ATOM     40  C   UNL A   1      36.774  30.192  27.169  1.00  0.00     0.014 A 
ATOM     41  C   UNL A   1      35.641  29.712  29.262  1.00  0.00     0.014 A 
ATOM     42  C   UNL A   1      37.948  29.628  27.674  1.00  0.00     0.010 A 
ATOM     43  C   UNL A   1      36.841  29.262  29.797  1.00  0.00     0.010 A 
ATOM     44  C   UNL A   1      38.017  29.250  29.023  1.00  0.00    -0.014 A 
BRANCH  44  45
ATOM     45  C   UNL A   1      39.294  28.872  29.691  1.00  0.00     0.031 A 
ATOM     46  C   UNL A   1      39.726  29.635  30.913  1.00  0.00     0.074 A 
ATOM     47  C   UNL A   1      40.127  27.967  29.132  1.00  0.00     0.049 A 
ATOM     48  N   UNL A   1      40.909  29.721  31.462  1.00  0.00    -0.248 NA
ATOM     49  C   UNL A   1      38.699  30.470  31.558  1.00  0.00     0.031 C 
ATOM     50  C   UNL A   1      39.858  27.177  27.927  1.00  0.00     0.029 A 
ATOM     51  N   UNL A   1      41.392  27.572  29.500  1.00  0.00    -0.354 N 
ATOM     52  C   UNL A   1      40.782  30.667  32.472  1.00  0.00     0.074 A 
ATOM     53  C   UNL A   1      39.421  31.155  32.430  1.00  0.00     0.031 C 
ATOM     54  C   UNL A   1      40.906  26.374  27.677  1.00  0.00     0.029 A 
ATOM     55  C   UNL A   1      41.949  26.631  28.662  1.00  0.00     0.049 A 
ATOM     56  H   UNL A   1      41.857  27.929  30.291  1.00  0.00     0.167 HD
ATOM     57  C   UNL A   1      41.710  31.077  33.368  1.00  0.00     0.037 A 
ATOM     58  C   UNL A   1      43.169  26.057  28.677  1.00  0.00     0.037 A 
ATOM     59  C   UNL A   1      43.032  30.523  33.458  1.00  0.00     0.049 A 
ATOM     60  C   UNL A   1      44.161  26.475  29.732  1.00  0.00     0.074 A 
ATOM     61  C   UNL A   1      44.042  30.840  34.350  1.00  0.00     0.029 A 
ATOM     62  N   UNL A   1      43.514  29.503  32.652  1.00  0.00    -0.354 N 
ATOM     63  N   UNL A   1      44.032  27.385  30.667  1.00  0.00    -0.248 NA
ATOM     64  C   UNL A   1      45.464  25.794  29.732  1.00  0.00     0.031 C 
ATOM     65  C   UNL A   1      45.134  30.008  34.085  1.00  0.00     0.029 A 
ATOM     66  C   UNL A   1      44.795  29.158  33.044  1.00  0.00     0.049 A 
ATOM     67  H   UNL A   1      43.017  29.085  31.911  1.00  0.00     0.167 HD
ATOM     68  C   UNL A   1      45.219  27.358  31.389  1.00  0.00     0.074 A 
ATOM     69  C   UNL A   1      46.057  26.346  30.783  1.00  0.00     0.031 C 
ATOM     70  C   UNL A   1      45.585  28.106  32.458  1.00  0.00     0.037 A 
BRANCH  57  71
ATOM     71  C   UNL A   1      41.311  32.157  34.330  1.00  0.00     0.058 A 
ATOM     72  C   UNL A   1      40.763  31.853  35.586  1.00  0.00     0.135 A 
ATOM     73  C   UNL A   1      41.477  33.512  33.996  1.00  0.00     0.135 A 
ATOM     74  F   UNL A   1      40.565  30.575  35.945  1.00  0.00    -0.206 F 
ATOM     75  C   UNL A   1      40.353  32.852  36.461  1.00  0.00     0.059 A 
ATOM     76  C   UNL A   1      41.101  34.528  34.870  1.00  0.00     0.059 A 
ATOM     77  F   UNL A   1      41.996  33.857  32.808  1.00  0.00    -0.206 F 
ATOM     78  C   UNL A   1      40.520  34.187  36.091  1.00  0.00     0.060 A 
BRANCH  78  79
ATOM     79  S   UNL A   1      39.970  35.475  37.230  1.00  0.00     0.124 S 
ATOM     80  O   UNL A   1      41.156  35.648  38.063  1.00  0.00    -0.237 OA
ATOM     81  O   UNL A   1      39.662  36.581  36.329  1.00  0.00    -0.237 OA
ATOM     82  O   UNL A   1      38.819  34.871  37.892  1.00  0.00    -0.744 OA
ENDBRANCH  78  79
ENDBRANCH  57  71
BRANCH  58  83
ATOM     83  C   UNL A   1      43.524  25.006  27.686  1.00  0.00     0.058 A 
ATOM     84  C   UNL A   1      43.230  23.657  27.946  1.00  0.00     0.135 A 
ATOM     85  C   UNL A   1      44.178  25.311  26.484  1.00  0.00     0.135 A 
ATOM     86  F   UNL A   1      42.610  23.316  29.086  1.00  0.00    -0.206 F 
ATOM     87  C   UNL A   1      43.598  22.647  27.065  1.00  0.00     0.059 A 
ATOM     88  C   UNL A   1      44.536  24.318  25.575  1.00  0.00     0.059 A 
ATOM     89  F   UNL A   1      44.466  26.585  26.179  1.00  0.00    -0.206 F 
ATOM     90  C   UNL A   1      44.257  22.985  25.883  1.00  0.00     0.060 A 
BRANCH  90  91
ATOM     91  S   UNL A   1      44.719  21.668  24.737  1.00  0.00     0.124 S 
ATOM     92  O   UNL A   1      43.725  20.647  25.050  1.00  0.00    -0.237 OA
ATOM     93  O   UNL A   1      44.577  22.321  23.440  1.00  0.00    -0.237 OA
ATOM     94  O   UNL A   1      46.091  21.355  25.125  1.00  0.00    -0.744 OA
ENDBRANCH  90  91
ENDBRANCH  58  83
BRANCH  70  95
ATOM     95  C   UNL A   1      46.907  27.812  33.100  1.00  0.00     0.058 A 
ATOM     96  C   UNL A   1      47.036  26.853  34.113  1.00  0.00     0.135 A 
ATOM     97  C   UNL A   1      48.074  28.420  32.610  1.00  0.00     0.135 A 
ATOM     98  F   UNL A   1      45.948  26.252  34.618  1.00  0.00    -0.206 F 
ATOM     99  C   UNL A   1      48.283  26.497  34.616  1.00  0.00     0.059 A 
ATOM    100  C   UNL A   1      49.331  28.068  33.085  1.00  0.00     0.059 A 
ATOM    101  F   UNL A   1      47.997  29.340  31.635  1.00  0.00    -0.206 F 
ATOM    102  C   UNL A   1      49.426  27.104  34.088  1.00  0.00     0.060 A 
BRANCH 102 103
ATOM    103  S   UNL A   1      51.045  26.567  34.680  1.00  0.00     0.124 S 
ATOM    104  O   UNL A   1      51.241  25.336  33.923  1.00  0.00    -0.237 OA
ATOM    105  O   UNL A   1      51.903  27.686  34.303  1.00  0.00    -0.237 OA
ATOM    106  O   UNL A   1      50.843  26.399  36.115  1.00  0.00    -0.744 OA
ENDBRANCH 102 103
ENDBRANCH  70  95
ENDBRANCH  44  45
ENDBRANCH  36  39
ENDBRANCH  34  35
ENDBRANCH  33  34
ENDBRANCH   1  33
TORSDOF 19
ENDMDL
MODEL 3
REMARK VINA RESULT:     -11.1      3.607      9.601
REMARK SMILES COc1cc2c(cc1OC)[C@@H](CC(=O)NCCCCNC(=O)c1ccc(-c3c4nc(c(-c5c(F)cc(S(=O)(=O)[O-])cc5F)c5ccc([nH]5)c(-c5c(F)cc(S(=O)(=O)[O-])cc5F)c5nc(c(-c6c(F)cc(S(=O)(=O)[O-])cc6F)c6ccc3[nH]6)C=C5)C=C4)cc1)N(C(=O)Nc1ccc(Cl)cc1)CC2
REMARK SMILES IDX 17 1 16 2 15 3 13 4 14 5 12 7 11 8 3 9 4 10 8 11 5 12 7 13
REMARK SMILES IDX 6 14 101 15 100 16 89 17 2 18 1 19 9 20 10 21 90 22 91 23
REMARK SMILES IDX 92 24 93 26 94 27 99 28 95 29 98 30 96 31 97 32 18 33 19 34
REMARK SMILES IDX 20 35 21 36 22 38 23 39 24 40 88 41 25 42 87 43 26 44 27 45
REMARK SMILES IDX 28 46 81 47 29 48 86 49 80 50 82 51 30 52 85 53 79 54 78 55
REMARK SMILES IDX 31 57 65 58 44 59 64 60 45 61 48 62 63 63 83 64 46 65 47 66
REMARK SMILES IDX 62 68 84 69 49 70 32 71 33 72 42 73 34 74 35 75 41 76 43 77
REMARK SMILES IDX 36 78 37 79 38 80 39 81 40 82 66 83 67 84 76 85 68 86 69 87
REMARK SMILES IDX 75 88 77 89 70 90 71 91 72 92 73 93 74 94 50 95 51 96 60 97
REMARK SMILES IDX 52 98 53 99 59 100 61 101 54 102 55 103 56 104 57 105 58 106
REMARK H PARENT 15 6 92 25 20 37 82 56 48 67
REMARK Flexibility Score: inf
ROOT
ATOM      1  C   UNL A   1      32.874  28.986  23.521  1.00  0.00     0.023 C 
ENDROOT
BRANCH   1   2
ATOM      2  C   UNL A   1      33.872  28.422  22.506  1.00  0.00     0.116 C 
BRANCH   2   3
ATOM      3  N   UNL A   1      33.402  27.146  21.980  1.00  0.00    -0.356 N 
ATOM      4  C   UNL A   1      33.702  25.857  22.295  1.00  0.00     0.222 C 
ATOM      5  O   UNL A   1      33.237  24.959  21.589  1.00  0.00    -0.275 OA
ATOM      6  H   UNL A   1      32.739  27.235  21.256  1.00  0.00     0.163 HD
BRANCH   4   7
ATOM      7  C   UNL A   1      34.527  25.508  23.515  1.00  0.00     0.130 C 
BRANCH   7   8
ATOM      8  C   UNL A   1      34.150  24.112  24.074  1.00  0.00     0.127 C 
ATOM      9  C   UNL A   1      30.540  23.662  26.495  1.00  0.00     0.161 A 
ATOM     10  C   UNL A   1      31.527  22.692  26.502  1.00  0.00     0.054 A 
ATOM     11  C   UNL A   1      30.632  24.777  25.648  1.00  0.00     0.161 A 
ATOM     12  C   UNL A   1      32.651  22.863  25.697  1.00  0.00    -0.037 A 
ATOM     13  C   UNL A   1      31.745  24.909  24.792  1.00  0.00     0.056 A 
ATOM     14  C   UNL A   1      32.805  23.987  24.842  1.00  0.00    -0.018 A 
ATOM     15  C   UNL A   1      33.835  21.963  25.907  1.00  0.00     0.057 C 
ATOM     16  C   UNL A   1      34.961  22.942  26.184  1.00  0.00     0.127 C 
ATOM     17  N   UNL A   1      35.281  23.660  24.949  1.00  0.00    -0.317 N 
BRANCH   9  18
ATOM     18  O   UNL A   1      29.572  23.548  27.461  1.00  0.00    -0.493 OA
ATOM     19  C   UNL A   1      28.814  22.359  27.275  1.00  0.00     0.278 C 
ENDBRANCH   9  18
BRANCH  11  20
ATOM     20  O   UNL A   1      29.607  25.679  25.761  1.00  0.00    -0.493 OA
ATOM     21  C   UNL A   1      29.166  26.326  24.579  1.00  0.00     0.278 C 
ENDBRANCH  11  20
BRANCH  17  22
ATOM     22  C   UNL A   1      36.471  23.220  24.388  1.00  0.00     0.322 C 
ATOM     23  O   UNL A   1      36.523  22.672  23.297  1.00  0.00    -0.248 OA
ATOM     24  N   UNL A   1      37.499  23.382  25.298  1.00  0.00    -0.308 N 
ATOM     25  H   UNL A   1      37.641  24.287  25.658  1.00  0.00     0.171 HD
BRANCH  24  26
ATOM     26  C   UNL A   1      38.357  22.371  25.751  1.00  0.00     0.042 A 
ATOM     27  C   UNL A   1      38.141  21.086  25.240  1.00  0.00     0.028 A 
ATOM     28  C   UNL A   1      39.492  22.631  26.518  1.00  0.00     0.028 A 
ATOM     29  C   UNL A   1      39.093  20.085  25.434  1.00  0.00     0.022 A 
ATOM     30  C   UNL A   1      40.447  21.629  26.708  1.00  0.00     0.022 A 
ATOM     31  C   UNL A   1      40.253  20.367  26.148  1.00  0.00     0.041 A 
ATOM     32  Cl  UNL A   1      41.472  19.164  26.305  1.00  0.00    -0.084 Cl
ENDBRANCH  24  26
ENDBRANCH  17  22
ENDBRANCH   7   8
ENDBRANCH   4   7
ENDBRANCH   2   3
ENDBRANCH   1   2
BRANCH   1  33
ATOM     33  C   UNL A   1      32.883  28.329  24.890  1.00  0.00     0.023 C 
BRANCH  33  34
ATOM     34  C   UNL A   1      33.994  28.791  25.820  1.00  0.00     0.116 C 
BRANCH  34  35
ATOM     35  N   UNL A   1      33.746  30.048  26.525  1.00  0.00    -0.352 N 
ATOM     36  C   UNL A   1      34.580  30.711  27.410  1.00  0.00     0.251 C 
ATOM     37  H   UNL A   1      32.877  30.475  26.349  1.00  0.00     0.163 HD
ATOM     38  O   UNL A   1      34.287  31.800  27.878  1.00  0.00    -0.269 OA
BRANCH  36  39
ATOM     39  C   UNL A   1      35.817  30.022  27.828  1.00  0.00     0.039 A 
ATOM     40  C   UNL A   1      36.972  30.203  27.066  1.00  0.00     0.014 A 
ATOM     41  C   UNL A   1      35.872  29.432  29.089  1.00  0.00     0.014 A 
ATOM     42  C   UNL A   1      38.217  29.935  27.641  1.00  0.00     0.010 A 
ATOM     43  C   UNL A   1      37.112  29.282  29.695  1.00  0.00     0.010 A 
ATOM     44  C   UNL A   1      38.298  29.568  28.993  1.00  0.00    -0.014 A 
BRANCH  44  45
ATOM     45  C   UNL A   1      39.588  29.504  29.735  1.00  0.00     0.031 A 
ATOM     46  C   UNL A   1      40.645  28.541  29.268  1.00  0.00     0.074 A 
ATOM     47  C   UNL A   1      39.756  30.181  30.892  1.00  0.00     0.049 A 
ATOM     48  N   UNL A   1      41.681  28.072  29.911  1.00  0.00    -0.248 NA
ATOM     49  C   UNL A   1      40.466  27.980  27.919  1.00  0.00     0.031 C 
ATOM     50  C   UNL A   1      38.802  31.121  31.487  1.00  0.00     0.029 A 
ATOM     51  N   UNL A   1      40.795  30.163  31.793  1.00  0.00    -0.354 N 
ATOM     52  C   UNL A   1      42.236  27.113  29.071  1.00  0.00     0.074 A 
ATOM     53  C   UNL A   1      41.398  27.040  27.895  1.00  0.00     0.031 C 
ATOM     54  C   UNL A   1      39.312  31.611  32.630  1.00  0.00     0.029 A 
ATOM     55  C   UNL A   1      40.600  30.978  32.887  1.00  0.00     0.049 A 
ATOM     56  H   UNL A   1      41.605  29.618  31.668  1.00  0.00     0.167 HD
ATOM     57  C   UNL A   1      43.357  26.376  29.255  1.00  0.00     0.037 A 
ATOM     58  C   UNL A   1      41.364  31.176  33.979  1.00  0.00     0.037 A 
ATOM     59  C   UNL A   1      44.231  26.519  30.385  1.00  0.00     0.049 A 
ATOM     60  C   UNL A   1      42.647  30.398  34.125  1.00  0.00     0.074 A 
ATOM     61  C   UNL A   1      45.411  25.847  30.655  1.00  0.00     0.029 A 
ATOM     62  N   UNL A   1      44.042  27.428  31.415  1.00  0.00    -0.354 N 
ATOM     63  N   UNL A   1      43.147  29.481  33.332  1.00  0.00    -0.248 NA
ATOM     64  C   UNL A   1      43.466  30.675  35.315  1.00  0.00     0.031 C 
ATOM     65  C   UNL A   1      45.938  26.354  31.847  1.00  0.00     0.029 A 
ATOM     66  C   UNL A   1      45.098  27.356  32.306  1.00  0.00     0.049 A 
ATOM     67  H   UNL A   1      43.272  28.036  31.499  1.00  0.00     0.167 HD
ATOM     68  C   UNL A   1      44.356  29.103  33.905  1.00  0.00     0.074 A 
ATOM     69  C   UNL A   1      44.512  29.884  35.113  1.00  0.00     0.031 C 
ATOM     70  C   UNL A   1      45.256  28.188  33.471  1.00  0.00     0.037 A 
BRANCH  57  71
ATOM     71  C   UNL A   1      43.703  25.372  28.195  1.00  0.00     0.058 A 
ATOM     72  C   UNL A   1      43.284  24.035  28.288  1.00  0.00     0.135 A 
ATOM     73  C   UNL A   1      44.461  25.746  27.073  1.00  0.00     0.135 A 
ATOM     74  F   UNL A   1      42.575  23.622  29.351  1.00  0.00    -0.206 F 
ATOM     75  C   UNL A   1      43.640  23.094  27.330  1.00  0.00     0.059 A 
ATOM     76  C   UNL A   1      44.803  24.826  26.086  1.00  0.00     0.059 A 
ATOM     77  F   UNL A   1      44.887  27.010  26.935  1.00  0.00    -0.206 F 
ATOM     78  C   UNL A   1      44.405  23.497  26.235  1.00  0.00     0.060 A 
BRANCH  78  79
ATOM     79  S   UNL A   1      44.873  22.263  25.005  1.00  0.00     0.124 S 
ATOM     80  O   UNL A   1      46.035  21.649  25.640  1.00  0.00    -0.237 OA
ATOM     81  O   UNL A   1      43.679  21.427  24.927  1.00  0.00    -0.237 OA
ATOM     82  O   UNL A   1      45.155  23.060  23.815  1.00  0.00    -0.744 OA
ENDBRANCH  78  79
ENDBRANCH  57  71
BRANCH  58  83
ATOM     83  C   UNL A   1      40.966  32.168  35.014  1.00  0.00     0.058 A 
ATOM     84  C   UNL A   1      41.456  33.483  34.963  1.00  0.00     0.135 A 
ATOM     85  C   UNL A   1      40.118  31.828  36.078  1.00  0.00     0.135 A 
ATOM     86  F   UNL A   1      42.275  33.853  33.966  1.00  0.00    -0.206 F 
ATOM     87  C   UNL A   1      41.145  34.417  35.944  1.00  0.00     0.059 A 
ATOM     88  C   UNL A   1      39.773  32.754  37.061  1.00  0.00     0.059 A 
ATOM     89  F   UNL A   1      39.608  30.590  36.164  1.00  0.00    -0.206 F 
ATOM     90  C   UNL A   1      40.307  34.042  36.994  1.00  0.00     0.060 A 
BRANCH  90  91
ATOM     91  S   UNL A   1      39.896  35.266  38.258  1.00  0.00     0.124 S 
ATOM     92  O   UNL A   1      39.685  36.461  37.449  1.00  0.00    -0.237 OA
ATOM     93  O   UNL A   1      38.703  34.690  38.872  1.00  0.00    -0.237 OA
ATOM     94  O   UNL A   1      41.083  35.279  39.108  1.00  0.00    -0.744 OA
ENDBRANCH  90  91
ENDBRANCH  58  83
BRANCH  70  95
ATOM     95  C   UNL A   1      46.528  28.032  34.249  1.00  0.00     0.058 A 
ATOM     96  C   UNL A   1      46.656  27.077  35.266  1.00  0.00     0.135 A 
ATOM     97  C   UNL A   1      47.664  28.773  33.887  1.00  0.00     0.135 A 
ATOM     98  F   UNL A   1      45.595  26.351  35.650  1.00  0.00    -0.206 F 
ATOM     99  C   UNL A   1      47.875  26.853  35.896  1.00  0.00     0.059 A 
ATOM    100  C   UNL A   1      48.897  28.554  34.491  1.00  0.00     0.059 A 
ATOM    101  F   UNL A   1      47.588  29.694  32.913  1.00  0.00    -0.206 F 
ATOM    102  C   UNL A   1      48.992  27.590  35.494  1.00  0.00     0.060 A 
BRANCH 102 103
ATOM    103  S   UNL A   1      50.590  27.226  36.252  1.00  0.00     0.124 S 
ATOM    104  O   UNL A   1      51.488  28.058  35.460  1.00  0.00    -0.237 OA
ATOM    105  O   UNL A   1      50.386  27.651  37.634  1.00  0.00    -0.237 OA
ATOM    106  O   UNL A   1      50.735  25.786  36.063  1.00  0.00    -0.744 OA
ENDBRANCH 102 103
ENDBRANCH  70  95
ENDBRANCH  44  45
ENDBRANCH  36  39
ENDBRANCH  34  35
ENDBRANCH  33  34
ENDBRANCH   1  33
TORSDOF 19
ENDMDL
