MODEL 1
REMARK VINA RESULT:     -12.3      0.000      0.000
REMARK SMILES C[C@@H](C(=O)NCCCCNC(=O)c1ccc(-c2c3nc(c(-c4c(F)cc(S(=O)(=O)[O-])cc4F)c4ccc([nH]4)c(-c4c(F)cc(S(=O)(=O)[O-])cc4F)c4nc(c(-c5c(F)cc(S(=O)(=O)[O-])cc5F)c5ccc2[nH]5)C=C4)C=C3)cc1)c1ccc(OC2CCCC2)cc1F
REMARK SMILES IDX 7 1 6 2 5 3 3 4 4 5 2 7 1 8 79 9 80 10 90 11 81 12 89 13
REMARK SMILES IDX 91 14 82 15 83 16 84 17 85 18 88 19 86 20 87 21 8 22 9 23
REMARK SMILES IDX 10 24 11 25 12 27 13 28 14 29 78 30 15 31 77 32 16 33 17 34
REMARK SMILES IDX 18 35 71 36 19 37 76 38 70 39 72 40 20 41 75 42 69 43 68 44
REMARK SMILES IDX 21 46 55 47 34 48 54 49 35 50 38 51 53 52 73 53 36 54 37 55
REMARK SMILES IDX 52 57 74 58 39 59 22 60 23 61 32 62 24 63 25 64 31 65 33 66
REMARK SMILES IDX 26 67 27 68 28 69 29 70 30 71 56 72 57 73 66 74 58 75 59 76
REMARK SMILES IDX 65 77 67 78 60 79 61 80 62 81 63 82 64 83 40 84 41 85 50 86
REMARK SMILES IDX 42 87 43 88 49 89 51 90 44 91 45 92 46 93 47 94 48 95
REMARK H PARENT 5 6 10 26 72 45 38 56
REMARK Flexibility Score: inf
ROOT
ATOM      1  C   UNL A   1      38.531  24.040  26.568  1.00  0.00     0.023 C 
ENDROOT
BRANCH   1   2
ATOM      2  C   UNL A   1      37.185  23.667  25.945  1.00  0.00     0.116 C 
BRANCH   2   3
ATOM      3  N   UNL A   1      37.318  23.472  24.518  1.00  0.00    -0.356 N 
ATOM      4  C   UNL A   1      36.354  23.381  23.558  1.00  0.00     0.227 C 
ATOM      5  O   UNL A   1      36.717  23.040  22.429  1.00  0.00    -0.274 OA
ATOM      6  H   UNL A   1      38.243  23.393  24.190  1.00  0.00     0.163 HD
BRANCH   4   7
ATOM      7  C   UNL A   1      34.895  23.723  23.896  1.00  0.00     0.108 C 
ATOM      8  C   UNL A   1      34.783  24.744  25.033  1.00  0.00     0.023 C 
BRANCH   7   9
ATOM      9  C   UNL A   1      34.104  22.457  24.191  1.00  0.00     0.000 A 
ATOM     10  C   UNL A   1      34.422  21.597  25.251  1.00  0.00     0.011 A 
ATOM     11  C   UNL A   1      33.066  22.085  23.336  1.00  0.00     0.130 A 
ATOM     12  C   UNL A   1      33.677  20.434  25.462  1.00  0.00     0.047 A 
ATOM     13  C   UNL A   1      32.331  20.918  23.538  1.00  0.00     0.086 A 
ATOM     14  F   UNL A   1      32.750  22.863  22.291  1.00  0.00    -0.207 F 
ATOM     15  C   UNL A   1      32.613  20.096  24.622  1.00  0.00     0.122 A 
BRANCH  15  16
ATOM     16  O   UNL A   1      31.970  18.950  24.977  1.00  0.00    -0.490 OA
BRANCH  16  17
ATOM     17  C   UNL A   1      32.447  17.658  24.630  1.00  0.00     0.173 C 
ATOM     18  C   UNL A   1      33.483  17.575  23.515  1.00  0.00     0.045 C 
ATOM     19  C   UNL A   1      32.976  16.820  25.790  1.00  0.00     0.045 C 
ATOM     20  C   UNL A   1      34.067  16.182  23.676  1.00  0.00     0.004 C 
ATOM     21  C   UNL A   1      33.979  15.851  25.166  1.00  0.00     0.004 C 
ENDBRANCH  16  17
ENDBRANCH  15  16
ENDBRANCH   7   9
ENDBRANCH   4   7
ENDBRANCH   2   3
ENDBRANCH   1   2
BRANCH   1  22
ATOM     22  C   UNL A   1      39.548  22.896  26.616  1.00  0.00     0.023 C 
BRANCH  22  23
ATOM     23  C   UNL A   1      40.970  23.310  26.977  1.00  0.00     0.116 C 
BRANCH  23  24
ATOM     24  N   UNL A   1      41.616  24.074  25.921  1.00  0.00    -0.352 N 
ATOM     25  C   UNL A   1      41.978  25.398  25.914  1.00  0.00     0.251 C 
ATOM     26  H   UNL A   1      41.824  23.572  25.100  1.00  0.00     0.163 HD
ATOM     27  O   UNL A   1      42.387  25.914  24.878  1.00  0.00    -0.269 OA
BRANCH  25  28
ATOM     28  C   UNL A   1      41.840  26.202  27.146  1.00  0.00     0.039 A 
ATOM     29  C   UNL A   1      42.695  27.289  27.341  1.00  0.00     0.014 A 
ATOM     30  C   UNL A   1      40.861  25.897  28.097  1.00  0.00     0.014 A 
ATOM     31  C   UNL A   1      42.529  28.106  28.460  1.00  0.00     0.010 A 
ATOM     32  C   UNL A   1      40.651  26.754  29.173  1.00  0.00     0.010 A 
ATOM     33  C   UNL A   1      41.484  27.866  29.368  1.00  0.00    -0.014 A 
BRANCH  33  34
ATOM     34  C   UNL A   1      41.245  28.769  30.523  1.00  0.00     0.031 A 
ATOM     35  C   UNL A   1      42.078  28.639  31.769  1.00  0.00     0.074 A 
ATOM     36  C   UNL A   1      40.237  29.663  30.471  1.00  0.00     0.049 A 
ATOM     37  N   UNL A   1      41.979  29.292  32.898  1.00  0.00    -0.248 NA
ATOM     38  C   UNL A   1      43.143  27.624  31.754  1.00  0.00     0.031 C 
ATOM     39  C   UNL A   1      39.325  29.845  29.339  1.00  0.00     0.029 A 
ATOM     40  N   UNL A   1      39.801  30.578  31.397  1.00  0.00    -0.354 N 
ATOM     41  C   UNL A   1      42.956  28.759  33.731  1.00  0.00     0.074 A 
ATOM     42  C   UNL A   1      43.603  27.693  32.995  1.00  0.00     0.031 C 
ATOM     43  C   UNL A   1      38.452  30.823  29.630  1.00  0.00     0.029 A 
ATOM     44  C   UNL A   1      38.718  31.314  30.978  1.00  0.00     0.049 A 
ATOM     45  H   UNL A   1      40.226  30.695  32.277  1.00  0.00     0.167 HD
ATOM     46  C   UNL A   1      43.299  29.137  34.985  1.00  0.00     0.037 A 
ATOM     47  C   UNL A   1      38.013  32.271  31.613  1.00  0.00     0.037 A 
ATOM     48  C   UNL A   1      42.670  30.216  35.701  1.00  0.00     0.049 A 
ATOM     49  C   UNL A   1      38.421  32.683  33.001  1.00  0.00     0.074 A 
ATOM     50  C   UNL A   1      42.987  30.720  36.951  1.00  0.00     0.029 A 
ATOM     51  N   UNL A   1      41.595  30.959  35.233  1.00  0.00    -0.354 N 
ATOM     52  N   UNL A   1      39.393  32.214  33.747  1.00  0.00    -0.248 NA
ATOM     53  C   UNL A   1      37.645  33.761  33.630  1.00  0.00     0.031 C 
ATOM     54  C   UNL A   1      42.077  31.737  37.256  1.00  0.00     0.029 A 
ATOM     55  C   UNL A   1      41.225  31.903  36.176  1.00  0.00     0.049 A 
ATOM     56  H   UNL A   1      41.161  30.833  34.358  1.00  0.00     0.167 HD
ATOM     57  C   UNL A   1      39.360  32.956  34.923  1.00  0.00     0.074 A 
ATOM     58  C   UNL A   1      38.282  33.914  34.783  1.00  0.00     0.031 C 
ATOM     59  C   UNL A   1      40.153  32.855  36.018  1.00  0.00     0.037 A 
BRANCH  46  60
ATOM     60  C   UNL A   1      44.410  28.383  35.664  1.00  0.00     0.058 A 
ATOM     61  C   UNL A   1      44.153  27.270  36.483  1.00  0.00     0.135 A 
ATOM     62  C   UNL A   1      45.750  28.749  35.463  1.00  0.00     0.135 A 
ATOM     63  F   UNL A   1      42.888  26.886  36.723  1.00  0.00    -0.206 F 
ATOM     64  C   UNL A   1      45.181  26.566  37.100  1.00  0.00     0.059 A 
ATOM     65  C   UNL A   1      46.798  28.041  36.046  1.00  0.00     0.059 A 
ATOM     66  F   UNL A   1      46.054  29.804  34.690  1.00  0.00    -0.206 F 
ATOM     67  C   UNL A   1      46.501  26.959  36.874  1.00  0.00     0.060 A 
BRANCH  67  68
ATOM     68  S   UNL A   1      47.825  26.028  37.674  1.00  0.00     0.124 S 
ATOM     69  O   UNL A   1      48.236  26.952  38.726  1.00  0.00    -0.237 OA
ATOM     70  O   UNL A   1      47.132  24.824  38.124  1.00  0.00    -0.237 OA
ATOM     71  O   UNL A   1      48.795  25.825  36.602  1.00  0.00    -0.744 OA
ENDBRANCH  67  68
ENDBRANCH  46  60
BRANCH  47  72
ATOM     72  C   UNL A   1      36.863  32.921  30.929  1.00  0.00     0.058 A 
ATOM     73  C   UNL A   1      35.542  32.584  31.259  1.00  0.00     0.135 A 
ATOM     74  C   UNL A   1      37.061  33.902  29.944  1.00  0.00     0.135 A 
ATOM     75  F   UNL A   1      35.302  31.648  32.189  1.00  0.00    -0.206 F 
ATOM     76  C   UNL A   1      34.457  33.184  30.628  1.00  0.00     0.059 A 
ATOM     77  C   UNL A   1      35.992  34.535  29.318  1.00  0.00     0.059 A 
ATOM     78  F   UNL A   1      38.305  34.274  29.605  1.00  0.00    -0.206 F 
ATOM     79  C   UNL A   1      34.693  34.162  29.660  1.00  0.00     0.060 A 
BRANCH  79  80
ATOM     80  S   UNL A   1      33.277  34.972  28.884  1.00  0.00     0.124 S 
ATOM     81  O   UNL A   1      32.420  35.233  30.035  1.00  0.00    -0.237 OA
ATOM     82  O   UNL A   1      33.893  36.144  28.269  1.00  0.00    -0.237 OA
ATOM     83  O   UNL A   1      32.788  33.966  27.947  1.00  0.00    -0.744 OA
ENDBRANCH  79  80
ENDBRANCH  47  72
BRANCH  59  84
ATOM     84  C   UNL A   1      39.910  33.825  37.142  1.00  0.00     0.058 A 
ATOM     85  C   UNL A   1      40.546  35.076  37.188  1.00  0.00     0.135 A 
ATOM     86  C   UNL A   1      38.989  33.520  38.157  1.00  0.00     0.135 A 
ATOM     87  F   UNL A   1      41.439  35.415  36.246  1.00  0.00    -0.206 F 
ATOM     88  C   UNL A   1      40.297  35.978  38.217  1.00  0.00     0.059 A 
ATOM     89  C   UNL A   1      38.703  34.418  39.179  1.00  0.00     0.059 A 
ATOM     90  F   UNL A   1      38.345  32.342  38.153  1.00  0.00    -0.206 F 
ATOM     91  C   UNL A   1      39.372  35.641  39.207  1.00  0.00     0.060 A 
BRANCH  91  92
ATOM     92  S   UNL A   1      39.035  36.834  40.520  1.00  0.00     0.124 S 
ATOM     93  O   UNL A   1      38.456  37.942  39.768  1.00  0.00    -0.237 OA
ATOM     94  O   UNL A   1      38.112  36.100  41.381  1.00  0.00    -0.237 OA
ATOM     95  O   UNL A   1      40.353  37.088  41.096  1.00  0.00    -0.744 OA
ENDBRANCH  91  92
ENDBRANCH  59  84
ENDBRANCH  33  34
ENDBRANCH  25  28
ENDBRANCH  23  24
ENDBRANCH  22  23
ENDBRANCH   1  22
TORSDOF 17
ENDMDL
MODEL 2
REMARK VINA RESULT:     -12.1      4.768     10.119
REMARK SMILES C[C@@H](C(=O)NCCCCNC(=O)c1ccc(-c2c3nc(c(-c4c(F)cc(S(=O)(=O)[O-])cc4F)c4ccc([nH]4)c(-c4c(F)cc(S(=O)(=O)[O-])cc4F)c4nc(c(-c5c(F)cc(S(=O)(=O)[O-])cc5F)c5ccc2[nH]5)C=C4)C=C3)cc1)c1ccc(OC2CCCC2)cc1F
REMARK SMILES IDX 7 1 6 2 5 3 3 4 4 5 2 7 1 8 79 9 80 10 90 11 81 12 89 13
REMARK SMILES IDX 91 14 82 15 83 16 84 17 85 18 88 19 86 20 87 21 8 22 9 23
REMARK SMILES IDX 10 24 11 25 12 27 13 28 14 29 78 30 15 31 77 32 16 33 17 34
REMARK SMILES IDX 18 35 71 36 19 37 76 38 70 39 72 40 20 41 75 42 69 43 68 44
REMARK SMILES IDX 21 46 55 47 34 48 54 49 35 50 38 51 53 52 73 53 36 54 37 55
REMARK SMILES IDX 52 57 74 58 39 59 22 60 23 61 32 62 24 63 25 64 31 65 33 66
REMARK SMILES IDX 26 67 27 68 28 69 29 70 30 71 56 72 57 73 66 74 58 75 59 76
REMARK SMILES IDX 65 77 67 78 60 79 61 80 62 81 63 82 64 83 40 84 41 85 50 86
REMARK SMILES IDX 42 87 43 88 49 89 51 90 44 91 45 92 46 93 47 94 48 95
REMARK H PARENT 5 6 10 26 72 45 38 56
REMARK Flexibility Score: inf
ROOT
ATOM      1  C   UNL A   1      31.577  26.883  26.502  1.00  0.00     0.023 C 
ENDROOT
BRANCH   1   2
ATOM      2  C   UNL A   1      31.779  25.468  25.958  1.00  0.00     0.116 C 
BRANCH   2   3
ATOM      3  N   UNL A   1      32.391  25.505  24.648  1.00  0.00    -0.356 N 
ATOM      4  C   UNL A   1      33.595  25.014  24.235  1.00  0.00     0.227 C 
ATOM      5  O   UNL A   1      33.967  25.324  23.101  1.00  0.00    -0.274 OA
ATOM      6  H   UNL A   1      31.860  25.950  23.949  1.00  0.00     0.163 HD
BRANCH   4   7
ATOM      7  C   UNL A   1      34.410  24.096  25.158  1.00  0.00     0.108 C 
ATOM      8  C   UNL A   1      35.907  24.121  24.834  1.00  0.00     0.023 C 
BRANCH   7   9
ATOM      9  C   UNL A   1      33.848  22.682  25.135  1.00  0.00     0.000 A 
ATOM     10  C   UNL A   1      33.274  22.115  23.990  1.00  0.00     0.011 A 
ATOM     11  C   UNL A   1      33.829  21.935  26.314  1.00  0.00     0.130 A 
ATOM     12  C   UNL A   1      32.751  20.821  24.031  1.00  0.00     0.047 A 
ATOM     13  C   UNL A   1      33.296  20.648  26.360  1.00  0.00     0.086 A 
ATOM     14  F   UNL A   1      34.339  22.453  27.441  1.00  0.00    -0.207 F 
ATOM     15  C   UNL A   1      32.777  20.068  25.208  1.00  0.00     0.122 A 
BRANCH  15  16
ATOM     16  O   UNL A   1      32.255  18.818  25.078  1.00  0.00    -0.490 OA
BRANCH  16  17
ATOM     17  C   UNL A   1      32.972  17.642  25.425  1.00  0.00     0.173 C 
ATOM     18  C   UNL A   1      32.205  16.324  25.388  1.00  0.00     0.045 C 
ATOM     19  C   UNL A   1      34.274  17.417  24.665  1.00  0.00     0.045 C 
ATOM     20  C   UNL A   1      33.303  15.274  25.392  1.00  0.00     0.004 C 
ATOM     21  C   UNL A   1      34.502  15.907  24.685  1.00  0.00     0.004 C 
ENDBRANCH  16  17
ENDBRANCH  15  16
ENDBRANCH   7   9
ENDBRANCH   4   7
ENDBRANCH   2   3
ENDBRANCH   1   2
BRANCH   1  22
ATOM     22  C   UNL A   1      32.605  27.905  26.008  1.00  0.00     0.023 C 
BRANCH  22  23
ATOM     23  C   UNL A   1      33.645  28.326  27.040  1.00  0.00     0.116 C 
BRANCH  23  24
ATOM     24  N   UNL A   1      33.484  29.706  27.469  1.00  0.00    -0.352 N 
ATOM     25  C   UNL A   1      34.378  30.513  28.127  1.00  0.00     0.251 C 
ATOM     26  H   UNL A   1      32.614  30.117  27.260  1.00  0.00     0.163 HD
ATOM     27  O   UNL A   1      34.019  31.612  28.541  1.00  0.00    -0.269 OA
BRANCH  25  28
ATOM     28  C   UNL A   1      35.758  30.041  28.361  1.00  0.00     0.039 A 
ATOM     29  C   UNL A   1      36.676  30.091  27.310  1.00  0.00     0.014 A 
ATOM     30  C   UNL A   1      36.151  29.566  29.617  1.00  0.00     0.014 A 
ATOM     31  C   UNL A   1      38.003  29.723  27.535  1.00  0.00     0.010 A 
ATOM     32  C   UNL A   1      37.489  29.268  29.857  1.00  0.00     0.010 A 
ATOM     33  C   UNL A   1      38.429  29.341  28.818  1.00  0.00    -0.014 A 
BRANCH  33  34
ATOM     34  C   UNL A   1      39.852  29.018  29.092  1.00  0.00     0.031 A 
ATOM     35  C   UNL A   1      40.767  30.062  29.671  1.00  0.00     0.074 A 
ATOM     36  C   UNL A   1      40.335  27.804  28.760  1.00  0.00     0.049 A 
ATOM     37  N   UNL A   1      42.049  29.989  29.922  1.00  0.00    -0.248 NA
ATOM     38  C   UNL A   1      40.168  31.370  29.985  1.00  0.00     0.031 C 
ATOM     39  C   UNL A   1      39.559  26.726  28.142  1.00  0.00     0.029 A 
ATOM     40  N   UNL A   1      41.595  27.274  28.885  1.00  0.00    -0.354 N 
ATOM     41  C   UNL A   1      42.413  31.240  30.407  1.00  0.00     0.074 A 
ATOM     42  C   UNL A   1      41.228  32.070  30.366  1.00  0.00     0.031 C 
ATOM     43  C   UNL A   1      40.355  25.659  27.959  1.00  0.00     0.029 A 
ATOM     44  C   UNL A   1      41.703  25.987  28.413  1.00  0.00     0.049 A 
ATOM     45  H   UNL A   1      42.350  27.771  29.275  1.00  0.00     0.167 HD
ATOM     46  C   UNL A   1      43.619  31.652  30.865  1.00  0.00     0.037 A 
ATOM     47  C   UNL A   1      42.769  25.166  28.347  1.00  0.00     0.037 A 
ATOM     48  C   UNL A   1      44.787  30.813  30.927  1.00  0.00     0.049 A 
ATOM     49  C   UNL A   1      44.095  25.643  28.874  1.00  0.00     0.074 A 
ATOM     50  C   UNL A   1      46.038  31.118  31.435  1.00  0.00     0.029 A 
ATOM     51  N   UNL A   1      44.850  29.506  30.468  1.00  0.00    -0.354 N 
ATOM     52  N   UNL A   1      44.405  26.808  29.393  1.00  0.00    -0.248 NA
ATOM     53  C   UNL A   1      45.214  24.693  28.817  1.00  0.00     0.031 C 
ATOM     54  C   UNL A   1      46.869  30.009  31.242  1.00  0.00     0.029 A 
ATOM     55  C   UNL A   1      46.123  28.996  30.662  1.00  0.00     0.049 A 
ATOM     56  H   UNL A   1      44.099  29.013  30.064  1.00  0.00     0.167 HD
ATOM     57  C   UNL A   1      45.747  26.721  29.747  1.00  0.00     0.074 A 
ATOM     58  C   UNL A   1      46.186  25.386  29.396  1.00  0.00     0.031 C 
ATOM     59  C   UNL A   1      46.543  27.661  30.313  1.00  0.00     0.037 A 
BRANCH  46  60
ATOM     60  C   UNL A   1      43.736  33.075  31.341  1.00  0.00     0.058 A 
ATOM     61  C   UNL A   1      43.492  33.427  32.679  1.00  0.00     0.135 A 
ATOM     62  C   UNL A   1      44.136  34.093  30.461  1.00  0.00     0.135 A 
ATOM     63  F   UNL A   1      43.091  32.497  33.560  1.00  0.00    -0.206 F 
ATOM     64  C   UNL A   1      43.613  34.741  33.121  1.00  0.00     0.059 A 
ATOM     65  C   UNL A   1      44.292  35.410  30.887  1.00  0.00     0.059 A 
ATOM     66  F   UNL A   1      44.382  33.814  29.171  1.00  0.00    -0.206 F 
ATOM     67  C   UNL A   1      44.014  35.725  32.216  1.00  0.00     0.060 A 
BRANCH  67  68
ATOM     68  S   UNL A   1      44.176  37.423  32.808  1.00  0.00     0.124 S 
ATOM     69  O   UNL A   1      43.079  37.503  33.767  1.00  0.00    -0.237 OA
ATOM     70  O   UNL A   1      45.519  37.427  33.380  1.00  0.00    -0.237 OA
ATOM     71  O   UNL A   1      44.011  38.223  31.598  1.00  0.00    -0.744 OA
ENDBRANCH  67  68
ENDBRANCH  46  60
BRANCH  47  72
ATOM     72  C   UNL A   1      42.618  23.799  27.779  1.00  0.00     0.058 A 
ATOM     73  C   UNL A   1      42.674  23.582  26.395  1.00  0.00     0.135 A 
ATOM     74  C   UNL A   1      42.432  22.682  28.610  1.00  0.00     0.135 A 
ATOM     75  F   UNL A   1      42.844  24.618  25.560  1.00  0.00    -0.206 F 
ATOM     76  C   UNL A   1      42.535  22.309  25.851  1.00  0.00     0.059 A 
ATOM     77  C   UNL A   1      42.317  21.397  28.091  1.00  0.00     0.059 A 
ATOM     78  F   UNL A   1      42.390  22.835  29.943  1.00  0.00    -0.206 F 
ATOM     79  C   UNL A   1      42.360  21.222  26.708  1.00  0.00     0.060 A 
BRANCH  79  80
ATOM     80  S   UNL A   1      42.234  19.567  25.994  1.00  0.00     0.124 S 
ATOM     81  O   UNL A   1      43.123  19.675  24.843  1.00  0.00    -0.237 OA
ATOM     82  O   UNL A   1      42.706  18.724  27.089  1.00  0.00    -0.237 OA
ATOM     83  O   UNL A   1      40.813  19.443  25.687  1.00  0.00    -0.744 OA
ENDBRANCH  79  80
ENDBRANCH  47  72
BRANCH  59  84
ATOM     84  C   UNL A   1      47.963  27.272  30.622  1.00  0.00     0.058 A 
ATOM     85  C   UNL A   1      48.304  26.604  31.808  1.00  0.00     0.135 A 
ATOM     86  C   UNL A   1      48.986  27.526  29.695  1.00  0.00     0.135 A 
ATOM     87  F   UNL A   1      47.365  26.342  32.730  1.00  0.00    -0.206 F 
ATOM     88  C   UNL A   1      49.615  26.225  32.076  1.00  0.00     0.059 A 
ATOM     89  C   UNL A   1      50.299  27.132  29.928  1.00  0.00     0.059 A 
ATOM     90  F   UNL A   1      48.711  28.153  28.539  1.00  0.00    -0.206 F 
ATOM     91  C   UNL A   1      50.606  26.492  31.129  1.00  0.00     0.060 A 
BRANCH  91  92
ATOM     92  S   UNL A   1      52.298  25.967  31.474  1.00  0.00     0.124 S 
ATOM     93  O   UNL A   1      52.911  26.066  30.154  1.00  0.00    -0.237 OA
ATOM     94  O   UNL A   1      52.739  26.956  32.454  1.00  0.00    -0.237 OA
ATOM     95  O   UNL A   1      52.136  24.611  31.991  1.00  0.00    -0.744 OA
ENDBRANCH  91  92
ENDBRANCH  59  84
ENDBRANCH  33  34
ENDBRANCH  25  28
ENDBRANCH  23  24
ENDBRANCH  22  23
ENDBRANCH   1  22
TORSDOF 17
ENDMDL
MODEL 3
REMARK VINA RESULT:     -12.1      6.621     11.867
REMARK SMILES C[C@@H](C(=O)NCCCCNC(=O)c1ccc(-c2c3nc(c(-c4c(F)cc(S(=O)(=O)[O-])cc4F)c4ccc([nH]4)c(-c4c(F)cc(S(=O)(=O)[O-])cc4F)c4nc(c(-c5c(F)cc(S(=O)(=O)[O-])cc5F)c5ccc2[nH]5)C=C4)C=C3)cc1)c1ccc(OC2CCCC2)cc1F
REMARK SMILES IDX 7 1 6 2 5 3 3 4 4 5 2 7 1 8 79 9 80 10 90 11 81 12 89 13
REMARK SMILES IDX 91 14 82 15 83 16 84 17 85 18 88 19 86 20 87 21 8 22 9 23
REMARK SMILES IDX 10 24 11 25 12 27 13 28 14 29 78 30 15 31 77 32 16 33 17 34
REMARK SMILES IDX 18 35 71 36 19 37 76 38 70 39 72 40 20 41 75 42 69 43 68 44
REMARK SMILES IDX 21 46 55 47 34 48 54 49 35 50 38 51 53 52 73 53 36 54 37 55
REMARK SMILES IDX 52 57 74 58 39 59 22 60 23 61 32 62 24 63 25 64 31 65 33 66
REMARK SMILES IDX 26 67 27 68 28 69 29 70 30 71 56 72 57 73 66 74 58 75 59 76
REMARK SMILES IDX 65 77 67 78 60 79 61 80 62 81 63 82 64 83 40 84 41 85 50 86
REMARK SMILES IDX 42 87 43 88 49 89 51 90 44 91 45 92 46 93 47 94 48 95
REMARK H PARENT 5 6 10 26 72 45 38 56
REMARK Flexibility Score: inf
ROOT
ATOM      1  C   UNL A   1      33.121  29.229  27.089  1.00  0.00     0.023 C 
ENDROOT
BRANCH   1   2
ATOM      2  C   UNL A   1      32.228  28.049  27.472  1.00  0.00     0.116 C 
BRANCH   2   3
ATOM      3  N   UNL A   1      31.542  27.527  26.310  1.00  0.00    -0.356 N 
ATOM      4  C   UNL A   1      31.923  26.547  25.441  1.00  0.00     0.227 C 
ATOM      5  O   UNL A   1      31.238  26.402  24.425  1.00  0.00    -0.274 OA
ATOM      6  H   UNL A   1      30.670  27.940  26.118  1.00  0.00     0.163 HD
BRANCH   4   7
ATOM      7  C   UNL A   1      33.139  25.664  25.760  1.00  0.00     0.108 C 
ATOM      8  C   UNL A   1      34.402  26.121  25.024  1.00  0.00     0.023 C 
BRANCH   7   9
ATOM      9  C   UNL A   1      32.821  24.201  25.486  1.00  0.00     0.000 A 
ATOM     10  C   UNL A   1      33.365  23.500  24.402  1.00  0.00     0.011 A 
ATOM     11  C   UNL A   1      31.896  23.539  26.294  1.00  0.00     0.130 A 
ATOM     12  C   UNL A   1      33.021  22.164  24.183  1.00  0.00     0.047 A 
ATOM     13  C   UNL A   1      31.542  22.211  26.070  1.00  0.00     0.086 A 
ATOM     14  F   UNL A   1      31.328  24.184  27.324  1.00  0.00    -0.207 F 
ATOM     15  C   UNL A   1      32.124  21.501  25.026  1.00  0.00     0.122 A 
BRANCH  15  16
ATOM     16  O   UNL A   1      31.915  20.198  24.697  1.00  0.00    -0.490 OA
BRANCH  16  17
ATOM     17  C   UNL A   1      32.895  19.395  24.055  1.00  0.00     0.173 C 
ATOM     18  C   UNL A   1      33.861  18.629  24.952  1.00  0.00     0.045 C 
ATOM     19  C   UNL A   1      32.361  18.401  23.029  1.00  0.00     0.045 C 
ATOM     20  C   UNL A   1      34.466  17.594  24.018  1.00  0.00     0.004 C 
ATOM     21  C   UNL A   1      33.391  17.275  22.979  1.00  0.00     0.004 C 
ENDBRANCH  16  17
ENDBRANCH  15  16
ENDBRANCH   7   9
ENDBRANCH   4   7
ENDBRANCH   2   3
ENDBRANCH   1   2
BRANCH   1  22
ATOM     22  C   UNL A   1      34.623  28.946  27.185  1.00  0.00     0.023 C 
BRANCH  22  23
ATOM     23  C   UNL A   1      35.465  30.100  27.718  1.00  0.00     0.116 C 
BRANCH  23  24
ATOM     24  N   UNL A   1      35.326  30.279  29.155  1.00  0.00    -0.352 N 
ATOM     25  C   UNL A   1      36.276  30.141  30.136  1.00  0.00     0.251 C 
ATOM     26  H   UNL A   1      34.428  30.533  29.467  1.00  0.00     0.163 HD
ATOM     27  O   UNL A   1      35.947  30.190  31.318  1.00  0.00    -0.269 OA
BRANCH  25  28
ATOM     28  C   UNL A   1      37.686  29.901  29.762  1.00  0.00     0.039 A 
ATOM     29  C   UNL A   1      38.603  29.577  30.764  1.00  0.00     0.014 A 
ATOM     30  C   UNL A   1      38.098  29.978  28.428  1.00  0.00     0.014 A 
ATOM     31  C   UNL A   1      39.921  29.271  30.420  1.00  0.00     0.010 A 
ATOM     32  C   UNL A   1      39.392  29.602  28.080  1.00  0.00     0.010 A 
ATOM     33  C   UNL A   1      40.318  29.247  29.073  1.00  0.00    -0.014 A 
BRANCH  33  34
ATOM     34  C   UNL A   1      41.695  28.850  28.684  1.00  0.00     0.031 A 
ATOM     35  C   UNL A   1      42.791  29.879  28.623  1.00  0.00     0.074 A 
ATOM     36  C   UNL A   1      41.943  27.575  28.324  1.00  0.00     0.049 A 
ATOM     37  N   UNL A   1      44.036  29.738  28.248  1.00  0.00    -0.248 NA
ATOM     38  C   UNL A   1      42.433  31.254  29.010  1.00  0.00     0.031 C 
ATOM     39  C   UNL A   1      40.951  26.498  28.288  1.00  0.00     0.029 A 
ATOM     40  N   UNL A   1      43.103  26.969  27.907  1.00  0.00    -0.354 N 
ATOM     41  C   UNL A   1      44.605  31.003  28.338  1.00  0.00     0.074 A 
ATOM     42  C   UNL A   1      43.556  31.909  28.754  1.00  0.00     0.031 C 
ATOM     43  C   UNL A   1      41.548  25.362  27.891  1.00  0.00     0.029 A 
ATOM     44  C   UNL A   1      42.954  25.635  27.611  1.00  0.00     0.049 A 
ATOM     45  H   UNL A   1      43.960  27.447  27.828  1.00  0.00     0.167 HD
ATOM     46  C   UNL A   1      45.890  31.371  28.117  1.00  0.00     0.037 A 
ATOM     47  C   UNL A   1      43.848  24.734  27.157  1.00  0.00     0.037 A 
ATOM     48  C   UNL A   1      46.934  30.459  27.730  1.00  0.00     0.049 A 
ATOM     49  C   UNL A   1      45.271  25.165  26.932  1.00  0.00     0.074 A 
ATOM     50  C   UNL A   1      48.280  30.722  27.545  1.00  0.00     0.029 A 
ATOM     51  N   UNL A   1      46.751  29.108  27.469  1.00  0.00    -0.354 N 
ATOM     52  N   UNL A   1      45.808  26.352  27.089  1.00  0.00    -0.248 NA
ATOM     53  C   UNL A   1      46.214  24.133  26.478  1.00  0.00     0.031 C 
ATOM     54  C   UNL A   1      48.903  29.540  27.129  1.00  0.00     0.029 A 
ATOM     55  C   UNL A   1      47.955  28.529  27.105  1.00  0.00     0.049 A 
ATOM     56  H   UNL A   1      45.892  28.632  27.533  1.00  0.00     0.167 HD
ATOM     57  C   UNL A   1      47.155  26.203  26.777  1.00  0.00     0.074 A 
ATOM     58  C   UNL A   1      47.354  24.810  26.436  1.00  0.00     0.031 C 
ATOM     59  C   UNL A   1      48.138  27.137  26.775  1.00  0.00     0.037 A 
BRANCH  46  60
ATOM     60  C   UNL A   1      46.240  32.823  28.294  1.00  0.00     0.058 A 
ATOM     61  C   UNL A   1      46.142  33.740  27.234  1.00  0.00     0.135 A 
ATOM     62  C   UNL A   1      46.641  33.315  29.547  1.00  0.00     0.135 A 
ATOM     63  F   UNL A   1      45.780  33.321  26.010  1.00  0.00    -0.206 F 
ATOM     64  C   UNL A   1      46.455  35.085  27.402  1.00  0.00     0.059 A 
ATOM     65  C   UNL A   1      46.930  34.663  29.746  1.00  0.00     0.059 A 
ATOM     66  F   UNL A   1      46.752  32.484  30.596  1.00  0.00    -0.206 F 
ATOM     67  C   UNL A   1      46.847  35.537  28.662  1.00  0.00     0.060 A 
BRANCH  67  68
ATOM     68  S   UNL A   1      47.239  37.287  28.866  1.00  0.00     0.124 S 
ATOM     69  O   UNL A   1      48.497  37.391  28.133  1.00  0.00    -0.237 OA
ATOM     70  O   UNL A   1      46.089  37.938  28.246  1.00  0.00    -0.237 OA
ATOM     71  O   UNL A   1      47.341  37.448  30.313  1.00  0.00    -0.744 OA
ENDBRANCH  67  68
ENDBRANCH  46  60
BRANCH  47  72
ATOM     72  C   UNL A   1      43.425  23.330  26.910  1.00  0.00     0.058 A 
ATOM     73  C   UNL A   1      43.274  22.840  25.604  1.00  0.00     0.135 A 
ATOM     74  C   UNL A   1      43.179  22.445  27.972  1.00  0.00     0.135 A 
ATOM     75  F   UNL A   1      43.491  23.649  24.556  1.00  0.00    -0.206 F 
ATOM     76  C   UNL A   1      42.880  21.529  25.358  1.00  0.00     0.059 A 
ATOM     77  C   UNL A   1      42.809  21.123  27.752  1.00  0.00     0.059 A 
ATOM     78  F   UNL A   1      43.326  22.859  29.241  1.00  0.00    -0.206 F 
ATOM     79  C   UNL A   1      42.653  20.676  26.440  1.00  0.00     0.060 A 
BRANCH  79  80
ATOM     80  S   UNL A   1      42.192  18.961  26.108  1.00  0.00     0.124 S 
ATOM     81  O   UNL A   1      43.081  18.626  25.003  1.00  0.00    -0.237 OA
ATOM     82  O   UNL A   1      42.486  18.313  27.383  1.00  0.00    -0.237 OA
ATOM     83  O   UNL A   1      40.774  19.054  25.774  1.00  0.00    -0.744 OA
ENDBRANCH  79  80
ENDBRANCH  47  72
BRANCH  59  84
ATOM     84  C   UNL A   1      49.528  26.679  26.427  1.00  0.00     0.058 A 
ATOM     85  C   UNL A   1      50.351  26.035  27.364  1.00  0.00     0.135 A 
ATOM     86  C   UNL A   1      50.023  26.840  25.122  1.00  0.00     0.135 A 
ATOM     87  F   UNL A   1      49.928  25.861  28.627  1.00  0.00    -0.206 F 
ATOM     88  C   UNL A   1      51.625  25.592  27.028  1.00  0.00     0.059 A 
ATOM     89  C   UNL A   1      51.283  26.379  24.756  1.00  0.00     0.059 A 
ATOM     90  F   UNL A   1      49.272  27.439  24.184  1.00  0.00    -0.206 F 
ATOM     91  C   UNL A   1      52.082  25.766  25.720  1.00  0.00     0.060 A 
BRANCH  91  92
ATOM     92  S   UNL A   1      53.726  25.158  25.288  1.00  0.00     0.124 S 
ATOM     93  O   UNL A   1      54.548  25.774  26.324  1.00  0.00    -0.237 OA
ATOM     94  O   UNL A   1      53.561  23.711  25.387  1.00  0.00    -0.237 OA
ATOM     95  O   UNL A   1      53.933  25.669  23.936  1.00  0.00    -0.744 OA
ENDBRANCH  91  92
ENDBRANCH  59  84
ENDBRANCH  33  34
ENDBRANCH  25  28
ENDBRANCH  23  24
ENDBRANCH  22  23
ENDBRANCH   1  22
TORSDOF 17
ENDMDL
