MODEL 1
REMARK VINA RESULT:     -11.1      0.000      0.000
REMARK SMILES CC[C@H](C)Oc1ccc(NC(=O)/C=C/C(=O)NCCCCNC(=O)c2ccc(-c3c4nc(c(-c5c(F)cc(S(=O)(=O)[O-])cc5F)c5ccc([nH]5)c(-c5c(F)cc(S(=O)(=O)[O-])cc5F)c5nc(c(-c6c(F)cc(S(=O)(=O)[O-])cc6F)c6ccc3[nH]6)C=C5)C=C4)cc2)cc1
REMARK SMILES IDX 18 1 17 2 15 3 16 4 14 6 13 7 11 8 10 9 12 11 9 12 6 13 7 14
REMARK SMILES IDX 92 15 8 16 91 17 5 18 3 19 4 20 2 21 1 22 19 23 20 24 21 25
REMARK SMILES IDX 22 26 23 27 24 29 25 30 26 31 90 32 27 33 89 34 28 35 29 36
REMARK SMILES IDX 30 37 83 38 31 39 88 40 82 41 84 42 32 43 87 44 81 45 80 46
REMARK SMILES IDX 33 48 67 49 46 50 66 51 47 52 50 53 65 54 85 55 48 56 49 57
REMARK SMILES IDX 64 59 86 60 51 61 34 62 35 63 44 64 36 65 37 66 43 67 45 68
REMARK SMILES IDX 38 69 39 70 40 71 41 72 42 73 68 74 69 75 78 76 70 77 71 78
REMARK SMILES IDX 77 79 79 80 72 81 73 82 74 83 75 84 76 85 52 86 53 87 62 88
REMARK SMILES IDX 54 89 55 90 61 91 63 92 56 93 57 94 58 95 59 96 60 97
REMARK H PARENT 17 5 10 10 22 28 84 47 50 58
REMARK Flexibility Score: inf
ROOT
ATOM      1  C   UNL A   1      31.023  27.134  25.945  1.00  0.00     0.116 C 
ENDROOT
BRANCH   1   2
ATOM      2  N   UNL A   1      30.384  25.971  26.525  1.00  0.00    -0.353 N 
ATOM      3  C   UNL A   1      30.754  24.667  26.455  1.00  0.00     0.244 C 
ATOM      4  O   UNL A   1      30.200  23.823  27.151  1.00  0.00    -0.270 OA
ATOM      5  H   UNL A   1      29.564  26.152  27.040  1.00  0.00     0.163 HD
BRANCH   3   6
ATOM      6  C   UNL A   1      31.849  24.259  25.557  1.00  0.00     0.077 C 
ATOM      7  C   UNL A   1      33.115  24.202  25.995  1.00  0.00     0.077 C 
BRANCH   7   8
ATOM      8  C   UNL A   1      34.217  24.012  25.037  1.00  0.00     0.248 C 
ATOM      9  N   UNL A   1      34.481  22.765  24.542  1.00  0.00    -0.323 N 
ATOM     10  H   UNL A   1      35.301  22.706  24.002  1.00  0.00     0.170 HD
ATOM     11  O   UNL A   1      34.913  24.975  24.721  1.00  0.00    -0.270 OA
BRANCH   9  12
ATOM     12  C   UNL A   1      33.781  21.553  24.674  1.00  0.00     0.041 A 
ATOM     13  C   UNL A   1      32.583  19.008  24.609  1.00  0.00     0.119 A 
ATOM     14  C   UNL A   1      33.337  19.407  25.709  1.00  0.00     0.048 A 
ATOM     15  C   UNL A   1      32.337  19.931  23.596  1.00  0.00     0.048 A 
ATOM     16  C   UNL A   1      33.916  20.677  25.751  1.00  0.00     0.030 A 
ATOM     17  C   UNL A   1      32.924  21.200  23.631  1.00  0.00     0.030 A 
BRANCH  13  18
ATOM     18  O   UNL A   1      32.166  17.712  24.655  1.00  0.00    -0.491 OA
BRANCH  18  19
ATOM     19  C   UNL A   1      33.020  16.636  24.237  1.00  0.00     0.170 C 
ATOM     20  C   UNL A   1      33.859  17.027  23.020  1.00  0.00     0.053 C 
BRANCH  19  21
ATOM     21  C   UNL A   1      33.720  15.921  25.412  1.00  0.00     0.041 C 
ATOM     22  C   UNL A   1      35.235  15.859  25.320  1.00  0.00     0.008 C 
ENDBRANCH  19  21
ENDBRANCH  18  19
ENDBRANCH  13  18
ENDBRANCH   9  12
ENDBRANCH   7   8
ENDBRANCH   3   6
ENDBRANCH   1   2
BRANCH   1  23
ATOM     23  C   UNL A   1      31.698  27.992  27.010  1.00  0.00     0.023 C 
BRANCH  23  24
ATOM     24  C   UNL A   1      33.223  27.863  27.060  1.00  0.00     0.023 C 
BRANCH  24  25
ATOM     25  C   UNL A   1      33.989  28.855  26.189  1.00  0.00     0.116 C 
BRANCH  25  26
ATOM     26  N   UNL A   1      33.853  30.237  26.629  1.00  0.00    -0.352 N 
ATOM     27  C   UNL A   1      34.663  30.944  27.483  1.00  0.00     0.251 C 
ATOM     28  H   UNL A   1      33.081  30.729  26.265  1.00  0.00     0.163 HD
ATOM     29  O   UNL A   1      34.372  32.089  27.814  1.00  0.00    -0.269 OA
BRANCH  27  30
ATOM     30  C   UNL A   1      35.859  30.284  28.035  1.00  0.00     0.039 A 
ATOM     31  C   UNL A   1      37.049  30.337  27.307  1.00  0.00     0.014 A 
ATOM     32  C   UNL A   1      35.818  29.693  29.300  1.00  0.00     0.014 A 
ATOM     33  C   UNL A   1      38.226  29.868  27.888  1.00  0.00     0.010 A 
ATOM     34  C   UNL A   1      37.003  29.280  29.900  1.00  0.00     0.010 A 
ATOM     35  C   UNL A   1      38.219  29.379  29.205  1.00  0.00    -0.014 A 
BRANCH  35  36
ATOM     36  C   UNL A   1      39.480  29.014  29.893  1.00  0.00     0.031 A 
ATOM     37  C   UNL A   1      39.970  29.826  31.055  1.00  0.00     0.074 A 
ATOM     38  C   UNL A   1      40.229  28.008  29.400  1.00  0.00     0.049 A 
ATOM     39  N   UNL A   1      41.084  29.710  31.730  1.00  0.00    -0.248 NA
ATOM     40  C   UNL A   1      39.107  30.933  31.498  1.00  0.00     0.031 C 
ATOM     41  C   UNL A   1      39.888  27.198  28.228  1.00  0.00     0.029 A 
ATOM     42  N   UNL A   1      41.442  27.514  29.805  1.00  0.00    -0.354 N 
ATOM     43  C   UNL A   1      41.066  30.737  32.665  1.00  0.00     0.074 A 
ATOM     44  C   UNL A   1      39.854  31.494  32.439  1.00  0.00     0.031 C 
ATOM     45  C   UNL A   1      40.868  26.308  28.010  1.00  0.00     0.029 A 
ATOM     46  C   UNL A   1      41.918  26.503  29.005  1.00  0.00     0.049 A 
ATOM     47  H   UNL A   1      41.926  27.851  30.593  1.00  0.00     0.167 HD
ATOM     48  C   UNL A   1      41.971  31.011  33.635  1.00  0.00     0.037 A 
ATOM     49  C   UNL A   1      43.077  25.818  29.058  1.00  0.00     0.037 A 
ATOM     50  C   UNL A   1      43.165  30.240  33.861  1.00  0.00     0.049 A 
ATOM     51  C   UNL A   1      44.058  26.122  30.153  1.00  0.00     0.074 A 
ATOM     52  C   UNL A   1      44.100  30.377  34.872  1.00  0.00     0.029 A 
ATOM     53  N   UNL A   1      43.597  29.195  33.056  1.00  0.00    -0.354 N 
ATOM     54  N   UNL A   1      43.981  27.033  31.094  1.00  0.00    -0.248 NA
ATOM     55  C   UNL A   1      45.276  25.304  30.202  1.00  0.00     0.031 C 
ATOM     56  C   UNL A   1      45.119  29.442  34.654  1.00  0.00     0.029 A 
ATOM     57  C   UNL A   1      44.799  28.696  33.530  1.00  0.00     0.049 A 
ATOM     58  H   UNL A   1      43.119  28.858  32.265  1.00  0.00     0.167 HD
ATOM     59  C   UNL A   1      45.138  26.897  31.852  1.00  0.00     0.074 A 
ATOM     60  C   UNL A   1      45.888  25.800  31.271  1.00  0.00     0.031 C 
ATOM     61  C   UNL A   1      45.541  27.614  32.929  1.00  0.00     0.037 A 
BRANCH  48  62
ATOM     62  C   UNL A   1      41.696  32.200  34.513  1.00  0.00     0.058 A 
ATOM     63  C   UNL A   1      42.264  33.457  34.249  1.00  0.00     0.135 A 
ATOM     64  C   UNL A   1      40.865  32.081  35.638  1.00  0.00     0.135 A 
ATOM     65  F   UNL A   1      43.078  33.624  33.194  1.00  0.00    -0.206 F 
ATOM     66  C   UNL A   1      42.059  34.542  35.097  1.00  0.00     0.059 A 
ATOM     67  C   UNL A   1      40.623  33.159  36.485  1.00  0.00     0.059 A 
ATOM     68  F   UNL A   1      40.295  30.903  35.935  1.00  0.00    -0.206 F 
ATOM     69  C   UNL A   1      41.243  34.379  36.218  1.00  0.00     0.060 A 
BRANCH  69  70
ATOM     70  S   UNL A   1      41.014  35.782  37.331  1.00  0.00     0.124 S 
ATOM     71  O   UNL A   1      40.812  35.106  38.609  1.00  0.00    -0.237 OA
ATOM     72  O   UNL A   1      42.275  36.504  37.190  1.00  0.00    -0.237 OA
ATOM     73  O   UNL A   1      39.842  36.460  36.786  1.00  0.00    -0.744 OA
ENDBRANCH  69  70
ENDBRANCH  48  62
BRANCH  49  74
ATOM     74  C   UNL A   1      43.350  24.774  28.037  1.00  0.00     0.058 A 
ATOM     75  C   UNL A   1      44.129  25.055  26.906  1.00  0.00     0.135 A 
ATOM     76  C   UNL A   1      42.897  23.457  28.210  1.00  0.00     0.135 A 
ATOM     77  F   UNL A   1      44.579  26.301  26.695  1.00  0.00    -0.206 F 
ATOM     78  C   UNL A   1      44.457  24.067  25.984  1.00  0.00     0.059 A 
ATOM     79  C   UNL A   1      43.228  22.446  27.313  1.00  0.00     0.059 A 
ATOM     80  F   UNL A   1      42.162  23.134  29.286  1.00  0.00    -0.206 F 
ATOM     81  C   UNL A   1      44.009  22.761  26.202  1.00  0.00     0.060 A 
BRANCH  81  82
ATOM     82  S   UNL A   1      44.524  21.465  25.054  1.00  0.00     0.124 S 
ATOM     83  O   UNL A   1      45.900  21.228  25.475  1.00  0.00    -0.237 OA
ATOM     84  O   UNL A   1      43.572  20.398  25.347  1.00  0.00    -0.237 OA
ATOM     85  O   UNL A   1      44.362  22.094  23.746  1.00  0.00    -0.744 OA
ENDBRANCH  81  82
ENDBRANCH  49  74
BRANCH  61  86
ATOM     86  C   UNL A   1      46.858  27.243  33.549  1.00  0.00     0.058 A 
ATOM     87  C   UNL A   1      48.052  27.872  33.164  1.00  0.00     0.135 A 
ATOM     88  C   UNL A   1      46.920  26.292  34.581  1.00  0.00     0.135 A 
ATOM     89  F   UNL A   1      48.047  28.781  32.175  1.00  0.00    -0.206 F 
ATOM     90  C   UNL A   1      49.265  27.564  33.770  1.00  0.00     0.059 A 
ATOM     91  C   UNL A   1      48.118  25.984  35.218  1.00  0.00     0.059 A 
ATOM     92  F   UNL A   1      45.806  25.667  34.992  1.00  0.00    -0.206 F 
ATOM     93  C   UNL A   1      49.287  26.620  34.799  1.00  0.00     0.060 A 
BRANCH  93  94
ATOM     94  S   UNL A   1      50.860  26.260  35.609  1.00  0.00     0.124 S 
ATOM     95  O   UNL A   1      50.418  25.577  36.819  1.00  0.00    -0.237 OA
ATOM     96  O   UNL A   1      51.539  25.427  34.621  1.00  0.00    -0.237 OA
ATOM     97  O   UNL A   1      51.446  27.583  35.813  1.00  0.00    -0.744 OA
ENDBRANCH  93  94
ENDBRANCH  61  86
ENDBRANCH  35  36
ENDBRANCH  27  30
ENDBRANCH  25  26
ENDBRANCH  24  25
ENDBRANCH  23  24
ENDBRANCH   1  23
TORSDOF 19
ENDMDL
MODEL 2
REMARK VINA RESULT:     -11.1      2.539      3.264
REMARK SMILES CC[C@H](C)Oc1ccc(NC(=O)/C=C/C(=O)NCCCCNC(=O)c2ccc(-c3c4nc(c(-c5c(F)cc(S(=O)(=O)[O-])cc5F)c5ccc([nH]5)c(-c5c(F)cc(S(=O)(=O)[O-])cc5F)c5nc(c(-c6c(F)cc(S(=O)(=O)[O-])cc6F)c6ccc3[nH]6)C=C5)C=C4)cc2)cc1
REMARK SMILES IDX 18 1 17 2 15 3 16 4 14 6 13 7 11 8 10 9 12 11 9 12 6 13 7 14
REMARK SMILES IDX 92 15 8 16 91 17 5 18 3 19 4 20 2 21 1 22 19 23 20 24 21 25
REMARK SMILES IDX 22 26 23 27 24 29 25 30 26 31 90 32 27 33 89 34 28 35 29 36
REMARK SMILES IDX 30 37 83 38 31 39 88 40 82 41 84 42 32 43 87 44 81 45 80 46
REMARK SMILES IDX 33 48 67 49 46 50 66 51 47 52 50 53 65 54 85 55 48 56 49 57
REMARK SMILES IDX 64 59 86 60 51 61 34 62 35 63 44 64 36 65 37 66 43 67 45 68
REMARK SMILES IDX 38 69 39 70 40 71 41 72 42 73 68 74 69 75 78 76 70 77 71 78
REMARK SMILES IDX 77 79 79 80 72 81 73 82 74 83 75 84 76 85 52 86 53 87 62 88
REMARK SMILES IDX 54 89 55 90 61 91 63 92 56 93 57 94 58 95 59 96 60 97
REMARK H PARENT 17 5 10 10 22 28 84 47 50 58
REMARK Flexibility Score: inf
ROOT
ATOM      1  C   UNL A   1      30.940  27.277  25.890  1.00  0.00     0.116 C 
ENDROOT
BRANCH   1   2
ATOM      2  N   UNL A   1      30.371  26.107  26.528  1.00  0.00    -0.353 N 
ATOM      3  C   UNL A   1      30.773  24.813  26.455  1.00  0.00     0.244 C 
ATOM      4  O   UNL A   1      30.288  23.966  27.198  1.00  0.00    -0.270 OA
ATOM      5  H   UNL A   1      29.582  26.275  27.092  1.00  0.00     0.163 HD
BRANCH   3   6
ATOM      6  C   UNL A   1      31.819  24.419  25.495  1.00  0.00     0.077 C 
ATOM      7  C   UNL A   1      33.087  24.239  25.892  1.00  0.00     0.077 C 
BRANCH   7   8
ATOM      8  C   UNL A   1      34.154  24.067  24.893  1.00  0.00     0.248 C 
ATOM      9  N   UNL A   1      34.425  22.823  24.394  1.00  0.00    -0.323 N 
ATOM     10  H   UNL A   1      35.224  22.778  23.822  1.00  0.00     0.170 HD
ATOM     11  O   UNL A   1      34.816  25.042  24.544  1.00  0.00    -0.270 OA
BRANCH   9  12
ATOM     12  C   UNL A   1      33.757  21.597  24.561  1.00  0.00     0.041 A 
ATOM     13  C   UNL A   1      32.603  19.031  24.550  1.00  0.00     0.119 A 
ATOM     14  C   UNL A   1      33.423  19.434  25.600  1.00  0.00     0.048 A 
ATOM     15  C   UNL A   1      32.272  19.959  23.566  1.00  0.00     0.048 A 
ATOM     16  C   UNL A   1      33.982  20.713  25.616  1.00  0.00     0.030 A 
ATOM     17  C   UNL A   1      32.837  21.239  23.575  1.00  0.00     0.030 A 
BRANCH  13  18
ATOM     18  O   UNL A   1      32.213  17.728  24.610  1.00  0.00    -0.491 OA
BRANCH  18  19
ATOM     19  C   UNL A   1      33.109  16.662  24.263  1.00  0.00     0.170 C 
ATOM     20  C   UNL A   1      33.943  17.010  23.030  1.00  0.00     0.053 C 
BRANCH  19  21
ATOM     21  C   UNL A   1      33.826  16.045  25.483  1.00  0.00     0.041 C 
ATOM     22  C   UNL A   1      35.315  15.804  25.304  1.00  0.00     0.008 C 
ENDBRANCH  19  21
ENDBRANCH  18  19
ENDBRANCH  13  18
ENDBRANCH   9  12
ENDBRANCH   7   8
ENDBRANCH   3   6
ENDBRANCH   1   2
BRANCH   1  23
ATOM     23  C   UNL A   1      31.717  28.136  26.883  1.00  0.00     0.023 C 
BRANCH  23  24
ATOM     24  C   UNL A   1      33.217  27.838  26.945  1.00  0.00     0.023 C 
BRANCH  24  25
ATOM     25  C   UNL A   1      34.129  29.003  26.572  1.00  0.00     0.116 C 
BRANCH  25  26
ATOM     26  N   UNL A   1      33.940  30.178  27.412  1.00  0.00    -0.352 N 
ATOM     27  C   UNL A   1      34.808  30.723  28.325  1.00  0.00     0.251 C 
ATOM     28  H   UNL A   1      33.077  30.644  27.310  1.00  0.00     0.163 HD
ATOM     29  O   UNL A   1      34.471  31.682  29.012  1.00  0.00    -0.269 OA
BRANCH  27  30
ATOM     30  C   UNL A   1      36.133  30.102  28.501  1.00  0.00     0.039 A 
ATOM     31  C   UNL A   1      37.028  30.119  27.431  1.00  0.00     0.014 A 
ATOM     32  C   UNL A   1      36.510  29.585  29.744  1.00  0.00     0.014 A 
ATOM     33  C   UNL A   1      38.340  29.690  27.630  1.00  0.00     0.010 A 
ATOM     34  C   UNL A   1      37.833  29.214  29.956  1.00  0.00     0.010 A 
ATOM     35  C   UNL A   1      38.762  29.279  28.905  1.00  0.00    -0.014 A 
BRANCH  35  36
ATOM     36  C   UNL A   1      40.185  28.961  29.174  1.00  0.00     0.031 A 
ATOM     37  C   UNL A   1      41.114  30.023  29.682  1.00  0.00     0.074 A 
ATOM     38  C   UNL A   1      40.654  27.736  28.862  1.00  0.00     0.049 A 
ATOM     39  N   UNL A   1      42.402  29.956  29.899  1.00  0.00    -0.248 NA
ATOM     40  C   UNL A   1      40.524  31.343  29.953  1.00  0.00     0.031 C 
ATOM     41  C   UNL A   1      39.857  26.647  28.293  1.00  0.00     0.029 A 
ATOM     42  N   UNL A   1      41.917  27.211  28.957  1.00  0.00    -0.354 N 
ATOM     43  C   UNL A   1      42.781  31.226  30.314  1.00  0.00     0.074 A 
ATOM     44  C   UNL A   1      41.595  32.055  30.274  1.00  0.00     0.031 C 
ATOM     45  C   UNL A   1      40.649  25.584  28.089  1.00  0.00     0.029 A 
ATOM     46  C   UNL A   1      42.013  25.924  28.484  1.00  0.00     0.049 A 
ATOM     47  H   UNL A   1      42.682  27.708  29.327  1.00  0.00     0.167 HD
ATOM     48  C   UNL A   1      44.003  31.655  30.711  1.00  0.00     0.037 A 
ATOM     49  C   UNL A   1      43.082  25.112  28.369  1.00  0.00     0.037 A 
ATOM     50  C   UNL A   1      45.171  30.816  30.764  1.00  0.00     0.049 A 
ATOM     51  C   UNL A   1      44.424  25.598  28.834  1.00  0.00     0.074 A 
ATOM     52  C   UNL A   1      46.434  31.127  31.236  1.00  0.00     0.029 A 
ATOM     53  N   UNL A   1      45.224  29.503  30.316  1.00  0.00    -0.354 N 
ATOM     54  N   UNL A   1      44.748  26.773  29.320  1.00  0.00    -0.248 NA
ATOM     55  C   UNL A   1      45.543  24.652  28.744  1.00  0.00     0.031 C 
ATOM     56  C   UNL A   1      47.261  30.016  31.035  1.00  0.00     0.029 A 
ATOM     57  C   UNL A   1      46.505  28.999  30.474  1.00  0.00     0.049 A 
ATOM     58  H   UNL A   1      44.463  29.005  29.942  1.00  0.00     0.167 HD
ATOM     59  C   UNL A   1      46.108  26.708  29.600  1.00  0.00     0.074 A 
ATOM     60  C   UNL A   1      46.540  25.370  29.247  1.00  0.00     0.031 C 
ATOM     61  C   UNL A   1      46.922  27.669  30.102  1.00  0.00     0.037 A 
BRANCH  48  62
ATOM     62  C   UNL A   1      44.126  33.099  31.111  1.00  0.00     0.058 A 
ATOM     63  C   UNL A   1      43.791  33.536  32.403  1.00  0.00     0.135 A 
ATOM     64  C   UNL A   1      44.573  34.059  30.190  1.00  0.00     0.135 A 
ATOM     65  F   UNL A   1      43.346  32.662  33.320  1.00  0.00    -0.206 F 
ATOM     66  C   UNL A   1      43.847  34.882  32.753  1.00  0.00     0.059 A 
ATOM     67  C   UNL A   1      44.663  35.407  30.527  1.00  0.00     0.059 A 
ATOM     68  F   UNL A   1      44.909  33.696  28.943  1.00  0.00    -0.206 F 
ATOM     69  C   UNL A   1      44.275  35.811  31.804  1.00  0.00     0.060 A 
BRANCH  69  70
ATOM     70  S   UNL A   1      44.307  37.558  32.258  1.00  0.00     0.124 S 
ATOM     71  O   UNL A   1      45.736  37.775  32.468  1.00  0.00    -0.237 OA
ATOM     72  O   UNL A   1      43.737  38.200  31.078  1.00  0.00    -0.237 OA
ATOM     73  O   UNL A   1      43.480  37.612  33.459  1.00  0.00    -0.744 OA
ENDBRANCH  69  70
ENDBRANCH  48  62
BRANCH  49  74
ATOM     74  C   UNL A   1      42.903  23.754  27.794  1.00  0.00     0.058 A 
ATOM     75  C   UNL A   1      42.787  22.629  28.622  1.00  0.00     0.135 A 
ATOM     76  C   UNL A   1      42.772  23.565  26.410  1.00  0.00     0.135 A 
ATOM     77  F   UNL A   1      42.911  22.760  29.952  1.00  0.00    -0.206 F 
ATOM     78  C   UNL A   1      42.541  21.363  28.101  1.00  0.00     0.059 A 
ATOM     79  C   UNL A   1      42.506  22.313  25.865  1.00  0.00     0.059 A 
ATOM     80  F   UNL A   1      42.858  24.614  25.577  1.00  0.00    -0.206 F 
ATOM     81  C   UNL A   1      42.392  21.217  26.719  1.00  0.00     0.060 A 
BRANCH  81  82
ATOM     82  S   UNL A   1      41.972  19.589  26.061  1.00  0.00     0.124 S 
ATOM     83  O   UNL A   1      40.561  19.757  25.735  1.00  0.00    -0.237 OA
ATOM     84  O   UNL A   1      42.882  19.472  24.924  1.00  0.00    -0.237 OA
ATOM     85  O   UNL A   1      42.261  18.693  27.177  1.00  0.00    -0.744 OA
ENDBRANCH  81  82
ENDBRANCH  49  74
BRANCH  61  86
ATOM     86  C   UNL A   1      48.369  27.312  30.295  1.00  0.00     0.058 A 
ATOM     87  C   UNL A   1      49.320  27.547  29.290  1.00  0.00     0.135 A 
ATOM     88  C   UNL A   1      48.819  26.788  31.517  1.00  0.00     0.135 A 
ATOM     89  F   UNL A   1      48.938  28.039  28.101  1.00  0.00    -0.206 F 
ATOM     90  C   UNL A   1      50.667  27.262  29.485  1.00  0.00     0.059 A 
ATOM     91  C   UNL A   1      50.165  26.516  31.743  1.00  0.00     0.059 A 
ATOM     92  F   UNL A   1      47.950  26.552  32.513  1.00  0.00    -0.206 F 
ATOM     93  C   UNL A   1      51.081  26.749  30.717  1.00  0.00     0.060 A 
BRANCH  93  94
ATOM     94  S   UNL A   1      52.838  26.425  30.973  1.00  0.00     0.124 S 
ATOM     95  O   UNL A   1      53.279  27.671  31.591  1.00  0.00    -0.237 OA
ATOM     96  O   UNL A   1      52.818  25.256  31.846  1.00  0.00    -0.237 OA
ATOM     97  O   UNL A   1      53.338  26.182  29.623  1.00  0.00    -0.744 OA
ENDBRANCH  93  94
ENDBRANCH  61  86
ENDBRANCH  35  36
ENDBRANCH  27  30
ENDBRANCH  25  26
ENDBRANCH  24  25
ENDBRANCH  23  24
ENDBRANCH   1  23
TORSDOF 19
ENDMDL
MODEL 3
REMARK VINA RESULT:     -10.8      4.932      6.359
REMARK SMILES CC[C@H](C)Oc1ccc(NC(=O)/C=C/C(=O)NCCCCNC(=O)c2ccc(-c3c4nc(c(-c5c(F)cc(S(=O)(=O)[O-])cc5F)c5ccc([nH]5)c(-c5c(F)cc(S(=O)(=O)[O-])cc5F)c5nc(c(-c6c(F)cc(S(=O)(=O)[O-])cc6F)c6ccc3[nH]6)C=C5)C=C4)cc2)cc1
REMARK SMILES IDX 18 1 17 2 15 3 16 4 14 6 13 7 11 8 10 9 12 11 9 12 6 13 7 14
REMARK SMILES IDX 92 15 8 16 91 17 5 18 3 19 4 20 2 21 1 22 19 23 20 24 21 25
REMARK SMILES IDX 22 26 23 27 24 29 25 30 26 31 90 32 27 33 89 34 28 35 29 36
REMARK SMILES IDX 30 37 83 38 31 39 88 40 82 41 84 42 32 43 87 44 81 45 80 46
REMARK SMILES IDX 33 48 67 49 46 50 66 51 47 52 50 53 65 54 85 55 48 56 49 57
REMARK SMILES IDX 64 59 86 60 51 61 34 62 35 63 44 64 36 65 37 66 43 67 45 68
REMARK SMILES IDX 38 69 39 70 40 71 41 72 42 73 68 74 69 75 78 76 70 77 71 78
REMARK SMILES IDX 77 79 79 80 72 81 73 82 74 83 75 84 76 85 52 86 53 87 62 88
REMARK SMILES IDX 54 89 55 90 61 91 63 92 56 93 57 94 58 95 59 96 60 97
REMARK H PARENT 17 5 10 10 22 28 84 47 50 58
REMARK Flexibility Score: inf
ROOT
ATOM      1  C   UNL A   1      33.558  28.880  27.056  1.00  0.00     0.116 C 
ENDROOT
BRANCH   1   2
ATOM      2  N   UNL A   1      32.375  28.088  27.323  1.00  0.00    -0.353 N 
ATOM      3  C   UNL A   1      31.521  27.502  26.445  1.00  0.00     0.244 C 
ATOM      4  O   UNL A   1      30.665  26.716  26.836  1.00  0.00    -0.270 OA
ATOM      5  H   UNL A   1      32.159  27.957  28.275  1.00  0.00     0.163 HD
BRANCH   3   6
ATOM      6  C   UNL A   1      31.636  27.789  25.004  1.00  0.00     0.077 C 
ATOM      7  C   UNL A   1      30.567  27.712  24.198  1.00  0.00     0.077 C 
BRANCH   7   8
ATOM      8  C   UNL A   1      30.739  27.780  22.738  1.00  0.00     0.248 C 
ATOM      9  N   UNL A   1      31.474  26.823  22.095  1.00  0.00    -0.323 N 
ATOM     10  H   UNL A   1      31.636  27.006  21.141  1.00  0.00     0.170 HD
ATOM     11  O   UNL A   1      30.249  28.721  22.117  1.00  0.00    -0.270 OA
BRANCH   9  12
ATOM     12  C   UNL A   1      32.038  25.623  22.563  1.00  0.00     0.041 A 
ATOM     13  C   UNL A   1      33.359  23.454  23.773  1.00  0.00     0.119 A 
ATOM     14  C   UNL A   1      31.969  23.514  23.754  1.00  0.00     0.048 A 
ATOM     15  C   UNL A   1      34.081  24.425  23.084  1.00  0.00     0.048 A 
ATOM     16  C   UNL A   1      31.312  24.581  23.138  1.00  0.00     0.030 A 
ATOM     17  C   UNL A   1      33.425  25.499  22.473  1.00  0.00     0.030 A 
BRANCH  13  18
ATOM     18  O   UNL A   1      33.866  22.417  24.496  1.00  0.00    -0.491 OA
BRANCH  18  19
ATOM     19  C   UNL A   1      34.702  22.641  25.641  1.00  0.00     0.170 C 
ATOM     20  C   UNL A   1      33.875  22.967  26.884  1.00  0.00     0.053 C 
BRANCH  19  21
ATOM     21  C   UNL A   1      35.848  21.615  25.770  1.00  0.00     0.041 C 
ATOM     22  C   UNL A   1      35.653  20.328  24.986  1.00  0.00     0.008 C 
ENDBRANCH  19  21
ENDBRANCH  18  19
ENDBRANCH  13  18
ENDBRANCH   9  12
ENDBRANCH   7   8
ENDBRANCH   3   6
ENDBRANCH   1   2
BRANCH   1  23
ATOM     23  C   UNL A   1      33.287  30.371  27.239  1.00  0.00     0.023 C 
BRANCH  23  24
ATOM     24  C   UNL A   1      34.529  31.210  27.551  1.00  0.00     0.023 C 
BRANCH  24  25
ATOM     25  C   UNL A   1      35.672  30.456  28.225  1.00  0.00     0.116 C 
BRANCH  25  26
ATOM     26  N   UNL A   1      35.508  30.326  29.667  1.00  0.00    -0.352 N 
ATOM     27  C   UNL A   1      36.473  30.105  30.619  1.00  0.00     0.251 C 
ATOM     28  H   UNL A   1      34.586  30.409  30.003  1.00  0.00     0.163 HD
ATOM     29  O   UNL A   1      36.164  29.948  31.795  1.00  0.00    -0.269 OA
BRANCH  27  30
ATOM     30  C   UNL A   1      37.880  30.010  30.192  1.00  0.00     0.039 A 
ATOM     31  C   UNL A   1      38.860  29.786  31.160  1.00  0.00     0.014 A 
ATOM     32  C   UNL A   1      38.211  30.059  28.835  1.00  0.00     0.014 A 
ATOM     33  C   UNL A   1      40.170  29.525  30.760  1.00  0.00     0.010 A 
ATOM     34  C   UNL A   1      39.504  29.740  28.436  1.00  0.00     0.010 A 
ATOM     35  C   UNL A   1      40.490  29.455  29.394  1.00  0.00    -0.014 A 
BRANCH  35  36
ATOM     36  C   UNL A   1      41.838  29.034  28.945  1.00  0.00     0.031 A 
ATOM     37  C   UNL A   1      42.936  30.045  28.797  1.00  0.00     0.074 A 
ATOM     38  C   UNL A   1      42.037  27.753  28.575  1.00  0.00     0.049 A 
ATOM     39  N   UNL A   1      44.152  29.882  28.343  1.00  0.00    -0.248 NA
ATOM     40  C   UNL A   1      42.616  31.429  29.182  1.00  0.00     0.031 C 
ATOM     41  C   UNL A   1      41.021  26.699  28.606  1.00  0.00     0.029 A 
ATOM     42  N   UNL A   1      43.151  27.127  28.079  1.00  0.00    -0.354 N 
ATOM     43  C   UNL A   1      44.736  31.141  28.370  1.00  0.00     0.074 A 
ATOM     44  C   UNL A   1      43.727  32.065  28.841  1.00  0.00     0.031 C 
ATOM     45  C   UNL A   1      41.558  25.557  28.149  1.00  0.00     0.029 A 
ATOM     46  C   UNL A   1      42.945  25.805  27.766  1.00  0.00     0.049 A 
ATOM     47  H   UNL A   1      44.016  27.581  27.958  1.00  0.00     0.167 HD
ATOM     48  C   UNL A   1      46.006  31.490  28.050  1.00  0.00     0.037 A 
ATOM     49  C   UNL A   1      43.775  24.896  27.219  1.00  0.00     0.037 A 
ATOM     50  C   UNL A   1      47.006  30.558  27.600  1.00  0.00     0.049 A 
ATOM     51  C   UNL A   1      45.185  25.296  26.891  1.00  0.00     0.074 A 
ATOM     52  C   UNL A   1      48.344  30.791  27.336  1.00  0.00     0.029 A 
ATOM     53  N   UNL A   1      46.774  29.215  27.333  1.00  0.00    -0.354 N 
ATOM     54  N   UNL A   1      45.755  26.470  27.016  1.00  0.00    -0.248 NA
ATOM     55  C   UNL A   1      46.066  24.251  26.355  1.00  0.00     0.031 C 
ATOM     56  C   UNL A   1      48.911  29.599  26.870  1.00  0.00     0.029 A 
ATOM     57  C   UNL A   1      47.937  28.614  26.880  1.00  0.00     0.049 A 
ATOM     58  H   UNL A   1      45.910  28.759  27.449  1.00  0.00     0.167 HD
ATOM     59  C   UNL A   1      47.064  26.307  26.580  1.00  0.00     0.074 A 
ATOM     60  C   UNL A   1      47.207  24.914  26.207  1.00  0.00     0.031 C 
ATOM     61  C   UNL A   1      48.056  27.228  26.497  1.00  0.00     0.037 A 
BRANCH  48  62
ATOM     62  C   UNL A   1      46.369  32.943  28.173  1.00  0.00     0.058 A 
ATOM     63  C   UNL A   1      46.876  33.476  29.370  1.00  0.00     0.135 A 
ATOM     64  C   UNL A   1      46.200  33.816  27.088  1.00  0.00     0.135 A 
ATOM     65  F   UNL A   1      47.046  32.688  30.444  1.00  0.00    -0.206 F 
ATOM     66  C   UNL A   1      47.154  34.834  29.502  1.00  0.00     0.059 A 
ATOM     67  C   UNL A   1      46.498  35.172  27.188  1.00  0.00     0.059 A 
ATOM     68  F   UNL A   1      45.722  33.359  25.920  1.00  0.00    -0.206 F 
ATOM     69  C   UNL A   1      46.952  35.675  28.407  1.00  0.00     0.060 A 
BRANCH  69  70
ATOM     70  S   UNL A   1      47.281  37.440  28.601  1.00  0.00     0.124 S 
ATOM     71  O   UNL A   1      45.995  38.016  28.221  1.00  0.00    -0.237 OA
ATOM     72  O   UNL A   1      47.626  37.542  30.016  1.00  0.00    -0.237 OA
ATOM     73  O   UNL A   1      48.379  37.685  27.672  1.00  0.00    -0.744 OA
ENDBRANCH  69  70
ENDBRANCH  48  62
BRANCH  49  74
ATOM     74  C   UNL A   1      43.278  23.519  26.964  1.00  0.00     0.058 A 
ATOM     75  C   UNL A   1      43.025  23.072  25.660  1.00  0.00     0.135 A 
ATOM     76  C   UNL A   1      43.115  22.603  28.015  1.00  0.00     0.135 A 
ATOM     77  F   UNL A   1      43.161  23.914  24.625  1.00  0.00    -0.206 F 
ATOM     78  C   UNL A   1      42.635  21.763  25.403  1.00  0.00     0.059 A 
ATOM     79  C   UNL A   1      42.745  21.282  27.782  1.00  0.00     0.059 A 
ATOM     80  F   UNL A   1      43.362  22.978  29.279  1.00  0.00    -0.206 F 
ATOM     81  C   UNL A   1      42.507  20.871  26.471  1.00  0.00     0.060 A 
BRANCH  81  82
ATOM     82  S   UNL A   1      42.099  19.148  26.117  1.00  0.00     0.124 S 
ATOM     83  O   UNL A   1      42.948  18.874  24.964  1.00  0.00    -0.237 OA
ATOM     84  O   UNL A   1      42.473  18.480  27.361  1.00  0.00    -0.237 OA
ATOM     85  O   UNL A   1      40.664  19.193  25.849  1.00  0.00    -0.744 OA
ENDBRANCH  81  82
ENDBRANCH  49  74
BRANCH  61  86
ATOM     86  C   UNL A   1      49.385  26.761  25.974  1.00  0.00     0.058 A 
ATOM     87  C   UNL A   1      49.763  26.974  24.640  1.00  0.00     0.135 A 
ATOM     88  C   UNL A   1      50.315  26.149  26.831  1.00  0.00     0.135 A 
ATOM     89  F   UNL A   1      48.906  27.546  23.779  1.00  0.00    -0.206 F 
ATOM     90  C   UNL A   1      51.011  26.585  24.167  1.00  0.00     0.059 A 
ATOM     91  C   UNL A   1      51.579  25.772  26.386  1.00  0.00     0.059 A 
ATOM     92  F   UNL A   1      50.006  25.929  28.118  1.00  0.00    -0.206 F 
ATOM     93  C   UNL A   1      51.915  25.988  25.049  1.00  0.00     0.060 A 
BRANCH  93  94
ATOM     94  S   UNL A   1      53.549  25.528  24.435  1.00  0.00     0.124 S 
ATOM     95  O   UNL A   1      53.545  24.084  24.641  1.00  0.00    -0.237 OA
ATOM     96  O   UNL A   1      53.498  25.972  23.045  1.00  0.00    -0.237 OA
ATOM     97  O   UNL A   1      54.457  26.283  25.294  1.00  0.00    -0.744 OA
ENDBRANCH  93  94
ENDBRANCH  61  86
ENDBRANCH  35  36
ENDBRANCH  27  30
ENDBRANCH  25  26
ENDBRANCH  24  25
ENDBRANCH  23  24
ENDBRANCH   1  23
TORSDOF 19
ENDMDL
