MODEL 1
REMARK VINA RESULT:     -10.5      0.000      0.000
REMARK SMILES O=C(C[C@H]1C[N@@H+]([C@@H]2CC(=O)NC2=O)CCO1)NCCCCNC(=O)c1ccc(-c2c3nc(c(-c4c(F)cc(S(=O)(=O)[O-])cc4F)c4ccc([nH]4)c(-c4c(F)cc(S(=O)(=O)[O-])cc4F)c4nc(c(-c5c(F)cc(S(=O)(=O)[O-])cc5F)c5ccc2[nH]5)C=C4)C=C3)cc1
REMARK SMILES IDX 20 1 19 2 18 3 17 4 1 5 2 6 3 8 4 9 5 10 16 11 6 12 15 13
REMARK SMILES IDX 14 14 7 16 8 17 12 18 9 19 11 20 13 21 10 22 21 24 22 25
REMARK SMILES IDX 23 26 24 28 25 29 26 30 90 31 27 32 89 33 28 34 29 35 30 36
REMARK SMILES IDX 83 37 31 38 88 39 82 40 84 41 32 42 87 43 81 44 80 45 33 47
REMARK SMILES IDX 67 48 46 49 66 50 47 51 50 52 65 53 85 54 48 55 49 56 64 58
REMARK SMILES IDX 86 59 51 60 34 61 35 62 44 63 36 64 37 65 43 66 45 67 38 68
REMARK SMILES IDX 39 69 40 70 41 71 42 72 68 73 69 74 78 75 70 76 71 77 77 78
REMARK SMILES IDX 79 79 72 80 73 81 74 82 75 83 76 84 52 85 53 86 62 87 54 88
REMARK SMILES IDX 55 89 61 90 63 91 56 92 57 93 58 94 59 95 60 96
REMARK H PARENT 17 7 6 15 11 23 22 27 84 46 50 57
REMARK Flexibility Score: inf
ROOT
ATOM      1  C   UNL A   1      34.723  34.290  28.037  1.00  0.00     0.023 C 
ENDROOT
BRANCH   1   2
ATOM      2  C   UNL A   1      33.365  34.479  28.713  1.00  0.00     0.023 C 
BRANCH   2   3
ATOM      3  C   UNL A   1      33.423  35.069  30.121  1.00  0.00     0.116 C 
BRANCH   3   4
ATOM      4  N   UNL A   1      34.196  34.276  31.049  1.00  0.00    -0.356 N 
ATOM      5  O   UNL A   1      32.815  34.614  32.838  1.00  0.00    -0.275 OA
ATOM      6  C   UNL A   1      33.805  34.080  32.348  1.00  0.00     0.222 C 
ATOM      7  H   UNL A   1      35.034  33.861  30.737  1.00  0.00     0.163 HD
BRANCH   6   8
ATOM      8  C   UNL A   1      34.718  33.202  33.167  1.00  0.00     0.138 C 
BRANCH   8   9
ATOM      9  C   UNL A   1      35.808  33.868  34.022  1.00  0.00     0.182 C 
ATOM     10  C   UNL A   1      36.912  32.907  34.534  1.00  0.00     0.295 C 
ATOM     11  O   UNL A   1      36.324  35.102  33.506  1.00  0.00    -0.366 OA
ATOM     12  N   UNL A   1      38.137  32.805  33.745  1.00  0.00    -0.320 N 
ATOM     13  C   UNL A   1      37.458  34.951  32.641  1.00  0.00     0.222 C 
ATOM     14  C   UNL A   1      38.581  34.104  33.250  1.00  0.00     0.291 C 
ATOM     15  H   UNL A   1      38.813  32.503  34.447  1.00  0.00     0.348 HD
BRANCH  12  16
ATOM     16  C   UNL A   1      38.387  31.635  32.899  1.00  0.00     0.284 C 
ATOM     17  C   UNL A   1      37.268  30.618  32.692  1.00  0.00     0.176 C 
ATOM     18  C   UNL A   1      39.553  30.791  33.409  1.00  0.00     0.285 C 
ATOM     19  C   UNL A   1      37.841  29.323  33.188  1.00  0.00     0.233 C 
ATOM     20  N   UNL A   1      39.103  29.527  33.630  1.00  0.00    -0.291 N 
ATOM     21  O   UNL A   1      40.699  31.157  33.592  1.00  0.00    -0.268 OA
ATOM     22  O   UNL A   1      37.301  28.228  33.130  1.00  0.00    -0.274 OA
ATOM     23  H   UNL A   1      39.643  28.830  34.067  1.00  0.00     0.173 HD
ENDBRANCH  12  16
ENDBRANCH   8   9
ENDBRANCH   6   8
ENDBRANCH   3   4
ENDBRANCH   2   3
ENDBRANCH   1   2
BRANCH   1  24
ATOM     24  C   UNL A   1      35.337  32.903  28.179  1.00  0.00     0.116 C 
BRANCH  24  25
ATOM     25  N   UNL A   1      34.382  31.832  27.945  1.00  0.00    -0.352 N 
ATOM     26  C   UNL A   1      34.618  30.482  27.848  1.00  0.00     0.251 C 
ATOM     27  H   UNL A   1      33.443  32.110  27.842  1.00  0.00     0.163 HD
ATOM     28  O   UNL A   1      33.712  29.716  27.532  1.00  0.00    -0.269 OA
BRANCH  26  29
ATOM     29  C   UNL A   1      35.982  29.963  28.091  1.00  0.00     0.039 A 
ATOM     30  C   UNL A   1      36.927  30.046  27.065  1.00  0.00     0.014 A 
ATOM     31  C   UNL A   1      36.335  29.431  29.334  1.00  0.00     0.014 A 
ATOM     32  C   UNL A   1      38.245  29.654  27.308  1.00  0.00     0.010 A 
ATOM     33  C   UNL A   1      37.663  29.103  29.594  1.00  0.00     0.010 A 
ATOM     34  C   UNL A   1      38.632  29.212  28.584  1.00  0.00    -0.014 A 
BRANCH  34  35
ATOM     35  C   UNL A   1      40.047  28.865  28.882  1.00  0.00     0.031 A 
ATOM     36  C   UNL A   1      40.966  29.896  29.479  1.00  0.00     0.074 A 
ATOM     37  C   UNL A   1      40.518  27.646  28.554  1.00  0.00     0.049 A 
ATOM     38  N   UNL A   1      42.243  29.804  29.749  1.00  0.00    -0.248 NA
ATOM     39  C   UNL A   1      40.379  31.210  29.789  1.00  0.00     0.031 C 
ATOM     40  C   UNL A   1      39.737  26.578  27.924  1.00  0.00     0.029 A 
ATOM     41  N   UNL A   1      41.769  27.100  28.696  1.00  0.00    -0.354 N 
ATOM     42  C   UNL A   1      42.616  31.050  30.242  1.00  0.00     0.074 A 
ATOM     43  C   UNL A   1      41.441  31.893  30.190  1.00  0.00     0.031 C 
ATOM     44  C   UNL A   1      40.521  25.500  27.757  1.00  0.00     0.029 A 
ATOM     45  C   UNL A   1      41.866  25.809  28.231  1.00  0.00     0.049 A 
ATOM     46  H   UNL A   1      42.527  27.588  29.093  1.00  0.00     0.167 HD
ATOM     47  C   UNL A   1      43.821  31.446  30.717  1.00  0.00     0.037 A 
ATOM     48  C   UNL A   1      42.921  24.971  28.189  1.00  0.00     0.037 A 
ATOM     49  C   UNL A   1      44.977  30.592  30.797  1.00  0.00     0.049 A 
ATOM     50  C   UNL A   1      44.246  25.433  28.730  1.00  0.00     0.074 A 
ATOM     51  C   UNL A   1      46.223  30.878  31.325  1.00  0.00     0.029 A 
ATOM     52  N   UNL A   1      45.029  29.284  30.338  1.00  0.00    -0.354 N 
ATOM     53  N   UNL A   1      44.564  26.593  29.255  1.00  0.00    -0.248 NA
ATOM     54  C   UNL A   1      45.358  24.472  28.678  1.00  0.00     0.031 C 
ATOM     55  C   UNL A   1      47.042  29.758  31.148  1.00  0.00     0.029 A 
ATOM     56  C   UNL A   1      46.291  28.757  30.552  1.00  0.00     0.049 A 
ATOM     57  H   UNL A   1      44.279  28.800  29.921  1.00  0.00     0.167 HD
ATOM     58  C   UNL A   1      45.901  26.491  29.622  1.00  0.00     0.074 A 
ATOM     59  C   UNL A   1      46.331  25.153  29.268  1.00  0.00     0.031 C 
ATOM     60  C   UNL A   1      46.701  27.420  30.202  1.00  0.00     0.037 A 
BRANCH  47  61
ATOM     61  C   UNL A   1      43.951  32.867  31.190  1.00  0.00     0.058 A 
ATOM     62  C   UNL A   1      44.209  33.921  30.300  1.00  0.00     0.135 A 
ATOM     63  C   UNL A   1      43.779  33.186  32.548  1.00  0.00     0.135 A 
ATOM     64  F   UNL A   1      44.398  33.671  28.994  1.00  0.00    -0.206 F 
ATOM     65  C   UNL A   1      44.323  35.236  30.740  1.00  0.00     0.059 A 
ATOM     66  C   UNL A   1      43.860  34.497  33.007  1.00  0.00     0.059 A 
ATOM     67  F   UNL A   1      43.530  32.217  33.443  1.00  0.00    -0.206 F 
ATOM     68  C   UNL A   1      44.148  35.513  32.096  1.00  0.00     0.060 A 
BRANCH  68  69
ATOM     69  S   UNL A   1      44.294  37.225  32.652  1.00  0.00     0.124 S 
ATOM     70  O   UNL A   1      43.174  37.324  33.582  1.00  0.00    -0.237 OA
ATOM     71  O   UNL A   1      45.623  37.246  33.256  1.00  0.00    -0.237 OA
ATOM     72  O   UNL A   1      44.157  37.995  31.420  1.00  0.00    -0.744 OA
ENDBRANCH  68  69
ENDBRANCH  47  61
BRANCH  48  73
ATOM     73  C   UNL A   1      42.760  23.599  27.639  1.00  0.00     0.058 A 
ATOM     74  C   UNL A   1      42.919  23.350  26.269  1.00  0.00     0.135 A 
ATOM     75  C   UNL A   1      42.452  22.510  28.470  1.00  0.00     0.135 A 
ATOM     76  F   UNL A   1      43.206  24.360  25.433  1.00  0.00    -0.206 F 
ATOM     77  C   UNL A   1      42.760  22.076  25.735  1.00  0.00     0.059 A 
ATOM     78  C   UNL A   1      42.313  21.221  27.964  1.00  0.00     0.059 A 
ATOM     79  F   UNL A   1      42.307  22.692  29.792  1.00  0.00    -0.206 F 
ATOM     80  C   UNL A   1      42.458  21.016  26.593  1.00  0.00     0.060 A 
BRANCH  80  81
ATOM     81  S   UNL A   1      42.296  19.357  25.897  1.00  0.00     0.124 S 
ATOM     82  O   UNL A   1      42.847  18.535  26.968  1.00  0.00    -0.237 OA
ATOM     83  O   UNL A   1      40.856  19.252  25.686  1.00  0.00    -0.237 OA
ATOM     84  O   UNL A   1      43.097  19.427  24.678  1.00  0.00    -0.744 OA
ENDBRANCH  80  81
ENDBRANCH  48  73
BRANCH  60  85
ATOM     85  C   UNL A   1      48.112  27.014  30.523  1.00  0.00     0.058 A 
ATOM     86  C   UNL A   1      49.179  27.308  29.661  1.00  0.00     0.135 A 
ATOM     87  C   UNL A   1      48.406  26.371  31.736  1.00  0.00     0.135 A 
ATOM     88  F   UNL A   1      48.951  27.916  28.486  1.00  0.00    -0.206 F 
ATOM     89  C   UNL A   1      50.487  26.960  29.980  1.00  0.00     0.059 A 
ATOM     90  C   UNL A   1      49.710  26.036  32.088  1.00  0.00     0.059 A 
ATOM     91  F   UNL A   1      47.422  26.075  32.602  1.00  0.00    -0.206 F 
ATOM     92  C   UNL A   1      50.743  26.326  31.198  1.00  0.00     0.060 A 
BRANCH  92  93
ATOM     93  S   UNL A   1      52.449  25.912  31.618  1.00  0.00     0.124 S 
ATOM     94  O   UNL A   1      52.302  24.560  32.147  1.00  0.00    -0.237 OA
ATOM     95  O   UNL A   1      53.124  26.017  30.327  1.00  0.00    -0.237 OA
ATOM     96  O   UNL A   1      52.816  26.933  32.595  1.00  0.00    -0.744 OA
ENDBRANCH  92  93
ENDBRANCH  60  85
ENDBRANCH  34  35
ENDBRANCH  26  29
ENDBRANCH  24  25
ENDBRANCH   1  24
TORSDOF 16
ENDMDL
MODEL 2
REMARK VINA RESULT:     -10.5      3.733      6.383
REMARK SMILES O=C(C[C@H]1C[N@@H+]([C@@H]2CC(=O)NC2=O)CCO1)NCCCCNC(=O)c1ccc(-c2c3nc(c(-c4c(F)cc(S(=O)(=O)[O-])cc4F)c4ccc([nH]4)c(-c4c(F)cc(S(=O)(=O)[O-])cc4F)c4nc(c(-c5c(F)cc(S(=O)(=O)[O-])cc5F)c5ccc2[nH]5)C=C4)C=C3)cc1
REMARK SMILES IDX 20 1 19 2 18 3 17 4 1 5 2 6 3 8 4 9 5 10 16 11 6 12 15 13
REMARK SMILES IDX 14 14 7 16 8 17 12 18 9 19 11 20 13 21 10 22 21 24 22 25
REMARK SMILES IDX 23 26 24 28 25 29 26 30 90 31 27 32 89 33 28 34 29 35 30 36
REMARK SMILES IDX 83 37 31 38 88 39 82 40 84 41 32 42 87 43 81 44 80 45 33 47
REMARK SMILES IDX 67 48 46 49 66 50 47 51 50 52 65 53 85 54 48 55 49 56 64 58
REMARK SMILES IDX 86 59 51 60 34 61 35 62 44 63 36 64 37 65 43 66 45 67 38 68
REMARK SMILES IDX 39 69 40 70 41 71 42 72 68 73 69 74 78 75 70 76 71 77 77 78
REMARK SMILES IDX 79 79 72 80 73 81 74 82 75 83 76 84 52 85 53 86 62 87 54 88
REMARK SMILES IDX 55 89 61 90 63 91 56 92 57 93 58 94 59 95 60 96
REMARK H PARENT 17 7 6 15 11 23 22 27 84 46 50 57
REMARK Flexibility Score: inf
ROOT
ATOM      1  C   UNL A   1      33.974  27.957  25.956  1.00  0.00     0.023 C 
ENDROOT
BRANCH   1   2
ATOM      2  C   UNL A   1      33.464  28.832  24.810  1.00  0.00     0.023 C 
BRANCH   2   3
ATOM      3  C   UNL A   1      33.134  28.080  23.522  1.00  0.00     0.116 C 
BRANCH   3   4
ATOM      4  N   UNL A   1      33.096  26.644  23.686  1.00  0.00    -0.356 N 
ATOM      5  O   UNL A   1      33.798  26.159  21.566  1.00  0.00    -0.275 OA
ATOM      6  C   UNL A   1      33.471  25.784  22.687  1.00  0.00     0.222 C 
ATOM      7  H   UNL A   1      32.791  26.272  24.545  1.00  0.00     0.163 HD
BRANCH   6   8
ATOM      8  C   UNL A   1      33.395  24.319  23.041  1.00  0.00     0.138 C 
BRANCH   8   9
ATOM      9  C   UNL A   1      32.013  23.651  23.115  1.00  0.00     0.182 C 
ATOM     10  C   UNL A   1      32.040  22.135  23.441  1.00  0.00     0.295 C 
ATOM     11  O   UNL A   1      31.020  24.373  23.856  1.00  0.00    -0.366 OA
ATOM     12  N   UNL A   1      31.876  21.742  24.838  1.00  0.00    -0.320 N 
ATOM     13  C   UNL A   1      30.969  24.042  25.250  1.00  0.00     0.222 C 
ATOM     14  C   UNL A   1      30.858  22.537  25.516  1.00  0.00     0.291 C 
ATOM     15  H   UNL A   1      31.507  20.795  24.747  1.00  0.00     0.348 HD
BRANCH  12  16
ATOM     16  C   UNL A   1      33.026  21.294  25.630  1.00  0.00     0.284 C 
ATOM     17  C   UNL A   1      34.394  21.917  25.366  1.00  0.00     0.176 C 
ATOM     18  C   UNL A   1      33.278  19.795  25.485  1.00  0.00     0.285 C 
ATOM     19  C   UNL A   1      35.271  20.757  25.000  1.00  0.00     0.233 C 
ATOM     20  N   UNL A   1      34.546  19.615  25.032  1.00  0.00    -0.291 N 
ATOM     21  O   UNL A   1      32.499  18.892  25.732  1.00  0.00    -0.268 OA
ATOM     22  O   UNL A   1      36.474  20.802  24.789  1.00  0.00    -0.274 OA
ATOM     23  H   UNL A   1      34.902  18.740  24.754  1.00  0.00     0.173 HD
ENDBRANCH  12  16
ENDBRANCH   8   9
ENDBRANCH   6   8
ENDBRANCH   3   4
ENDBRANCH   2   3
ENDBRANCH   1   2
BRANCH   1  24
ATOM     24  C   UNL A   1      33.465  28.333  27.342  1.00  0.00     0.116 C 
BRANCH  24  25
ATOM     25  N   UNL A   1      33.388  29.771  27.549  1.00  0.00    -0.352 N 
ATOM     26  C   UNL A   1      34.363  30.622  28.008  1.00  0.00     0.251 C 
ATOM     27  H   UNL A   1      32.523  30.189  27.332  1.00  0.00     0.163 HD
ATOM     28  O   UNL A   1      34.100  31.799  28.236  1.00  0.00    -0.269 OA
BRANCH  26  29
ATOM     29  C   UNL A   1      35.723  30.099  28.263  1.00  0.00     0.039 A 
ATOM     30  C   UNL A   1      36.654  30.104  27.221  1.00  0.00     0.014 A 
ATOM     31  C   UNL A   1      36.087  29.638  29.531  1.00  0.00     0.014 A 
ATOM     32  C   UNL A   1      37.969  29.707  27.468  1.00  0.00     0.010 A 
ATOM     33  C   UNL A   1      37.414  29.306  29.792  1.00  0.00     0.010 A 
ATOM     34  C   UNL A   1      38.369  29.338  28.764  1.00  0.00    -0.014 A 
BRANCH  34  35
ATOM     35  C   UNL A   1      39.782  28.988  29.063  1.00  0.00     0.031 A 
ATOM     36  C   UNL A   1      40.701  30.015  29.668  1.00  0.00     0.074 A 
ATOM     37  C   UNL A   1      40.253  27.771  28.728  1.00  0.00     0.049 A 
ATOM     38  N   UNL A   1      41.978  29.920  29.940  1.00  0.00    -0.248 NA
ATOM     39  C   UNL A   1      40.115  31.327  29.985  1.00  0.00     0.031 C 
ATOM     40  C   UNL A   1      39.473  26.707  28.091  1.00  0.00     0.029 A 
ATOM     41  N   UNL A   1      41.504  27.223  28.869  1.00  0.00    -0.354 N 
ATOM     42  C   UNL A   1      42.350  31.162  30.441  1.00  0.00     0.074 A 
ATOM     43  C   UNL A   1      41.177  32.006  30.392  1.00  0.00     0.031 C 
ATOM     44  C   UNL A   1      40.257  25.629  27.918  1.00  0.00     0.029 A 
ATOM     45  C   UNL A   1      41.601  25.935  28.398  1.00  0.00     0.049 A 
ATOM     46  H   UNL A   1      42.261  27.708  29.272  1.00  0.00     0.167 HD
ATOM     47  C   UNL A   1      43.555  31.555  30.921  1.00  0.00     0.037 A 
ATOM     48  C   UNL A   1      42.655  25.096  28.352  1.00  0.00     0.037 A 
ATOM     49  C   UNL A   1      44.710  30.699  30.999  1.00  0.00     0.049 A 
ATOM     50  C   UNL A   1      43.980  25.553  28.899  1.00  0.00     0.074 A 
ATOM     51  C   UNL A   1      45.955  30.981  31.531  1.00  0.00     0.029 A 
ATOM     52  N   UNL A   1      44.762  29.394  30.532  1.00  0.00    -0.354 N 
ATOM     53  N   UNL A   1      44.297  26.710  29.432  1.00  0.00    -0.248 NA
ATOM     54  C   UNL A   1      45.090  24.592  28.843  1.00  0.00     0.031 C 
ATOM     55  C   UNL A   1      46.774  29.861  31.350  1.00  0.00     0.029 A 
ATOM     56  C   UNL A   1      46.024  28.865  30.745  1.00  0.00     0.049 A 
ATOM     57  H   UNL A   1      44.013  28.913  30.111  1.00  0.00     0.167 HD
ATOM     58  C   UNL A   1      45.634  26.604  29.800  1.00  0.00     0.074 A 
ATOM     59  C   UNL A   1      46.063  25.268  29.439  1.00  0.00     0.031 C 
ATOM     60  C   UNL A   1      46.433  27.529  30.388  1.00  0.00     0.037 A 
BRANCH  47  61
ATOM     61  C   UNL A   1      43.685  32.973  31.404  1.00  0.00     0.058 A 
ATOM     62  C   UNL A   1      43.999  34.024  30.528  1.00  0.00     0.135 A 
ATOM     63  C   UNL A   1      43.457  33.291  32.753  1.00  0.00     0.135 A 
ATOM     64  F   UNL A   1      44.241  33.774  29.232  1.00  0.00    -0.206 F 
ATOM     65  C   UNL A   1      44.112  35.336  30.977  1.00  0.00     0.059 A 
ATOM     66  C   UNL A   1      43.538  34.601  33.219  1.00  0.00     0.059 A 
ATOM     67  F   UNL A   1      43.155  32.325  33.634  1.00  0.00    -0.206 F 
ATOM     68  C   UNL A   1      43.881  35.614  32.325  1.00  0.00     0.060 A 
BRANCH  68  69
ATOM     69  S   UNL A   1      44.028  37.322  32.890  1.00  0.00     0.124 S 
ATOM     70  O   UNL A   1      45.348  37.309  33.513  1.00  0.00    -0.237 OA
ATOM     71  O   UNL A   1      43.923  38.075  31.644  1.00  0.00    -0.237 OA
ATOM     72  O   UNL A   1      42.903  37.474  33.808  1.00  0.00    -0.744 OA
ENDBRANCH  68  69
ENDBRANCH  47  61
BRANCH  48  73
ATOM     73  C   UNL A   1      42.494  23.727  27.794  1.00  0.00     0.058 A 
ATOM     74  C   UNL A   1      42.473  23.514  26.408  1.00  0.00     0.135 A 
ATOM     75  C   UNL A   1      42.366  22.607  28.630  1.00  0.00     0.135 A 
ATOM     76  F   UNL A   1      42.585  24.554  25.568  1.00  0.00    -0.206 F 
ATOM     77  C   UNL A   1      42.311  22.242  25.868  1.00  0.00     0.059 A 
ATOM     78  C   UNL A   1      42.228  21.322  28.114  1.00  0.00     0.059 A 
ATOM     79  F   UNL A   1      42.397  22.755  29.964  1.00  0.00    -0.206 F 
ATOM     80  C   UNL A   1      42.190  21.151  26.731  1.00  0.00     0.060 A 
BRANCH  80  81
ATOM     81  S   UNL A   1      42.024  19.499  26.020  1.00  0.00     0.124 S 
ATOM     82  O   UNL A   1      42.552  18.664  27.093  1.00  0.00    -0.237 OA
ATOM     83  O   UNL A   1      40.586  19.408  25.788  1.00  0.00    -0.237 OA
ATOM     84  O   UNL A   1      42.844  19.571  24.814  1.00  0.00    -0.744 OA
ENDBRANCH  80  81
ENDBRANCH  48  73
BRANCH  60  85
ATOM     85  C   UNL A   1      47.843  27.121  30.710  1.00  0.00     0.058 A 
ATOM     86  C   UNL A   1      48.885  27.271  29.782  1.00  0.00     0.135 A 
ATOM     87  C   UNL A   1      48.164  26.623  31.983  1.00  0.00     0.135 A 
ATOM     88  F   UNL A   1      48.630  27.736  28.549  1.00  0.00    -0.206 F 
ATOM     89  C   UNL A   1      50.194  26.922  30.099  1.00  0.00     0.059 A 
ATOM     90  C   UNL A   1      49.470  26.292  32.330  1.00  0.00     0.059 A 
ATOM     91  F   UNL A   1      47.205  26.469  32.911  1.00  0.00    -0.206 F 
ATOM     92  C   UNL A   1      50.477  26.435  31.377  1.00  0.00     0.060 A 
BRANCH  92  93
ATOM     93  S   UNL A   1      52.185  26.020  31.788  1.00  0.00     0.124 S 
ATOM     94  O   UNL A   1      52.891  26.466  30.591  1.00  0.00    -0.237 OA
ATOM     95  O   UNL A   1      52.418  26.812  32.992  1.00  0.00    -0.237 OA
ATOM     96  O   UNL A   1      52.144  24.575  31.993  1.00  0.00    -0.744 OA
ENDBRANCH  92  93
ENDBRANCH  60  85
ENDBRANCH  34  35
ENDBRANCH  26  29
ENDBRANCH  24  25
ENDBRANCH   1  24
TORSDOF 16
ENDMDL
MODEL 3
REMARK VINA RESULT:     -10.3      4.928     11.592
REMARK SMILES O=C(C[C@H]1C[N@@H+]([C@@H]2CC(=O)NC2=O)CCO1)NCCCCNC(=O)c1ccc(-c2c3nc(c(-c4c(F)cc(S(=O)(=O)[O-])cc4F)c4ccc([nH]4)c(-c4c(F)cc(S(=O)(=O)[O-])cc4F)c4nc(c(-c5c(F)cc(S(=O)(=O)[O-])cc5F)c5ccc2[nH]5)C=C4)C=C3)cc1
REMARK SMILES IDX 20 1 19 2 18 3 17 4 1 5 2 6 3 8 4 9 5 10 16 11 6 12 15 13
REMARK SMILES IDX 14 14 7 16 8 17 12 18 9 19 11 20 13 21 10 22 21 24 22 25
REMARK SMILES IDX 23 26 24 28 25 29 26 30 90 31 27 32 89 33 28 34 29 35 30 36
REMARK SMILES IDX 83 37 31 38 88 39 82 40 84 41 32 42 87 43 81 44 80 45 33 47
REMARK SMILES IDX 67 48 46 49 66 50 47 51 50 52 65 53 85 54 48 55 49 56 64 58
REMARK SMILES IDX 86 59 51 60 34 61 35 62 44 63 36 64 37 65 43 66 45 67 38 68
REMARK SMILES IDX 39 69 40 70 41 71 42 72 68 73 69 74 78 75 70 76 71 77 77 78
REMARK SMILES IDX 79 79 72 80 73 81 74 82 75 83 76 84 52 85 53 86 62 87 54 88
REMARK SMILES IDX 55 89 61 90 63 91 56 92 57 93 58 94 59 95 60 96
REMARK H PARENT 17 7 6 15 11 23 22 27 84 46 50 57
REMARK Flexibility Score: inf
ROOT
ATOM      1  C   UNL A   1      37.588  23.119  25.776  1.00  0.00     0.023 C 
ENDROOT
BRANCH   1   2
ATOM      2  C   UNL A   1      36.680  23.671  24.677  1.00  0.00     0.023 C 
BRANCH   2   3
ATOM      3  C   UNL A   1      35.201  23.760  25.047  1.00  0.00     0.116 C 
BRANCH   3   4
ATOM      4  N   UNL A   1      34.566  24.979  24.600  1.00  0.00    -0.356 N 
ATOM      5  O   UNL A   1      34.016  24.198  22.524  1.00  0.00    -0.275 OA
ATOM      6  C   UNL A   1      33.984  25.091  23.364  1.00  0.00     0.222 C 
ATOM      7  H   UNL A   1      34.552  25.756  25.205  1.00  0.00     0.163 HD
BRANCH   6   8
ATOM      8  C   UNL A   1      33.344  26.427  23.076  1.00  0.00     0.138 C 
BRANCH   8   9
ATOM      9  C   UNL A   1      31.900  26.667  23.542  1.00  0.00     0.182 C 
ATOM     10  C   UNL A   1      31.768  27.303  24.950  1.00  0.00     0.295 C 
ATOM     11  O   UNL A   1      31.029  27.259  22.568  1.00  0.00    -0.366 OA
ATOM     12  N   UNL A   1      31.622  28.754  25.025  1.00  0.00    -0.320 N 
ATOM     13  C   UNL A   1      31.002  28.692  22.596  1.00  0.00     0.222 C 
ATOM     14  C   UNL A   1      30.733  29.270  23.990  1.00  0.00     0.291 C 
ATOM     15  H   UNL A   1      31.144  28.871  25.918  1.00  0.00     0.348 HD
BRANCH  12  16
ATOM     16  C   UNL A   1      32.747  29.599  25.435  1.00  0.00     0.284 C 
ATOM     17  C   UNL A   1      34.046  28.935  25.886  1.00  0.00     0.176 C 
ATOM     18  C   UNL A   1      32.386  30.515  26.602  1.00  0.00     0.285 C 
ATOM     19  C   UNL A   1      34.259  29.438  27.283  1.00  0.00     0.233 C 
ATOM     20  N   UNL A   1      33.247  30.268  27.624  1.00  0.00    -0.291 N 
ATOM     21  O   UNL A   1      31.490  31.339  26.639  1.00  0.00    -0.268 OA
ATOM     22  O   UNL A   1      35.233  29.214  27.988  1.00  0.00    -0.274 OA
ATOM     23  H   UNL A   1      33.144  30.655  28.524  1.00  0.00     0.173 HD
ENDBRANCH  12  16
ENDBRANCH   8   9
ENDBRANCH   6   8
ENDBRANCH   3   4
ENDBRANCH   2   3
ENDBRANCH   1   2
BRANCH   1  24
ATOM     24  C   UNL A   1      38.486  24.144  26.457  1.00  0.00     0.116 C 
BRANCH  24  25
ATOM     25  N   UNL A   1      39.896  23.958  26.151  1.00  0.00    -0.352 N 
ATOM     26  C   UNL A   1      40.970  24.696  26.585  1.00  0.00     0.251 C 
ATOM     27  H   UNL A   1      40.108  23.203  25.553  1.00  0.00     0.163 HD
ATOM     28  O   UNL A   1      42.092  24.476  26.139  1.00  0.00    -0.269 OA
BRANCH  26  29
ATOM     29  C   UNL A   1      40.756  25.784  27.564  1.00  0.00     0.039 A 
ATOM     30  C   UNL A   1      39.777  25.623  28.547  1.00  0.00     0.014 A 
ATOM     31  C   UNL A   1      41.541  26.940  27.532  1.00  0.00     0.014 A 
ATOM     32  C   UNL A   1      39.629  26.594  29.540  1.00  0.00     0.010 A 
ATOM     33  C   UNL A   1      41.437  27.875  28.559  1.00  0.00     0.010 A 
ATOM     34  C   UNL A   1      40.481  27.711  29.573  1.00  0.00    -0.014 A 
BRANCH  34  35
ATOM     35  C   UNL A   1      40.390  28.715  30.666  1.00  0.00     0.031 A 
ATOM     36  C   UNL A   1      41.275  28.594  31.877  1.00  0.00     0.074 A 
ATOM     37  C   UNL A   1      39.466  29.694  30.598  1.00  0.00     0.049 A 
ATOM     38  N   UNL A   1      41.299  29.330  32.958  1.00  0.00    -0.248 NA
ATOM     39  C   UNL A   1      42.243  27.485  31.884  1.00  0.00     0.031 C 
ATOM     40  C   UNL A   1      38.516  29.886  29.498  1.00  0.00     0.029 A 
ATOM     41  N   UNL A   1      39.167  30.707  31.473  1.00  0.00    -0.354 N 
ATOM     42  C   UNL A   1      42.267  28.765  33.780  1.00  0.00     0.074 A 
ATOM     43  C   UNL A   1      42.775  27.598  33.092  1.00  0.00     0.031 C 
ATOM     44  C   UNL A   1      37.758  30.964  29.756  1.00  0.00     0.029 A 
ATOM     45  C   UNL A   1      38.140  31.519  31.051  1.00  0.00     0.049 A 
ATOM     46  H   UNL A   1      39.643  30.841  32.325  1.00  0.00     0.167 HD
ATOM     47  C   UNL A   1      42.708  29.193  34.987  1.00  0.00     0.037 A 
ATOM     48  C   UNL A   1      37.568  32.586  31.642  1.00  0.00     0.037 A 
ATOM     49  C   UNL A   1      42.223  30.375  35.650  1.00  0.00     0.049 A 
ATOM     50  C   UNL A   1      38.082  33.047  32.979  1.00  0.00     0.074 A 
ATOM     51  C   UNL A   1      42.653  30.931  36.841  1.00  0.00     0.029 A 
ATOM     52  N   UNL A   1      41.198  31.183  35.179  1.00  0.00    -0.354 N 
ATOM     53  N   UNL A   1      39.045  32.540  33.711  1.00  0.00    -0.248 NA
ATOM     54  C   UNL A   1      37.436  34.228  33.569  1.00  0.00     0.031 C 
ATOM     55  C   UNL A   1      41.862  32.053  37.113  1.00  0.00     0.029 A 
ATOM     56  C   UNL A   1      40.969  32.221  36.067  1.00  0.00     0.049 A 
ATOM     57  H   UNL A   1      40.706  31.041  34.339  1.00  0.00     0.167 HD
ATOM     58  C   UNL A   1      39.140  33.356  34.833  1.00  0.00     0.074 A 
ATOM     59  C   UNL A   1      38.143  34.396  34.679  1.00  0.00     0.031 C 
ATOM     60  C   UNL A   1      39.978  33.254  35.894  1.00  0.00     0.037 A 
BRANCH  47  61
ATOM     61  C   UNL A   1      43.775  28.381  35.668  1.00  0.00     0.058 A 
ATOM     62  C   UNL A   1      45.139  28.606  35.427  1.00  0.00     0.135 A 
ATOM     63  C   UNL A   1      43.430  27.389  36.600  1.00  0.00     0.135 A 
ATOM     64  F   UNL A   1      45.525  29.531  34.534  1.00  0.00    -0.206 F 
ATOM     65  C   UNL A   1      46.124  27.857  36.064  1.00  0.00     0.059 A 
ATOM     66  C   UNL A   1      44.399  26.646  37.270  1.00  0.00     0.059 A 
ATOM     67  F   UNL A   1      42.140  27.131  36.868  1.00  0.00    -0.206 F 
ATOM     68  C   UNL A   1      45.744  26.878  36.982  1.00  0.00     0.060 A 
BRANCH  68  69
ATOM     69  S   UNL A   1      47.033  25.917  37.803  1.00  0.00     0.124 S 
ATOM     70  O   UNL A   1      46.404  24.604  37.890  1.00  0.00    -0.237 OA
ATOM     71  O   UNL A   1      48.148  26.025  36.866  1.00  0.00    -0.237 OA
ATOM     72  O   UNL A   1      47.217  26.611  39.074  1.00  0.00    -0.744 OA
ENDBRANCH  68  69
ENDBRANCH  47  61
BRANCH  48  73
ATOM     73  C   UNL A   1      36.462  33.311  30.962  1.00  0.00     0.058 A 
ATOM     74  C   UNL A   1      35.141  33.202  31.420  1.00  0.00     0.135 A 
ATOM     75  C   UNL A   1      36.702  34.131  29.848  1.00  0.00     0.135 A 
ATOM     76  F   UNL A   1      34.860  32.425  32.477  1.00  0.00    -0.206 F 
ATOM     77  C   UNL A   1      34.093  33.863  30.788  1.00  0.00     0.059 A 
ATOM     78  C   UNL A   1      35.674  34.822  29.214  1.00  0.00     0.059 A 
ATOM     79  F   UNL A   1      37.951  34.283  29.380  1.00  0.00    -0.206 F 
ATOM     80  C   UNL A   1      34.370  34.673  29.685  1.00  0.00     0.060 A 
BRANCH  80  81
ATOM     81  S   UNL A   1      33.009  35.561  28.898  1.00  0.00     0.124 S 
ATOM     82  O   UNL A   1      32.270  36.050  30.057  1.00  0.00    -0.237 OA
ATOM     83  O   UNL A   1      33.712  36.571  28.115  1.00  0.00    -0.237 OA
ATOM     84  O   UNL A   1      32.342  34.524  28.116  1.00  0.00    -0.744 OA
ENDBRANCH  80  81
ENDBRANCH  48  73
BRANCH  60  85
ATOM     85  C   UNL A   1      39.880  34.314  36.957  1.00  0.00     0.058 A 
ATOM     86  C   UNL A   1      39.099  34.134  38.108  1.00  0.00     0.135 A 
ATOM     87  C   UNL A   1      40.622  35.501  36.845  1.00  0.00     0.135 A 
ATOM     88  F   UNL A   1      38.366  33.019  38.260  1.00  0.00    -0.206 F 
ATOM     89  C   UNL A   1      39.040  35.104  39.103  1.00  0.00     0.059 A 
ATOM     90  C   UNL A   1      40.598  36.474  37.839  1.00  0.00     0.059 A 
ATOM     91  F   UNL A   1      41.393  35.718  35.767  1.00  0.00    -0.206 F 
ATOM     92  C   UNL A   1      39.795  36.270  38.961  1.00  0.00     0.060 A 
BRANCH  92  93
ATOM     93  S   UNL A   1      39.738  37.506  40.276  1.00  0.00     0.124 S 
ATOM     94  O   UNL A   1      40.772  38.441  39.845  1.00  0.00    -0.237 OA
ATOM     95  O   UNL A   1      38.366  37.994  40.187  1.00  0.00    -0.237 OA
ATOM     96  O   UNL A   1      40.047  36.736  41.478  1.00  0.00    -0.744 OA
ENDBRANCH  92  93
ENDBRANCH  60  85
ENDBRANCH  34  35
ENDBRANCH  26  29
ENDBRANCH  24  25
ENDBRANCH   1  24
TORSDOF 16
ENDMDL
