MODEL 1
REMARK VINA RESULT:     -12.6      0.000      0.000
REMARK SMILES Cc1ccnc(C(=O)c2[nH]c3ccc(F)cc3c2CC(=O)NCCCCNC(=O)c2ccc(-c3c4nc(c(-c5c(F)cc(S(=O)(=O)[O-])cc5F)c5ccc([nH]5)c(-c5c(F)cc(S(=O)(=O)[O-])cc5F)c5nc(c(-c6c(F)cc(S(=O)(=O)[O-])cc6F)c6ccc3[nH]6)C=C5)C=C4)cc2)c1
REMARK SMILES IDX 24 1 23 2 22 3 20 4 21 5 19 7 18 8 9 9 10 10 11 11 17 13
REMARK SMILES IDX 12 14 16 15 13 16 14 17 15 18 7 19 8 20 6 21 1 22 2 23 3 24
REMARK SMILES IDX 96 25 4 26 5 27 25 28 26 29 27 30 28 31 29 33 30 34 31 35
REMARK SMILES IDX 95 36 32 37 94 38 33 39 34 40 35 41 88 42 36 43 93 44 87 45
REMARK SMILES IDX 89 46 37 47 92 48 86 49 85 50 38 52 72 53 51 54 71 55 52 56
REMARK SMILES IDX 55 57 70 58 90 59 53 60 54 61 69 63 91 64 56 65 39 66 40 67
REMARK SMILES IDX 49 68 41 69 42 70 48 71 50 72 43 73 44 74 45 75 46 76 47 77
REMARK SMILES IDX 73 78 74 79 83 80 75 81 76 82 82 83 84 84 77 85 78 86 79 87
REMARK SMILES IDX 80 88 81 89 57 90 58 91 67 92 59 93 60 94 66 95 68 96 61 97
REMARK SMILES IDX 62 98 63 99 64 100 65 101
REMARK H PARENT 22 6 10 12 27 32 89 51 55 62
REMARK Flexibility Score: inf
ROOT
ATOM      1  C   UNL A   1      33.984  27.962  25.874  1.00  0.00     0.023 C 
ENDROOT
BRANCH   1   2
ATOM      2  C   UNL A   1      33.652  26.477  26.041  1.00  0.00     0.116 C 
BRANCH   2   3
ATOM      3  N   UNL A   1      33.433  25.760  24.800  1.00  0.00    -0.356 N 
ATOM      4  C   UNL A   1      33.180  24.441  24.566  1.00  0.00     0.224 C 
ATOM      5  O   UNL A   1      32.821  24.138  23.424  1.00  0.00    -0.275 OA
ATOM      6  H   UNL A   1      33.475  26.320  23.991  1.00  0.00     0.163 HD
BRANCH   4   7
ATOM      7  C   UNL A   1      33.256  23.377  25.646  1.00  0.00     0.138 C 
BRANCH   7   8
ATOM      8  C   UNL A   1      34.308  22.316  25.482  1.00  0.00    -0.002 A 
ATOM      9  C   UNL A   1      34.163  20.947  25.238  1.00  0.00     0.093 A 
ATOM     10  N   UNL A   1      35.433  20.402  25.275  1.00  0.00    -0.352 N 
ATOM     11  C   UNL A   1      36.393  21.358  25.469  1.00  0.00     0.046 A 
ATOM     12  H   UNL A   1      35.624  19.442  25.173  1.00  0.00     0.167 HD
ATOM     13  C   UNL A   1      35.721  22.558  25.679  1.00  0.00     0.007 A 
ATOM     14  C   UNL A   1      37.789  21.243  25.495  1.00  0.00     0.030 A 
ATOM     15  C   UNL A   1      36.491  23.701  25.992  1.00  0.00     0.049 A 
ATOM     16  C   UNL A   1      38.527  22.400  25.752  1.00  0.00     0.041 A 
ATOM     17  C   UNL A   1      37.882  23.601  26.006  1.00  0.00     0.123 A 
ATOM     18  F   UNL A   1      38.611  24.698  26.258  1.00  0.00    -0.207 F 
BRANCH   9  19
ATOM     19  C   UNL A   1      33.032  20.038  25.082  1.00  0.00     0.227 C 
ATOM     20  O   UNL A   1      31.892  20.466  25.276  1.00  0.00    -0.285 OA
BRANCH  19  21
ATOM     21  C   UNL A   1      33.204  18.567  24.830  1.00  0.00     0.113 A 
ATOM     22  C   UNL A   1      32.143  15.166  26.147  1.00  0.00     0.044 C 
ATOM     23  C   UNL A   1      32.743  16.251  25.304  1.00  0.00    -0.047 A 
ATOM     24  C   UNL A   1      33.501  15.916  24.185  1.00  0.00     0.023 A 
ATOM     25  C   UNL A   1      32.549  17.607  25.596  1.00  0.00     0.036 A 
ATOM     26  C   UNL A   1      34.070  16.934  23.440  1.00  0.00     0.112 A 
ATOM     27  N   UNL A   1      33.951  18.245  23.743  1.00  0.00    -0.253 NA
ENDBRANCH  19  21
ENDBRANCH   9  19
ENDBRANCH   7   8
ENDBRANCH   4   7
ENDBRANCH   2   3
ENDBRANCH   1   2
BRANCH   1  28
ATOM     28  C   UNL A   1      34.000  28.827  27.135  1.00  0.00     0.023 C 
BRANCH  28  29
ATOM     29  C   UNL A   1      35.360  29.331  27.587  1.00  0.00     0.116 C 
BRANCH  29  30
ATOM     30  N   UNL A   1      35.319  29.911  28.915  1.00  0.00    -0.352 N 
ATOM     31  C   UNL A   1      36.342  30.086  29.814  1.00  0.00     0.251 C 
ATOM     32  H   UNL A   1      34.435  30.224  29.214  1.00  0.00     0.163 HD
ATOM     33  O   UNL A   1      36.085  30.456  30.955  1.00  0.00    -0.269 OA
BRANCH  31  34
ATOM     34  C   UNL A   1      37.743  29.801  29.423  1.00  0.00     0.039 A 
ATOM     35  C   UNL A   1      38.663  29.493  30.428  1.00  0.00     0.014 A 
ATOM     36  C   UNL A   1      38.158  29.858  28.088  1.00  0.00     0.014 A 
ATOM     37  C   UNL A   1      39.987  29.196  30.092  1.00  0.00     0.010 A 
ATOM     38  C   UNL A   1      39.466  29.507  27.750  1.00  0.00     0.010 A 
ATOM     39  C   UNL A   1      40.393  29.175  28.748  1.00  0.00    -0.014 A 
BRANCH  39  40
ATOM     40  C   UNL A   1      41.781  28.792  28.382  1.00  0.00     0.031 A 
ATOM     41  C   UNL A   1      42.875  29.824  28.339  1.00  0.00     0.074 A 
ATOM     42  C   UNL A   1      42.046  27.514  28.048  1.00  0.00     0.049 A 
ATOM     43  N   UNL A   1      44.137  29.674  28.029  1.00  0.00    -0.248 NA
ATOM     44  C   UNL A   1      42.497  31.208  28.664  1.00  0.00     0.031 C 
ATOM     45  C   UNL A   1      41.061  26.432  28.001  1.00  0.00     0.029 A 
ATOM     46  N   UNL A   1      43.221  26.909  27.682  1.00  0.00    -0.354 N 
ATOM     47  C   UNL A   1      44.704  30.940  28.116  1.00  0.00     0.074 A 
ATOM     48  C   UNL A   1      43.636  31.855  28.462  1.00  0.00     0.031 C 
ATOM     49  C   UNL A   1      41.676  25.293  27.647  1.00  0.00     0.029 A 
ATOM     50  C   UNL A   1      43.092  25.566  27.419  1.00  0.00     0.049 A 
ATOM     51  H   UNL A   1      44.077  27.391  27.614  1.00  0.00     0.167 HD
ATOM     52  C   UNL A   1      45.998  31.304  27.945  1.00  0.00     0.037 A 
ATOM     53  C   UNL A   1      44.009  24.657  27.038  1.00  0.00     0.037 A 
ATOM     54  C   UNL A   1      47.062  30.387  27.622  1.00  0.00     0.049 A 
ATOM     55  C   UNL A   1      45.442  25.081  26.871  1.00  0.00     0.074 A 
ATOM     56  C   UNL A   1      48.415  30.651  27.488  1.00  0.00     0.029 A 
ATOM     57  N   UNL A   1      46.895  29.031  27.380  1.00  0.00    -0.354 N 
ATOM     58  N   UNL A   1      45.970  26.272  27.022  1.00  0.00    -0.248 NA
ATOM     59  C   UNL A   1      46.403  24.037  26.492  1.00  0.00     0.031 C 
ATOM     60  C   UNL A   1      49.061  29.460  27.130  1.00  0.00     0.029 A 
ATOM     61  C   UNL A   1      48.116  28.448  27.080  1.00  0.00     0.049 A 
ATOM     62  H   UNL A   1      46.035  28.554  27.417  1.00  0.00     0.167 HD
ATOM     63  C   UNL A   1      47.329  26.117  26.771  1.00  0.00     0.074 A 
ATOM     64  C   UNL A   1      47.542  24.714  26.479  1.00  0.00     0.031 C 
ATOM     65  C   UNL A   1      48.311  27.052  26.781  1.00  0.00     0.037 A 
BRANCH  52  66
ATOM     66  C   UNL A   1      46.338  32.760  28.110  1.00  0.00     0.058 A 
ATOM     67  C   UNL A   1      46.824  33.266  29.326  1.00  0.00     0.135 A 
ATOM     68  C   UNL A   1      46.209  33.651  27.034  1.00  0.00     0.135 A 
ATOM     69  F   UNL A   1      46.953  32.459  30.391  1.00  0.00    -0.206 F 
ATOM     70  C   UNL A   1      47.144  34.611  29.478  1.00  0.00     0.059 A 
ATOM     71  C   UNL A   1      46.546  34.997  27.156  1.00  0.00     0.059 A 
ATOM     72  F   UNL A   1      45.749  33.220  25.849  1.00  0.00    -0.206 F 
ATOM     73  C   UNL A   1      46.998  35.470  28.387  1.00  0.00     0.060 A 
BRANCH  73  74
ATOM     74  S   UNL A   1      47.417  37.214  28.598  1.00  0.00     0.124 S 
ATOM     75  O   UNL A   1      46.598  37.834  27.560  1.00  0.00    -0.237 OA
ATOM     76  O   UNL A   1      47.000  37.474  29.973  1.00  0.00    -0.237 OA
ATOM     77  O   UNL A   1      48.857  37.248  28.366  1.00  0.00    -0.744 OA
ENDBRANCH  73  74
ENDBRANCH  52  66
BRANCH  53  78
ATOM     78  C   UNL A   1      43.602  23.246  26.817  1.00  0.00     0.058 A 
ATOM     79  C   UNL A   1      43.301  22.404  27.898  1.00  0.00     0.135 A 
ATOM     80  C   UNL A   1      43.486  22.716  25.522  1.00  0.00     0.135 A 
ATOM     81  F   UNL A   1      43.403  22.866  29.154  1.00  0.00    -0.206 F 
ATOM     82  C   UNL A   1      42.911  21.083  27.707  1.00  0.00     0.059 A 
ATOM     83  C   UNL A   1      43.078  21.404  25.304  1.00  0.00     0.059 A 
ATOM     84  F   UNL A   1      43.746  23.487  24.455  1.00  0.00    -0.206 F 
ATOM     85  C   UNL A   1      42.801  20.593  26.404  1.00  0.00     0.060 A 
BRANCH  85  86
ATOM     86  S   UNL A   1      42.238  18.895  26.160  1.00  0.00     0.124 S 
ATOM     87  O   UNL A   1      42.428  18.330  27.490  1.00  0.00    -0.237 OA
ATOM     88  O   UNL A   1      40.853  19.087  25.739  1.00  0.00    -0.237 OA
ATOM     89  O   UNL A   1      43.135  18.392  25.125  1.00  0.00    -0.744 OA
ENDBRANCH  85  86
ENDBRANCH  53  78
BRANCH  65  90
ATOM     90  C   UNL A   1      49.706  26.580  26.478  1.00  0.00     0.058 A 
ATOM     91  C   UNL A   1      50.235  26.642  25.179  1.00  0.00     0.135 A 
ATOM     92  C   UNL A   1      50.527  26.076  27.499  1.00  0.00     0.135 A 
ATOM     93  F   UNL A   1      49.488  27.111  24.167  1.00  0.00    -0.206 F 
ATOM     94  C   UNL A   1      51.519  26.187  24.896  1.00  0.00     0.059 A 
ATOM     95  C   UNL A   1      51.823  25.638  27.243  1.00  0.00     0.059 A 
ATOM     96  F   UNL A   1      50.073  26.006  28.760  1.00  0.00    -0.206 F 
ATOM     97  C   UNL A   1      52.303  25.681  25.934  1.00  0.00     0.060 A 
BRANCH  97  98
ATOM     98  S   UNL A   1      53.969  25.096  25.559  1.00  0.00     0.124 S 
ATOM     99  O   UNL A   1      53.690  23.865  24.829  1.00  0.00    -0.237 OA
ATOM    100  O   UNL A   1      54.517  26.193  24.766  1.00  0.00    -0.237 OA
ATOM    101  O   UNL A   1      54.572  24.924  26.877  1.00  0.00    -0.744 OA
ENDBRANCH  97  98
ENDBRANCH  65  90
ENDBRANCH  39  40
ENDBRANCH  31  34
ENDBRANCH  29  30
ENDBRANCH  28  29
ENDBRANCH   1  28
TORSDOF 17
ENDMDL
MODEL 2
REMARK VINA RESULT:     -12.5      4.768      6.033
REMARK SMILES Cc1ccnc(C(=O)c2[nH]c3ccc(F)cc3c2CC(=O)NCCCCNC(=O)c2ccc(-c3c4nc(c(-c5c(F)cc(S(=O)(=O)[O-])cc5F)c5ccc([nH]5)c(-c5c(F)cc(S(=O)(=O)[O-])cc5F)c5nc(c(-c6c(F)cc(S(=O)(=O)[O-])cc6F)c6ccc3[nH]6)C=C5)C=C4)cc2)c1
REMARK SMILES IDX 24 1 23 2 22 3 20 4 21 5 19 7 18 8 9 9 10 10 11 11 17 13
REMARK SMILES IDX 12 14 16 15 13 16 14 17 15 18 7 19 8 20 6 21 1 22 2 23 3 24
REMARK SMILES IDX 96 25 4 26 5 27 25 28 26 29 27 30 28 31 29 33 30 34 31 35
REMARK SMILES IDX 95 36 32 37 94 38 33 39 34 40 35 41 88 42 36 43 93 44 87 45
REMARK SMILES IDX 89 46 37 47 92 48 86 49 85 50 38 52 72 53 51 54 71 55 52 56
REMARK SMILES IDX 55 57 70 58 90 59 53 60 54 61 69 63 91 64 56 65 39 66 40 67
REMARK SMILES IDX 49 68 41 69 42 70 48 71 50 72 43 73 44 74 45 75 46 76 47 77
REMARK SMILES IDX 73 78 74 79 83 80 75 81 76 82 82 83 84 84 77 85 78 86 79 87
REMARK SMILES IDX 80 88 81 89 57 90 58 91 67 92 59 93 60 94 66 95 68 96 61 97
REMARK SMILES IDX 62 98 63 99 64 100 65 101
REMARK H PARENT 22 6 10 12 27 32 89 51 55 62
REMARK Flexibility Score: inf
ROOT
ATOM      1  C   UNL A   1      31.684  27.022  26.496  1.00  0.00     0.023 C 
ENDROOT
BRANCH   1   2
ATOM      2  C   UNL A   1      31.082  25.669  26.107  1.00  0.00     0.116 C 
BRANCH   2   3
ATOM      3  N   UNL A   1      31.494  24.559  26.942  1.00  0.00    -0.356 N 
ATOM      4  C   UNL A   1      32.446  23.602  26.747  1.00  0.00     0.224 C 
ATOM      5  O   UNL A   1      32.738  22.900  27.720  1.00  0.00    -0.275 OA
ATOM      6  H   UNL A   1      31.005  24.482  27.793  1.00  0.00     0.163 HD
BRANCH   4   7
ATOM      7  C   UNL A   1      33.185  23.424  25.432  1.00  0.00     0.138 C 
BRANCH   7   8
ATOM      8  C   UNL A   1      34.243  22.357  25.387  1.00  0.00    -0.002 A 
ATOM      9  C   UNL A   1      34.110  20.975  25.220  1.00  0.00     0.093 A 
ATOM     10  N   UNL A   1      35.375  20.436  25.354  1.00  0.00    -0.352 N 
ATOM     11  C   UNL A   1      36.324  21.405  25.540  1.00  0.00     0.046 A 
ATOM     12  H   UNL A   1      35.570  19.472  25.321  1.00  0.00     0.167 HD
ATOM     13  C   UNL A   1      35.645  22.614  25.642  1.00  0.00     0.007 A 
ATOM     14  C   UNL A   1      37.717  21.294  25.644  1.00  0.00     0.030 A 
ATOM     15  C   UNL A   1      36.399  23.775  25.924  1.00  0.00     0.049 A 
ATOM     16  C   UNL A   1      38.443  22.466  25.868  1.00  0.00     0.041 A 
ATOM     17  C   UNL A   1      37.787  23.679  26.016  1.00  0.00     0.123 A 
ATOM     18  F   UNL A   1      38.503  24.790  26.239  1.00  0.00    -0.207 F 
BRANCH   9  19
ATOM     19  C   UNL A   1      32.986  20.056  25.061  1.00  0.00     0.227 C 
ATOM     20  O   UNL A   1      31.843  20.474  25.254  1.00  0.00    -0.285 OA
BRANCH  19  21
ATOM     21  C   UNL A   1      33.172  18.587  24.807  1.00  0.00     0.113 A 
ATOM     22  C   UNL A   1      32.144  15.175  26.120  1.00  0.00     0.044 C 
ATOM     23  C   UNL A   1      32.734  16.267  25.279  1.00  0.00    -0.047 A 
ATOM     24  C   UNL A   1      33.495  15.940  24.159  1.00  0.00     0.023 A 
ATOM     25  C   UNL A   1      32.526  17.621  25.572  1.00  0.00     0.036 A 
ATOM     26  C   UNL A   1      34.054  16.965  23.415  1.00  0.00     0.112 A 
ATOM     27  N   UNL A   1      33.923  18.273  23.719  1.00  0.00    -0.253 NA
ENDBRANCH  19  21
ENDBRANCH   9  19
ENDBRANCH   7   8
ENDBRANCH   4   7
ENDBRANCH   2   3
ENDBRANCH   1   2
BRANCH   1  28
ATOM     28  C   UNL A   1      32.787  27.586  25.598  1.00  0.00     0.023 C 
BRANCH  28  29
ATOM     29  C   UNL A   1      33.951  28.258  26.306  1.00  0.00     0.116 C 
BRANCH  29  30
ATOM     30  N   UNL A   1      33.717  29.672  26.530  1.00  0.00    -0.352 N 
ATOM     31  C   UNL A   1      34.407  30.545  27.334  1.00  0.00     0.251 C 
ATOM     32  H   UNL A   1      32.958  30.059  26.037  1.00  0.00     0.163 HD
ATOM     33  O   UNL A   1      33.964  31.675  27.516  1.00  0.00    -0.269 OA
BRANCH  31  34
ATOM     34  C   UNL A   1      35.659  30.121  28.004  1.00  0.00     0.039 A 
ATOM     35  C   UNL A   1      36.859  30.225  27.295  1.00  0.00     0.014 A 
ATOM     36  C   UNL A   1      35.657  29.602  29.303  1.00  0.00     0.014 A 
ATOM     37  C   UNL A   1      38.061  29.856  27.904  1.00  0.00     0.010 A 
ATOM     38  C   UNL A   1      36.865  29.286  29.928  1.00  0.00     0.010 A 
ATOM     39  C   UNL A   1      38.077  29.407  29.234  1.00  0.00    -0.014 A 
BRANCH  39  40
ATOM     40  C   UNL A   1      39.360  29.080  29.908  1.00  0.00     0.031 A 
ATOM     41  C   UNL A   1      39.803  29.846  31.125  1.00  0.00     0.074 A 
ATOM     42  C   UNL A   1      40.147  28.114  29.396  1.00  0.00     0.049 A 
ATOM     43  N   UNL A   1      40.894  29.707  31.834  1.00  0.00    -0.248 NA
ATOM     44  C   UNL A   1      38.916  30.921  31.594  1.00  0.00     0.031 C 
ATOM     45  C   UNL A   1      39.853  27.336  28.191  1.00  0.00     0.029 A 
ATOM     46  N   UNL A   1      41.356  27.624  29.820  1.00  0.00    -0.354 N 
ATOM     47  C   UNL A   1      40.830  30.676  32.826  1.00  0.00     0.074 A 
ATOM     48  C   UNL A   1      39.614  31.429  32.600  1.00  0.00     0.031 C 
ATOM     49  C   UNL A   1      40.843  26.454  27.984  1.00  0.00     0.029 A 
ATOM     50  C   UNL A   1      41.853  26.618  29.026  1.00  0.00     0.049 A 
ATOM     51  H   UNL A   1      41.823  27.961  30.618  1.00  0.00     0.167 HD
ATOM     52  C   UNL A   1      41.694  30.906  33.846  1.00  0.00     0.037 A 
ATOM     53  C   UNL A   1      42.992  25.908  29.125  1.00  0.00     0.037 A 
ATOM     54  C   UNL A   1      42.892  30.142  34.081  1.00  0.00     0.049 A 
ATOM     55  C   UNL A   1      43.926  26.170  30.274  1.00  0.00     0.074 A 
ATOM     56  C   UNL A   1      43.798  30.259  35.121  1.00  0.00     0.029 A 
ATOM     57  N   UNL A   1      43.354  29.120  33.264  1.00  0.00    -0.354 N 
ATOM     58  N   UNL A   1      43.815  27.048  31.241  1.00  0.00    -0.248 NA
ATOM     59  C   UNL A   1      45.133  25.337  30.350  1.00  0.00     0.031 C 
ATOM     60  C   UNL A   1      44.827  29.331  34.914  1.00  0.00     0.029 A 
ATOM     61  C   UNL A   1      44.540  28.610  33.767  1.00  0.00     0.049 A 
ATOM     62  H   UNL A   1      42.904  28.803  32.448  1.00  0.00     0.167 HD
ATOM     63  C   UNL A   1      44.931  26.863  32.050  1.00  0.00     0.074 A 
ATOM     64  C   UNL A   1      45.693  25.776  31.468  1.00  0.00     0.031 C 
ATOM     65  C   UNL A   1      45.292  27.534  33.171  1.00  0.00     0.037 A 
BRANCH  52  66
ATOM     66  C   UNL A   1      41.369  32.030  34.791  1.00  0.00     0.058 A 
ATOM     67  C   UNL A   1      41.879  33.324  34.595  1.00  0.00     0.135 A 
ATOM     68  C   UNL A   1      40.515  31.822  35.884  1.00  0.00     0.135 A 
ATOM     69  F   UNL A   1      42.712  33.574  33.573  1.00  0.00    -0.206 F 
ATOM     70  C   UNL A   1      41.575  34.366  35.465  1.00  0.00     0.059 A 
ATOM     71  C   UNL A   1      40.177  32.856  36.755  1.00  0.00     0.059 A 
ATOM     72  F   UNL A   1      39.999  30.605  36.118  1.00  0.00    -0.206 F 
ATOM     73  C   UNL A   1      40.726  34.120  36.545  1.00  0.00     0.060 A 
BRANCH  73  74
ATOM     74  S   UNL A   1      40.339  35.481  37.668  1.00  0.00     0.124 S 
ATOM     75  O   UNL A   1      40.171  36.588  36.731  1.00  0.00    -0.237 OA
ATOM     76  O   UNL A   1      39.121  35.014  38.322  1.00  0.00    -0.237 OA
ATOM     77  O   UNL A   1      41.517  35.559  38.526  1.00  0.00    -0.744 OA
ENDBRANCH  73  74
ENDBRANCH  52  66
BRANCH  53  78
ATOM     78  C   UNL A   1      43.298  24.859  28.119  1.00  0.00     0.058 A 
ATOM     79  C   UNL A   1      44.052  25.156  26.974  1.00  0.00     0.135 A 
ATOM     80  C   UNL A   1      42.861  23.536  28.291  1.00  0.00     0.135 A 
ATOM     81  F   UNL A   1      44.487  26.408  26.765  1.00  0.00    -0.206 F 
ATOM     82  C   UNL A   1      44.353  24.183  26.027  1.00  0.00     0.059 A 
ATOM     83  C   UNL A   1      43.167  22.541  27.368  1.00  0.00     0.059 A 
ATOM     84  F   UNL A   1      42.152  23.199  29.379  1.00  0.00    -0.206 F 
ATOM     85  C   UNL A   1      43.906  22.877  26.234  1.00  0.00     0.060 A 
BRANCH  85  86
ATOM     86  S   UNL A   1      44.351  21.606  25.031  1.00  0.00     0.124 S 
ATOM     87  O   UNL A   1      43.372  20.567  25.329  1.00  0.00    -0.237 OA
ATOM     88  O   UNL A   1      44.173  22.307  23.763  1.00  0.00    -0.237 OA
ATOM     89  O   UNL A   1      45.733  21.291  25.375  1.00  0.00    -0.744 OA
ENDBRANCH  85  86
ENDBRANCH  53  78
BRANCH  65  90
ATOM     90  C   UNL A   1      46.563  27.099  33.847  1.00  0.00     0.058 A 
ATOM     91  C   UNL A   1      46.566  26.093  34.826  1.00  0.00     0.135 A 
ATOM     92  C   UNL A   1      47.792  27.683  33.501  1.00  0.00     0.135 A 
ATOM     93  F   UNL A   1      45.417  25.507  35.196  1.00  0.00    -0.206 F 
ATOM     94  C   UNL A   1      47.740  25.705  35.464  1.00  0.00     0.059 A 
ATOM     95  C   UNL A   1      48.982  27.293  34.109  1.00  0.00     0.059 A 
ATOM     96  F   UNL A   1      47.846  28.642  32.563  1.00  0.00    -0.206 F 
ATOM     97  C   UNL A   1      48.942  26.315  35.103  1.00  0.00     0.060 A 
BRANCH  97  98
ATOM     98  S   UNL A   1      50.461  25.803  35.933  1.00  0.00     0.124 S 
ATOM     99  O   UNL A   1      51.144  27.080  36.106  1.00  0.00    -0.237 OA
ATOM    100  O   UNL A   1      49.959  25.182  37.155  1.00  0.00    -0.237 OA
ATOM    101  O   UNL A   1      51.075  24.885  34.979  1.00  0.00    -0.744 OA
ENDBRANCH  97  98
ENDBRANCH  65  90
ENDBRANCH  39  40
ENDBRANCH  31  34
ENDBRANCH  29  30
ENDBRANCH  28  29
ENDBRANCH   1  28
TORSDOF 17
ENDMDL
MODEL 3
REMARK VINA RESULT:     -12.3      6.641     12.033
REMARK SMILES Cc1ccnc(C(=O)c2[nH]c3ccc(F)cc3c2CC(=O)NCCCCNC(=O)c2ccc(-c3c4nc(c(-c5c(F)cc(S(=O)(=O)[O-])cc5F)c5ccc([nH]5)c(-c5c(F)cc(S(=O)(=O)[O-])cc5F)c5nc(c(-c6c(F)cc(S(=O)(=O)[O-])cc6F)c6ccc3[nH]6)C=C5)C=C4)cc2)c1
REMARK SMILES IDX 24 1 23 2 22 3 20 4 21 5 19 7 18 8 9 9 10 10 11 11 17 13
REMARK SMILES IDX 12 14 16 15 13 16 14 17 15 18 7 19 8 20 6 21 1 22 2 23 3 24
REMARK SMILES IDX 96 25 4 26 5 27 25 28 26 29 27 30 28 31 29 33 30 34 31 35
REMARK SMILES IDX 95 36 32 37 94 38 33 39 34 40 35 41 88 42 36 43 93 44 87 45
REMARK SMILES IDX 89 46 37 47 92 48 86 49 85 50 38 52 72 53 51 54 71 55 52 56
REMARK SMILES IDX 55 57 70 58 90 59 53 60 54 61 69 63 91 64 56 65 39 66 40 67
REMARK SMILES IDX 49 68 41 69 42 70 48 71 50 72 43 73 44 74 45 75 46 76 47 77
REMARK SMILES IDX 73 78 74 79 83 80 75 81 76 82 82 83 84 84 77 85 78 86 79 87
REMARK SMILES IDX 80 88 81 89 57 90 58 91 67 92 59 93 60 94 66 95 68 96 61 97
REMARK SMILES IDX 62 98 63 99 64 100 65 101
REMARK H PARENT 22 6 10 12 27 32 89 51 55 62
REMARK Flexibility Score: inf
ROOT
ATOM      1  C   UNL A   1      38.811  24.144  26.836  1.00  0.00     0.023 C 
ENDROOT
BRANCH   1   2
ATOM      2  C   UNL A   1      37.415  23.968  26.232  1.00  0.00     0.116 C 
BRANCH   2   3
ATOM      3  N   UNL A   1      37.400  23.445  24.881  1.00  0.00    -0.356 N 
ATOM      4  C   UNL A   1      36.412  23.432  23.941  1.00  0.00     0.224 C 
ATOM      5  O   UNL A   1      36.739  23.113  22.794  1.00  0.00    -0.275 OA
ATOM      6  H   UNL A   1      38.245  23.030  24.593  1.00  0.00     0.163 HD
BRANCH   4   7
ATOM      7  C   UNL A   1      34.982  23.850  24.235  1.00  0.00     0.138 C 
BRANCH   7   8
ATOM      8  C   UNL A   1      33.896  23.123  23.493  1.00  0.00    -0.002 A 
ATOM      9  C   UNL A   1      32.965  23.611  22.570  1.00  0.00     0.093 A 
ATOM     10  N   UNL A   1      32.124  22.559  22.261  1.00  0.00    -0.352 N 
ATOM     11  C   UNL A   1      32.502  21.403  22.891  1.00  0.00     0.046 A 
ATOM     12  H   UNL A   1      31.348  22.631  21.661  1.00  0.00     0.167 HD
ATOM     13  C   UNL A   1      33.561  21.735  23.729  1.00  0.00     0.007 A 
ATOM     14  C   UNL A   1      31.972  20.110  22.794  1.00  0.00     0.030 A 
ATOM     15  C   UNL A   1      34.084  20.723  24.565  1.00  0.00     0.049 A 
ATOM     16  C   UNL A   1      32.546  19.117  23.591  1.00  0.00     0.041 A 
ATOM     17  C   UNL A   1      33.575  19.428  24.467  1.00  0.00     0.123 A 
ATOM     18  F   UNL A   1      34.105  18.461  25.229  1.00  0.00    -0.207 F 
BRANCH   9  19
ATOM     19  C   UNL A   1      32.659  24.922  22.006  1.00  0.00     0.227 C 
ATOM     20  O   UNL A   1      33.384  25.373  21.117  1.00  0.00    -0.285 OA
BRANCH  19  21
ATOM     21  C   UNL A   1      31.578  25.809  22.557  1.00  0.00     0.113 A 
ATOM     22  C   UNL A   1      30.188  29.334  22.307  1.00  0.00     0.044 C 
ATOM     23  C   UNL A   1      30.373  27.890  22.666  1.00  0.00    -0.047 A 
ATOM     24  C   UNL A   1      29.486  27.281  23.551  1.00  0.00     0.023 A 
ATOM     25  C   UNL A   1      31.405  27.118  22.119  1.00  0.00     0.036 A 
ATOM     26  C   UNL A   1      29.695  25.956  23.891  1.00  0.00     0.112 A 
ATOM     27  N   UNL A   1      30.723  25.212  23.428  1.00  0.00    -0.253 NA
ENDBRANCH  19  21
ENDBRANCH   9  19
ENDBRANCH   7   8
ENDBRANCH   4   7
ENDBRANCH   2   3
ENDBRANCH   1   2
BRANCH   1  28
ATOM     28  C   UNL A   1      39.848  23.060  26.541  1.00  0.00     0.023 C 
BRANCH  28  29
ATOM     29  C   UNL A   1      41.290  23.401  26.877  1.00  0.00     0.116 C 
BRANCH  29  30
ATOM     30  N   UNL A   1      41.916  24.218  25.856  1.00  0.00    -0.352 N 
ATOM     31  C   UNL A   1      42.183  25.565  25.871  1.00  0.00     0.251 C 
ATOM     32  H   UNL A   1      42.186  23.741  25.039  1.00  0.00     0.163 HD
ATOM     33  O   UNL A   1      42.579  26.112  24.846  1.00  0.00    -0.269 OA
BRANCH  31  34
ATOM     34  C   UNL A   1      41.966  26.360  27.102  1.00  0.00     0.039 A 
ATOM     35  C   UNL A   1      42.541  27.632  27.181  1.00  0.00     0.014 A 
ATOM     36  C   UNL A   1      41.229  25.858  28.180  1.00  0.00     0.014 A 
ATOM     37  C   UNL A   1      42.337  28.418  28.317  1.00  0.00     0.010 A 
ATOM     38  C   UNL A   1      40.981  26.667  29.291  1.00  0.00     0.010 A 
ATOM     39  C   UNL A   1      41.535  27.953  29.372  1.00  0.00    -0.014 A 
BRANCH  39  40
ATOM     40  C   UNL A   1      41.259  28.813  30.551  1.00  0.00     0.031 A 
ATOM     41  C   UNL A   1      42.083  28.683  31.803  1.00  0.00     0.074 A 
ATOM     42  C   UNL A   1      40.234  29.685  30.505  1.00  0.00     0.049 A 
ATOM     43  N   UNL A   1      41.977  29.340  32.930  1.00  0.00    -0.248 NA
ATOM     44  C   UNL A   1      43.150  27.671  31.795  1.00  0.00     0.031 C 
ATOM     45  C   UNL A   1      39.329  29.867  29.368  1.00  0.00     0.029 A 
ATOM     46  N   UNL A   1      39.778  30.582  31.438  1.00  0.00    -0.354 N 
ATOM     47  C   UNL A   1      42.956  28.819  33.767  1.00  0.00     0.074 A 
ATOM     48  C   UNL A   1      43.616  27.759  33.034  1.00  0.00     0.031 C 
ATOM     49  C   UNL A   1      38.440  30.828  29.663  1.00  0.00     0.029 A 
ATOM     50  C   UNL A   1      38.694  31.315  31.016  1.00  0.00     0.049 A 
ATOM     51  H   UNL A   1      40.187  30.689  32.327  1.00  0.00     0.167 HD
ATOM     52  C   UNL A   1      43.290  29.202  35.024  1.00  0.00     0.037 A 
ATOM     53  C   UNL A   1      37.986  32.272  31.645  1.00  0.00     0.037 A 
ATOM     54  C   UNL A   1      42.647  30.272  35.743  1.00  0.00     0.049 A 
ATOM     55  C   UNL A   1      38.386  32.691  33.033  1.00  0.00     0.074 A 
ATOM     56  C   UNL A   1      42.954  30.775  36.996  1.00  0.00     0.029 A 
ATOM     57  N   UNL A   1      41.564  31.003  35.276  1.00  0.00    -0.354 N 
ATOM     58  N   UNL A   1      39.358  32.231  33.784  1.00  0.00    -0.248 NA
ATOM     59  C   UNL A   1      37.601  33.766  33.653  1.00  0.00     0.031 C 
ATOM     60  C   UNL A   1      42.034  31.786  37.301  1.00  0.00     0.029 A 
ATOM     61  C   UNL A   1      41.179  31.940  36.221  1.00  0.00     0.049 A 
ATOM     62  H   UNL A   1      41.133  30.875  34.400  1.00  0.00     0.167 HD
ATOM     63  C   UNL A   1      39.310  32.972  34.960  1.00  0.00     0.074 A 
ATOM     64  C   UNL A   1      38.226  33.922  34.811  1.00  0.00     0.031 C 
ATOM     65  C   UNL A   1      40.092  32.872  36.063  1.00  0.00     0.037 A 
BRANCH  52  66
ATOM     66  C   UNL A   1      44.410  28.462  35.702  1.00  0.00     0.058 A 
ATOM     67  C   UNL A   1      44.163  27.342  36.513  1.00  0.00     0.135 A 
ATOM     68  C   UNL A   1      45.744  28.852  35.513  1.00  0.00     0.135 A 
ATOM     69  F   UNL A   1      42.904  26.935  36.738  1.00  0.00    -0.206 F 
ATOM     70  C   UNL A   1      45.199  26.653  37.136  1.00  0.00     0.059 A 
ATOM     71  C   UNL A   1      46.799  28.162  36.107  1.00  0.00     0.059 A 
ATOM     72  F   UNL A   1      46.036  29.915  34.746  1.00  0.00    -0.206 F 
ATOM     73  C   UNL A   1      46.513  27.073  36.930  1.00  0.00     0.060 A 
BRANCH  73  74
ATOM     74  S   UNL A   1      47.848  26.170  37.744  1.00  0.00     0.124 S 
ATOM     75  O   UNL A   1      48.122  25.119  36.769  1.00  0.00    -0.237 OA
ATOM     76  O   UNL A   1      48.882  27.191  37.881  1.00  0.00    -0.237 OA
ATOM     77  O   UNL A   1      47.242  25.723  38.995  1.00  0.00    -0.744 OA
ENDBRANCH  73  74
ENDBRANCH  52  66
BRANCH  53  78
ATOM     78  C   UNL A   1      36.842  32.918  30.955  1.00  0.00     0.058 A 
ATOM     79  C   UNL A   1      35.520  32.562  31.261  1.00  0.00     0.135 A 
ATOM     80  C   UNL A   1      37.045  33.918  29.991  1.00  0.00     0.135 A 
ATOM     81  F   UNL A   1      35.279  31.607  32.172  1.00  0.00    -0.206 F 
ATOM     82  C   UNL A   1      34.438  33.163  30.628  1.00  0.00     0.059 A 
ATOM     83  C   UNL A   1      35.978  34.550  29.359  1.00  0.00     0.059 A 
ATOM     84  F   UNL A   1      38.290  34.307  29.677  1.00  0.00    -0.206 F 
ATOM     85  C   UNL A   1      34.678  34.159  29.679  1.00  0.00     0.060 A 
BRANCH  85  86
ATOM     86  S   UNL A   1      33.267  34.978  28.904  1.00  0.00     0.124 S 
ATOM     87  O   UNL A   1      33.902  36.141  28.297  1.00  0.00    -0.237 OA
ATOM     88  O   UNL A   1      32.789  33.956  27.978  1.00  0.00    -0.237 OA
ATOM     89  O   UNL A   1      32.383  35.254  30.031  1.00  0.00    -0.744 OA
ENDBRANCH  85  86
ENDBRANCH  53  78
BRANCH  65  90
ATOM     90  C   UNL A   1      39.807  33.827  37.190  1.00  0.00     0.058 A 
ATOM     91  C   UNL A   1      40.427  35.085  37.261  1.00  0.00     0.135 A 
ATOM     92  C   UNL A   1      38.893  33.487  38.200  1.00  0.00     0.135 A 
ATOM     93  F   UNL A   1      41.312  35.454  36.322  1.00  0.00    -0.206 F 
ATOM     94  C   UNL A   1      40.177  35.958  38.313  1.00  0.00     0.059 A 
ATOM     95  C   UNL A   1      38.610  34.356  39.249  1.00  0.00     0.059 A 
ATOM     96  F   UNL A   1      38.265  32.301  38.173  1.00  0.00    -0.206 F 
ATOM     97  C   UNL A   1      39.271  35.583  39.306  1.00  0.00     0.060 A 
BRANCH  97  98
ATOM     98  S   UNL A   1      38.949  36.724  40.667  1.00  0.00     0.124 S 
ATOM     99  O   UNL A   1      38.075  35.925  41.519  1.00  0.00    -0.237 OA
ATOM    100  O   UNL A   1      40.288  36.975  41.192  1.00  0.00    -0.237 OA
ATOM    101  O   UNL A   1      38.318  37.864  40.011  1.00  0.00    -0.744 OA
ENDBRANCH  97  98
ENDBRANCH  65  90
ENDBRANCH  39  40
ENDBRANCH  31  34
ENDBRANCH  29  30
ENDBRANCH  28  29
ENDBRANCH   1  28
TORSDOF 17
ENDMDL
