MODEL 1
REMARK VINA RESULT:     -13.4      0.000      0.000
REMARK SMILES C[C@@H]1CCc2nc(NC(=O)[C@H]3CC=CC[C@@H]3C(=O)NCCCCNC(=O)c3ccc(-c4c5nc(c(-c6c(F)cc(S(=O)(=O)[O-])cc6F)c6ccc([nH]6)c(-c6c(F)cc(S(=O)(=O)[O-])cc6F)c6nc(c(-c7c(F)cc(S(=O)(=O)[O-])cc7F)c7ccc4[nH]7)C=C6)C=C5)cc3)sc2C1
REMARK SMILES IDX 22 1 21 2 20 3 19 4 17 5 18 6 16 8 11 9 12 10 13 11 15 12
REMARK SMILES IDX 14 13 9 14 8 15 10 17 7 18 1 19 2 20 3 21 95 22 4 23 94 24
REMARK SMILES IDX 5 25 93 26 6 27 23 28 24 29 25 30 26 32 27 33 28 34 92 35
REMARK SMILES IDX 29 36 91 37 30 38 31 39 32 40 85 41 33 42 90 43 84 44 86 45
REMARK SMILES IDX 34 46 89 47 83 48 82 49 35 51 69 52 48 53 68 54 49 55 52 56
REMARK SMILES IDX 67 57 87 58 50 59 51 60 66 62 88 63 53 64 36 65 37 66 46 67
REMARK SMILES IDX 38 68 39 69 45 70 47 71 40 72 41 73 42 74 43 75 44 76 70 77
REMARK SMILES IDX 71 78 80 79 72 80 73 81 79 82 81 83 74 84 75 85 76 86 77 87
REMARK SMILES IDX 78 88 54 89 55 90 64 91 56 92 57 93 63 94 65 95 58 96 59 97
REMARK SMILES IDX 60 98 61 99 62 100
REMARK H PARENT 19 7 8 16 24 31 86 50 52 61
REMARK Flexibility Score: inf
ROOT
ATOM      1  C   UNL A   1      36.983  22.047  24.617  1.00  0.00     0.023 C 
ENDROOT
BRANCH   1   2
ATOM      2  C   UNL A   1      36.463  22.847  23.421  1.00  0.00     0.023 C 
BRANCH   2   3
ATOM      3  C   UNL A   1      34.953  23.006  23.201  1.00  0.00     0.116 C 
BRANCH   3   4
ATOM      4  N   UNL A   1      34.550  24.379  22.953  1.00  0.00    -0.356 N 
ATOM      5  C   UNL A   1      33.981  25.323  23.763  1.00  0.00     0.224 C 
ATOM      6  O   UNL A   1      33.795  26.432  23.262  1.00  0.00    -0.275 OA
ATOM      7  H   UNL A   1      34.719  24.687  22.034  1.00  0.00     0.163 HD
BRANCH   5   8
ATOM      8  C   UNL A   1      33.538  24.990  25.202  1.00  0.00     0.095 C 
ATOM      9  C   UNL A   1      32.265  24.119  25.157  1.00  0.00     0.095 C 
ATOM     10  C   UNL A   1      31.053  24.927  24.654  1.00  0.00     0.041 C 
ATOM     11  C   UNL A   1      30.925  26.274  25.285  1.00  0.00    -0.030 C 
ATOM     12  C   UNL A   1      33.316  26.278  26.030  1.00  0.00     0.041 C 
ATOM     13  C   UNL A   1      31.938  26.871  25.924  1.00  0.00    -0.030 C 
BRANCH   9  14
ATOM     14  C   UNL A   1      31.956  23.359  26.457  1.00  0.00     0.230 C 
ATOM     15  N   UNL A   1      32.051  21.992  26.550  1.00  0.00    -0.302 N 
ATOM     16  H   UNL A   1      31.657  21.613  27.368  1.00  0.00     0.172 HD
ATOM     17  O   UNL A   1      31.574  23.962  27.466  1.00  0.00    -0.274 OA
BRANCH  15  18
ATOM     18  C   UNL A   1      32.597  21.058  25.705  1.00  0.00     0.189 A 
ATOM     19  C   UNL A   1      33.006  16.126  24.523  1.00  0.00     0.008 C 
ATOM     20  C   UNL A   1      33.554  17.035  23.410  1.00  0.00    -0.009 C 
ATOM     21  C   UNL A   1      34.979  17.557  23.735  1.00  0.00     0.010 C 
ATOM     22  C   UNL A   1      32.608  18.219  23.110  1.00  0.00     0.052 C 
ATOM     23  C   UNL A   1      35.036  18.485  24.974  1.00  0.00     0.058 C 
ATOM     24  C   UNL A   1      32.841  19.310  24.091  1.00  0.00     0.030 A 
ATOM     25  C   UNL A   1      33.893  19.439  24.970  1.00  0.00     0.057 A 
ATOM     26  S   UNL A   1      31.856  20.658  24.228  1.00  0.00    -0.101 S 
ATOM     27  N   UNL A   1      33.759  20.468  25.897  1.00  0.00    -0.225 NA
ENDBRANCH  15  18
ENDBRANCH   9  14
ENDBRANCH   5   8
ENDBRANCH   3   4
ENDBRANCH   2   3
ENDBRANCH   1   2
BRANCH   1  28
ATOM     28  C   UNL A   1      37.811  22.846  25.598  1.00  0.00     0.116 C 
BRANCH  28  29
ATOM     29  N   UNL A   1      38.683  22.022  26.446  1.00  0.00    -0.352 N 
ATOM     30  C   UNL A   1      39.875  22.405  27.059  1.00  0.00     0.251 C 
ATOM     31  H   UNL A   1      38.392  21.094  26.599  1.00  0.00     0.163 HD
ATOM     32  O   UNL A   1      40.699  21.590  27.419  1.00  0.00    -0.269 OA
BRANCH  30  33
ATOM     33  C   UNL A   1      40.082  23.852  27.262  1.00  0.00     0.039 A 
ATOM     34  C   UNL A   1      39.109  24.815  26.992  1.00  0.00     0.014 A 
ATOM     35  C   UNL A   1      41.267  24.191  27.894  1.00  0.00     0.014 A 
ATOM     36  C   UNL A   1      39.310  26.110  27.475  1.00  0.00     0.010 A 
ATOM     37  C   UNL A   1      41.311  25.352  28.604  1.00  0.00     0.010 A 
ATOM     38  C   UNL A   1      40.408  26.362  28.312  1.00  0.00    -0.014 A 
BRANCH  38  39
ATOM     39  C   UNL A   1      40.665  27.659  28.922  1.00  0.00     0.031 A 
ATOM     40  C   UNL A   1      41.731  28.483  28.302  1.00  0.00     0.074 A 
ATOM     41  C   UNL A   1      39.861  28.166  29.885  1.00  0.00     0.049 A 
ATOM     42  N   UNL A   1      42.909  28.706  28.780  1.00  0.00    -0.248 NA
ATOM     43  C   UNL A   1      41.526  29.030  26.954  1.00  0.00     0.031 C 
ATOM     44  C   UNL A   1      38.611  27.624  30.443  1.00  0.00     0.029 A 
ATOM     45  N   UNL A   1      39.963  29.362  30.515  1.00  0.00    -0.354 N 
ATOM     46  C   UNL A   1      43.529  29.589  27.904  1.00  0.00     0.074 A 
ATOM     47  C   UNL A   1      42.704  29.619  26.721  1.00  0.00     0.031 C 
ATOM     48  C   UNL A   1      37.961  28.585  31.131  1.00  0.00     0.029 A 
ATOM     49  C   UNL A   1      38.837  29.734  31.235  1.00  0.00     0.049 A 
ATOM     50  H   UNL A   1      40.770  29.922  30.466  1.00  0.00     0.167 HD
ATOM     51  C   UNL A   1      44.564  30.379  28.306  1.00  0.00     0.037 A 
ATOM     52  C   UNL A   1      38.638  30.904  31.885  1.00  0.00     0.037 A 
ATOM     53  C   UNL A   1      45.031  30.001  29.618  1.00  0.00     0.049 A 
ATOM     54  C   UNL A   1      39.990  31.454  32.176  1.00  0.00     0.074 A 
ATOM     55  C   UNL A   1      45.584  28.853  30.154  1.00  0.00     0.029 A 
ATOM     56  N   UNL A   1      44.572  30.732  30.691  1.00  0.00    -0.354 N 
ATOM     57  N   UNL A   1      40.837  30.876  32.988  1.00  0.00    -0.248 NA
ATOM     58  C   UNL A   1      40.587  32.351  31.198  1.00  0.00     0.031 C 
ATOM     59  C   UNL A   1      44.989  28.727  31.445  1.00  0.00     0.029 A 
ATOM     60  C   UNL A   1      44.167  29.838  31.651  1.00  0.00     0.049 A 
ATOM     61  H   UNL A   1      44.541  31.713  30.757  1.00  0.00     0.167 HD
ATOM     62  C   UNL A   1      42.071  30.988  32.360  1.00  0.00     0.074 A 
ATOM     63  C   UNL A   1      41.868  31.986  31.310  1.00  0.00     0.031 C 
ATOM     64  C   UNL A   1      43.059  30.064  32.558  1.00  0.00     0.037 A 
BRANCH  51  65
ATOM     65  C   UNL A   1      44.954  31.691  27.684  1.00  0.00     0.058 A 
ATOM     66  C   UNL A   1      46.163  31.786  26.964  1.00  0.00     0.135 A 
ATOM     67  C   UNL A   1      44.325  32.914  27.996  1.00  0.00     0.135 A 
ATOM     68  F   UNL A   1      46.843  30.680  26.621  1.00  0.00    -0.206 F 
ATOM     69  C   UNL A   1      46.741  33.014  26.636  1.00  0.00     0.059 A 
ATOM     70  C   UNL A   1      44.856  34.148  27.632  1.00  0.00     0.059 A 
ATOM     71  F   UNL A   1      43.221  32.968  28.751  1.00  0.00    -0.206 F 
ATOM     72  C   UNL A   1      46.085  34.189  26.992  1.00  0.00     0.060 A 
BRANCH  72  73
ATOM     73  S   UNL A   1      46.887  35.771  26.675  1.00  0.00     0.124 S 
ATOM     74  O   UNL A   1      47.594  35.995  27.931  1.00  0.00    -0.237 OA
ATOM     75  O   UNL A   1      47.719  35.463  25.517  1.00  0.00    -0.237 OA
ATOM     76  O   UNL A   1      45.767  36.669  26.414  1.00  0.00    -0.744 OA
ENDBRANCH  72  73
ENDBRANCH  51  65
BRANCH  52  77
ATOM     77  C   UNL A   1      37.379  31.691  31.932  1.00  0.00     0.058 A 
ATOM     78  C   UNL A   1      36.785  32.045  33.153  1.00  0.00     0.135 A 
ATOM     79  C   UNL A   1      36.877  32.343  30.784  1.00  0.00     0.135 A 
ATOM     80  F   UNL A   1      37.210  31.486  34.297  1.00  0.00    -0.206 F 
ATOM     81  C   UNL A   1      35.792  33.027  33.241  1.00  0.00     0.059 A 
ATOM     82  C   UNL A   1      35.883  33.317  30.846  1.00  0.00     0.059 A 
ATOM     83  F   UNL A   1      37.405  32.118  29.571  1.00  0.00    -0.206 F 
ATOM     84  C   UNL A   1      35.364  33.676  32.083  1.00  0.00     0.060 A 
BRANCH  84  85
ATOM     85  S   UNL A   1      34.227  35.077  32.213  1.00  0.00     0.124 S 
ATOM     86  O   UNL A   1      33.071  34.468  32.862  1.00  0.00    -0.237 OA
ATOM     87  O   UNL A   1      34.991  36.018  33.025  1.00  0.00    -0.237 OA
ATOM     88  O   UNL A   1      34.025  35.480  30.825  1.00  0.00    -0.744 OA
ENDBRANCH  84  85
ENDBRANCH  52  77
BRANCH  64  89
ATOM     89  C   UNL A   1      42.875  29.052  33.664  1.00  0.00     0.058 A 
ATOM     90  C   UNL A   1      43.154  29.303  35.021  1.00  0.00     0.135 A 
ATOM     91  C   UNL A   1      42.246  27.836  33.365  1.00  0.00     0.135 A 
ATOM     92  F   UNL A   1      43.649  30.482  35.415  1.00  0.00    -0.206 F 
ATOM     93  C   UNL A   1      42.868  28.375  36.022  1.00  0.00     0.059 A 
ATOM     94  C   UNL A   1      41.924  26.905  34.351  1.00  0.00     0.059 A 
ATOM     95  F   UNL A   1      41.887  27.561  32.100  1.00  0.00    -0.206 F 
ATOM     96  C   UNL A   1      42.254  27.174  35.678  1.00  0.00     0.060 A 
BRANCH  96  97
ATOM     97  S   UNL A   1      41.827  26.000  36.983  1.00  0.00     0.124 S 
ATOM     98  O   UNL A   1      42.867  26.253  37.973  1.00  0.00    -0.237 OA
ATOM     99  O   UNL A   1      40.479  26.415  37.359  1.00  0.00    -0.237 OA
ATOM    100  O   UNL A   1      41.904  24.703  36.313  1.00  0.00    -0.744 OA
ENDBRANCH  96  97
ENDBRANCH  64  89
ENDBRANCH  38  39
ENDBRANCH  30  33
ENDBRANCH  28  29
ENDBRANCH   1  28
TORSDOF 16
ENDMDL
MODEL 2
REMARK VINA RESULT:     -13.4      1.368      3.515
REMARK SMILES C[C@@H]1CCc2nc(NC(=O)[C@H]3CC=CC[C@@H]3C(=O)NCCCCNC(=O)c3ccc(-c4c5nc(c(-c6c(F)cc(S(=O)(=O)[O-])cc6F)c6ccc([nH]6)c(-c6c(F)cc(S(=O)(=O)[O-])cc6F)c6nc(c(-c7c(F)cc(S(=O)(=O)[O-])cc7F)c7ccc4[nH]7)C=C6)C=C5)cc3)sc2C1
REMARK SMILES IDX 22 1 21 2 20 3 19 4 17 5 18 6 16 8 11 9 12 10 13 11 15 12
REMARK SMILES IDX 14 13 9 14 8 15 10 17 7 18 1 19 2 20 3 21 95 22 4 23 94 24
REMARK SMILES IDX 5 25 93 26 6 27 23 28 24 29 25 30 26 32 27 33 28 34 92 35
REMARK SMILES IDX 29 36 91 37 30 38 31 39 32 40 85 41 33 42 90 43 84 44 86 45
REMARK SMILES IDX 34 46 89 47 83 48 82 49 35 51 69 52 48 53 68 54 49 55 52 56
REMARK SMILES IDX 67 57 87 58 50 59 51 60 66 62 88 63 53 64 36 65 37 66 46 67
REMARK SMILES IDX 38 68 39 69 45 70 47 71 40 72 41 73 42 74 43 75 44 76 70 77
REMARK SMILES IDX 71 78 80 79 72 80 73 81 79 82 81 83 74 84 75 85 76 86 77 87
REMARK SMILES IDX 78 88 54 89 55 90 64 91 56 92 57 93 63 94 65 95 58 96 59 97
REMARK SMILES IDX 60 98 61 99 62 100
REMARK H PARENT 19 7 8 16 24 31 86 50 52 61
REMARK Flexibility Score: inf
ROOT
ATOM      1  C   UNL A   1      36.158  23.466  25.631  1.00  0.00     0.023 C 
ENDROOT
BRANCH   1   2
ATOM      2  C   UNL A   1      35.273  24.688  25.884  1.00  0.00     0.023 C 
BRANCH   2   3
ATOM      3  C   UNL A   1      34.184  25.070  24.874  1.00  0.00     0.116 C 
BRANCH   3   4
ATOM      4  N   UNL A   1      34.369  24.454  23.571  1.00  0.00    -0.356 N 
ATOM      5  C   UNL A   1      33.559  23.647  22.820  1.00  0.00     0.224 C 
ATOM      6  O   UNL A   1      33.990  23.316  21.715  1.00  0.00    -0.275 OA
ATOM      7  H   UNL A   1      35.236  24.655  23.151  1.00  0.00     0.163 HD
BRANCH   5   8
ATOM      8  C   UNL A   1      32.211  23.131  23.360  1.00  0.00     0.095 C 
ATOM      9  C   UNL A   1      32.368  22.748  24.847  1.00  0.00     0.095 C 
ATOM     10  C   UNL A   1      33.251  21.495  25.010  1.00  0.00     0.041 C 
ATOM     11  C   UNL A   1      32.911  20.392  24.063  1.00  0.00    -0.030 C 
ATOM     12  C   UNL A   1      31.691  21.941  22.519  1.00  0.00     0.041 C 
ATOM     13  C   UNL A   1      32.189  20.591  22.954  1.00  0.00    -0.030 C 
BRANCH   9  14
ATOM     14  C   UNL A   1      31.048  22.633  25.627  1.00  0.00     0.230 C 
ATOM     15  N   UNL A   1      30.411  23.727  26.158  1.00  0.00    -0.302 N 
ATOM     16  H   UNL A   1      29.682  23.508  26.782  1.00  0.00     0.172 HD
ATOM     17  O   UNL A   1      30.531  21.530  25.834  1.00  0.00    -0.274 OA
BRANCH  15  18
ATOM     18  C   UNL A   1      30.607  25.073  25.973  1.00  0.00     0.189 A 
ATOM     19  C   UNL A   1      33.637  28.703  24.091  1.00  0.00     0.008 C 
ATOM     20  C   UNL A   1      32.254  29.248  24.481  1.00  0.00    -0.009 C 
ATOM     21  C   UNL A   1      32.132  29.487  26.010  1.00  0.00     0.010 C 
ATOM     22  C   UNL A   1      31.110  28.331  23.993  1.00  0.00     0.052 C 
ATOM     23  C   UNL A   1      32.221  28.191  26.853  1.00  0.00     0.058 C 
ATOM     24  C   UNL A   1      30.918  27.212  24.950  1.00  0.00     0.030 A 
ATOM     25  C   UNL A   1      31.436  27.096  26.221  1.00  0.00     0.057 A 
ATOM     26  S   UNL A   1      29.929  25.895  24.649  1.00  0.00    -0.101 S 
ATOM     27  N   UNL A   1      31.238  25.858  26.822  1.00  0.00    -0.225 NA
ENDBRANCH  15  18
ENDBRANCH   9  14
ENDBRANCH   5   8
ENDBRANCH   3   4
ENDBRANCH   2   3
ENDBRANCH   1   2
BRANCH   1  28
ATOM     28  C   UNL A   1      37.640  23.762  25.569  1.00  0.00     0.116 C 
BRANCH  28  29
ATOM     29  N   UNL A   1      38.489  22.586  25.797  1.00  0.00    -0.352 N 
ATOM     30  C   UNL A   1      39.727  22.545  26.437  1.00  0.00     0.251 C 
ATOM     31  H   UNL A   1      38.146  21.728  25.459  1.00  0.00     0.163 HD
ATOM     32  O   UNL A   1      40.510  21.636  26.259  1.00  0.00    -0.269 OA
BRANCH  30  33
ATOM     33  C   UNL A   1      40.036  23.659  27.356  1.00  0.00     0.039 A 
ATOM     34  C   UNL A   1      41.258  23.797  28.015  1.00  0.00     0.014 A 
ATOM     35  C   UNL A   1      39.080  24.660  27.404  1.00  0.00     0.014 A 
ATOM     36  C   UNL A   1      41.539  25.017  28.635  1.00  0.00     0.010 A 
ATOM     37  C   UNL A   1      39.479  25.918  27.742  1.00  0.00     0.010 A 
ATOM     38  C   UNL A   1      40.649  26.089  28.464  1.00  0.00    -0.014 A 
BRANCH  38  39
ATOM     39  C   UNL A   1      40.887  27.418  29.009  1.00  0.00     0.031 A 
ATOM     40  C   UNL A   1      41.951  28.220  28.357  1.00  0.00     0.074 A 
ATOM     41  C   UNL A   1      40.069  27.965  29.937  1.00  0.00     0.049 A 
ATOM     42  N   UNL A   1      43.122  28.480  28.833  1.00  0.00    -0.248 NA
ATOM     43  C   UNL A   1      41.753  28.695  26.980  1.00  0.00     0.031 C 
ATOM     44  C   UNL A   1      38.819  27.440  30.511  1.00  0.00     0.029 A 
ATOM     45  N   UNL A   1      40.152  29.193  30.505  1.00  0.00    -0.354 N 
ATOM     46  C   UNL A   1      43.741  29.323  27.918  1.00  0.00     0.074 A 
ATOM     47  C   UNL A   1      42.927  29.283  26.728  1.00  0.00     0.031 C 
ATOM     48  C   UNL A   1      38.153  28.429  31.143  1.00  0.00     0.029 A 
ATOM     49  C   UNL A   1      39.016  29.591  31.195  1.00  0.00     0.049 A 
ATOM     50  H   UNL A   1      40.955  29.759  30.435  1.00  0.00     0.167 HD
ATOM     51  C   UNL A   1      44.765  30.143  28.289  1.00  0.00     0.037 A 
ATOM     52  C   UNL A   1      38.800  30.791  31.782  1.00  0.00     0.037 A 
ATOM     53  C   UNL A   1      45.223  29.838  29.623  1.00  0.00     0.049 A 
ATOM     54  C   UNL A   1      40.143  31.369  32.056  1.00  0.00     0.074 A 
ATOM     55  C   UNL A   1      45.781  28.725  30.222  1.00  0.00     0.029 A 
ATOM     56  N   UNL A   1      44.746  30.619  30.652  1.00  0.00    -0.354 N 
ATOM     57  N   UNL A   1      40.988  30.842  32.904  1.00  0.00    -0.248 NA
ATOM     58  C   UNL A   1      40.741  32.221  31.039  1.00  0.00     0.031 C 
ATOM     59  C   UNL A   1      45.176  28.660  31.512  1.00  0.00     0.029 A 
ATOM     60  C   UNL A   1      44.341  29.771  31.654  1.00  0.00     0.049 A 
ATOM     61  H   UNL A   1      44.705  31.602  30.667  1.00  0.00     0.167 HD
ATOM     62  C   UNL A   1      42.226  30.934  32.282  1.00  0.00     0.074 A 
ATOM     63  C   UNL A   1      42.024  31.875  31.180  1.00  0.00     0.031 C 
ATOM     64  C   UNL A   1      43.222  30.033  32.537  1.00  0.00     0.037 A 
BRANCH  51  65
ATOM     65  C   UNL A   1      45.148  31.426  27.603  1.00  0.00     0.058 A 
ATOM     66  C   UNL A   1      46.388  31.514  26.938  1.00  0.00     0.135 A 
ATOM     67  C   UNL A   1      44.468  32.645  27.804  1.00  0.00     0.135 A 
ATOM     68  F   UNL A   1      47.116  30.411  26.701  1.00  0.00    -0.206 F 
ATOM     69  C   UNL A   1      46.946  32.736  26.561  1.00  0.00     0.059 A 
ATOM     70  C   UNL A   1      44.981  33.870  27.388  1.00  0.00     0.059 A 
ATOM     71  F   UNL A   1      43.326  32.710  28.500  1.00  0.00    -0.206 F 
ATOM     72  C   UNL A   1      46.239  33.910  26.808  1.00  0.00     0.060 A 
BRANCH  72  73
ATOM     73  S   UNL A   1      47.010  35.494  26.429  1.00  0.00     0.124 S 
ATOM     74  O   UNL A   1      45.858  36.286  26.014  1.00  0.00    -0.237 OA
ATOM     75  O   UNL A   1      47.608  35.855  27.710  1.00  0.00    -0.237 OA
ATOM     76  O   UNL A   1      47.960  35.161  25.372  1.00  0.00    -0.744 OA
ENDBRANCH  72  73
ENDBRANCH  51  65
BRANCH  52  77
ATOM     77  C   UNL A   1      37.533  31.566  31.777  1.00  0.00     0.058 A 
ATOM     78  C   UNL A   1      36.817  31.804  32.960  1.00  0.00     0.135 A 
ATOM     79  C   UNL A   1      37.137  32.320  30.649  1.00  0.00     0.135 A 
ATOM     80  F   UNL A   1      37.136  31.142  34.084  1.00  0.00    -0.206 F 
ATOM     81  C   UNL A   1      35.808  32.770  33.040  1.00  0.00     0.059 A 
ATOM     82  C   UNL A   1      36.130  33.281  30.702  1.00  0.00     0.059 A 
ATOM     83  F   UNL A   1      37.784  32.209  29.479  1.00  0.00    -0.206 F 
ATOM     84  C   UNL A   1      35.488  33.521  31.910  1.00  0.00     0.060 A 
BRANCH  84  85
ATOM     85  S   UNL A   1      34.327  34.901  32.055  1.00  0.00     0.124 S 
ATOM     86  O   UNL A   1      33.219  34.288  32.780  1.00  0.00    -0.237 OA
ATOM     87  O   UNL A   1      35.108  35.884  32.798  1.00  0.00    -0.237 OA
ATOM     88  O   UNL A   1      34.045  35.256  30.667  1.00  0.00    -0.744 OA
ENDBRANCH  84  85
ENDBRANCH  52  77
BRANCH  64  89
ATOM     89  C   UNL A   1      43.038  29.077  33.693  1.00  0.00     0.058 A 
ATOM     90  C   UNL A   1      43.288  29.405  35.038  1.00  0.00     0.135 A 
ATOM     91  C   UNL A   1      42.436  27.835  33.448  1.00  0.00     0.135 A 
ATOM     92  F   UNL A   1      43.755  30.613  35.377  1.00  0.00    -0.206 F 
ATOM     93  C   UNL A   1      43.002  28.525  36.083  1.00  0.00     0.059 A 
ATOM     94  C   UNL A   1      42.114  26.952  34.477  1.00  0.00     0.059 A 
ATOM     95  F   UNL A   1      42.103  27.486  32.194  1.00  0.00    -0.206 F 
ATOM     96  C   UNL A   1      42.416  27.296  35.793  1.00  0.00     0.060 A 
BRANCH  96  97
ATOM     97  S   UNL A   1      41.988  26.185  37.151  1.00  0.00     0.124 S 
ATOM     98  O   UNL A   1      40.669  26.671  37.540  1.00  0.00    -0.237 OA
ATOM     99  O   UNL A   1      42.017  24.873  36.513  1.00  0.00    -0.237 OA
ATOM    100  O   UNL A   1      43.051  26.416  38.127  1.00  0.00    -0.744 OA
ENDBRANCH  96  97
ENDBRANCH  64  89
ENDBRANCH  38  39
ENDBRANCH  30  33
ENDBRANCH  28  29
ENDBRANCH   1  28
TORSDOF 16
ENDMDL
MODEL 3
REMARK VINA RESULT:     -13.2      1.880      3.946
REMARK SMILES C[C@@H]1CCc2nc(NC(=O)[C@H]3CC=CC[C@@H]3C(=O)NCCCCNC(=O)c3ccc(-c4c5nc(c(-c6c(F)cc(S(=O)(=O)[O-])cc6F)c6ccc([nH]6)c(-c6c(F)cc(S(=O)(=O)[O-])cc6F)c6nc(c(-c7c(F)cc(S(=O)(=O)[O-])cc7F)c7ccc4[nH]7)C=C6)C=C5)cc3)sc2C1
REMARK SMILES IDX 22 1 21 2 20 3 19 4 17 5 18 6 16 8 11 9 12 10 13 11 15 12
REMARK SMILES IDX 14 13 9 14 8 15 10 17 7 18 1 19 2 20 3 21 95 22 4 23 94 24
REMARK SMILES IDX 5 25 93 26 6 27 23 28 24 29 25 30 26 32 27 33 28 34 92 35
REMARK SMILES IDX 29 36 91 37 30 38 31 39 32 40 85 41 33 42 90 43 84 44 86 45
REMARK SMILES IDX 34 46 89 47 83 48 82 49 35 51 69 52 48 53 68 54 49 55 52 56
REMARK SMILES IDX 67 57 87 58 50 59 51 60 66 62 88 63 53 64 36 65 37 66 46 67
REMARK SMILES IDX 38 68 39 69 45 70 47 71 40 72 41 73 42 74 43 75 44 76 70 77
REMARK SMILES IDX 71 78 80 79 72 80 73 81 79 82 81 83 74 84 75 85 76 86 77 87
REMARK SMILES IDX 78 88 54 89 55 90 64 91 56 92 57 93 63 94 65 95 58 96 59 97
REMARK SMILES IDX 60 98 61 99 62 100
REMARK H PARENT 19 7 8 16 24 31 86 50 52 61
REMARK Flexibility Score: inf
ROOT
ATOM      1  C   UNL A   1      38.957  21.906  25.826  1.00  0.00     0.023 C 
ENDROOT
BRANCH   1   2
ATOM      2  C   UNL A   1      38.304  23.218  26.267  1.00  0.00     0.023 C 
BRANCH   2   3
ATOM      3  C   UNL A   1      36.971  23.657  25.650  1.00  0.00     0.116 C 
BRANCH   3   4
ATOM      4  N   UNL A   1      35.821  23.336  26.478  1.00  0.00    -0.356 N 
ATOM      5  C   UNL A   1      34.645  22.697  26.198  1.00  0.00     0.224 C 
ATOM      6  O   UNL A   1      33.872  22.537  27.143  1.00  0.00    -0.275 OA
ATOM      7  H   UNL A   1      35.904  23.634  27.413  1.00  0.00     0.163 HD
BRANCH   5   8
ATOM      8  C   UNL A   1      34.285  22.261  24.764  1.00  0.00     0.095 C 
ATOM      9  C   UNL A   1      32.764  22.407  24.552  1.00  0.00     0.095 C 
ATOM     10  C   UNL A   1      31.982  21.369  25.381  1.00  0.00     0.041 C 
ATOM     11  C   UNL A   1      32.544  19.988  25.300  1.00  0.00    -0.030 C 
ATOM     12  C   UNL A   1      34.762  20.816  24.483  1.00  0.00     0.041 C 
ATOM     13  C   UNL A   1      33.788  19.739  24.873  1.00  0.00    -0.030 C 
BRANCH   9  14
ATOM     14  C   UNL A   1      32.316  22.430  23.081  1.00  0.00     0.230 C 
ATOM     15  N   UNL A   1      31.909  23.582  22.455  1.00  0.00    -0.302 N 
ATOM     16  H   UNL A   1      31.479  23.438  21.581  1.00  0.00     0.172 HD
ATOM     17  O   UNL A   1      32.276  21.389  22.416  1.00  0.00    -0.274 OA
BRANCH  15  18
ATOM     18  C   UNL A   1      31.993  24.900  22.829  1.00  0.00     0.189 A 
ATOM     19  C   UNL A   1      33.919  28.261  26.129  1.00  0.00     0.008 C 
ATOM     20  C   UNL A   1      33.299  28.947  24.900  1.00  0.00    -0.009 C 
ATOM     21  C   UNL A   1      31.752  29.029  24.998  1.00  0.00     0.010 C 
ATOM     22  C   UNL A   1      33.713  28.256  23.581  1.00  0.00     0.052 C 
ATOM     23  C   UNL A   1      31.052  27.647  24.990  1.00  0.00     0.058 C 
ATOM     24  C   UNL A   1      32.846  27.075  23.337  1.00  0.00     0.030 A 
ATOM     25  C   UNL A   1      31.671  26.749  23.978  1.00  0.00     0.057 A 
ATOM     26  S   UNL A   1      33.133  25.950  22.131  1.00  0.00    -0.101 S 
ATOM     27  N   UNL A   1      31.166  25.491  23.668  1.00  0.00    -0.225 NA
ENDBRANCH  15  18
ENDBRANCH   9  14
ENDBRANCH   5   8
ENDBRANCH   3   4
ENDBRANCH   2   3
ENDBRANCH   1   2
BRANCH   1  28
ATOM     28  C   UNL A   1      40.148  21.483  26.658  1.00  0.00     0.116 C 
BRANCH  28  29
ATOM     29  N   UNL A   1      41.435  21.621  25.964  1.00  0.00    -0.352 N 
ATOM     30  C   UNL A   1      42.160  22.791  25.749  1.00  0.00     0.251 C 
ATOM     31  H   UNL A   1      41.829  20.792  25.609  1.00  0.00     0.163 HD
ATOM     32  O   UNL A   1      42.995  22.875  24.873  1.00  0.00    -0.269 OA
BRANCH  30  33
ATOM     33  C   UNL A   1      41.873  23.925  26.650  1.00  0.00     0.039 A 
ATOM     34  C   UNL A   1      42.379  24.025  27.947  1.00  0.00     0.014 A 
ATOM     35  C   UNL A   1      41.188  24.978  26.067  1.00  0.00     0.014 A 
ATOM     36  C   UNL A   1      42.272  25.253  28.604  1.00  0.00     0.010 A 
ATOM     37  C   UNL A   1      41.358  26.226  26.587  1.00  0.00     0.010 A 
ATOM     38  C   UNL A   1      41.784  26.363  27.898  1.00  0.00    -0.014 A 
BRANCH  38  39
ATOM     39  C   UNL A   1      41.702  27.699  28.470  1.00  0.00     0.031 A 
ATOM     40  C   UNL A   1      42.788  28.643  28.110  1.00  0.00     0.074 A 
ATOM     41  C   UNL A   1      40.607  28.120  29.145  1.00  0.00     0.049 A 
ATOM     42  N   UNL A   1      43.752  29.036  28.872  1.00  0.00    -0.248 NA
ATOM     43  C   UNL A   1      42.898  29.118  26.724  1.00  0.00     0.031 C 
ATOM     44  C   UNL A   1      39.327  27.429  29.379  1.00  0.00     0.029 A 
ATOM     45  N   UNL A   1      40.383  29.336  29.701  1.00  0.00    -0.354 N 
ATOM     46  C   UNL A   1      44.476  29.970  28.141  1.00  0.00     0.074 A 
ATOM     47  C   UNL A   1      44.013  29.854  26.780  1.00  0.00     0.031 C 
ATOM     48  C   UNL A   1      38.400  28.313  29.803  1.00  0.00     0.029 A 
ATOM     49  C   UNL A   1      39.065  29.572  30.066  1.00  0.00     0.049 A 
ATOM     50  H   UNL A   1      41.098  29.999  29.836  1.00  0.00     0.167 HD
ATOM     51  C   UNL A   1      45.255  30.904  28.757  1.00  0.00     0.037 A 
ATOM     52  C   UNL A   1      38.554  30.723  30.561  1.00  0.00     0.037 A 
ATOM     53  C   UNL A   1      45.385  30.630  30.167  1.00  0.00     0.049 A 
ATOM     54  C   UNL A   1      39.694  31.459  31.170  1.00  0.00     0.074 A 
ATOM     55  C   UNL A   1      45.904  29.583  30.904  1.00  0.00     0.029 A 
ATOM     56  N   UNL A   1      44.562  31.322  31.027  1.00  0.00    -0.354 N 
ATOM     57  N   UNL A   1      40.349  31.023  32.216  1.00  0.00    -0.248 NA
ATOM     58  C   UNL A   1      40.424  32.401  30.334  1.00  0.00     0.031 C 
ATOM     59  C   UNL A   1      44.996  29.415  31.992  1.00  0.00     0.029 A 
ATOM     60  C   UNL A   1      44.020  30.409  31.898  1.00  0.00     0.049 A 
ATOM     61  H   UNL A   1      44.393  32.292  31.019  1.00  0.00     0.167 HD
ATOM     62  C   UNL A   1      41.684  31.284  31.938  1.00  0.00     0.074 A 
ATOM     63  C   UNL A   1      41.659  32.215  30.810  1.00  0.00     0.031 C 
ATOM     64  C   UNL A   1      42.685  30.508  32.455  1.00  0.00     0.037 A 
BRANCH  51  65
ATOM     65  C   UNL A   1      45.638  32.239  28.179  1.00  0.00     0.058 A 
ATOM     66  C   UNL A   1      47.002  32.578  28.059  1.00  0.00     0.135 A 
ATOM     67  C   UNL A   1      44.722  33.295  27.994  1.00  0.00     0.135 A 
ATOM     68  F   UNL A   1      47.954  31.646  28.222  1.00  0.00    -0.206 F 
ATOM     69  C   UNL A   1      47.426  33.889  27.839  1.00  0.00     0.059 A 
ATOM     70  C   UNL A   1      45.122  34.599  27.721  1.00  0.00     0.059 A 
ATOM     71  F   UNL A   1      43.405  33.126  28.169  1.00  0.00    -0.206 F 
ATOM     72  C   UNL A   1      46.476  34.894  27.688  1.00  0.00     0.060 A 
BRANCH  72  73
ATOM     73  S   UNL A   1      47.025  36.603  27.522  1.00  0.00     0.124 S 
ATOM     74  O   UNL A   1      45.822  37.333  27.905  1.00  0.00    -0.237 OA
ATOM     75  O   UNL A   1      48.135  36.658  28.467  1.00  0.00    -0.237 OA
ATOM     76  O   UNL A   1      47.401  36.700  26.115  1.00  0.00    -0.744 OA
ENDBRANCH  72  73
ENDBRANCH  51  65
BRANCH  52  77
ATOM     77  C   UNL A   1      37.244  31.333  30.216  1.00  0.00     0.058 A 
ATOM     78  C   UNL A   1      36.497  32.045  31.167  1.00  0.00     0.135 A 
ATOM     79  C   UNL A   1      36.824  31.461  28.873  1.00  0.00     0.135 A 
ATOM     80  F   UNL A   1      36.834  31.993  32.465  1.00  0.00    -0.206 F 
ATOM     81  C   UNL A   1      35.433  32.879  30.806  1.00  0.00     0.059 A 
ATOM     82  C   UNL A   1      35.762  32.278  28.490  1.00  0.00     0.059 A 
ATOM     83  F   UNL A   1      37.495  30.863  27.876  1.00  0.00    -0.206 F 
ATOM     84  C   UNL A   1      35.088  33.007  29.461  1.00  0.00     0.060 A 
BRANCH  84  85
ATOM     85  S   UNL A   1      33.847  34.229  28.971  1.00  0.00     0.124 S 
ATOM     86  O   UNL A   1      34.673  35.276  28.378  1.00  0.00    -0.237 OA
ATOM     87  O   UNL A   1      33.018  33.469  28.041  1.00  0.00    -0.237 OA
ATOM     88  O   UNL A   1      33.200  34.582  30.231  1.00  0.00    -0.744 OA
ENDBRANCH  84  85
ENDBRANCH  52  77
BRANCH  64  89
ATOM     89  C   UNL A   1      42.329  29.512  33.533  1.00  0.00     0.058 A 
ATOM     90  C   UNL A   1      41.801  28.232  33.285  1.00  0.00     0.135 A 
ATOM     91  C   UNL A   1      42.680  29.803  34.859  1.00  0.00     0.135 A 
ATOM     92  F   UNL A   1      41.543  27.824  32.036  1.00  0.00    -0.206 F 
ATOM     93  C   UNL A   1      41.587  27.305  34.306  1.00  0.00     0.059 A 
ATOM     94  C   UNL A   1      42.503  28.883  35.892  1.00  0.00     0.059 A 
ATOM     95  F   UNL A   1      43.254  30.980  35.158  1.00  0.00    -0.206 F 
ATOM     96  C   UNL A   1      41.939  27.641  35.610  1.00  0.00     0.060 A 
BRANCH  96  97
ATOM     97  S   UNL A   1      41.720  26.417  36.921  1.00  0.00     0.124 S 
ATOM     98  O   UNL A   1      42.853  26.699  37.794  1.00  0.00    -0.237 OA
ATOM     99  O   UNL A   1      40.405  26.756  37.459  1.00  0.00    -0.237 OA
ATOM    100  O   UNL A   1      41.781  25.142  36.210  1.00  0.00    -0.744 OA
ENDBRANCH  96  97
ENDBRANCH  64  89
ENDBRANCH  38  39
ENDBRANCH  30  33
ENDBRANCH  28  29
ENDBRANCH   1  28
TORSDOF 16
ENDMDL
