MODEL 1
REMARK VINA RESULT:     -11.9      0.000      0.000
REMARK SMILES CC(C)[C@H](C)CNC(=O)N1CC(n2cc(C(=O)NCCCCNC(=O)c3ccc(-c4c5nc(c(-c6c(F)cc(S(=O)(=O)[O-])cc6F)c6ccc([nH]6)c(-c6c(F)cc(S(=O)(=O)[O-])cc6F)c6nc(c(-c7c(F)cc(S(=O)(=O)[O-])cc7F)c7ccc4[nH]7)C=C6)C=C5)cc3)nn2)C1
REMARK SMILES IDX 20 1 19 2 18 3 16 4 17 5 15 7 13 8 14 9 93 10 92 11 12 12
REMARK SMILES IDX 7 13 8 14 9 16 10 17 11 18 94 19 6 20 4 21 5 22 2 23 1 24
REMARK SMILES IDX 3 25 21 26 22 27 23 28 24 29 25 31 26 32 27 33 91 34 28 35
REMARK SMILES IDX 90 36 29 37 30 38 31 39 84 40 32 41 89 42 83 43 85 44 33 45
REMARK SMILES IDX 88 46 82 47 81 48 34 50 68 51 47 52 67 53 48 54 51 55 66 56
REMARK SMILES IDX 86 57 49 58 50 59 65 61 87 62 52 63 35 64 36 65 45 66 37 67
REMARK SMILES IDX 38 68 44 69 46 70 39 71 40 72 41 73 42 74 43 75 69 76 70 77
REMARK SMILES IDX 79 78 71 79 72 80 78 81 80 82 73 83 74 84 75 85 76 86 77 87
REMARK SMILES IDX 53 88 54 89 63 90 55 91 56 92 62 93 64 94 57 95 58 96 59 97
REMARK SMILES IDX 60 98 61 99
REMARK H PARENT 18 6 7 15 23 30 85 49 51 60
REMARK Flexibility Score: inf
ROOT
ATOM      1  C   UNL A   1      40.913  21.561  27.707  1.00  0.00     0.023 C 
ENDROOT
BRANCH   1   2
ATOM      2  C   UNL A   1      40.116  22.107  26.519  1.00  0.00     0.116 C 
BRANCH   2   3
ATOM      3  N   UNL A   1      39.452  21.048  25.785  1.00  0.00    -0.351 N 
ATOM      4  C   UNL A   1      38.152  20.890  25.360  1.00  0.00     0.273 C 
ATOM      5  O   UNL A   1      37.915  19.893  24.677  1.00  0.00    -0.267 OA
ATOM      6  H   UNL A   1      40.044  20.300  25.542  1.00  0.00     0.163 HD
BRANCH   4   7
ATOM      7  C   UNL A   1      37.105  21.855  25.688  1.00  0.00     0.170 A 
ATOM      8  N   UNL A   1      35.339  22.954  26.320  1.00  0.00    -0.245 N 
ATOM      9  C   UNL A   1      35.802  21.683  26.114  1.00  0.00     0.145 A 
ATOM     10  N   UNL A   1      36.251  23.867  25.972  1.00  0.00    -0.066 NA
ATOM     11  N   UNL A   1      37.327  23.213  25.558  1.00  0.00    -0.125 NA
BRANCH   8  12
ATOM     12  C   UNL A   1      34.063  23.245  26.891  1.00  0.00     0.148 C 
ATOM     13  N   UNL A   1      30.490  25.340  26.391  1.00  0.00    -0.338 N 
ATOM     14  C   UNL A   1      30.951  24.094  26.659  1.00  0.00     0.317 C 
ATOM     15  H   UNL A   1      29.724  25.627  26.939  1.00  0.00     0.165 HD
ATOM     16  O   UNL A   1      30.230  23.324  27.291  1.00  0.00    -0.249 OA
ATOM     17  N   UNL A   1      32.190  23.745  26.233  1.00  0.00    -0.320 N 
ATOM     18  C   UNL A   1      32.863  22.454  26.353  1.00  0.00     0.150 C 
ATOM     19  C   UNL A   1      33.442  24.485  26.215  1.00  0.00     0.150 C 
BRANCH  13  20
ATOM     20  C   UNL A   1      30.952  26.320  25.419  1.00  0.00     0.121 C 
BRANCH  20  21
ATOM     21  C   UNL A   1      31.110  27.736  26.017  1.00  0.00     0.008 C 
ATOM     22  C   UNL A   1      32.127  27.721  27.168  1.00  0.00     0.010 C 
BRANCH  21  23
ATOM     23  C   UNL A   1      31.416  28.810  24.918  1.00  0.00    -0.013 C 
ATOM     24  C   UNL A   1      30.388  28.839  23.781  1.00  0.00     0.008 C 
ATOM     25  C   UNL A   1      31.600  30.236  25.453  1.00  0.00     0.008 C 
ENDBRANCH  21  23
ENDBRANCH  20  21
ENDBRANCH  13  20
ENDBRANCH   8  12
ENDBRANCH   4   7
ENDBRANCH   2   3
ENDBRANCH   1   2
BRANCH   1  26
ATOM     26  C   UNL A   1      41.948  20.478  27.360  1.00  0.00     0.023 C 
BRANCH  26  27
ATOM     27  C   UNL A   1      41.984  20.058  25.892  1.00  0.00     0.116 C 
BRANCH  27  28
ATOM     28  N   UNL A   1      43.324  19.677  25.442  1.00  0.00    -0.352 N 
ATOM     29  C   UNL A   1      44.343  20.505  25.014  1.00  0.00     0.251 C 
ATOM     30  H   UNL A   1      43.522  18.714  25.444  1.00  0.00     0.163 HD
ATOM     31  O   UNL A   1      45.247  20.065  24.305  1.00  0.00    -0.269 OA
BRANCH  29  32
ATOM     32  C   UNL A   1      44.340  21.917  25.429  1.00  0.00     0.039 A 
ATOM     33  C   UNL A   1      43.475  22.848  24.847  1.00  0.00     0.014 A 
ATOM     34  C   UNL A   1      45.203  22.292  26.455  1.00  0.00     0.014 A 
ATOM     35  C   UNL A   1      43.418  24.136  25.378  1.00  0.00     0.010 A 
ATOM     36  C   UNL A   1      45.054  23.516  27.059  1.00  0.00     0.010 A 
ATOM     37  C   UNL A   1      44.191  24.458  26.505  1.00  0.00    -0.014 A 
BRANCH  37  38
ATOM     38  C   UNL A   1      43.994  25.724  27.210  1.00  0.00     0.031 A 
ATOM     39  C   UNL A   1      45.027  26.753  26.908  1.00  0.00     0.074 A 
ATOM     40  C   UNL A   1      42.851  26.032  27.866  1.00  0.00     0.049 A 
ATOM     41  N   UNL A   1      45.941  27.217  27.695  1.00  0.00    -0.248 NA
ATOM     42  C   UNL A   1      45.171  27.208  25.513  1.00  0.00     0.031 C 
ATOM     43  C   UNL A   1      41.627  25.221  27.938  1.00  0.00     0.029 A 
ATOM     44  N   UNL A   1      42.485  27.180  28.507  1.00  0.00    -0.354 N 
ATOM     45  C   UNL A   1      46.586  28.221  26.973  1.00  0.00     0.074 A 
ATOM     46  C   UNL A   1      46.240  28.004  25.595  1.00  0.00     0.031 C 
ATOM     47  C   UNL A   1      40.597  25.988  28.355  1.00  0.00     0.029 A 
ATOM     48  C   UNL A   1      41.120  27.278  28.762  1.00  0.00     0.049 A 
ATOM     49  H   UNL A   1      43.129  27.877  28.765  1.00  0.00     0.167 HD
ATOM     50  C   UNL A   1      47.084  29.321  27.604  1.00  0.00     0.037 A 
ATOM     51  C   UNL A   1      40.447  28.338  29.278  1.00  0.00     0.037 A 
ATOM     52  C   UNL A   1      47.089  29.120  29.032  1.00  0.00     0.049 A 
ATOM     53  C   UNL A   1      41.431  29.165  30.013  1.00  0.00     0.074 A 
ATOM     54  C   UNL A   1      47.821  28.388  29.939  1.00  0.00     0.029 A 
ATOM     55  N   UNL A   1      45.916  29.483  29.642  1.00  0.00    -0.354 N 
ATOM     56  N   UNL A   1      42.063  28.750  31.077  1.00  0.00    -0.248 NA
ATOM     57  C   UNL A   1      42.002  30.341  29.368  1.00  0.00     0.031 C 
ATOM     58  C   UNL A   1      46.954  28.158  31.049  1.00  0.00     0.029 A 
ATOM     59  C   UNL A   1      45.737  28.793  30.810  1.00  0.00     0.049 A 
ATOM     60  H   UNL A   1      45.286  30.151  29.287  1.00  0.00     0.167 HD
ATOM     61  C   UNL A   1      43.316  29.321  30.975  1.00  0.00     0.074 A 
ATOM     62  C   UNL A   1      43.163  30.416  30.026  1.00  0.00     0.031 C 
ATOM     63  C   UNL A   1      44.425  28.654  31.407  1.00  0.00     0.037 A 
BRANCH  50  64
ATOM     64  C   UNL A   1      47.112  30.733  27.038  1.00  0.00     0.058 A 
ATOM     65  C   UNL A   1      48.318  31.469  27.093  1.00  0.00     0.135 A 
ATOM     66  C   UNL A   1      45.961  31.491  26.732  1.00  0.00     0.135 A 
ATOM     67  F   UNL A   1      49.480  30.858  27.379  1.00  0.00    -0.206 F 
ATOM     68  C   UNL A   1      48.363  32.857  26.933  1.00  0.00     0.059 A 
ATOM     69  C   UNL A   1      45.992  32.867  26.517  1.00  0.00     0.059 A 
ATOM     70  F   UNL A   1      44.734  30.962  26.723  1.00  0.00    -0.206 F 
ATOM     71  C   UNL A   1      47.189  33.548  26.658  1.00  0.00     0.060 A 
BRANCH  71  72
ATOM     72  S   UNL A   1      47.220  35.345  26.533  1.00  0.00     0.124 S 
ATOM     73  O   UNL A   1      46.410  35.569  25.341  1.00  0.00    -0.237 OA
ATOM     74  O   UNL A   1      46.620  35.747  27.801  1.00  0.00    -0.237 OA
ATOM     75  O   UNL A   1      48.642  35.646  26.397  1.00  0.00    -0.744 OA
ENDBRANCH  71  72
ENDBRANCH  50  64
BRANCH  51  76
ATOM     76  C   UNL A   1      39.060  28.788  29.006  1.00  0.00     0.058 A 
ATOM     77  C   UNL A   1      38.117  28.933  30.040  1.00  0.00     0.135 A 
ATOM     78  C   UNL A   1      38.715  29.360  27.765  1.00  0.00     0.135 A 
ATOM     79  F   UNL A   1      38.370  28.430  31.258  1.00  0.00    -0.206 F 
ATOM     80  C   UNL A   1      36.928  29.649  29.870  1.00  0.00     0.059 A 
ATOM     81  C   UNL A   1      37.534  30.074  27.569  1.00  0.00     0.059 A 
ATOM     82  F   UNL A   1      39.568  29.316  26.729  1.00  0.00    -0.206 F 
ATOM     83  C   UNL A   1      36.656  30.238  28.635  1.00  0.00     0.060 A 
BRANCH  83  84
ATOM     84  S   UNL A   1      35.212  31.316  28.466  1.00  0.00     0.124 S 
ATOM     85  O   UNL A   1      34.216  30.401  27.921  1.00  0.00    -0.237 OA
ATOM     86  O   UNL A   1      34.991  31.753  29.841  1.00  0.00    -0.237 OA
ATOM     87  O   UNL A   1      35.672  32.356  27.551  1.00  0.00    -0.744 OA
ENDBRANCH  83  84
ENDBRANCH  51  76
BRANCH  63  88
ATOM     88  C   UNL A   1      44.238  27.610  32.468  1.00  0.00     0.058 A 
ATOM     89  C   UNL A   1      43.983  27.868  33.825  1.00  0.00     0.135 A 
ATOM     90  C   UNL A   1      44.236  26.268  32.056  1.00  0.00     0.135 A 
ATOM     91  F   UNL A   1      43.888  29.124  34.284  1.00  0.00    -0.206 F 
ATOM     92  C   UNL A   1      43.771  26.833  34.738  1.00  0.00     0.059 A 
ATOM     93  C   UNL A   1      43.997  25.224  32.941  1.00  0.00     0.059 A 
ATOM     94  F   UNL A   1      44.429  25.963  30.761  1.00  0.00    -0.206 F 
ATOM     95  C   UNL A   1      43.779  25.513  34.284  1.00  0.00     0.060 A 
BRANCH  95  96
ATOM     96  S   UNL A   1      43.441  24.176  35.450  1.00  0.00     0.124 S 
ATOM     97  O   UNL A   1      44.734  23.505  35.528  1.00  0.00    -0.237 OA
ATOM     98  O   UNL A   1      43.028  24.899  36.649  1.00  0.00    -0.237 OA
ATOM     99  O   UNL A   1      42.381  23.414  34.796  1.00  0.00    -0.744 OA
ENDBRANCH  95  96
ENDBRANCH  63  88
ENDBRANCH  37  38
ENDBRANCH  29  32
ENDBRANCH  27  28
ENDBRANCH  26  27
ENDBRANCH   1  26
TORSDOF 18
ENDMDL
MODEL 2
REMARK VINA RESULT:     -11.8      2.330      3.137
REMARK SMILES CC(C)[C@H](C)CNC(=O)N1CC(n2cc(C(=O)NCCCCNC(=O)c3ccc(-c4c5nc(c(-c6c(F)cc(S(=O)(=O)[O-])cc6F)c6ccc([nH]6)c(-c6c(F)cc(S(=O)(=O)[O-])cc6F)c6nc(c(-c7c(F)cc(S(=O)(=O)[O-])cc7F)c7ccc4[nH]7)C=C6)C=C5)cc3)nn2)C1
REMARK SMILES IDX 20 1 19 2 18 3 16 4 17 5 15 7 13 8 14 9 93 10 92 11 12 12
REMARK SMILES IDX 7 13 8 14 9 16 10 17 11 18 94 19 6 20 4 21 5 22 2 23 1 24
REMARK SMILES IDX 3 25 21 26 22 27 23 28 24 29 25 31 26 32 27 33 91 34 28 35
REMARK SMILES IDX 90 36 29 37 30 38 31 39 84 40 32 41 89 42 83 43 85 44 33 45
REMARK SMILES IDX 88 46 82 47 81 48 34 50 68 51 47 52 67 53 48 54 51 55 66 56
REMARK SMILES IDX 86 57 49 58 50 59 65 61 87 62 52 63 35 64 36 65 45 66 37 67
REMARK SMILES IDX 38 68 44 69 46 70 39 71 40 72 41 73 42 74 43 75 69 76 70 77
REMARK SMILES IDX 79 78 71 79 72 80 78 81 80 82 73 83 74 84 75 85 76 86 77 87
REMARK SMILES IDX 53 88 54 89 63 90 55 91 56 92 62 93 64 94 57 95 58 96 59 97
REMARK SMILES IDX 60 98 61 99
REMARK H PARENT 18 6 7 15 23 30 85 49 51 60
REMARK Flexibility Score: inf
ROOT
ATOM      1  C   UNL A   1      38.768  23.342  26.591  1.00  0.00     0.023 C 
ENDROOT
BRANCH   1   2
ATOM      2  C   UNL A   1      37.315  23.441  26.117  1.00  0.00     0.116 C 
BRANCH   2   3
ATOM      3  N   UNL A   1      36.731  22.134  25.894  1.00  0.00    -0.351 N 
ATOM      4  C   UNL A   1      35.708  21.703  25.081  1.00  0.00     0.273 C 
ATOM      5  O   UNL A   1      35.497  20.489  25.060  1.00  0.00    -0.267 OA
ATOM      6  H   UNL A   1      37.147  21.416  26.426  1.00  0.00     0.163 HD
BRANCH   4   7
ATOM      7  C   UNL A   1      34.917  22.626  24.272  1.00  0.00     0.170 A 
ATOM      8  N   UNL A   1      33.545  24.088  23.432  1.00  0.00    -0.245 N 
ATOM      9  C   UNL A   1      33.781  23.357  24.563  1.00  0.00     0.145 A 
ATOM     10  N   UNL A   1      34.416  23.785  22.465  1.00  0.00    -0.066 NA
ATOM     11  N   UNL A   1      35.246  22.874  22.952  1.00  0.00    -0.125 NA
BRANCH   8  12
ATOM     12  C   UNL A   1      32.528  25.087  23.336  1.00  0.00     0.148 C 
ATOM     13  N   UNL A   1      31.688  29.158  23.692  1.00  0.00    -0.338 N 
ATOM     14  C   UNL A   1      31.539  28.123  22.829  1.00  0.00     0.317 C 
ATOM     15  H   UNL A   1      30.900  29.740  23.785  1.00  0.00     0.165 HD
ATOM     16  O   UNL A   1      30.613  28.162  22.020  1.00  0.00    -0.249 OA
ATOM     17  N   UNL A   1      32.404  27.082  22.894  1.00  0.00    -0.320 N 
ATOM     18  C   UNL A   1      32.473  25.901  22.037  1.00  0.00     0.150 C 
ATOM     19  C   UNL A   1      32.984  26.386  24.033  1.00  0.00     0.150 C 
BRANCH  13  20
ATOM     20  C   UNL A   1      32.834  29.541  24.503  1.00  0.00     0.121 C 
BRANCH  20  21
ATOM     21  C   UNL A   1      32.432  30.224  25.830  1.00  0.00     0.008 C 
ATOM     22  C   UNL A   1      31.023  30.824  25.720  1.00  0.00     0.010 C 
BRANCH  21  23
ATOM     23  C   UNL A   1      32.621  29.275  27.063  1.00  0.00    -0.013 C 
ATOM     24  C   UNL A   1      31.635  28.101  27.094  1.00  0.00     0.008 C 
ATOM     25  C   UNL A   1      34.044  28.730  27.237  1.00  0.00     0.008 C 
ENDBRANCH  21  23
ENDBRANCH  20  21
ENDBRANCH  13  20
ENDBRANCH   8  12
ENDBRANCH   4   7
ENDBRANCH   2   3
ENDBRANCH   1   2
BRANCH   1  26
ATOM     26  C   UNL A   1      39.398  21.943  26.487  1.00  0.00     0.023 C 
BRANCH  26  27
ATOM     27  C   UNL A   1      40.623  21.713  27.372  1.00  0.00     0.116 C 
BRANCH  27  28
ATOM     28  N   UNL A   1      41.827  21.393  26.604  1.00  0.00    -0.352 N 
ATOM     29  C   UNL A   1      42.704  22.269  25.995  1.00  0.00     0.251 C 
ATOM     30  H   UNL A   1      42.036  20.436  26.509  1.00  0.00     0.163 HD
ATOM     31  O   UNL A   1      43.424  21.889  25.073  1.00  0.00    -0.269 OA
BRANCH  29  32
ATOM     32  C   UNL A   1      42.773  23.659  26.473  1.00  0.00     0.039 A 
ATOM     33  C   UNL A   1      42.137  24.699  25.790  1.00  0.00     0.014 A 
ATOM     34  C   UNL A   1      43.464  23.902  27.658  1.00  0.00     0.014 A 
ATOM     35  C   UNL A   1      42.120  25.969  26.366  1.00  0.00     0.010 A 
ATOM     36  C   UNL A   1      43.336  25.116  28.285  1.00  0.00     0.010 A 
ATOM     37  C   UNL A   1      42.698  26.167  27.630  1.00  0.00    -0.014 A 
BRANCH  37  38
ATOM     38  C   UNL A   1      42.508  27.426  28.350  1.00  0.00     0.031 A 
ATOM     39  C   UNL A   1      43.617  28.402  28.165  1.00  0.00     0.074 A 
ATOM     40  C   UNL A   1      41.331  27.782  28.915  1.00  0.00     0.049 A 
ATOM     41  N   UNL A   1      44.482  28.798  29.038  1.00  0.00    -0.248 NA
ATOM     42  C   UNL A   1      43.904  28.880  26.800  1.00  0.00     0.031 C 
ATOM     43  C   UNL A   1      40.064  27.039  28.861  1.00  0.00     0.029 A 
ATOM     44  N   UNL A   1      40.972  28.933  29.553  1.00  0.00    -0.354 N 
ATOM     45  C   UNL A   1      45.240  29.780  28.402  1.00  0.00     0.074 A 
ATOM     46  C   UNL A   1      45.003  29.614  26.994  1.00  0.00     0.031 C 
ATOM     47  C   UNL A   1      39.045  27.851  29.210  1.00  0.00     0.029 A 
ATOM     48  C   UNL A   1      39.597  29.102  29.695  1.00  0.00     0.049 A 
ATOM     49  H   UNL A   1      41.628  29.588  29.884  1.00  0.00     0.167 HD
ATOM     50  C   UNL A   1      45.740  30.837  29.102  1.00  0.00     0.037 A 
ATOM     51  C   UNL A   1      38.941  30.185  30.180  1.00  0.00     0.037 A 
ATOM     52  C   UNL A   1      45.611  30.604  30.519  1.00  0.00     0.049 A 
ATOM     53  C   UNL A   1      39.900  30.939  31.018  1.00  0.00     0.074 A 
ATOM     54  C   UNL A   1      46.222  29.812  31.465  1.00  0.00     0.029 A 
ATOM     55  N   UNL A   1      44.410  31.017  31.038  1.00  0.00    -0.354 N 
ATOM     56  N   UNL A   1      40.415  30.467  32.120  1.00  0.00    -0.248 NA
ATOM     57  C   UNL A   1      40.586  32.097  30.456  1.00  0.00     0.031 C 
ATOM     58  C   UNL A   1      45.252  29.606  32.491  1.00  0.00     0.029 A 
ATOM     59  C   UNL A   1      44.095  30.312  32.167  1.00  0.00     0.049 A 
ATOM     60  H   UNL A   1      43.850  31.727  30.648  1.00  0.00     0.167 HD
ATOM     61  C   UNL A   1      41.701  30.970  32.140  1.00  0.00     0.074 A 
ATOM     62  C   UNL A   1      41.689  32.092  31.211  1.00  0.00     0.031 C 
ATOM     63  C   UNL A   1      42.731  30.232  32.646  1.00  0.00     0.037 A 
BRANCH  50  64
ATOM     64  C   UNL A   1      45.892  32.258  28.579  1.00  0.00     0.058 A 
ATOM     65  C   UNL A   1      47.168  32.866  28.609  1.00  0.00     0.135 A 
ATOM     66  C   UNL A   1      44.814  33.138  28.342  1.00  0.00     0.135 A 
ATOM     67  F   UNL A   1      48.270  32.131  28.830  1.00  0.00    -0.206 F 
ATOM     68  C   UNL A   1      47.348  34.246  28.490  1.00  0.00     0.059 A 
ATOM     69  C   UNL A   1      44.977  34.510  28.168  1.00  0.00     0.059 A 
ATOM     70  F   UNL A   1      43.539  32.736  28.364  1.00  0.00    -0.206 F 
ATOM     71  C   UNL A   1      46.241  35.062  28.283  1.00  0.00     0.060 A 
BRANCH  71  72
ATOM     72  S   UNL A   1      46.452  36.850  28.212  1.00  0.00     0.124 S 
ATOM     73  O   UNL A   1      45.070  37.303  28.104  1.00  0.00    -0.237 OA
ATOM     74  O   UNL A   1      47.120  37.127  29.479  1.00  0.00    -0.237 OA
ATOM     75  O   UNL A   1      47.275  37.043  27.022  1.00  0.00    -0.744 OA
ENDBRANCH  71  72
ENDBRANCH  50  64
BRANCH  51  76
ATOM     76  C   UNL A   1      37.608  30.717  29.804  1.00  0.00     0.058 A 
ATOM     77  C   UNL A   1      36.760  31.317  30.753  1.00  0.00     0.135 A 
ATOM     78  C   UNL A   1      37.259  30.904  28.452  1.00  0.00     0.135 A 
ATOM     79  F   UNL A   1      37.026  31.200  32.063  1.00  0.00    -0.206 F 
ATOM     80  C   UNL A   1      35.664  32.103  30.383  1.00  0.00     0.059 A 
ATOM     81  C   UNL A   1      36.169  31.678  28.057  1.00  0.00     0.059 A 
ATOM     82  F   UNL A   1      38.031  30.411  27.470  1.00  0.00    -0.206 F 
ATOM     83  C   UNL A   1      35.390  32.298  29.029  1.00  0.00     0.060 A 
BRANCH  83  84
ATOM     84  S   UNL A   1      34.088  33.459  28.546  1.00  0.00     0.124 S 
ATOM     85  O   UNL A   1      34.788  34.322  27.603  1.00  0.00    -0.237 OA
ATOM     86  O   UNL A   1      33.082  32.571  27.973  1.00  0.00    -0.237 OA
ATOM     87  O   UNL A   1      33.712  34.088  29.809  1.00  0.00    -0.744 OA
ENDBRANCH  83  84
ENDBRANCH  51  76
BRANCH  63  88
ATOM     88  C   UNL A   1      42.399  29.177  33.659  1.00  0.00     0.058 A 
ATOM     89  C   UNL A   1      42.416  27.792  33.424  1.00  0.00     0.135 A 
ATOM     90  C   UNL A   1      42.132  29.605  34.968  1.00  0.00     0.135 A 
ATOM     91  F   UNL A   1      42.741  27.299  32.221  1.00  0.00    -0.206 F 
ATOM     92  C   UNL A   1      42.143  26.875  34.441  1.00  0.00     0.059 A 
ATOM     93  C   UNL A   1      41.888  28.710  36.003  1.00  0.00     0.059 A 
ATOM     94  F   UNL A   1      42.147  30.916  35.263  1.00  0.00    -0.206 F 
ATOM     95  C   UNL A   1      41.881  27.345  35.729  1.00  0.00     0.060 A 
BRANCH  95  96
ATOM     96  S   UNL A   1      41.590  26.161  37.060  1.00  0.00     0.124 S 
ATOM     97  O   UNL A   1      42.817  26.274  37.843  1.00  0.00    -0.237 OA
ATOM     98  O   UNL A   1      40.384  26.685  37.692  1.00  0.00    -0.237 OA
ATOM     99  O   UNL A   1      41.414  24.893  36.356  1.00  0.00    -0.744 OA
ENDBRANCH  95  96
ENDBRANCH  63  88
ENDBRANCH  37  38
ENDBRANCH  29  32
ENDBRANCH  27  28
ENDBRANCH  26  27
ENDBRANCH   1  26
TORSDOF 18
ENDMDL
MODEL 3
REMARK VINA RESULT:     -11.8      2.709      7.334
REMARK SMILES CC(C)[C@H](C)CNC(=O)N1CC(n2cc(C(=O)NCCCCNC(=O)c3ccc(-c4c5nc(c(-c6c(F)cc(S(=O)(=O)[O-])cc6F)c6ccc([nH]6)c(-c6c(F)cc(S(=O)(=O)[O-])cc6F)c6nc(c(-c7c(F)cc(S(=O)(=O)[O-])cc7F)c7ccc4[nH]7)C=C6)C=C5)cc3)nn2)C1
REMARK SMILES IDX 20 1 19 2 18 3 16 4 17 5 15 7 13 8 14 9 93 10 92 11 12 12
REMARK SMILES IDX 7 13 8 14 9 16 10 17 11 18 94 19 6 20 4 21 5 22 2 23 1 24
REMARK SMILES IDX 3 25 21 26 22 27 23 28 24 29 25 31 26 32 27 33 91 34 28 35
REMARK SMILES IDX 90 36 29 37 30 38 31 39 84 40 32 41 89 42 83 43 85 44 33 45
REMARK SMILES IDX 88 46 82 47 81 48 34 50 68 51 47 52 67 53 48 54 51 55 66 56
REMARK SMILES IDX 86 57 49 58 50 59 65 61 87 62 52 63 35 64 36 65 45 66 37 67
REMARK SMILES IDX 38 68 44 69 46 70 39 71 40 72 41 73 42 74 43 75 69 76 70 77
REMARK SMILES IDX 79 78 71 79 72 80 78 81 80 82 73 83 74 84 75 85 76 86 77 87
REMARK SMILES IDX 53 88 54 89 63 90 55 91 56 92 62 93 64 94 57 95 58 96 59 97
REMARK SMILES IDX 60 98 61 99
REMARK H PARENT 18 6 7 15 23 30 85 49 51 60
REMARK Flexibility Score: inf
ROOT
ATOM      1  C   UNL A   1      38.609  22.218  25.970  1.00  0.00     0.023 C 
ENDROOT
BRANCH   1   2
ATOM      2  C   UNL A   1      37.172  22.637  25.647  1.00  0.00     0.116 C 
BRANCH   2   3
ATOM      3  N   UNL A   1      36.303  21.489  25.479  1.00  0.00    -0.351 N 
ATOM      4  C   UNL A   1      35.129  21.311  24.781  1.00  0.00     0.273 C 
ATOM      5  O   UNL A   1      34.664  20.170  24.772  1.00  0.00    -0.267 OA
ATOM      6  H   UNL A   1      36.611  20.683  25.953  1.00  0.00     0.163 HD
BRANCH   4   7
ATOM      7  C   UNL A   1      34.471  22.407  24.075  1.00  0.00     0.170 A 
ATOM      8  N   UNL A   1      33.249  24.061  23.370  1.00  0.00    -0.245 N 
ATOM      9  C   UNL A   1      33.317  23.114  24.354  1.00  0.00     0.145 A 
ATOM     10  N   UNL A   1      34.240  23.916  22.484  1.00  0.00    -0.066 NA
ATOM     11  N   UNL A   1      34.981  22.892  22.885  1.00  0.00    -0.125 NA
BRANCH   8  12
ATOM     12  C   UNL A   1      32.271  25.102  23.342  1.00  0.00     0.148 C 
ATOM     13  N   UNL A   1      31.619  29.196  23.802  1.00  0.00    -0.338 N 
ATOM     14  C   UNL A   1      31.383  28.184  22.932  1.00  0.00     0.317 C 
ATOM     15  H   UNL A   1      30.861  29.808  23.944  1.00  0.00     0.165 HD
ATOM     16  O   UNL A   1      30.419  28.273  22.173  1.00  0.00    -0.249 OA
ATOM     17  N   UNL A   1      32.207  27.107  22.937  1.00  0.00    -0.320 N 
ATOM     18  C   UNL A   1      32.182  25.939  22.060  1.00  0.00     0.150 C 
ATOM     19  C   UNL A   1      32.815  26.369  24.033  1.00  0.00     0.150 C 
BRANCH  13  20
ATOM     20  C   UNL A   1      32.820  29.519  24.558  1.00  0.00     0.121 C 
BRANCH  20  21
ATOM     21  C   UNL A   1      32.521  30.275  25.873  1.00  0.00     0.008 C 
ATOM     22  C   UNL A   1      31.132  30.928  25.812  1.00  0.00     0.010 C 
BRANCH  21  23
ATOM     23  C   UNL A   1      32.740  29.372  27.135  1.00  0.00    -0.013 C 
ATOM     24  C   UNL A   1      31.653  28.308  27.330  1.00  0.00     0.008 C 
ATOM     25  C   UNL A   1      34.114  28.692  27.201  1.00  0.00     0.008 C 
ENDBRANCH  21  23
ENDBRANCH  20  21
ENDBRANCH  13  20
ENDBRANCH   8  12
ENDBRANCH   4   7
ENDBRANCH   2   3
ENDBRANCH   1   2
BRANCH   1  26
ATOM     26  C   UNL A   1      39.051  20.873  25.371  1.00  0.00     0.023 C 
BRANCH  26  27
ATOM     27  C   UNL A   1      39.493  19.821  26.389  1.00  0.00     0.116 C 
BRANCH  27  28
ATOM     28  N   UNL A   1      40.710  19.115  25.985  1.00  0.00    -0.352 N 
ATOM     29  C   UNL A   1      41.973  19.640  25.798  1.00  0.00     0.251 C 
ATOM     30  H   UNL A   1      40.616  18.149  25.828  1.00  0.00     0.163 HD
ATOM     31  O   UNL A   1      42.794  19.053  25.094  1.00  0.00    -0.269 OA
BRANCH  29  32
ATOM     32  C   UNL A   1      42.328  20.905  26.461  1.00  0.00     0.039 A 
ATOM     33  C   UNL A   1      42.708  22.033  25.729  1.00  0.00     0.014 A 
ATOM     34  C   UNL A   1      42.234  20.956  27.850  1.00  0.00     0.014 A 
ATOM     35  C   UNL A   1      42.895  23.240  26.401  1.00  0.00     0.010 A 
ATOM     36  C   UNL A   1      42.291  22.168  28.493  1.00  0.00     0.010 A 
ATOM     37  C   UNL A   1      42.658  23.308  27.784  1.00  0.00    -0.014 A 
BRANCH  37  38
ATOM     38  C   UNL A   1      42.635  24.598  28.475  1.00  0.00     0.031 A 
ATOM     39  C   UNL A   1      41.448  25.436  28.153  1.00  0.00     0.074 A 
ATOM     40  C   UNL A   1      43.464  24.897  29.502  1.00  0.00     0.049 A 
ATOM     41  N   UNL A   1      41.413  26.541  27.485  1.00  0.00    -0.248 NA
ATOM     42  C   UNL A   1      40.111  24.904  28.473  1.00  0.00     0.031 C 
ATOM     43  C   UNL A   1      44.451  24.008  30.130  1.00  0.00     0.029 A 
ATOM     44  N   UNL A   1      43.526  26.011  30.288  1.00  0.00    -0.354 N 
ATOM     45  C   UNL A   1      40.089  26.978  27.546  1.00  0.00     0.074 A 
ATOM     46  C   UNL A   1      39.313  25.837  27.945  1.00  0.00     0.031 C 
ATOM     47  C   UNL A   1      44.821  24.512  31.327  1.00  0.00     0.029 A 
ATOM     48  C   UNL A   1      44.254  25.840  31.462  1.00  0.00     0.049 A 
ATOM     49  H   UNL A   1      43.092  26.862  30.046  1.00  0.00     0.167 HD
ATOM     50  C   UNL A   1      39.796  28.308  27.573  1.00  0.00     0.037 A 
ATOM     51  C   UNL A   1      44.397  26.721  32.484  1.00  0.00     0.037 A 
ATOM     52  C   UNL A   1      40.966  29.085  27.248  1.00  0.00     0.049 A 
ATOM     53  C   UNL A   1      44.111  28.069  31.944  1.00  0.00     0.074 A 
ATOM     54  C   UNL A   1      41.701  29.368  26.119  1.00  0.00     0.029 A 
ATOM     55  N   UNL A   1      41.746  29.386  28.335  1.00  0.00    -0.354 N 
ATOM     56  N   UNL A   1      44.846  28.648  31.034  1.00  0.00    -0.248 NA
ATOM     57  C   UNL A   1      42.791  28.655  32.143  1.00  0.00     0.031 C 
ATOM     58  C   UNL A   1      43.021  29.662  26.572  1.00  0.00     0.029 A 
ATOM     59  C   UNL A   1      43.046  29.596  27.964  1.00  0.00     0.049 A 
ATOM     60  H   UNL A   1      41.414  29.442  29.260  1.00  0.00     0.167 HD
ATOM     61  C   UNL A   1      43.944  29.357  30.266  1.00  0.00     0.074 A 
ATOM     62  C   UNL A   1      42.748  29.475  31.089  1.00  0.00     0.031 C 
ATOM     63  C   UNL A   1      44.127  29.492  28.921  1.00  0.00     0.037 A 
BRANCH  50  64
ATOM     64  C   UNL A   1      38.650  28.950  28.340  1.00  0.00     0.058 A 
ATOM     65  C   UNL A   1      37.829  29.895  27.682  1.00  0.00     0.135 A 
ATOM     66  C   UNL A   1      38.513  28.913  29.745  1.00  0.00     0.135 A 
ATOM     67  F   UNL A   1      37.873  30.025  26.346  1.00  0.00    -0.206 F 
ATOM     68  C   UNL A   1      36.998  30.782  28.372  1.00  0.00     0.059 A 
ATOM     69  C   UNL A   1      37.652  29.752  30.447  1.00  0.00     0.059 A 
ATOM     70  F   UNL A   1      39.275  28.135  30.521  1.00  0.00    -0.206 F 
ATOM     71  C   UNL A   1      36.928  30.710  29.759  1.00  0.00     0.060 A 
BRANCH  71  72
ATOM     72  S   UNL A   1      35.925  31.902  30.664  1.00  0.00     0.124 S 
ATOM     73  O   UNL A   1      34.746  31.999  29.811  1.00  0.00    -0.237 OA
ATOM     74  O   UNL A   1      35.737  31.228  31.945  1.00  0.00    -0.237 OA
ATOM     75  O   UNL A   1      36.774  33.089  30.707  1.00  0.00    -0.744 OA
ENDBRANCH  71  72
ENDBRANCH  50  64
BRANCH  51  76
ATOM     76  C   UNL A   1      44.564  26.453  33.934  1.00  0.00     0.058 A 
ATOM     77  C   UNL A   1      45.807  26.603  34.573  1.00  0.00     0.135 A 
ATOM     78  C   UNL A   1      43.443  26.319  34.777  1.00  0.00     0.135 A 
ATOM     79  F   UNL A   1      46.925  26.750  33.846  1.00  0.00    -0.206 F 
ATOM     80  C   UNL A   1      45.927  26.674  35.965  1.00  0.00     0.059 A 
ATOM     81  C   UNL A   1      43.536  26.382  36.168  1.00  0.00     0.059 A 
ATOM     82  F   UNL A   1      42.206  26.217  34.265  1.00  0.00    -0.206 F 
ATOM     83  C   UNL A   1      44.781  26.587  36.754  1.00  0.00     0.060 A 
BRANCH  83  84
ATOM     84  S   UNL A   1      44.910  26.861  38.539  1.00  0.00     0.124 S 
ATOM     85  O   UNL A   1      46.091  26.076  38.879  1.00  0.00    -0.237 OA
ATOM     86  O   UNL A   1      45.063  28.310  38.617  1.00  0.00    -0.237 OA
ATOM     87  O   UNL A   1      43.645  26.342  39.053  1.00  0.00    -0.744 OA
ENDBRANCH  83  84
ENDBRANCH  51  76
BRANCH  63  88
ATOM     88  C   UNL A   1      45.528  29.382  28.396  1.00  0.00     0.058 A 
ATOM     89  C   UNL A   1      46.500  30.395  28.455  1.00  0.00     0.135 A 
ATOM     90  C   UNL A   1      45.924  28.139  27.879  1.00  0.00     0.135 A 
ATOM     91  F   UNL A   1      46.226  31.584  29.008  1.00  0.00    -0.206 F 
ATOM     92  C   UNL A   1      47.799  30.188  27.987  1.00  0.00     0.059 A 
ATOM     93  C   UNL A   1      47.219  27.902  27.435  1.00  0.00     0.059 A 
ATOM     94  F   UNL A   1      45.050  27.118  27.839  1.00  0.00    -0.206 F 
ATOM     95  C   UNL A   1      48.149  28.937  27.479  1.00  0.00     0.060 A 
BRANCH  95  96
ATOM     96  S   UNL A   1      49.845  28.647  26.932  1.00  0.00     0.124 S 
ATOM     97  O   UNL A   1      50.604  29.538  27.803  1.00  0.00    -0.237 OA
ATOM     98  O   UNL A   1      50.018  27.219  27.179  1.00  0.00    -0.237 OA
ATOM     99  O   UNL A   1      49.817  29.028  25.522  1.00  0.00    -0.744 OA
ENDBRANCH  95  96
ENDBRANCH  63  88
ENDBRANCH  37  38
ENDBRANCH  29  32
ENDBRANCH  27  28
ENDBRANCH  26  27
ENDBRANCH   1  26
TORSDOF 18
ENDMDL
