MODEL 1
REMARK VINA RESULT:     -12.0      0.000      0.000
REMARK SMILES C[C@@H]1CN(C(=O)NC[C@@H]2CC[C@H](C(=O)NCCCCNC(=O)c3ccc(-c4c5nc(c(-c6c(F)cc(S(=O)(=O)[O-])cc6F)c6ccc([nH]6)c(-c6c(F)cc(S(=O)(=O)[O-])cc6F)c6nc(c(-c7c(F)cc(S(=O)(=O)[O-])cc7F)c7ccc4[nH]7)C=C6)C=C5)cc3)O2)CC(C)(C)O1
REMARK SMILES IDX 17 1 16 2 15 3 13 4 14 5 12 7 9 8 10 9 89 10 11 11 8 12 7 13
REMARK SMILES IDX 5 14 6 15 4 17 1 18 2 19 3 20 94 21 91 22 90 23 92 24 93 25
REMARK SMILES IDX 18 26 19 27 20 28 21 29 22 31 23 32 24 33 88 34 25 35 87 36
REMARK SMILES IDX 26 37 27 38 28 39 81 40 29 41 86 42 80 43 82 44 30 45 85 46
REMARK SMILES IDX 79 47 78 48 31 50 65 51 44 52 64 53 45 54 48 55 63 56 83 57
REMARK SMILES IDX 46 58 47 59 62 61 84 62 49 63 32 64 33 65 42 66 34 67 35 68
REMARK SMILES IDX 41 69 43 70 36 71 37 72 38 73 39 74 40 75 66 76 67 77 76 78
REMARK SMILES IDX 68 79 69 80 75 81 77 82 70 83 71 84 72 85 73 86 74 87 50 88
REMARK SMILES IDX 51 89 60 90 52 91 53 92 59 93 61 94 54 95 55 96 56 97 57 98
REMARK SMILES IDX 58 99
REMARK H PARENT 15 6 7 16 20 30 82 49 48 60
REMARK Flexibility Score: inf
ROOT
ATOM      1  C   UNL A   1      33.221  29.328  24.754  1.00  0.00     0.023 C 
ENDROOT
BRANCH   1   2
ATOM      2  C   UNL A   1      33.481  28.955  23.294  1.00  0.00     0.116 C 
BRANCH   2   3
ATOM      3  N   UNL A   1      32.317  29.133  22.455  1.00  0.00    -0.354 N 
ATOM      4  C   UNL A   1      31.041  28.694  22.655  1.00  0.00     0.249 C 
ATOM      5  O   UNL A   1      30.172  29.084  21.867  1.00  0.00    -0.272 OA
ATOM      6  H   UNL A   1      32.465  29.641  21.626  1.00  0.00     0.163 HD
BRANCH   4   7
ATOM      7  C   UNL A   1      30.688  27.644  23.741  1.00  0.00     0.207 C 
ATOM      8  C   UNL A   1      30.336  25.366  24.052  1.00  0.00     0.138 C 
ATOM      9  C   UNL A   1      29.029  25.930  23.526  1.00  0.00     0.037 C 
ATOM     10  O   UNL A   1      31.323  26.361  23.740  1.00  0.00    -0.363 OA
ATOM     11  C   UNL A   1      29.180  27.408  23.784  1.00  0.00     0.045 C 
BRANCH   8  12
ATOM     12  C   UNL A   1      30.654  23.962  23.496  1.00  0.00     0.149 C 
BRANCH  12  13
ATOM     13  N   UNL A   1      31.961  23.832  22.873  1.00  0.00    -0.335 N 
ATOM     14  C   UNL A   1      33.253  23.947  23.226  1.00  0.00     0.317 C 
ATOM     15  O   UNL A   1      34.029  24.040  22.267  1.00  0.00    -0.249 OA
ATOM     16  H   UNL A   1      31.875  23.592  21.922  1.00  0.00     0.165 HD
BRANCH  14  17
ATOM     17  N   UNL A   1      33.708  23.897  24.507  1.00  0.00    -0.319 N 
ATOM     18  C   UNL A   1      33.885  20.814  24.609  1.00  0.00     0.040 C 
ATOM     19  C   UNL A   1      34.121  21.829  25.724  1.00  0.00     0.135 C 
ATOM     20  C   UNL A   1      33.248  23.087  25.622  1.00  0.00     0.153 C 
ATOM     21  O   UNL A   1      35.513  22.163  25.864  1.00  0.00    -0.369 OA
ATOM     22  C   UNL A   1      36.047  23.193  24.993  1.00  0.00     0.081 C 
ATOM     23  C   UNL A   1      35.068  24.384  24.773  1.00  0.00     0.156 C 
ATOM     24  C   UNL A   1      36.511  22.587  23.662  1.00  0.00     0.044 C 
ATOM     25  C   UNL A   1      37.295  23.703  25.734  1.00  0.00     0.044 C 
ENDBRANCH  14  17
ENDBRANCH  12  13
ENDBRANCH   8  12
ENDBRANCH   4   7
ENDBRANCH   2   3
ENDBRANCH   1   2
BRANCH   1  26
ATOM     26  C   UNL A   1      33.932  28.427  25.763  1.00  0.00     0.023 C 
BRANCH  26  27
ATOM     27  C   UNL A   1      33.492  28.620  27.212  1.00  0.00     0.116 C 
BRANCH  27  28
ATOM     28  N   UNL A   1      33.497  30.007  27.657  1.00  0.00    -0.352 N 
ATOM     29  C   UNL A   1      34.558  30.719  28.176  1.00  0.00     0.251 C 
ATOM     30  H   UNL A   1      32.644  30.493  27.578  1.00  0.00     0.163 HD
ATOM     31  O   UNL A   1      34.410  31.872  28.566  1.00  0.00    -0.269 OA
BRANCH  29  32
ATOM     32  C   UNL A   1      35.863  30.036  28.316  1.00  0.00     0.039 A 
ATOM     33  C   UNL A   1      36.766  30.084  27.252  1.00  0.00     0.014 A 
ATOM     34  C   UNL A   1      36.227  29.456  29.533  1.00  0.00     0.014 A 
ATOM     35  C   UNL A   1      38.076  29.639  27.444  1.00  0.00     0.010 A 
ATOM     36  C   UNL A   1      37.549  29.077  29.742  1.00  0.00     0.010 A 
ATOM     37  C   UNL A   1      38.491  29.183  28.706  1.00  0.00    -0.014 A 
BRANCH  37  38
ATOM     38  C   UNL A   1      39.910  28.838  28.977  1.00  0.00     0.031 A 
ATOM     39  C   UNL A   1      40.843  29.876  29.534  1.00  0.00     0.074 A 
ATOM     40  C   UNL A   1      40.379  27.619  28.640  1.00  0.00     0.049 A 
ATOM     41  N   UNL A   1      42.134  29.805  29.735  1.00  0.00    -0.248 NA
ATOM     42  C   UNL A   1      40.251  31.178  29.883  1.00  0.00     0.031 C 
ATOM     43  C   UNL A   1      39.588  26.540  28.044  1.00  0.00     0.029 A 
ATOM     44  N   UNL A   1      41.641  27.087  28.735  1.00  0.00    -0.354 N 
ATOM     45  C   UNL A   1      42.511  31.053  30.213  1.00  0.00     0.074 A 
ATOM     46  C   UNL A   1      41.321  31.877  30.229  1.00  0.00     0.031 C 
ATOM     47  C   UNL A   1      40.376  25.471  27.848  1.00  0.00     0.029 A 
ATOM     48  C   UNL A   1      41.736  25.797  28.267  1.00  0.00     0.049 A 
ATOM     49  H   UNL A   1      42.408  27.582  29.105  1.00  0.00     0.167 HD
ATOM     50  C   UNL A   1      43.734  31.470  30.619  1.00  0.00     0.037 A 
ATOM     51  C   UNL A   1      42.798  24.973  28.180  1.00  0.00     0.037 A 
ATOM     52  C   UNL A   1      44.908  30.640  30.633  1.00  0.00     0.049 A 
ATOM     53  C   UNL A   1      44.143  25.452  28.653  1.00  0.00     0.074 A 
ATOM     54  C   UNL A   1      46.180  30.954  31.078  1.00  0.00     0.029 A 
ATOM     55  N   UNL A   1      44.954  29.328  30.184  1.00  0.00    -0.354 N 
ATOM     56  N   UNL A   1      44.471  26.621  29.148  1.00  0.00    -0.248 NA
ATOM     57  C   UNL A   1      45.261  24.503  28.557  1.00  0.00     0.031 C 
ATOM     58  C   UNL A   1      47.001  29.839  30.877  1.00  0.00     0.029 A 
ATOM     59  C   UNL A   1      46.233  28.821  30.335  1.00  0.00     0.049 A 
ATOM     60  H   UNL A   1      44.189  28.831  29.813  1.00  0.00     0.167 HD
ATOM     61  C   UNL A   1      45.826  26.540  29.447  1.00  0.00     0.074 A 
ATOM     62  C   UNL A   1      46.256  25.206  29.080  1.00  0.00     0.031 C 
ATOM     63  C   UNL A   1      46.640  27.485  29.978  1.00  0.00     0.037 A 
BRANCH  50  64
ATOM     64  C   UNL A   1      43.854  32.892  31.091  1.00  0.00     0.058 A 
ATOM     65  C   UNL A   1      43.627  33.240  32.432  1.00  0.00     0.135 A 
ATOM     66  C   UNL A   1      44.206  33.915  30.198  1.00  0.00     0.135 A 
ATOM     67  F   UNL A   1      43.270  32.300  33.322  1.00  0.00    -0.206 F 
ATOM     68  C   UNL A   1      43.710  34.559  32.864  1.00  0.00     0.059 A 
ATOM     69  C   UNL A   1      44.320  35.239  30.613  1.00  0.00     0.059 A 
ATOM     70  F   UNL A   1      44.435  33.636  28.905  1.00  0.00    -0.206 F 
ATOM     71  C   UNL A   1      44.050  35.552  31.946  1.00  0.00     0.060 A 
BRANCH  71  72
ATOM     72  S   UNL A   1      44.141  37.262  32.516  1.00  0.00     0.124 S 
ATOM     73  O   UNL A   1      45.538  37.355  32.932  1.00  0.00    -0.237 OA
ATOM     74  O   UNL A   1      43.787  38.014  31.316  1.00  0.00    -0.237 OA
ATOM     75  O   UNL A   1      43.160  37.313  33.595  1.00  0.00    -0.744 OA
ENDBRANCH  71  72
ENDBRANCH  50  64
BRANCH  51  76
ATOM     76  C   UNL A   1      42.626  23.595  27.648  1.00  0.00     0.058 A 
ATOM     77  C   UNL A   1      42.714  23.344  26.271  1.00  0.00     0.135 A 
ATOM     78  C   UNL A   1      42.389  22.506  28.499  1.00  0.00     0.135 A 
ATOM     79  F   UNL A   1      42.932  24.356  25.418  1.00  0.00    -0.206 F 
ATOM     80  C   UNL A   1      42.563  22.062  25.753  1.00  0.00     0.059 A 
ATOM     81  C   UNL A   1      42.254  21.211  28.007  1.00  0.00     0.059 A 
ATOM     82  F   UNL A   1      42.313  22.693  29.826  1.00  0.00    -0.206 F 
ATOM     83  C   UNL A   1      42.334  21.000  26.631  1.00  0.00     0.060 A 
BRANCH  83  84
ATOM     84  S   UNL A   1      42.196  19.330  25.955  1.00  0.00     0.124 S 
ATOM     85  O   UNL A   1      42.720  18.526  27.052  1.00  0.00    -0.237 OA
ATOM     86  O   UNL A   1      40.762  19.216  25.707  1.00  0.00    -0.237 OA
ATOM     87  O   UNL A   1      43.027  19.386  24.756  1.00  0.00    -0.744 OA
ENDBRANCH  83  84
ENDBRANCH  51  76
BRANCH  63  88
ATOM     88  C   UNL A   1      48.071  27.105  30.229  1.00  0.00     0.058 A 
ATOM     89  C   UNL A   1      49.083  27.400  29.304  1.00  0.00     0.135 A 
ATOM     90  C   UNL A   1      48.442  26.503  31.443  1.00  0.00     0.135 A 
ATOM     91  F   UNL A   1      48.776  27.967  28.127  1.00  0.00    -0.206 F 
ATOM     92  C   UNL A   1      50.415  27.103  29.568  1.00  0.00     0.059 A 
ATOM     93  C   UNL A   1      49.771  26.216  31.737  1.00  0.00     0.059 A 
ATOM     94  F   UNL A   1      47.511  26.208  32.363  1.00  0.00    -0.206 F 
ATOM     95  C   UNL A   1      50.750  26.514  30.789  1.00  0.00     0.060 A 
BRANCH  95  96
ATOM     96  S   UNL A   1      52.489  26.183  31.147  1.00  0.00     0.124 S 
ATOM     97  O   UNL A   1      52.417  24.859  31.755  1.00  0.00    -0.237 OA
ATOM     98  O   UNL A   1      53.099  26.241  29.822  1.00  0.00    -0.237 OA
ATOM     99  O   UNL A   1      52.862  27.270  32.048  1.00  0.00    -0.744 OA
ENDBRANCH  95  96
ENDBRANCH  63  88
ENDBRANCH  37  38
ENDBRANCH  29  32
ENDBRANCH  27  28
ENDBRANCH  26  27
ENDBRANCH   1  26
TORSDOF 17
ENDMDL
MODEL 2
REMARK VINA RESULT:     -11.1      0.767      1.629
REMARK SMILES C[C@@H]1CN(C(=O)NC[C@@H]2CC[C@H](C(=O)NCCCCNC(=O)c3ccc(-c4c5nc(c(-c6c(F)cc(S(=O)(=O)[O-])cc6F)c6ccc([nH]6)c(-c6c(F)cc(S(=O)(=O)[O-])cc6F)c6nc(c(-c7c(F)cc(S(=O)(=O)[O-])cc7F)c7ccc4[nH]7)C=C6)C=C5)cc3)O2)CC(C)(C)O1
REMARK SMILES IDX 17 1 16 2 15 3 13 4 14 5 12 7 9 8 10 9 89 10 11 11 8 12 7 13
REMARK SMILES IDX 5 14 6 15 4 17 1 18 2 19 3 20 94 21 91 22 90 23 92 24 93 25
REMARK SMILES IDX 18 26 19 27 20 28 21 29 22 31 23 32 24 33 88 34 25 35 87 36
REMARK SMILES IDX 26 37 27 38 28 39 81 40 29 41 86 42 80 43 82 44 30 45 85 46
REMARK SMILES IDX 79 47 78 48 31 50 65 51 44 52 64 53 45 54 48 55 63 56 83 57
REMARK SMILES IDX 46 58 47 59 62 61 84 62 49 63 32 64 33 65 42 66 34 67 35 68
REMARK SMILES IDX 41 69 43 70 36 71 37 72 38 73 39 74 40 75 66 76 67 77 76 78
REMARK SMILES IDX 68 79 69 80 75 81 77 82 70 83 71 84 72 85 73 86 74 87 50 88
REMARK SMILES IDX 51 89 60 90 52 91 53 92 59 93 61 94 54 95 55 96 56 97 57 98
REMARK SMILES IDX 58 99
REMARK H PARENT 15 6 7 16 20 30 82 49 48 60
REMARK Flexibility Score: inf
ROOT
ATOM      1  C   UNL A   1      31.367  28.095  26.292  1.00  0.00     0.023 C 
ENDROOT
BRANCH   1   2
ATOM      2  C   UNL A   1      31.938  28.854  25.093  1.00  0.00     0.116 C 
BRANCH   2   3
ATOM      3  N   UNL A   1      30.978  29.755  24.493  1.00  0.00    -0.354 N 
ATOM      4  C   UNL A   1      29.914  29.463  23.692  1.00  0.00     0.249 C 
ATOM      5  O   UNL A   1      29.145  30.387  23.405  1.00  0.00    -0.272 OA
ATOM      6  H   UNL A   1      31.112  30.709  24.690  1.00  0.00     0.163 HD
BRANCH   4   7
ATOM      7  C   UNL A   1      29.723  28.065  23.046  1.00  0.00     0.207 C 
ATOM      8  C   UNL A   1      30.476  25.867  23.161  1.00  0.00     0.138 C 
ATOM      9  C   UNL A   1      31.491  26.620  22.321  1.00  0.00     0.037 C 
ATOM     10  O   UNL A   1      29.740  26.885  23.856  1.00  0.00    -0.363 OA
ATOM     11  C   UNL A   1      30.732  27.859  21.917  1.00  0.00     0.045 C 
BRANCH   8  12
ATOM     12  C   UNL A   1      31.121  24.811  24.082  1.00  0.00     0.149 C 
BRANCH  12  13
ATOM     13  N   UNL A   1      32.148  23.996  23.453  1.00  0.00    -0.335 N 
ATOM     14  C   UNL A   1      33.405  23.595  23.711  1.00  0.00     0.317 C 
ATOM     15  O   UNL A   1      34.001  23.144  22.726  1.00  0.00    -0.249 OA
ATOM     16  H   UNL A   1      31.833  23.635  22.593  1.00  0.00     0.165 HD
BRANCH  14  17
ATOM     17  N   UNL A   1      33.976  23.605  24.946  1.00  0.00    -0.319 N 
ATOM     18  C   UNL A   1      34.480  20.557  25.031  1.00  0.00     0.040 C 
ATOM     19  C   UNL A   1      34.710  21.601  26.120  1.00  0.00     0.135 C 
ATOM     20  C   UNL A   1      33.706  22.762  26.098  1.00  0.00     0.153 C 
ATOM     21  O   UNL A   1      36.067  22.078  26.133  1.00  0.00    -0.369 OA
ATOM     22  C   UNL A   1      36.411  23.149  25.217  1.00  0.00     0.081 C 
ATOM     23  C   UNL A   1      35.297  24.232  25.087  1.00  0.00     0.156 C 
ATOM     24  C   UNL A   1      36.812  22.582  23.849  1.00  0.00     0.044 C 
ATOM     25  C   UNL A   1      37.661  23.792  25.841  1.00  0.00     0.044 C 
ENDBRANCH  14  17
ENDBRANCH  12  13
ENDBRANCH   8  12
ENDBRANCH   4   7
ENDBRANCH   2   3
ENDBRANCH   1   2
BRANCH   1  26
ATOM     26  C   UNL A   1      32.291  28.067  27.508  1.00  0.00     0.023 C 
BRANCH  26  27
ATOM     27  C   UNL A   1      33.618  28.801  27.320  1.00  0.00     0.116 C 
BRANCH  27  28
ATOM     28  N   UNL A   1      33.606  30.181  27.781  1.00  0.00    -0.352 N 
ATOM     29  C   UNL A   1      34.649  30.888  28.342  1.00  0.00     0.251 C 
ATOM     30  H   UNL A   1      32.756  30.668  27.680  1.00  0.00     0.163 HD
ATOM     31  O   UNL A   1      34.487  32.036  28.742  1.00  0.00    -0.269 OA
BRANCH  29  32
ATOM     32  C   UNL A   1      35.949  30.204  28.516  1.00  0.00     0.039 A 
ATOM     33  C   UNL A   1      36.869  30.228  27.465  1.00  0.00     0.014 A 
ATOM     34  C   UNL A   1      36.294  29.649  29.751  1.00  0.00     0.014 A 
ATOM     35  C   UNL A   1      38.174  29.783  27.686  1.00  0.00     0.010 A 
ATOM     36  C   UNL A   1      37.611  29.271  29.987  1.00  0.00     0.010 A 
ATOM     37  C   UNL A   1      38.569  29.353  28.963  1.00  0.00    -0.014 A 
BRANCH  37  38
ATOM     38  C   UNL A   1      39.983  29.010  29.262  1.00  0.00     0.031 A 
ATOM     39  C   UNL A   1      40.887  30.032  29.892  1.00  0.00     0.074 A 
ATOM     40  C   UNL A   1      40.475  27.812  28.887  1.00  0.00     0.049 A 
ATOM     41  N   UNL A   1      42.172  29.963  30.130  1.00  0.00    -0.248 NA
ATOM     42  C   UNL A   1      40.271  31.311  30.279  1.00  0.00     0.031 C 
ATOM     43  C   UNL A   1      39.714  26.752  28.220  1.00  0.00     0.029 A 
ATOM     44  N   UNL A   1      41.739  27.287  28.998  1.00  0.00    -0.354 N 
ATOM     45  C   UNL A   1      42.521  31.193  30.673  1.00  0.00     0.074 A 
ATOM     46  C   UNL A   1      41.322  32.004  30.689  1.00  0.00     0.031 C 
ATOM     47  C   UNL A   1      40.519  25.700  28.002  1.00  0.00     0.029 A 
ATOM     48  C   UNL A   1      41.862  26.020  28.477  1.00  0.00     0.049 A 
ATOM     49  H   UNL A   1      42.489  27.773  29.413  1.00  0.00     0.167 HD
ATOM     50  C   UNL A   1      43.726  31.604  31.135  1.00  0.00     0.037 A 
ATOM     51  C   UNL A   1      42.935  25.211  28.387  1.00  0.00     0.037 A 
ATOM     52  C   UNL A   1      44.908  30.784  31.148  1.00  0.00     0.049 A 
ATOM     53  C   UNL A   1      44.260  25.682  28.922  1.00  0.00     0.074 A 
ATOM     54  C   UNL A   1      46.163  31.090  31.646  1.00  0.00     0.029 A 
ATOM     55  N   UNL A   1      44.982  29.493  30.645  1.00  0.00    -0.354 N 
ATOM     56  N   UNL A   1      44.560  26.830  29.477  1.00  0.00    -0.248 NA
ATOM     57  C   UNL A   1      45.390  24.748  28.819  1.00  0.00     0.031 C 
ATOM     58  C   UNL A   1      47.002  29.993  31.421  1.00  0.00     0.029 A 
ATOM     59  C   UNL A   1      46.262  28.993  30.812  1.00  0.00     0.049 A 
ATOM     60  H   UNL A   1      44.234  29.006  30.229  1.00  0.00     0.167 HD
ATOM     61  C   UNL A   1      45.906  26.749  29.814  1.00  0.00     0.074 A 
ATOM     62  C   UNL A   1      46.361  25.436  29.403  1.00  0.00     0.031 C 
ATOM     63  C   UNL A   1      46.694  27.678  30.410  1.00  0.00     0.037 A 
BRANCH  50  64
ATOM     64  C   UNL A   1      43.817  33.004  31.671  1.00  0.00     0.058 A 
ATOM     65  C   UNL A   1      44.178  34.082  30.846  1.00  0.00     0.135 A 
ATOM     66  C   UNL A   1      43.531  33.275  33.018  1.00  0.00     0.135 A 
ATOM     67  F   UNL A   1      44.477  33.873  29.555  1.00  0.00    -0.206 F 
ATOM     68  C   UNL A   1      44.290  35.374  31.347  1.00  0.00     0.059 A 
ATOM     69  C   UNL A   1      43.611  34.565  33.535  1.00  0.00     0.059 A 
ATOM     70  F   UNL A   1      43.180  32.281  33.848  1.00  0.00    -0.206 F 
ATOM     71  C   UNL A   1      44.011  35.604  32.695  1.00  0.00     0.060 A 
BRANCH  71  72
ATOM     72  S   UNL A   1      44.172  37.284  33.336  1.00  0.00     0.124 S 
ATOM     73  O   UNL A   1      45.557  37.286  33.799  1.00  0.00    -0.237 OA
ATOM     74  O   UNL A   1      43.897  38.100  32.158  1.00  0.00    -0.237 OA
ATOM     75  O   UNL A   1      43.160  37.345  34.386  1.00  0.00    -0.744 OA
ENDBRANCH  71  72
ENDBRANCH  50  64
BRANCH  51  76
ATOM     76  C   UNL A   1      42.794  23.856  27.790  1.00  0.00     0.058 A 
ATOM     77  C   UNL A   1      42.910  23.669  26.405  1.00  0.00     0.135 A 
ATOM     78  C   UNL A   1      42.560  22.726  28.588  1.00  0.00     0.135 A 
ATOM     79  F   UNL A   1      43.127  24.721  25.603  1.00  0.00    -0.206 F 
ATOM     80  C   UNL A   1      42.788  22.410  25.828  1.00  0.00     0.059 A 
ATOM     81  C   UNL A   1      42.454  21.453  28.036  1.00  0.00     0.059 A 
ATOM     82  F   UNL A   1      42.458  22.851  29.920  1.00  0.00    -0.206 F 
ATOM     83  C   UNL A   1      42.561  21.306  26.653  1.00  0.00     0.060 A 
BRANCH  83  84
ATOM     84  S   UNL A   1      42.461  19.666  25.900  1.00  0.00     0.124 S 
ATOM     85  O   UNL A   1      41.061  19.614  25.497  1.00  0.00    -0.237 OA
ATOM     86  O   UNL A   1      43.434  19.763  24.817  1.00  0.00    -0.237 OA
ATOM     87  O   UNL A   1      42.840  18.774  26.993  1.00  0.00    -0.744 OA
ENDBRANCH  83  84
ENDBRANCH  51  76
BRANCH  63  88
ATOM     88  C   UNL A   1      48.120  27.301  30.689  1.00  0.00     0.058 A 
ATOM     89  C   UNL A   1      48.478  26.579  31.837  1.00  0.00     0.135 A 
ATOM     90  C   UNL A   1      49.129  27.605  29.760  1.00  0.00     0.135 A 
ATOM     91  F   UNL A   1      47.550  26.272  32.757  1.00  0.00    -0.206 F 
ATOM     92  C   UNL A   1      49.790  26.177  32.060  1.00  0.00     0.059 A 
ATOM     93  C   UNL A   1      50.444  27.195  29.954  1.00  0.00     0.059 A 
ATOM     94  F   UNL A   1      48.835  28.288  28.643  1.00  0.00    -0.206 F 
ATOM     95  C   UNL A   1      50.766  26.487  31.111  1.00  0.00     0.060 A 
BRANCH  95  96
ATOM     96  S   UNL A   1      52.457  25.914  31.383  1.00  0.00     0.124 S 
ATOM     97  O   UNL A   1      53.016  26.001  30.039  1.00  0.00    -0.237 OA
ATOM     98  O   UNL A   1      52.967  26.885  32.346  1.00  0.00    -0.237 OA
ATOM     99  O   UNL A   1      52.276  24.562  31.903  1.00  0.00    -0.744 OA
ENDBRANCH  95  96
ENDBRANCH  63  88
ENDBRANCH  37  38
ENDBRANCH  29  32
ENDBRANCH  27  28
ENDBRANCH  26  27
ENDBRANCH   1  26
TORSDOF 17
ENDMDL
MODEL 3
REMARK VINA RESULT:     -11.0      4.746     10.524
REMARK SMILES C[C@@H]1CN(C(=O)NC[C@@H]2CC[C@H](C(=O)NCCCCNC(=O)c3ccc(-c4c5nc(c(-c6c(F)cc(S(=O)(=O)[O-])cc6F)c6ccc([nH]6)c(-c6c(F)cc(S(=O)(=O)[O-])cc6F)c6nc(c(-c7c(F)cc(S(=O)(=O)[O-])cc7F)c7ccc4[nH]7)C=C6)C=C5)cc3)O2)CC(C)(C)O1
REMARK SMILES IDX 17 1 16 2 15 3 13 4 14 5 12 7 9 8 10 9 89 10 11 11 8 12 7 13
REMARK SMILES IDX 5 14 6 15 4 17 1 18 2 19 3 20 94 21 91 22 90 23 92 24 93 25
REMARK SMILES IDX 18 26 19 27 20 28 21 29 22 31 23 32 24 33 88 34 25 35 87 36
REMARK SMILES IDX 26 37 27 38 28 39 81 40 29 41 86 42 80 43 82 44 30 45 85 46
REMARK SMILES IDX 79 47 78 48 31 50 65 51 44 52 64 53 45 54 48 55 63 56 83 57
REMARK SMILES IDX 46 58 47 59 62 61 84 62 49 63 32 64 33 65 42 66 34 67 35 68
REMARK SMILES IDX 41 69 43 70 36 71 37 72 38 73 39 74 40 75 66 76 67 77 76 78
REMARK SMILES IDX 68 79 69 80 75 81 77 82 70 83 71 84 72 85 73 86 74 87 50 88
REMARK SMILES IDX 51 89 60 90 52 91 53 92 59 93 61 94 54 95 55 96 56 97 57 98
REMARK SMILES IDX 58 99
REMARK H PARENT 15 6 7 16 20 30 82 49 48 60
REMARK Flexibility Score: inf
ROOT
ATOM      1  C   UNL A   1      40.137  21.925  27.383  1.00  0.00     0.023 C 
ENDROOT
BRANCH   1   2
ATOM      2  C   UNL A   1      39.300  21.713  26.121  1.00  0.00     0.116 C 
BRANCH   2   3
ATOM      3  N   UNL A   1      38.532  22.882  25.756  1.00  0.00    -0.354 N 
ATOM      4  C   UNL A   1      37.182  23.007  25.605  1.00  0.00     0.249 C 
ATOM      5  O   UNL A   1      36.731  24.144  25.421  1.00  0.00    -0.272 OA
ATOM      6  H   UNL A   1      39.054  23.700  25.595  1.00  0.00     0.163 HD
BRANCH   4   7
ATOM      7  C   UNL A   1      36.240  21.777  25.531  1.00  0.00     0.207 C 
ATOM      8  C   UNL A   1      34.158  21.098  24.746  1.00  0.00     0.138 C 
ATOM      9  C   UNL A   1      33.908  21.781  26.078  1.00  0.00     0.037 C 
ATOM     10  O   UNL A   1      35.470  21.525  24.351  1.00  0.00    -0.363 OA
ATOM     11  C   UNL A   1      35.274  21.774  26.715  1.00  0.00     0.045 C 
BRANCH   8  12
ATOM     12  C   UNL A   1      33.057  21.387  23.705  1.00  0.00     0.149 C 
BRANCH  12  13
ATOM     13  N   UNL A   1      33.206  22.644  22.989  1.00  0.00    -0.335 N 
ATOM     14  C   UNL A   1      32.617  23.851  22.954  1.00  0.00     0.317 C 
ATOM     15  O   UNL A   1      32.901  24.521  21.952  1.00  0.00    -0.249 OA
ATOM     16  H   UNL A   1      33.951  22.596  22.346  1.00  0.00     0.165 HD
BRANCH  14  17
ATOM     17  N   UNL A   1      31.831  24.353  23.945  1.00  0.00    -0.319 N 
ATOM     18  C   UNL A   1      33.595  26.840  24.452  1.00  0.00     0.040 C 
ATOM     19  C   UNL A   1      32.359  26.366  25.212  1.00  0.00     0.135 C 
ATOM     20  C   UNL A   1      32.202  24.839  25.263  1.00  0.00     0.153 C 
ATOM     21  O   UNL A   1      31.158  27.003  24.741  1.00  0.00    -0.369 OA
ATOM     22  C   UNL A   1      30.504  26.429  23.580  1.00  0.00     0.081 C 
ATOM     23  C   UNL A   1      30.508  24.871  23.577  1.00  0.00     0.156 C 
ATOM     24  C   UNL A   1      31.101  26.999  22.287  1.00  0.00     0.044 C 
ATOM     25  C   UNL A   1      29.052  26.925  23.683  1.00  0.00     0.044 C 
ENDBRANCH  14  17
ENDBRANCH  12  13
ENDBRANCH   8  12
ENDBRANCH   4   7
ENDBRANCH   2   3
ENDBRANCH   1   2
BRANCH   1  26
ATOM     26  C   UNL A   1      41.645  21.847  27.151  1.00  0.00     0.023 C 
BRANCH  26  27
ATOM     27  C   UNL A   1      42.354  23.199  27.098  1.00  0.00     0.116 C 
BRANCH  27  28
ATOM     28  N   UNL A   1      41.958  24.036  25.975  1.00  0.00    -0.352 N 
ATOM     29  C   UNL A   1      41.585  25.363  26.007  1.00  0.00     0.251 C 
ATOM     30  H   UNL A   1      41.956  23.605  25.089  1.00  0.00     0.163 HD
ATOM     31  O   UNL A   1      41.218  25.937  24.987  1.00  0.00    -0.269 OA
BRANCH  29  32
ATOM     32  C   UNL A   1      41.570  26.058  27.313  1.00  0.00     0.039 A 
ATOM     33  C   UNL A   1      42.629  26.910  27.635  1.00  0.00     0.014 A 
ATOM     34  C   UNL A   1      40.459  25.955  28.154  1.00  0.00     0.014 A 
ATOM     35  C   UNL A   1      42.527  27.737  28.755  1.00  0.00     0.010 A 
ATOM     36  C   UNL A   1      40.331  26.828  29.228  1.00  0.00     0.010 A 
ATOM     37  C   UNL A   1      41.354  27.742  29.528  1.00  0.00    -0.014 A 
BRANCH  37  38
ATOM     38  C   UNL A   1      41.162  28.710  30.638  1.00  0.00     0.031 A 
ATOM     39  C   UNL A   1      42.013  28.616  31.873  1.00  0.00     0.074 A 
ATOM     40  C   UNL A   1      40.166  29.616  30.571  1.00  0.00     0.049 A 
ATOM     41  N   UNL A   1      41.927  29.294  32.989  1.00  0.00    -0.248 NA
ATOM     42  C   UNL A   1      43.083  27.606  31.863  1.00  0.00     0.031 C 
ATOM     43  C   UNL A   1      39.237  29.776  29.449  1.00  0.00     0.029 A 
ATOM     44  N   UNL A   1      39.756  30.565  31.474  1.00  0.00    -0.354 N 
ATOM     45  C   UNL A   1      42.914  28.780  33.820  1.00  0.00     0.074 A 
ATOM     46  C   UNL A   1      43.558  27.704  33.096  1.00  0.00     0.031 C 
ATOM     47  C   UNL A   1      38.383  30.775  29.722  1.00  0.00     0.029 A 
ATOM     48  C   UNL A   1      38.675  31.304  31.050  1.00  0.00     0.049 A 
ATOM     49  H   UNL A   1      40.195  30.706  32.344  1.00  0.00     0.167 HD
ATOM     50  C   UNL A   1      43.267  29.179  35.065  1.00  0.00     0.037 A 
ATOM     51  C   UNL A   1      37.994  32.291  31.665  1.00  0.00     0.037 A 
ATOM     52  C   UNL A   1      42.647  30.270  35.769  1.00  0.00     0.049 A 
ATOM     53  C   UNL A   1      38.414  32.729  33.041  1.00  0.00     0.074 A 
ATOM     54  C   UNL A   1      42.970  30.787  37.012  1.00  0.00     0.029 A 
ATOM     55  N   UNL A   1      41.580  31.016  35.290  1.00  0.00    -0.354 N 
ATOM     56  N   UNL A   1      39.383  32.264  33.792  1.00  0.00    -0.248 NA
ATOM     57  C   UNL A   1      37.650  33.826  33.653  1.00  0.00     0.031 C 
ATOM     58  C   UNL A   1      42.082  31.830  37.295  1.00  0.00     0.029 A 
ATOM     59  C   UNL A   1      41.227  31.983  36.216  1.00  0.00     0.049 A 
ATOM     60  H   UNL A   1      41.139  30.877  34.421  1.00  0.00     0.167 HD
ATOM     61  C   UNL A   1      39.363  33.027  34.954  1.00  0.00     0.074 A 
ATOM     62  C   UNL A   1      38.288  33.987  34.804  1.00  0.00     0.031 C 
ATOM     63  C   UNL A   1      40.163  32.940  36.044  1.00  0.00     0.037 A 
BRANCH  50  64
ATOM     64  C   UNL A   1      44.382  28.431  35.737  1.00  0.00     0.058 A 
ATOM     65  C   UNL A   1      44.127  27.332  36.574  1.00  0.00     0.135 A 
ATOM     66  C   UNL A   1      45.719  28.808  35.539  1.00  0.00     0.135 A 
ATOM     67  F   UNL A   1      42.865  26.942  36.809  1.00  0.00    -0.206 F 
ATOM     68  C   UNL A   1      45.156  26.656  37.219  1.00  0.00     0.059 A 
ATOM     69  C   UNL A   1      46.768  28.130  36.154  1.00  0.00     0.059 A 
ATOM     70  F   UNL A   1      46.018  29.850  34.748  1.00  0.00    -0.206 F 
ATOM     71  C   UNL A   1      46.473  27.067  37.009  1.00  0.00     0.060 A 
BRANCH  71  72
ATOM     72  S   UNL A   1      47.799  26.190  37.863  1.00  0.00     0.124 S 
ATOM     73  O   UNL A   1      48.983  26.796  37.260  1.00  0.00    -0.237 OA
ATOM     74  O   UNL A   1      47.555  26.532  39.261  1.00  0.00    -0.237 OA
ATOM     75  O   UNL A   1      47.563  24.793  37.514  1.00  0.00    -0.744 OA
ENDBRANCH  71  72
ENDBRANCH  50  64
BRANCH  51  76
ATOM     76  C   UNL A   1      36.859  32.953  30.969  1.00  0.00     0.058 A 
ATOM     77  C   UNL A   1      35.534  32.646  31.310  1.00  0.00     0.135 A 
ATOM     78  C   UNL A   1      37.073  33.912  29.968  1.00  0.00     0.135 A 
ATOM     79  F   UNL A   1      35.280  31.730  32.256  1.00  0.00    -0.206 F 
ATOM     80  C   UNL A   1      34.458  33.259  30.676  1.00  0.00     0.059 A 
ATOM     81  C   UNL A   1      36.014  34.553  29.333  1.00  0.00     0.059 A 
ATOM     82  F   UNL A   1      38.324  34.252  29.618  1.00  0.00    -0.206 F 
ATOM     83  C   UNL A   1      34.709  34.214  29.689  1.00  0.00     0.060 A 
BRANCH  83  84
ATOM     84  S   UNL A   1      33.306  35.046  28.910  1.00  0.00     0.124 S 
ATOM     85  O   UNL A   1      33.958  36.181  28.269  1.00  0.00    -0.237 OA
ATOM     86  O   UNL A   1      32.793  34.014  28.015  1.00  0.00    -0.237 OA
ATOM     87  O   UNL A   1      32.441  35.367  30.042  1.00  0.00    -0.744 OA
ENDBRANCH  83  84
ENDBRANCH  51  76
BRANCH  63  88
ATOM     88  C   UNL A   1      39.935  33.929  37.151  1.00  0.00     0.058 A 
ATOM     89  C   UNL A   1      39.061  33.654  38.213  1.00  0.00     0.135 A 
ATOM     90  C   UNL A   1      40.654  35.135  37.184  1.00  0.00     0.135 A 
ATOM     91  F   UNL A   1      38.346  32.518  38.222  1.00  0.00    -0.206 F 
ATOM     92  C   UNL A   1      38.901  34.545  39.269  1.00  0.00     0.059 A 
ATOM     93  C   UNL A   1      40.524  36.031  38.240  1.00  0.00     0.059 A 
ATOM     94  F   UNL A   1      41.507  35.441  36.194  1.00  0.00    -0.206 F 
ATOM     95  C   UNL A   1      39.639  35.730  39.275  1.00  0.00     0.060 A 
BRANCH  95  96
ATOM     96  S   UNL A   1      39.466  36.855  40.676  1.00  0.00     0.124 S 
ATOM     97  O   UNL A   1      38.289  37.626  40.291  1.00  0.00    -0.237 OA
ATOM     98  O   UNL A   1      39.283  35.937  41.797  1.00  0.00    -0.237 OA
ATOM     99  O   UNL A   1      40.727  37.591  40.678  1.00  0.00    -0.744 OA
ENDBRANCH  95  96
ENDBRANCH  63  88
ENDBRANCH  37  38
ENDBRANCH  29  32
ENDBRANCH  27  28
ENDBRANCH  26  27
ENDBRANCH   1  26
TORSDOF 17
ENDMDL
