MODEL 1
REMARK VINA RESULT:     -10.7      0.000      0.000
REMARK SMILES COc1ccc(C[C@H](C)[C@](O)(C(=O)NCCCCNC(=O)c2ccc(-c3c4nc(c(-c5c(F)cc(S(=O)(=O)[O-])cc5F)c5ccc([nH]5)c(-c5c(F)cc(S(=O)(=O)[O-])cc5F)c5nc(c(-c6c(F)cc(S(=O)(=O)[O-])cc6F)c6ccc3[nH]6)C=C5)C=C4)cc2)C(C)C)cc1OC
REMARK SMILES IDX 16 1 15 2 14 3 12 4 13 5 10 7 8 8 9 9 7 10 6 11 3 12 4 13
REMARK SMILES IDX 92 14 5 15 91 16 2 17 1 18 93 19 94 20 88 21 89 22 90 23
REMARK SMILES IDX 11 24 17 26 18 27 19 28 20 29 21 31 22 32 23 33 87 34 24 35
REMARK SMILES IDX 86 36 25 37 26 38 27 39 80 40 28 41 85 42 79 43 81 44 29 45
REMARK SMILES IDX 84 46 78 47 77 48 30 50 64 51 43 52 63 53 44 54 47 55 62 56
REMARK SMILES IDX 82 57 45 58 46 59 61 61 83 62 48 63 31 64 32 65 41 66 33 67
REMARK SMILES IDX 34 68 40 69 42 70 35 71 36 72 37 73 38 74 39 75 65 76 66 77
REMARK SMILES IDX 75 78 67 79 68 80 74 81 76 82 69 83 70 84 71 85 72 86 73 87
REMARK SMILES IDX 49 88 50 89 59 90 51 91 52 92 58 93 60 94 53 95 54 96 55 97
REMARK SMILES IDX 56 98 57 99
REMARK H PARENT 14 6 11 25 19 30 81 49 47 60
REMARK Flexibility Score: inf
ROOT
ATOM      1  C   UNL A   1      32.564  26.952  26.080  1.00  0.00     0.023 C 
ENDROOT
BRANCH   1   2
ATOM      2  C   UNL A   1      32.698  25.465  26.381  1.00  0.00     0.116 C 
BRANCH   2   3
ATOM      3  N   UNL A   1      31.468  24.830  26.800  1.00  0.00    -0.354 N 
ATOM      4  C   UNL A   1      31.076  23.525  26.708  1.00  0.00     0.252 C 
ATOM      5  O   UNL A   1      30.153  23.181  27.456  1.00  0.00    -0.272 OA
ATOM      6  H   UNL A   1      30.810  25.432  27.215  1.00  0.00     0.163 HD
BRANCH   4   7
ATOM      7  C   UNL A   1      31.767  22.480  25.736  1.00  0.00     0.148 C 
BRANCH   7   8
ATOM      8  C   UNL A   1      31.835  23.211  24.326  1.00  0.00     0.032 C 
ATOM      9  C   UNL A   1      32.510  22.456  23.181  1.00  0.00     0.011 C 
BRANCH   8  10
ATOM     10  C   UNL A   1      30.530  23.900  23.820  1.00  0.00     0.042 C 
BRANCH  10  11
ATOM     11  C   UNL A   1      30.444  25.390  23.542  1.00  0.00    -0.044 A 
ATOM     12  C   UNL A   1      30.183  28.078  22.683  1.00  0.00     0.160 A 
ATOM     13  C   UNL A   1      29.142  27.440  23.365  1.00  0.00     0.051 A 
ATOM     14  C   UNL A   1      31.382  27.395  22.458  1.00  0.00     0.160 A 
ATOM     15  C   UNL A   1      29.262  26.105  23.767  1.00  0.00     0.008 A 
ATOM     16  C   UNL A   1      31.497  26.063  22.898  1.00  0.00     0.054 A 
BRANCH  12  17
ATOM     17  O   UNL A   1      30.029  29.385  22.303  1.00  0.00    -0.493 OA
ATOM     18  C   UNL A   1      29.419  30.176  23.325  1.00  0.00     0.278 C 
ENDBRANCH  12  17
BRANCH  14  19
ATOM     19  O   UNL A   1      32.510  27.858  21.831  1.00  0.00    -0.493 OA
ATOM     20  C   UNL A   1      33.473  28.542  22.621  1.00  0.00     0.278 C 
ENDBRANCH  14  19
ENDBRANCH  10  11
ENDBRANCH   8  10
ENDBRANCH   7   8
BRANCH   7  21
ATOM     21  C   UNL A   1      33.177  22.123  26.385  1.00  0.00     0.025 C 
ATOM     22  C   UNL A   1      33.193  22.259  27.929  1.00  0.00     0.011 C 
ATOM     23  C   UNL A   1      33.665  20.684  26.116  1.00  0.00     0.011 C 
ENDBRANCH   7  21
BRANCH   7  24
ATOM     24  O   UNL A   1      31.061  21.254  25.605  1.00  0.00    -0.379 OA
ATOM     25  H   UNL A   1      31.200  20.894  24.715  1.00  0.00     0.212 HD
ENDBRANCH   7  24
ENDBRANCH   4   7
ENDBRANCH   2   3
ENDBRANCH   1   2
BRANCH   1  26
ATOM     26  C   UNL A   1      33.421  27.878  26.940  1.00  0.00     0.023 C 
BRANCH  26  27
ATOM     27  C   UNL A   1      33.926  29.148  26.261  1.00  0.00     0.116 C 
BRANCH  27  28
ATOM     28  N   UNL A   1      33.766  30.348  27.072  1.00  0.00    -0.352 N 
ATOM     29  C   UNL A   1      34.611  30.883  28.019  1.00  0.00     0.251 C 
ATOM     30  H   UNL A   1      32.933  30.849  26.921  1.00  0.00     0.163 HD
ATOM     31  O   UNL A   1      34.257  31.858  28.677  1.00  0.00    -0.269 OA
BRANCH  29  32
ATOM     32  C   UNL A   1      35.925  30.255  28.270  1.00  0.00     0.039 A 
ATOM     33  C   UNL A   1      36.899  30.304  27.270  1.00  0.00     0.014 A 
ATOM     34  C   UNL A   1      36.210  29.661  29.501  1.00  0.00     0.014 A 
ATOM     35  C   UNL A   1      38.190  29.842  27.539  1.00  0.00     0.010 A 
ATOM     36  C   UNL A   1      37.515  29.274  29.794  1.00  0.00     0.010 A 
ATOM     37  C   UNL A   1      38.522  29.370  28.820  1.00  0.00    -0.014 A 
BRANCH  37  38
ATOM     38  C   UNL A   1      39.917  28.995  29.170  1.00  0.00     0.031 A 
ATOM     39  C   UNL A   1      40.829  30.001  29.819  1.00  0.00     0.074 A 
ATOM     40  C   UNL A   1      40.389  27.778  28.829  1.00  0.00     0.049 A 
ATOM     41  N   UNL A   1      42.100  29.894  30.113  1.00  0.00    -0.248 NA
ATOM     42  C   UNL A   1      40.243  31.308  30.156  1.00  0.00     0.031 C 
ATOM     43  C   UNL A   1      39.621  26.733  28.147  1.00  0.00     0.029 A 
ATOM     44  N   UNL A   1      41.631  27.218  28.997  1.00  0.00    -0.354 N 
ATOM     45  C   UNL A   1      42.469  31.123  30.649  1.00  0.00     0.074 A 
ATOM     46  C   UNL A   1      41.301  31.975  30.593  1.00  0.00     0.031 C 
ATOM     47  C   UNL A   1      40.402  25.654  27.973  1.00  0.00     0.029 A 
ATOM     48  C   UNL A   1      41.736  25.942  28.492  1.00  0.00     0.049 A 
ATOM     49  H   UNL A   1      42.378  27.685  29.435  1.00  0.00     0.167 HD
ATOM     50  C   UNL A   1      43.664  31.498  31.164  1.00  0.00     0.037 A 
ATOM     51  C   UNL A   1      42.787  25.101  28.445  1.00  0.00     0.037 A 
ATOM     52  C   UNL A   1      44.814  30.637  31.245  1.00  0.00     0.049 A 
ATOM     53  C   UNL A   1      44.103  25.538  29.029  1.00  0.00     0.074 A 
ATOM     54  C   UNL A   1      46.050  30.903  31.807  1.00  0.00     0.029 A 
ATOM     55  N   UNL A   1      44.871  29.341  30.751  1.00  0.00    -0.354 N 
ATOM     56  N   UNL A   1      44.416  26.681  29.591  1.00  0.00    -0.248 NA
ATOM     57  C   UNL A   1      45.209  24.571  28.977  1.00  0.00     0.031 C 
ATOM     58  C   UNL A   1      46.868  29.783  31.617  1.00  0.00     0.029 A 
ATOM     59  C   UNL A   1      46.127  28.802  30.979  1.00  0.00     0.049 A 
ATOM     60  H   UNL A   1      44.128  28.874  30.305  1.00  0.00     0.167 HD
ATOM     61  C   UNL A   1      45.745  26.562  29.984  1.00  0.00     0.074 A 
ATOM     62  C   UNL A   1      46.173  25.232  29.604  1.00  0.00     0.031 C 
ATOM     63  C   UNL A   1      46.536  27.472  30.602  1.00  0.00     0.037 A 
BRANCH  50  64
ATOM     64  C   UNL A   1      43.786  32.903  31.686  1.00  0.00     0.058 A 
ATOM     65  C   UNL A   1      44.148  33.970  30.847  1.00  0.00     0.135 A 
ATOM     66  C   UNL A   1      43.506  33.195  33.031  1.00  0.00     0.135 A 
ATOM     67  F   UNL A   1      44.440  33.747  29.556  1.00  0.00    -0.206 F 
ATOM     68  C   UNL A   1      44.260  35.270  31.330  1.00  0.00     0.059 A 
ATOM     69  C   UNL A   1      43.585  34.491  33.530  1.00  0.00     0.059 A 
ATOM     70  F   UNL A   1      43.156  32.213  33.876  1.00  0.00    -0.206 F 
ATOM     71  C   UNL A   1      43.979  35.520  32.674  1.00  0.00     0.060 A 
BRANCH  71  72
ATOM     72  S   UNL A   1      44.128  37.213  33.285  1.00  0.00     0.124 S 
ATOM     73  O   UNL A   1      44.316  37.954  32.041  1.00  0.00    -0.237 OA
ATOM     74  O   UNL A   1      42.848  37.417  33.956  1.00  0.00    -0.237 OA
ATOM     75  O   UNL A   1      45.291  37.156  34.164  1.00  0.00    -0.744 OA
ENDBRANCH  71  72
ENDBRANCH  50  64
BRANCH  51  76
ATOM     76  C   UNL A   1      42.633  23.750  27.841  1.00  0.00     0.058 A 
ATOM     77  C   UNL A   1      42.430  22.620  28.647  1.00  0.00     0.135 A 
ATOM     78  C   UNL A   1      42.673  23.563  26.450  1.00  0.00     0.135 A 
ATOM     79  F   UNL A   1      42.392  22.747  29.982  1.00  0.00    -0.206 F 
ATOM     80  C   UNL A   1      42.288  21.349  28.099  1.00  0.00     0.059 A 
ATOM     81  C   UNL A   1      42.508  22.305  25.878  1.00  0.00     0.059 A 
ATOM     82  F   UNL A   1      42.848  24.614  25.635  1.00  0.00    -0.206 F 
ATOM     83  C   UNL A   1      42.326  21.202  26.712  1.00  0.00     0.060 A 
BRANCH  83  84
ATOM     84  S   UNL A   1      42.090  19.556  26.008  1.00  0.00     0.124 S 
ATOM     85  O   UNL A   1      42.592  18.704  27.078  1.00  0.00    -0.237 OA
ATOM     86  O   UNL A   1      40.647  19.521  25.785  1.00  0.00    -0.237 OA
ATOM     87  O   UNL A   1      42.902  19.591  24.794  1.00  0.00    -0.744 OA
ENDBRANCH  83  84
ENDBRANCH  51  76
BRANCH  63  88
ATOM     88  C   UNL A   1      47.939  27.052  30.943  1.00  0.00     0.058 A 
ATOM     89  C   UNL A   1      48.249  26.433  32.163  1.00  0.00     0.135 A 
ATOM     90  C   UNL A   1      48.976  27.218  30.009  1.00  0.00     0.135 A 
ATOM     91  F   UNL A   1      47.295  26.256  33.092  1.00  0.00    -0.206 F 
ATOM     92  C   UNL A   1      49.542  26.009  32.455  1.00  0.00     0.059 A 
ATOM     93  C   UNL A   1      50.270  26.778  30.270  1.00  0.00     0.059 A 
ATOM     94  F   UNL A   1      48.731  27.796  28.823  1.00  0.00    -0.206 F 
ATOM     95  C   UNL A   1      50.545  26.183  31.500  1.00  0.00     0.060 A 
BRANCH  95  96
ATOM     96  S   UNL A   1      52.208  25.591  31.874  1.00  0.00     0.124 S 
ATOM     97  O   UNL A   1      52.579  26.445  32.998  1.00  0.00    -0.237 OA
ATOM     98  O   UNL A   1      51.977  24.186  32.194  1.00  0.00    -0.237 OA
ATOM     99  O   UNL A   1      52.942  25.832  30.635  1.00  0.00    -0.744 OA
ENDBRANCH  95  96
ENDBRANCH  63  88
ENDBRANCH  37  38
ENDBRANCH  29  32
ENDBRANCH  27  28
ENDBRANCH  26  27
ENDBRANCH   1  26
TORSDOF 21
ENDMDL
MODEL 2
REMARK VINA RESULT:     -10.5      4.511     10.029
REMARK SMILES COc1ccc(C[C@H](C)[C@](O)(C(=O)NCCCCNC(=O)c2ccc(-c3c4nc(c(-c5c(F)cc(S(=O)(=O)[O-])cc5F)c5ccc([nH]5)c(-c5c(F)cc(S(=O)(=O)[O-])cc5F)c5nc(c(-c6c(F)cc(S(=O)(=O)[O-])cc6F)c6ccc3[nH]6)C=C5)C=C4)cc2)C(C)C)cc1OC
REMARK SMILES IDX 16 1 15 2 14 3 12 4 13 5 10 7 8 8 9 9 7 10 6 11 3 12 4 13
REMARK SMILES IDX 92 14 5 15 91 16 2 17 1 18 93 19 94 20 88 21 89 22 90 23
REMARK SMILES IDX 11 24 17 26 18 27 19 28 20 29 21 31 22 32 23 33 87 34 24 35
REMARK SMILES IDX 86 36 25 37 26 38 27 39 80 40 28 41 85 42 79 43 81 44 29 45
REMARK SMILES IDX 84 46 78 47 77 48 30 50 64 51 43 52 63 53 44 54 47 55 62 56
REMARK SMILES IDX 82 57 45 58 46 59 61 61 83 62 48 63 31 64 32 65 41 66 33 67
REMARK SMILES IDX 34 68 40 69 42 70 35 71 36 72 37 73 38 74 39 75 65 76 66 77
REMARK SMILES IDX 75 78 67 79 68 80 74 81 76 82 69 83 70 84 71 85 72 86 73 87
REMARK SMILES IDX 49 88 50 89 59 90 51 91 52 92 58 93 60 94 53 95 54 96 55 97
REMARK SMILES IDX 56 98 57 99
REMARK H PARENT 14 6 11 25 19 30 81 49 47 60
REMARK Flexibility Score: inf
ROOT
ATOM      1  C   UNL A   1      37.871  22.132  25.378  1.00  0.00     0.023 C 
ENDROOT
BRANCH   1   2
ATOM      2  C   UNL A   1      36.439  21.860  24.939  1.00  0.00     0.116 C 
BRANCH   2   3
ATOM      3  N   UNL A   1      36.038  22.571  23.744  1.00  0.00    -0.354 N 
ATOM      4  C   UNL A   1      34.830  23.108  23.404  1.00  0.00     0.252 C 
ATOM      5  O   UNL A   1      34.848  23.964  22.511  1.00  0.00    -0.272 OA
ATOM      6  H   UNL A   1      36.747  22.684  23.071  1.00  0.00     0.163 HD
BRANCH   4   7
ATOM      7  C   UNL A   1      33.471  22.705  24.116  1.00  0.00     0.148 C 
BRANCH   7   8
ATOM      8  C   UNL A   1      33.331  23.713  25.336  1.00  0.00     0.032 C 
ATOM      9  C   UNL A   1      33.386  23.117  26.743  1.00  0.00     0.011 C 
BRANCH   8  10
ATOM     10  C   UNL A   1      34.176  25.024  25.275  1.00  0.00     0.042 C 
BRANCH  10  11
ATOM     11  C   UNL A   1      33.548  26.406  25.277  1.00  0.00    -0.044 A 
ATOM     12  C   UNL A   1      32.054  28.813  25.306  1.00  0.00     0.160 A 
ATOM     13  C   UNL A   1      32.630  28.314  26.479  1.00  0.00     0.051 A 
ATOM     14  C   UNL A   1      32.251  28.139  24.097  1.00  0.00     0.160 A 
ATOM     15  C   UNL A   1      33.346  27.113  26.467  1.00  0.00     0.008 A 
ATOM     16  C   UNL A   1      33.002  26.948  24.101  1.00  0.00     0.054 A 
BRANCH  12  17
ATOM     17  O   UNL A   1      31.357  29.991  25.354  1.00  0.00    -0.493 OA
ATOM     18  C   UNL A   1      31.833  30.859  26.386  1.00  0.00     0.278 C 
ENDBRANCH  12  17
BRANCH  14  19
ATOM     19  O   UNL A   1      31.786  28.483  22.854  1.00  0.00    -0.493 OA
ATOM     20  C   UNL A   1      30.457  28.111  22.518  1.00  0.00     0.278 C 
ENDBRANCH  14  19
ENDBRANCH  10  11
ENDBRANCH   8  10
ENDBRANCH   7   8
BRANCH   7  21
ATOM     21  C   UNL A   1      32.331  22.818  23.008  1.00  0.00     0.025 C 
ATOM     22  C   UNL A   1      31.866  21.443  22.466  1.00  0.00     0.011 C 
ATOM     23  C   UNL A   1      31.036  23.508  23.485  1.00  0.00     0.011 C 
ENDBRANCH   7  21
BRANCH   7  24
ATOM     24  O   UNL A   1      33.439  21.368  24.593  1.00  0.00    -0.379 OA
ATOM     25  H   UNL A   1      33.554  21.366  25.557  1.00  0.00     0.212 HD
ENDBRANCH   7  24
ENDBRANCH   4   7
ENDBRANCH   2   3
ENDBRANCH   1   2
BRANCH   1  26
ATOM     26  C   UNL A   1      38.111  23.490  26.036  1.00  0.00     0.023 C 
BRANCH  26  27
ATOM     27  C   UNL A   1      39.314  23.580  26.971  1.00  0.00     0.116 C 
BRANCH  27  28
ATOM     28  N   UNL A   1      40.570  23.844  26.282  1.00  0.00    -0.352 N 
ATOM     29  C   UNL A   1      41.404  24.936  26.370  1.00  0.00     0.251 C 
ATOM     30  H   UNL A   1      40.868  23.137  25.665  1.00  0.00     0.163 HD
ATOM     31  O   UNL A   1      42.380  25.026  25.630  1.00  0.00    -0.269 OA
BRANCH  29  32
ATOM     32  C   UNL A   1      41.095  26.021  27.325  1.00  0.00     0.039 A 
ATOM     33  C   UNL A   1      40.169  25.781  28.344  1.00  0.00     0.014 A 
ATOM     34  C   UNL A   1      41.747  27.253  27.245  1.00  0.00     0.014 A 
ATOM     35  C   UNL A   1      39.969  26.743  29.337  1.00  0.00     0.010 A 
ATOM     36  C   UNL A   1      41.606  28.177  28.277  1.00  0.00     0.010 A 
ATOM     37  C   UNL A   1      40.724  27.927  29.339  1.00  0.00    -0.014 A 
BRANCH  37  38
ATOM     38  C   UNL A   1      40.625  28.907  30.454  1.00  0.00     0.031 A 
ATOM     39  C   UNL A   1      41.519  28.775  31.657  1.00  0.00     0.074 A 
ATOM     40  C   UNL A   1      39.675  29.864  30.421  1.00  0.00     0.049 A 
ATOM     41  N   UNL A   1      41.520  29.470  32.766  1.00  0.00    -0.248 NA
ATOM     42  C   UNL A   1      42.527  27.703  31.621  1.00  0.00     0.031 C 
ATOM     43  C   UNL A   1      38.710  30.063  29.336  1.00  0.00     0.029 A 
ATOM     44  N   UNL A   1      39.354  30.841  31.331  1.00  0.00    -0.354 N 
ATOM     45  C   UNL A   1      42.509  28.909  33.564  1.00  0.00     0.074 A 
ATOM     46  C   UNL A   1      43.054  27.784  32.833  1.00  0.00     0.031 C 
ATOM     47  C   UNL A   1      37.921  31.108  29.634  1.00  0.00     0.029 A 
ATOM     48  C   UNL A   1      38.294  31.630  30.946  1.00  0.00     0.049 A 
ATOM     49  H   UNL A   1      39.837  30.967  32.179  1.00  0.00     0.167 HD
ATOM     50  C   UNL A   1      42.942  29.308  34.784  1.00  0.00     0.037 A 
ATOM     51  C   UNL A   1      37.685  32.650  31.579  1.00  0.00     0.037 A 
ATOM     52  C   UNL A   1      42.418  30.445  35.494  1.00  0.00     0.049 A 
ATOM     53  C   UNL A   1      38.187  33.080  32.931  1.00  0.00     0.074 A 
ATOM     54  C   UNL A   1      42.833  30.969  36.705  1.00  0.00     0.029 A 
ATOM     55  N   UNL A   1      41.365  31.236  35.057  1.00  0.00    -0.354 N 
ATOM     56  N   UNL A   1      39.168  32.578  33.643  1.00  0.00    -0.248 NA
ATOM     57  C   UNL A   1      37.505  34.217  33.565  1.00  0.00     0.031 C 
ATOM     58  C   UNL A   1      42.005  32.052  37.021  1.00  0.00     0.029 A 
ATOM     59  C   UNL A   1      41.105  32.232  35.984  1.00  0.00     0.049 A 
ATOM     60  H   UNL A   1      40.875  31.108  34.212  1.00  0.00     0.167 HD
ATOM     61  C   UNL A   1      39.238  33.353  34.795  1.00  0.00     0.074 A 
ATOM     62  C   UNL A   1      38.207  34.364  34.680  1.00  0.00     0.031 C 
ATOM     63  C   UNL A   1      40.080  33.238  35.851  1.00  0.00     0.037 A 
BRANCH  50  64
ATOM     64  C   UNL A   1      44.043  28.510  35.427  1.00  0.00     0.058 A 
ATOM     65  C   UNL A   1      43.766  27.451  36.306  1.00  0.00     0.135 A 
ATOM     66  C   UNL A   1      45.389  28.784  35.136  1.00  0.00     0.135 A 
ATOM     67  F   UNL A   1      42.498  27.154  36.631  1.00  0.00    -0.206 F 
ATOM     68  C   UNL A   1      44.785  26.713  36.900  1.00  0.00     0.059 A 
ATOM     69  C   UNL A   1      46.425  28.041  35.697  1.00  0.00     0.059 A 
ATOM     70  F   UNL A   1      45.711  29.785  34.302  1.00  0.00    -0.206 F 
ATOM     71  C   UNL A   1      46.112  27.017  36.591  1.00  0.00     0.060 A 
BRANCH  71  72
ATOM     72  S   UNL A   1      47.422  26.049  37.369  1.00  0.00     0.124 S 
ATOM     73  O   UNL A   1      48.459  27.060  37.553  1.00  0.00    -0.237 OA
ATOM     74  O   UNL A   1      46.778  25.574  38.589  1.00  0.00    -0.237 OA
ATOM     75  O   UNL A   1      47.718  25.019  36.379  1.00  0.00    -0.744 OA
ENDBRANCH  71  72
ENDBRANCH  50  64
BRANCH  51  76
ATOM     76  C   UNL A   1      36.543  33.353  30.932  1.00  0.00     0.058 A 
ATOM     77  C   UNL A   1      36.751  34.216  29.846  1.00  0.00     0.135 A 
ATOM     78  C   UNL A   1      35.225  33.167  31.377  1.00  0.00     0.135 A 
ATOM     79  F   UNL A   1      37.994  34.431  29.391  1.00  0.00    -0.206 F 
ATOM     80  C   UNL A   1      35.696  34.883  29.232  1.00  0.00     0.059 A 
ATOM     81  C   UNL A   1      34.151  33.804  30.763  1.00  0.00     0.059 A 
ATOM     82  F   UNL A   1      34.971  32.339  32.402  1.00  0.00    -0.206 F 
ATOM     83  C   UNL A   1      34.398  34.668  29.697  1.00  0.00     0.060 A 
BRANCH  83  84
ATOM     84  S   UNL A   1      33.030  35.500  28.862  1.00  0.00     0.124 S 
ATOM     85  O   UNL A   1      32.465  34.414  28.070  1.00  0.00    -0.237 OA
ATOM     86  O   UNL A   1      32.220  35.963  29.985  1.00  0.00    -0.237 OA
ATOM     87  O   UNL A   1      33.694  36.557  28.102  1.00  0.00    -0.744 OA
ENDBRANCH  83  84
ENDBRANCH  51  76
BRANCH  63  88
ATOM     88  C   UNL A   1      39.950  34.250  36.955  1.00  0.00     0.058 A 
ATOM     89  C   UNL A   1      39.194  33.991  38.108  1.00  0.00     0.135 A 
ATOM     90  C   UNL A   1      40.641  35.471  36.884  1.00  0.00     0.135 A 
ATOM     91  F   UNL A   1      38.509  32.841  38.223  1.00  0.00    -0.206 F 
ATOM     92  C   UNL A   1      39.112  34.915  39.146  1.00  0.00     0.059 A 
ATOM     93  C   UNL A   1      40.594  36.397  37.920  1.00  0.00     0.059 A 
ATOM     94  F   UNL A   1      41.387  35.763  35.807  1.00  0.00    -0.206 F 
ATOM     95  C   UNL A   1      39.819  36.114  39.043  1.00  0.00     0.060 A 
BRANCH  95  96
ATOM     96  S   UNL A   1      39.737  37.286  40.414  1.00  0.00     0.124 S 
ATOM     97  O   UNL A   1      40.716  38.288  40.003  1.00  0.00    -0.237 OA
ATOM     98  O   UNL A   1      38.342  37.711  40.381  1.00  0.00    -0.237 OA
ATOM     99  O   UNL A   1      40.113  36.480  41.572  1.00  0.00    -0.744 OA
ENDBRANCH  95  96
ENDBRANCH  63  88
ENDBRANCH  37  38
ENDBRANCH  29  32
ENDBRANCH  27  28
ENDBRANCH  26  27
ENDBRANCH   1  26
TORSDOF 21
ENDMDL
MODEL 3
REMARK VINA RESULT:     -10.5      2.447      3.058
REMARK SMILES COc1ccc(C[C@H](C)[C@](O)(C(=O)NCCCCNC(=O)c2ccc(-c3c4nc(c(-c5c(F)cc(S(=O)(=O)[O-])cc5F)c5ccc([nH]5)c(-c5c(F)cc(S(=O)(=O)[O-])cc5F)c5nc(c(-c6c(F)cc(S(=O)(=O)[O-])cc6F)c6ccc3[nH]6)C=C5)C=C4)cc2)C(C)C)cc1OC
REMARK SMILES IDX 16 1 15 2 14 3 12 4 13 5 10 7 8 8 9 9 7 10 6 11 3 12 4 13
REMARK SMILES IDX 92 14 5 15 91 16 2 17 1 18 93 19 94 20 88 21 89 22 90 23
REMARK SMILES IDX 11 24 17 26 18 27 19 28 20 29 21 31 22 32 23 33 87 34 24 35
REMARK SMILES IDX 86 36 25 37 26 38 27 39 80 40 28 41 85 42 79 43 81 44 29 45
REMARK SMILES IDX 84 46 78 47 77 48 30 50 64 51 43 52 63 53 44 54 47 55 62 56
REMARK SMILES IDX 82 57 45 58 46 59 61 61 83 62 48 63 31 64 32 65 41 66 33 67
REMARK SMILES IDX 34 68 40 69 42 70 35 71 36 72 37 73 38 74 39 75 65 76 66 77
REMARK SMILES IDX 75 78 67 79 68 80 74 81 76 82 69 83 70 84 71 85 72 86 73 87
REMARK SMILES IDX 49 88 50 89 59 90 51 91 52 92 58 93 60 94 53 95 54 96 55 97
REMARK SMILES IDX 56 98 57 99
REMARK H PARENT 14 6 11 25 19 30 81 49 47 60
REMARK Flexibility Score: inf
ROOT
ATOM      1  C   UNL A   1      32.222  27.070  26.410  1.00  0.00     0.023 C 
ENDROOT
BRANCH   1   2
ATOM      2  C   UNL A   1      32.386  25.561  26.532  1.00  0.00     0.116 C 
BRANCH   2   3
ATOM      3  N   UNL A   1      31.157  24.849  26.807  1.00  0.00    -0.354 N 
ATOM      4  C   UNL A   1      30.870  23.518  26.709  1.00  0.00     0.252 C 
ATOM      5  O   UNL A   1      29.881  23.128  27.341  1.00  0.00    -0.272 OA
ATOM      6  H   UNL A   1      30.410  25.413  27.112  1.00  0.00     0.163 HD
BRANCH   4   7
ATOM      7  C   UNL A   1      31.753  22.501  25.872  1.00  0.00     0.148 C 
BRANCH   7   8
ATOM      8  C   UNL A   1      31.831  23.128  24.413  1.00  0.00     0.032 C 
ATOM      9  C   UNL A   1      32.423  22.252  23.309  1.00  0.00     0.011 C 
BRANCH   8  10
ATOM     10  C   UNL A   1      30.562  23.867  23.889  1.00  0.00     0.042 C 
BRANCH  10  11
ATOM     11  C   UNL A   1      30.546  25.354  23.581  1.00  0.00    -0.044 A 
ATOM     12  C   UNL A   1      30.396  28.034  22.674  1.00  0.00     0.160 A 
ATOM     13  C   UNL A   1      29.356  27.472  23.422  1.00  0.00     0.051 A 
ATOM     14  C   UNL A   1      31.541  27.278  22.405  1.00  0.00     0.160 A 
ATOM     15  C   UNL A   1      29.421  26.141  23.848  1.00  0.00     0.008 A 
ATOM     16  C   UNL A   1      31.601  25.951  22.869  1.00  0.00     0.054 A 
BRANCH  12  17
ATOM     17  O   UNL A   1      30.297  29.340  22.271  1.00  0.00    -0.493 OA
ATOM     18  C   UNL A   1      28.940  29.744  22.078  1.00  0.00     0.278 C 
ENDBRANCH  12  17
BRANCH  14  19
ATOM     19  O   UNL A   1      32.660  27.661  21.711  1.00  0.00    -0.493 OA
ATOM     20  C   UNL A   1      33.774  28.129  22.458  1.00  0.00     0.278 C 
ENDBRANCH  14  19
ENDBRANCH  10  11
ENDBRANCH   8  10
ENDBRANCH   7   8
BRANCH   7  21
ATOM     21  C   UNL A   1      33.146  22.380  26.634  1.00  0.00     0.025 C 
ATOM     22  C   UNL A   1      33.649  20.920  26.763  1.00  0.00     0.011 C 
ATOM     23  C   UNL A   1      34.314  23.136  25.967  1.00  0.00     0.011 C 
ENDBRANCH   7  21
BRANCH   7  24
ATOM     24  O   UNL A   1      31.217  21.188  25.800  1.00  0.00    -0.379 OA
ATOM     25  H   UNL A   1      31.940  20.547  25.714  1.00  0.00     0.212 HD
ENDBRANCH   7  24
ENDBRANCH   4   7
ENDBRANCH   2   3
ENDBRANCH   1   2
BRANCH   1  26
ATOM     26  C   UNL A   1      33.385  27.904  26.944  1.00  0.00     0.023 C 
BRANCH  26  27
ATOM     27  C   UNL A   1      33.923  28.983  26.008  1.00  0.00     0.116 C 
BRANCH  27  28
ATOM     28  N   UNL A   1      33.753  30.336  26.518  1.00  0.00    -0.352 N 
ATOM     29  C   UNL A   1      34.496  31.017  27.457  1.00  0.00     0.251 C 
ATOM     30  H   UNL A   1      32.999  30.839  26.135  1.00  0.00     0.163 HD
ATOM     31  O   UNL A   1      34.137  32.129  27.835  1.00  0.00    -0.269 OA
BRANCH  29  32
ATOM     32  C   UNL A   1      35.699  30.387  28.039  1.00  0.00     0.039 A 
ATOM     33  C   UNL A   1      36.919  30.513  27.370  1.00  0.00     0.014 A 
ATOM     34  C   UNL A   1      35.634  29.714  29.260  1.00  0.00     0.014 A 
ATOM     35  C   UNL A   1      38.090  30.047  27.973  1.00  0.00     0.010 A 
ATOM     36  C   UNL A   1      36.809  29.321  29.895  1.00  0.00     0.010 A 
ATOM     37  C   UNL A   1      38.051  29.493  29.263  1.00  0.00    -0.014 A 
BRANCH  37  38
ATOM     38  C   UNL A   1      39.296  29.109  29.980  1.00  0.00     0.031 A 
ATOM     39  C   UNL A   1      39.722  29.862  31.211  1.00  0.00     0.074 A 
ATOM     40  C   UNL A   1      40.086  28.138  29.476  1.00  0.00     0.049 A 
ATOM     41  N   UNL A   1      40.817  29.740  31.916  1.00  0.00    -0.248 NA
ATOM     42  C   UNL A   1      38.810  30.910  31.697  1.00  0.00     0.031 C 
ATOM     43  C   UNL A   1      39.812  27.371  28.258  1.00  0.00     0.029 A 
ATOM     44  N   UNL A   1      41.288  27.641  29.916  1.00  0.00    -0.354 N 
ATOM     45  C   UNL A   1      40.736  30.705  32.914  1.00  0.00     0.074 A 
ATOM     46  C   UNL A   1      39.507  31.437  32.691  1.00  0.00     0.031 C 
ATOM     47  C   UNL A   1      40.804  26.488  28.060  1.00  0.00     0.029 A 
ATOM     48  C   UNL A   1      41.805  26.651  29.111  1.00  0.00     0.049 A 
ATOM     49  H   UNL A   1      41.738  27.962  30.730  1.00  0.00     0.167 HD
ATOM     50  C   UNL A   1      41.592  30.943  33.935  1.00  0.00     0.037 A 
ATOM     51  C   UNL A   1      42.957  25.960  29.203  1.00  0.00     0.037 A 
ATOM     52  C   UNL A   1      42.797  30.191  34.169  1.00  0.00     0.049 A 
ATOM     53  C   UNL A   1      43.890  26.237  30.351  1.00  0.00     0.074 A 
ATOM     54  C   UNL A   1      43.697  30.312  35.213  1.00  0.00     0.029 A 
ATOM     55  N   UNL A   1      43.271  29.177  33.349  1.00  0.00    -0.354 N 
ATOM     56  N   UNL A   1      43.765  27.110  31.322  1.00  0.00    -0.248 NA
ATOM     57  C   UNL A   1      45.120  25.434  30.418  1.00  0.00     0.031 C 
ATOM     58  C   UNL A   1      44.737  29.399  35.003  1.00  0.00     0.029 A 
ATOM     59  C   UNL A   1      44.460  28.677  33.854  1.00  0.00     0.049 A 
ATOM     60  H   UNL A   1      42.827  28.859  32.530  1.00  0.00     0.167 HD
ATOM     61  C   UNL A   1      44.884  26.943  32.131  1.00  0.00     0.074 A 
ATOM     62  C   UNL A   1      45.670  25.879  31.541  1.00  0.00     0.031 C 
ATOM     63  C   UNL A   1      45.227  27.610  33.259  1.00  0.00     0.037 A 
BRANCH  50  64
ATOM     64  C   UNL A   1      41.252  32.060  34.882  1.00  0.00     0.058 A 
ATOM     65  C   UNL A   1      41.748  33.360  34.694  1.00  0.00     0.135 A 
ATOM     66  C   UNL A   1      40.394  31.839  35.972  1.00  0.00     0.135 A 
ATOM     67  F   UNL A   1      42.583  33.625  33.677  1.00  0.00    -0.206 F 
ATOM     68  C   UNL A   1      41.433  34.394  35.570  1.00  0.00     0.059 A 
ATOM     69  C   UNL A   1      40.043  32.864  36.846  1.00  0.00     0.059 A 
ATOM     70  F   UNL A   1      39.891  30.616  36.200  1.00  0.00    -0.206 F 
ATOM     71  C   UNL A   1      40.581  34.135  36.645  1.00  0.00     0.060 A 
BRANCH  71  72
ATOM     72  S   UNL A   1      40.181  35.488  37.772  1.00  0.00     0.124 S 
ATOM     73  O   UNL A   1      41.413  35.594  38.547  1.00  0.00    -0.237 OA
ATOM     74  O   UNL A   1      39.914  36.591  36.854  1.00  0.00    -0.237 OA
ATOM     75  O   UNL A   1      39.020  34.989  38.503  1.00  0.00    -0.744 OA
ENDBRANCH  71  72
ENDBRANCH  50  64
BRANCH  51  76
ATOM     76  C   UNL A   1      43.284  24.920  28.190  1.00  0.00     0.058 A 
ATOM     77  C   UNL A   1      42.936  23.578  28.397  1.00  0.00     0.135 A 
ATOM     78  C   UNL A   1      43.938  25.249  26.992  1.00  0.00     0.135 A 
ATOM     79  F   UNL A   1      42.316  23.214  29.530  1.00  0.00    -0.206 F 
ATOM     80  C   UNL A   1      43.237  22.593  27.461  1.00  0.00     0.059 A 
ATOM     81  C   UNL A   1      44.228  24.286  26.030  1.00  0.00     0.059 A 
ATOM     82  F   UNL A   1      44.278  26.522  26.738  1.00  0.00    -0.206 F 
ATOM     83  C   UNL A   1      43.882  22.958  26.279  1.00  0.00     0.060 A 
BRANCH  83  84
ATOM     84  S   UNL A   1      44.224  21.680  25.049  1.00  0.00     0.124 S 
ATOM     85  O   UNL A   1      43.992  22.402  23.804  1.00  0.00    -0.237 OA
ATOM     86  O   UNL A   1      45.613  21.337  25.341  1.00  0.00    -0.237 OA
ATOM     87  O   UNL A   1      43.250  20.639  25.367  1.00  0.00    -0.744 OA
ENDBRANCH  83  84
ENDBRANCH  51  76
BRANCH  63  88
ATOM     88  C   UNL A   1      46.492  27.189  33.956  1.00  0.00     0.058 A 
ATOM     89  C   UNL A   1      47.725  27.798  33.677  1.00  0.00     0.135 A 
ATOM     90  C   UNL A   1      46.456  26.206  34.958  1.00  0.00     0.135 A 
ATOM     91  F   UNL A   1      47.813  28.739  32.723  1.00  0.00    -0.206 F 
ATOM     92  C   UNL A   1      48.884  27.433  34.355  1.00  0.00     0.059 A 
ATOM     93  C   UNL A   1      47.598  25.845  35.666  1.00  0.00     0.059 A 
ATOM     94  F   UNL A   1      45.300  25.600  35.271  1.00  0.00    -0.206 F 
ATOM     95  C   UNL A   1      48.809  26.457  35.351  1.00  0.00     0.060 A 
BRANCH  95  96
ATOM     96  S   UNL A   1      50.313  26.023  36.251  1.00  0.00     0.124 S 
ATOM     97  O   UNL A   1      50.481  27.184  37.120  1.00  0.00    -0.237 OA
ATOM     98  O   UNL A   1      49.932  24.782  36.917  1.00  0.00    -0.237 OA
ATOM     99  O   UNL A   1      51.311  25.880  35.195  1.00  0.00    -0.744 OA
ENDBRANCH  95  96
ENDBRANCH  63  88
ENDBRANCH  37  38
ENDBRANCH  29  32
ENDBRANCH  27  28
ENDBRANCH  26  27
ENDBRANCH   1  26
TORSDOF 21
ENDMDL
