MODEL 1
REMARK VINA RESULT:     -12.2      0.000      0.000
REMARK SMILES O=C(Cc1cncnc1N1CCC2(CC1)OCCC[C@@H]2O)NCCCCNC(=O)c1ccc(-c2c3nc(c(-c4c(F)cc(S(=O)(=O)[O-])cc4F)c4ccc([nH]4)c(-c4c(F)cc(S(=O)(=O)[O-])cc4F)c4nc(c(-c5c(F)cc(S(=O)(=O)[O-])cc5F)c5ccc2[nH]5)C=C4)C=C3)cc1
REMARK SMILES IDX 24 1 23 2 22 3 1 4 2 5 3 7 4 8 5 9 9 10 6 11 8 12 7 13 10 14
REMARK SMILES IDX 11 15 15 16 12 17 14 18 13 19 16 20 20 21 17 22 19 23 18 24
REMARK SMILES IDX 21 25 25 27 26 28 27 29 28 30 29 32 30 33 31 34 95 35 32 36
REMARK SMILES IDX 94 37 33 38 34 39 35 40 88 41 36 42 93 43 87 44 89 45 37 46
REMARK SMILES IDX 92 47 86 48 85 49 38 51 72 52 51 53 71 54 52 55 55 56 70 57
REMARK SMILES IDX 90 58 53 59 54 60 69 62 91 63 56 64 39 65 40 66 49 67 41 68
REMARK SMILES IDX 42 69 48 70 50 71 43 72 44 73 45 74 46 75 47 76 73 77 74 78
REMARK SMILES IDX 83 79 75 80 76 81 82 82 84 83 77 84 78 85 79 86 80 87 81 88
REMARK SMILES IDX 57 89 58 90 67 91 59 92 60 93 66 94 68 95 61 96 62 97 63 98
REMARK SMILES IDX 64 99 65 100
REMARK H PARENT 22 6 21 26 27 31 89 50 55 61
REMARK Flexibility Score: inf
ROOT
ATOM      1  C   UNL A   1      34.286  31.710  28.107  1.00  0.00     0.023 C 
ENDROOT
BRANCH   1   2
ATOM      2  C   UNL A   1      34.562  30.280  27.646  1.00  0.00     0.116 C 
BRANCH   2   3
ATOM      3  N   UNL A   1      33.332  29.562  27.405  1.00  0.00    -0.356 N 
ATOM      4  O   UNL A   1      34.145  28.156  25.776  1.00  0.00    -0.275 OA
ATOM      5  C   UNL A   1      33.222  28.548  26.482  1.00  0.00     0.224 C 
ATOM      6  H   UNL A   1      32.534  29.809  27.927  1.00  0.00     0.163 HD
BRANCH   5   7
ATOM      7  C   UNL A   1      31.836  27.947  26.435  1.00  0.00     0.141 C 
BRANCH   7   8
ATOM      8  C   UNL A   1      31.212  27.988  25.070  1.00  0.00     0.022 A 
ATOM      9  C   UNL A   1      30.981  29.199  24.435  1.00  0.00     0.121 A 
ATOM     10  C   UNL A   1      30.991  26.851  24.298  1.00  0.00     0.135 A 
ATOM     11  N   UNL A   1      30.575  29.322  23.164  1.00  0.00    -0.244 NA
ATOM     12  N   UNL A   1      30.601  26.940  23.011  1.00  0.00    -0.219 NA
ATOM     13  C   UNL A   1      30.408  28.169  22.511  1.00  0.00     0.224 A 
BRANCH  10  14
ATOM     14  N   UNL A   1      31.293  25.601  24.798  1.00  0.00    -0.356 N 
ATOM     15  C   UNL A   1      32.179  24.755  24.023  1.00  0.00     0.121 C 
ATOM     16  C   UNL A   1      30.341  24.889  25.641  1.00  0.00     0.121 C 
ATOM     17  C   UNL A   1      33.080  24.059  25.035  1.00  0.00     0.060 C 
ATOM     18  C   UNL A   1      31.130  24.091  26.687  1.00  0.00     0.060 C 
ATOM     19  C   UNL A   1      32.272  23.238  26.075  1.00  0.00     0.097 C 
ATOM     20  O   UNL A   1      31.622  22.097  25.471  1.00  0.00    -0.372 OA
ATOM     21  C   UNL A   1      33.230  22.752  27.203  1.00  0.00     0.146 C 
ATOM     22  C   UNL A   1      32.496  21.112  24.924  1.00  0.00     0.161 C 
ATOM     23  C   UNL A   1      34.193  21.673  26.704  1.00  0.00     0.037 C 
ATOM     24  C   UNL A   1      33.446  20.560  25.975  1.00  0.00     0.031 C 
BRANCH  21  25
ATOM     25  O   UNL A   1      32.506  22.211  28.315  1.00  0.00    -0.390 OA
ATOM     26  H   UNL A   1      32.925  22.493  29.143  1.00  0.00     0.211 HD
ENDBRANCH  21  25
ENDBRANCH  10  14
ENDBRANCH   7   8
ENDBRANCH   5   7
ENDBRANCH   2   3
ENDBRANCH   1   2
BRANCH   1  27
ATOM     27  C   UNL A   1      35.494  32.653  28.054  1.00  0.00     0.023 C 
BRANCH  27  28
ATOM     28  C   UNL A   1      36.222  32.850  29.380  1.00  0.00     0.116 C 
BRANCH  28  29
ATOM     29  N   UNL A   1      35.841  31.854  30.367  1.00  0.00    -0.352 N 
ATOM     30  C   UNL A   1      36.484  30.695  30.725  1.00  0.00     0.251 C 
ATOM     31  H   UNL A   1      35.003  32.037  30.848  1.00  0.00     0.163 HD
ATOM     32  O   UNL A   1      35.905  29.874  31.437  1.00  0.00    -0.269 OA
BRANCH  30  33
ATOM     33  C   UNL A   1      37.854  30.419  30.238  1.00  0.00     0.039 A 
ATOM     34  C   UNL A   1      38.911  30.427  31.152  1.00  0.00     0.014 A 
ATOM     35  C   UNL A   1      38.103  30.159  28.887  1.00  0.00     0.014 A 
ATOM     36  C   UNL A   1      40.202  30.113  30.723  1.00  0.00     0.010 A 
ATOM     37  C   UNL A   1      39.376  29.772  28.476  1.00  0.00     0.010 A 
ATOM     38  C   UNL A   1      40.442  29.745  29.388  1.00  0.00    -0.014 A 
BRANCH  38  39
ATOM     39  C   UNL A   1      41.794  29.321  28.937  1.00  0.00     0.031 A 
ATOM     40  C   UNL A   1      42.912  30.326  28.835  1.00  0.00     0.074 A 
ATOM     41  C   UNL A   1      42.002  28.044  28.561  1.00  0.00     0.049 A 
ATOM     42  N   UNL A   1      44.136  30.158  28.405  1.00  0.00    -0.248 NA
ATOM     43  C   UNL A   1      42.606  31.705  29.247  1.00  0.00     0.031 C 
ATOM     44  C   UNL A   1      40.991  26.984  28.571  1.00  0.00     0.029 A 
ATOM     45  N   UNL A   1      43.129  27.418  28.087  1.00  0.00    -0.354 N 
ATOM     46  C   UNL A   1      44.743  31.407  28.484  1.00  0.00     0.074 A 
ATOM     47  C   UNL A   1      43.735  32.334  28.951  1.00  0.00     0.031 C 
ATOM     48  C   UNL A   1      41.548  25.839  28.147  1.00  0.00     0.029 A 
ATOM     49  C   UNL A   1      42.941  26.088  27.792  1.00  0.00     0.049 A 
ATOM     50  H   UNL A   1      43.992  27.879  27.969  1.00  0.00     0.167 HD
ATOM     51  C   UNL A   1      46.026  31.746  28.215  1.00  0.00     0.037 A 
ATOM     52  C   UNL A   1      43.790  25.173  27.283  1.00  0.00     0.037 A 
ATOM     53  C   UNL A   1      47.030  30.814  27.765  1.00  0.00     0.049 A 
ATOM     54  C   UNL A   1      45.207  25.576  26.975  1.00  0.00     0.074 A 
ATOM     55  C   UNL A   1      48.371  31.049  27.518  1.00  0.00     0.029 A 
ATOM     56  N   UNL A   1      46.802  29.473  27.489  1.00  0.00    -0.354 N 
ATOM     57  N   UNL A   1      45.780  26.748  27.120  1.00  0.00    -0.248 NA
ATOM     58  C   UNL A   1      46.095  24.535  26.441  1.00  0.00     0.031 C 
ATOM     59  C   UNL A   1      48.942  29.865  27.039  1.00  0.00     0.029 A 
ATOM     60  C   UNL A   1      47.972  28.876  27.048  1.00  0.00     0.049 A 
ATOM     61  H   UNL A   1      45.937  29.014  27.592  1.00  0.00     0.167 HD
ATOM     62  C   UNL A   1      47.103  26.576  26.724  1.00  0.00     0.074 A 
ATOM     63  C   UNL A   1      47.247  25.186  26.345  1.00  0.00     0.031 C 
ATOM     64  C   UNL A   1      48.106  27.487  26.680  1.00  0.00     0.037 A 
BRANCH  51  65
ATOM     65  C   UNL A   1      46.424  33.187  28.397  1.00  0.00     0.058 A 
ATOM     66  C   UNL A   1      46.917  33.669  29.620  1.00  0.00     0.135 A 
ATOM     67  C   UNL A   1      46.348  34.090  27.323  1.00  0.00     0.135 A 
ATOM     68  F   UNL A   1      46.999  32.855  30.685  1.00  0.00    -0.206 F 
ATOM     69  C   UNL A   1      47.292  35.000  29.783  1.00  0.00     0.059 A 
ATOM     70  C   UNL A   1      46.747  35.417  27.454  1.00  0.00     0.059 A 
ATOM     71  F   UNL A   1      45.887  33.685  26.130  1.00  0.00    -0.206 F 
ATOM     72  C   UNL A   1      47.204  35.866  28.691  1.00  0.00     0.060 A 
BRANCH  72  73
ATOM     73  S   UNL A   1      47.699  37.587  28.918  1.00  0.00     0.124 S 
ATOM     74  O   UNL A   1      49.044  37.581  28.350  1.00  0.00    -0.237 OA
ATOM     75  O   UNL A   1      46.689  38.306  28.147  1.00  0.00    -0.237 OA
ATOM     76  O   UNL A   1      47.630  37.774  30.364  1.00  0.00    -0.744 OA
ENDBRANCH  72  73
ENDBRANCH  51  65
BRANCH  52  77
ATOM     77  C   UNL A   1      43.326  23.778  27.046  1.00  0.00     0.058 A 
ATOM     78  C   UNL A   1      43.134  22.887  28.113  1.00  0.00     0.135 A 
ATOM     79  C   UNL A   1      43.055  23.310  25.750  1.00  0.00     0.135 A 
ATOM     80  F   UNL A   1      43.386  23.283  29.370  1.00  0.00    -0.206 F 
ATOM     81  C   UNL A   1      42.708  21.579  27.905  1.00  0.00     0.059 A 
ATOM     82  C   UNL A   1      42.602  22.015  25.519  1.00  0.00     0.059 A 
ATOM     83  F   UNL A   1      43.206  24.127  24.695  1.00  0.00    -0.206 F 
ATOM     84  C   UNL A   1      42.442  21.153  26.602  1.00  0.00     0.060 A 
BRANCH  84  85
ATOM     85  S   UNL A   1      41.845  19.469  26.348  1.00  0.00     0.124 S 
ATOM     86  O   UNL A   1      42.549  19.087  25.130  1.00  0.00    -0.237 OA
ATOM     87  O   UNL A   1      42.277  18.803  27.573  1.00  0.00    -0.237 OA
ATOM     88  O   UNL A   1      40.400  19.642  26.214  1.00  0.00    -0.744 OA
ENDBRANCH  84  85
ENDBRANCH  52  77
BRANCH  64  89
ATOM     89  C   UNL A   1      49.465  27.006  26.244  1.00  0.00     0.058 A 
ATOM     90  C   UNL A   1      50.384  26.459  27.152  1.00  0.00     0.135 A 
ATOM     91  C   UNL A   1      49.828  27.046  24.888  1.00  0.00     0.135 A 
ATOM     92  F   UNL A   1      50.091  26.403  28.461  1.00  0.00    -0.206 F 
ATOM     93  C   UNL A   1      51.627  25.991  26.735  1.00  0.00     0.059 A 
ATOM     94  C   UNL A   1      51.053  26.555  24.444  1.00  0.00     0.059 A 
ATOM     95  F   UNL A   1      48.984  27.550  23.975  1.00  0.00    -0.206 F 
ATOM     96  C   UNL A   1      51.950  26.039  25.377  1.00  0.00     0.060 A 
BRANCH  96  97
ATOM     97  S   UNL A   1      53.551  25.397  24.846  1.00  0.00     0.124 S 
ATOM     98  O   UNL A   1      53.584  25.809  23.447  1.00  0.00    -0.237 OA
ATOM     99  O   UNL A   1      54.476  26.096  25.734  1.00  0.00    -0.237 OA
ATOM    100  O   UNL A   1      53.436  23.961  25.076  1.00  0.00    -0.744 OA
ENDBRANCH  96  97
ENDBRANCH  64  89
ENDBRANCH  38  39
ENDBRANCH  30  33
ENDBRANCH  28  29
ENDBRANCH  27  28
ENDBRANCH   1  27
TORSDOF 17
ENDMDL
MODEL 2
REMARK VINA RESULT:     -12.0      2.533      8.560
REMARK SMILES O=C(Cc1cncnc1N1CCC2(CC1)OCCC[C@@H]2O)NCCCCNC(=O)c1ccc(-c2c3nc(c(-c4c(F)cc(S(=O)(=O)[O-])cc4F)c4ccc([nH]4)c(-c4c(F)cc(S(=O)(=O)[O-])cc4F)c4nc(c(-c5c(F)cc(S(=O)(=O)[O-])cc5F)c5ccc2[nH]5)C=C4)C=C3)cc1
REMARK SMILES IDX 24 1 23 2 22 3 1 4 2 5 3 7 4 8 5 9 9 10 6 11 8 12 7 13 10 14
REMARK SMILES IDX 11 15 15 16 12 17 14 18 13 19 16 20 20 21 17 22 19 23 18 24
REMARK SMILES IDX 21 25 25 27 26 28 27 29 28 30 29 32 30 33 31 34 95 35 32 36
REMARK SMILES IDX 94 37 33 38 34 39 35 40 88 41 36 42 93 43 87 44 89 45 37 46
REMARK SMILES IDX 92 47 86 48 85 49 38 51 72 52 51 53 71 54 52 55 55 56 70 57
REMARK SMILES IDX 90 58 53 59 54 60 69 62 91 63 56 64 39 65 40 66 49 67 41 68
REMARK SMILES IDX 42 69 48 70 50 71 43 72 44 73 45 74 46 75 47 76 73 77 74 78
REMARK SMILES IDX 83 79 75 80 76 81 82 82 84 83 77 84 78 85 79 86 80 87 81 88
REMARK SMILES IDX 57 89 58 90 67 91 59 92 60 93 66 94 68 95 61 96 62 97 63 98
REMARK SMILES IDX 64 99 65 100
REMARK H PARENT 22 6 21 26 27 31 89 50 55 61
REMARK Flexibility Score: inf
ROOT
ATOM      1  C   UNL A   1      37.403  20.886  24.992  1.00  0.00     0.023 C 
ENDROOT
BRANCH   1   2
ATOM      2  C   UNL A   1      37.764  22.252  25.573  1.00  0.00     0.116 C 
BRANCH   2   3
ATOM      3  N   UNL A   1      36.593  22.936  26.070  1.00  0.00    -0.356 N 
ATOM      4  O   UNL A   1      36.050  24.017  24.113  1.00  0.00    -0.275 OA
ATOM      5  C   UNL A   1      35.822  23.770  25.292  1.00  0.00     0.224 C 
ATOM      6  H   UNL A   1      36.332  22.798  27.010  1.00  0.00     0.163 HD
BRANCH   5   7
ATOM      7  C   UNL A   1      34.644  24.346  26.043  1.00  0.00     0.141 C 
BRANCH   7   8
ATOM      8  C   UNL A   1      33.666  25.065  25.159  1.00  0.00     0.022 A 
ATOM      9  C   UNL A   1      33.756  26.436  24.975  1.00  0.00     0.121 A 
ATOM     10  C   UNL A   1      32.742  24.408  24.352  1.00  0.00     0.135 A 
ATOM     11  N   UNL A   1      33.027  27.131  24.090  1.00  0.00    -0.244 NA
ATOM     12  N   UNL A   1      32.007  25.074  23.439  1.00  0.00    -0.219 NA
ATOM     13  C   UNL A   1      32.183  26.400  23.357  1.00  0.00     0.224 A 
BRANCH  10  14
ATOM     14  N   UNL A   1      32.648  23.032  24.379  1.00  0.00    -0.356 N 
ATOM     15  C   UNL A   1      33.146  22.294  23.235  1.00  0.00     0.121 C 
ATOM     16  C   UNL A   1      31.578  22.375  25.118  1.00  0.00     0.121 C 
ATOM     17  C   UNL A   1      33.837  21.061  23.803  1.00  0.00     0.060 C 
ATOM     18  C   UNL A   1      32.132  21.071  25.707  1.00  0.00     0.060 C 
ATOM     19  C   UNL A   1      32.880  20.197  24.667  1.00  0.00     0.097 C 
ATOM     20  O   UNL A   1      31.848  19.576  23.868  1.00  0.00    -0.372 OA
ATOM     21  C   UNL A   1      33.703  19.094  25.398  1.00  0.00     0.146 C 
ATOM     22  C   UNL A   1      32.306  18.639  22.896  1.00  0.00     0.161 C 
ATOM     23  C   UNL A   1      34.216  18.030  24.426  1.00  0.00     0.037 C 
ATOM     24  C   UNL A   1      33.093  17.506  23.536  1.00  0.00     0.031 C 
BRANCH  21  25
ATOM     25  O   UNL A   1      32.923  18.430  26.400  1.00  0.00    -0.390 OA
ATOM     26  H   UNL A   1      33.104  18.826  27.267  1.00  0.00     0.211 HD
ENDBRANCH  21  25
ENDBRANCH  10  14
ENDBRANCH   7   8
ENDBRANCH   5   7
ENDBRANCH   2   3
ENDBRANCH   1   2
BRANCH   1  27
ATOM     27  C   UNL A   1      38.496  19.818  25.117  1.00  0.00     0.023 C 
BRANCH  27  28
ATOM     28  C   UNL A   1      39.615  20.147  26.100  1.00  0.00     0.116 C 
BRANCH  28  29
ATOM     29  N   UNL A   1      40.674  19.154  26.076  1.00  0.00    -0.352 N 
ATOM     30  C   UNL A   1      42.034  19.334  26.076  1.00  0.00     0.251 C 
ATOM     31  H   UNL A   1      40.373  18.217  26.059  1.00  0.00     0.163 HD
ATOM     32  O   UNL A   1      42.775  18.377  25.848  1.00  0.00    -0.269 OA
BRANCH  30  33
ATOM     33  C   UNL A   1      42.611  20.674  26.322  1.00  0.00     0.039 A 
ATOM     34  C   UNL A   1      43.087  21.416  25.237  1.00  0.00     0.014 A 
ATOM     35  C   UNL A   1      42.693  21.201  27.615  1.00  0.00     0.014 A 
ATOM     36  C   UNL A   1      43.583  22.705  25.441  1.00  0.00     0.010 A 
ATOM     37  C   UNL A   1      43.116  22.514  27.806  1.00  0.00     0.010 A 
ATOM     38  C   UNL A   1      43.567  23.282  26.722  1.00  0.00    -0.014 A 
BRANCH  38  39
ATOM     39  C   UNL A   1      44.009  24.686  26.940  1.00  0.00     0.031 A 
ATOM     40  C   UNL A   1      45.458  25.063  26.775  1.00  0.00     0.074 A 
ATOM     41  C   UNL A   1      43.116  25.610  27.346  1.00  0.00     0.049 A 
ATOM     42  N   UNL A   1      46.039  26.216  26.981  1.00  0.00    -0.248 NA
ATOM     43  C   UNL A   1      46.377  23.997  26.346  1.00  0.00     0.031 C 
ATOM     44  C   UNL A   1      41.692  25.363  27.585  1.00  0.00     0.029 A 
ATOM     45  N   UNL A   1      43.271  26.943  27.640  1.00  0.00    -0.354 N 
ATOM     46  C   UNL A   1      47.390  26.015  26.718  1.00  0.00     0.074 A 
ATOM     47  C   UNL A   1      47.550  24.614  26.391  1.00  0.00     0.031 C 
ATOM     48  C   UNL A   1      41.103  26.508  27.966  1.00  0.00     0.029 A 
ATOM     49  C   UNL A   1      42.110  27.561  28.042  1.00  0.00     0.049 A 
ATOM     50  H   UNL A   1      44.134  27.413  27.570  1.00  0.00     0.167 HD
ATOM     51  C   UNL A   1      48.400  26.917  26.725  1.00  0.00     0.037 A 
ATOM     52  C   UNL A   1      41.882  28.829  28.438  1.00  0.00     0.037 A 
ATOM     53  C   UNL A   1      48.232  28.314  27.036  1.00  0.00     0.049 A 
ATOM     54  C   UNL A   1      43.023  29.810  28.455  1.00  0.00     0.074 A 
ATOM     55  C   UNL A   1      49.183  29.320  27.017  1.00  0.00     0.029 A 
ATOM     56  N   UNL A   1      47.038  28.903  27.428  1.00  0.00    -0.354 N 
ATOM     57  N   UNL A   1      44.282  29.616  28.139  1.00  0.00    -0.248 NA
ATOM     58  C   UNL A   1      42.715  31.183  28.876  1.00  0.00     0.031 C 
ATOM     59  C   UNL A   1      48.578  30.503  27.451  1.00  0.00     0.029 A 
ATOM     60  C   UNL A   1      47.235  30.252  27.679  1.00  0.00     0.049 A 
ATOM     61  H   UNL A   1      46.177  28.433  27.513  1.00  0.00     0.167 HD
ATOM     62  C   UNL A   1      44.908  30.848  28.293  1.00  0.00     0.074 A 
ATOM     63  C   UNL A   1      43.887  31.783  28.720  1.00  0.00     0.031 C 
ATOM     64  C   UNL A   1      46.209  31.176  28.098  1.00  0.00     0.037 A 
BRANCH  51  65
ATOM     65  C   UNL A   1      49.783  26.424  26.388  1.00  0.00     0.058 A 
ATOM     66  C   UNL A   1      50.656  25.942  27.376  1.00  0.00     0.135 A 
ATOM     67  C   UNL A   1      50.227  26.397  25.056  1.00  0.00     0.135 A 
ATOM     68  F   UNL A   1      50.291  25.956  28.669  1.00  0.00    -0.206 F 
ATOM     69  C   UNL A   1      51.931  25.479  27.061  1.00  0.00     0.059 A 
ATOM     70  C   UNL A   1      51.485  25.909  24.713  1.00  0.00     0.059 A 
ATOM     71  F   UNL A   1      49.435  26.844  24.069  1.00  0.00    -0.206 F 
ATOM     72  C   UNL A   1      52.335  25.466  25.725  1.00  0.00     0.060 A 
BRANCH  72  73
ATOM     73  S   UNL A   1      53.989  24.857  25.333  1.00  0.00     0.124 S 
ATOM     74  O   UNL A   1      53.710  23.475  24.956  1.00  0.00    -0.237 OA
ATOM     75  O   UNL A   1      54.395  25.740  24.244  1.00  0.00    -0.237 OA
ATOM     76  O   UNL A   1      54.721  25.031  26.584  1.00  0.00    -0.744 OA
ENDBRANCH  72  73
ENDBRANCH  51  65
BRANCH  52  77
ATOM     77  C   UNL A   1      40.510  29.248  28.838  1.00  0.00     0.058 A 
ATOM     78  C   UNL A   1      39.514  29.477  27.878  1.00  0.00     0.135 A 
ATOM     79  C   UNL A   1      40.165  29.418  30.189  1.00  0.00     0.135 A 
ATOM     80  F   UNL A   1      39.796  29.337  26.574  1.00  0.00    -0.206 F 
ATOM     81  C   UNL A   1      38.230  29.877  28.238  1.00  0.00     0.059 A 
ATOM     82  C   UNL A   1      38.881  29.789  30.575  1.00  0.00     0.059 A 
ATOM     83  F   UNL A   1      41.076  29.194  31.150  1.00  0.00    -0.206 F 
ATOM     84  C   UNL A   1      37.923  30.027  29.592  1.00  0.00     0.060 A 
BRANCH  84  85
ATOM     85  S   UNL A   1      36.242  30.500  30.049  1.00  0.00     0.124 S 
ATOM     86  O   UNL A   1      36.398  31.925  30.310  1.00  0.00    -0.237 OA
ATOM     87  O   UNL A   1      35.488  30.147  28.851  1.00  0.00    -0.237 OA
ATOM     88  O   UNL A   1      35.968  29.669  31.220  1.00  0.00    -0.744 OA
ENDBRANCH  84  85
ENDBRANCH  52  77
BRANCH  64  89
ATOM     89  C   UNL A   1      46.604  32.614  28.303  1.00  0.00     0.058 A 
ATOM     90  C   UNL A   1      47.141  33.069  29.517  1.00  0.00     0.135 A 
ATOM     91  C   UNL A   1      46.491  33.536  27.251  1.00  0.00     0.135 A 
ATOM     92  F   UNL A   1      47.265  32.232  30.559  1.00  0.00    -0.206 F 
ATOM     93  C   UNL A   1      47.529  34.395  29.688  1.00  0.00     0.059 A 
ATOM     94  C   UNL A   1      46.902  34.859  27.388  1.00  0.00     0.059 A 
ATOM     95  F   UNL A   1      45.993  33.153  26.064  1.00  0.00    -0.206 F 
ATOM     96  C   UNL A   1      47.409  35.282  28.616  1.00  0.00     0.060 A 
BRANCH  96  97
ATOM     97  S   UNL A   1      47.948  36.989  28.841  1.00  0.00     0.124 S 
ATOM     98  O   UNL A   1      47.389  37.634  27.658  1.00  0.00    -0.237 OA
ATOM     99  O   UNL A   1      47.325  37.347  30.112  1.00  0.00    -0.237 OA
ATOM    100  O   UNL A   1      49.404  36.886  28.871  1.00  0.00    -0.744 OA
ENDBRANCH  96  97
ENDBRANCH  64  89
ENDBRANCH  38  39
ENDBRANCH  30  33
ENDBRANCH  28  29
ENDBRANCH  27  28
ENDBRANCH   1  27
TORSDOF 17
ENDMDL
MODEL 3
REMARK VINA RESULT:     -12.0      1.349      3.458
REMARK SMILES O=C(Cc1cncnc1N1CCC2(CC1)OCCC[C@@H]2O)NCCCCNC(=O)c1ccc(-c2c3nc(c(-c4c(F)cc(S(=O)(=O)[O-])cc4F)c4ccc([nH]4)c(-c4c(F)cc(S(=O)(=O)[O-])cc4F)c4nc(c(-c5c(F)cc(S(=O)(=O)[O-])cc5F)c5ccc2[nH]5)C=C4)C=C3)cc1
REMARK SMILES IDX 24 1 23 2 22 3 1 4 2 5 3 7 4 8 5 9 9 10 6 11 8 12 7 13 10 14
REMARK SMILES IDX 11 15 15 16 12 17 14 18 13 19 16 20 20 21 17 22 19 23 18 24
REMARK SMILES IDX 21 25 25 27 26 28 27 29 28 30 29 32 30 33 31 34 95 35 32 36
REMARK SMILES IDX 94 37 33 38 34 39 35 40 88 41 36 42 93 43 87 44 89 45 37 46
REMARK SMILES IDX 92 47 86 48 85 49 38 51 72 52 51 53 71 54 52 55 55 56 70 57
REMARK SMILES IDX 90 58 53 59 54 60 69 62 91 63 56 64 39 65 40 66 49 67 41 68
REMARK SMILES IDX 42 69 48 70 50 71 43 72 44 73 45 74 46 75 47 76 73 77 74 78
REMARK SMILES IDX 83 79 75 80 76 81 82 82 84 83 77 84 78 85 79 86 80 87 81 88
REMARK SMILES IDX 57 89 58 90 67 91 59 92 60 93 66 94 68 95 61 96 62 97 63 98
REMARK SMILES IDX 64 99 65 100
REMARK H PARENT 22 6 21 26 27 31 89 50 55 61
REMARK Flexibility Score: inf
ROOT
ATOM      1  C   UNL A   1      34.182  31.221  27.992  1.00  0.00     0.023 C 
ENDROOT
BRANCH   1   2
ATOM      2  C   UNL A   1      34.411  29.758  27.620  1.00  0.00     0.116 C 
BRANCH   2   3
ATOM      3  N   UNL A   1      33.159  29.052  27.478  1.00  0.00    -0.356 N 
ATOM      4  O   UNL A   1      33.947  27.353  26.142  1.00  0.00    -0.275 OA
ATOM      5  C   UNL A   1      33.028  27.894  26.745  1.00  0.00     0.224 C 
ATOM      6  H   UNL A   1      32.362  29.414  27.928  1.00  0.00     0.163 HD
BRANCH   5   7
ATOM      7  C   UNL A   1      31.620  27.343  26.770  1.00  0.00     0.141 C 
BRANCH   7   8
ATOM      8  C   UNL A   1      31.435  26.136  25.895  1.00  0.00     0.022 A 
ATOM      9  C   UNL A   1      31.654  24.862  26.395  1.00  0.00     0.121 A 
ATOM     10  C   UNL A   1      30.881  26.197  24.620  1.00  0.00     0.135 A 
ATOM     11  N   UNL A   1      31.365  23.731  25.736  1.00  0.00    -0.244 NA
ATOM     12  N   UNL A   1      30.562  25.079  23.939  1.00  0.00    -0.219 NA
ATOM     13  C   UNL A   1      30.823  23.904  24.528  1.00  0.00     0.224 A 
BRANCH  10  14
ATOM     14  N   UNL A   1      30.524  27.413  24.073  1.00  0.00    -0.356 N 
ATOM     15  C   UNL A   1      29.336  27.462  23.244  1.00  0.00     0.121 C 
ATOM     16  C   UNL A   1      31.538  28.411  23.758  1.00  0.00     0.121 C 
ATOM     17  C   UNL A   1      28.640  28.772  23.594  1.00  0.00     0.060 C 
ATOM     18  C   UNL A   1      30.941  29.800  24.018  1.00  0.00     0.060 C 
ATOM     19  C   UNL A   1      29.552  30.004  23.357  1.00  0.00     0.097 C 
ATOM     20  O   UNL A   1      29.819  30.214  21.952  1.00  0.00    -0.372 OA
ATOM     21  C   UNL A   1      28.868  31.273  23.950  1.00  0.00     0.146 C 
ATOM     22  C   UNL A   1      28.680  30.525  21.153  1.00  0.00     0.161 C 
ATOM     23  C   UNL A   1      27.642  31.689  23.135  1.00  0.00     0.037 C 
ATOM     24  C   UNL A   1      27.972  31.776  21.647  1.00  0.00     0.031 C 
BRANCH  21  25
ATOM     25  O   UNL A   1      29.766  32.388  23.991  1.00  0.00    -0.390 OA
ATOM     26  H   UNL A   1      29.505  33.038  23.320  1.00  0.00     0.211 HD
ENDBRANCH  21  25
ENDBRANCH  10  14
ENDBRANCH   7   8
ENDBRANCH   5   7
ENDBRANCH   2   3
ENDBRANCH   1   2
BRANCH   1  27
ATOM     27  C   UNL A   1      35.403  32.133  27.823  1.00  0.00     0.023 C 
BRANCH  27  28
ATOM     28  C   UNL A   1      36.154  32.457  29.110  1.00  0.00     0.116 C 
BRANCH  28  29
ATOM     29  N   UNL A   1      35.821  31.539  30.184  1.00  0.00    -0.352 N 
ATOM     30  C   UNL A   1      36.513  30.443  30.636  1.00  0.00     0.251 C 
ATOM     31  H   UNL A   1      34.979  31.730  30.656  1.00  0.00     0.163 HD
ATOM     32  O   UNL A   1      35.973  29.665  31.424  1.00  0.00    -0.269 OA
BRANCH  30  33
ATOM     33  C   UNL A   1      37.889  30.179  30.162  1.00  0.00     0.039 A 
ATOM     34  C   UNL A   1      38.929  30.132  31.094  1.00  0.00     0.014 A 
ATOM     35  C   UNL A   1      38.162  29.986  28.804  1.00  0.00     0.014 A 
ATOM     36  C   UNL A   1      40.226  29.829  30.674  1.00  0.00     0.010 A 
ATOM     37  C   UNL A   1      39.439  29.609  28.397  1.00  0.00     0.010 A 
ATOM     38  C   UNL A   1      40.488  29.526  29.327  1.00  0.00    -0.014 A 
BRANCH  38  39
ATOM     39  C   UNL A   1      41.845  29.115  28.879  1.00  0.00     0.031 A 
ATOM     40  C   UNL A   1      42.958  30.126  28.794  1.00  0.00     0.074 A 
ATOM     41  C   UNL A   1      42.062  27.842  28.492  1.00  0.00     0.049 A 
ATOM     42  N   UNL A   1      44.186  29.969  28.370  1.00  0.00    -0.248 NA
ATOM     43  C   UNL A   1      42.643  31.500  29.218  1.00  0.00     0.031 C 
ATOM     44  C   UNL A   1      41.057  26.777  28.486  1.00  0.00     0.029 A 
ATOM     45  N   UNL A   1      43.195  27.227  28.019  1.00  0.00    -0.354 N 
ATOM     46  C   UNL A   1      44.785  31.220  28.465  1.00  0.00     0.074 A 
ATOM     47  C   UNL A   1      43.769  32.138  28.934  1.00  0.00     0.031 C 
ATOM     48  C   UNL A   1      41.622  25.639  28.054  1.00  0.00     0.029 A 
ATOM     49  C   UNL A   1      43.016  25.898  27.710  1.00  0.00     0.049 A 
ATOM     50  H   UNL A   1      44.056  27.693  27.911  1.00  0.00     0.167 HD
ATOM     51  C   UNL A   1      46.068  31.568  28.207  1.00  0.00     0.037 A 
ATOM     52  C   UNL A   1      43.873  24.993  27.198  1.00  0.00     0.037 A 
ATOM     53  C   UNL A   1      47.080  30.646  27.754  1.00  0.00     0.049 A 
ATOM     54  C   UNL A   1      45.290  25.406  26.902  1.00  0.00     0.074 A 
ATOM     55  C   UNL A   1      48.421  30.890  27.517  1.00  0.00     0.029 A 
ATOM     56  N   UNL A   1      46.861  29.307  27.463  1.00  0.00    -0.354 N 
ATOM     57  N   UNL A   1      45.856  26.580  27.062  1.00  0.00    -0.248 NA
ATOM     58  C   UNL A   1      46.187  24.375  26.364  1.00  0.00     0.031 C 
ATOM     59  C   UNL A   1      49.001  29.714  27.031  1.00  0.00     0.029 A 
ATOM     60  C   UNL A   1      48.037  28.720  27.024  1.00  0.00     0.049 A 
ATOM     61  H   UNL A   1      45.998  28.842  27.556  1.00  0.00     0.167 HD
ATOM     62  C   UNL A   1      47.181  26.419  26.672  1.00  0.00     0.074 A 
ATOM     63  C   UNL A   1      47.335  25.033  26.281  1.00  0.00     0.031 C 
ATOM     64  C   UNL A   1      48.180  27.336  26.643  1.00  0.00     0.037 A 
BRANCH  51  65
ATOM     65  C   UNL A   1      46.457  33.010  28.405  1.00  0.00     0.058 A 
ATOM     66  C   UNL A   1      46.959  33.478  29.630  1.00  0.00     0.135 A 
ATOM     67  C   UNL A   1      46.364  33.927  27.345  1.00  0.00     0.135 A 
ATOM     68  F   UNL A   1      47.058  32.650  30.682  1.00  0.00    -0.206 F 
ATOM     69  C   UNL A   1      47.326  34.809  29.807  1.00  0.00     0.059 A 
ATOM     70  C   UNL A   1      46.755  35.256  27.490  1.00  0.00     0.059 A 
ATOM     71  F   UNL A   1      45.893  33.536  26.151  1.00  0.00    -0.206 F 
ATOM     72  C   UNL A   1      47.221  35.690  28.729  1.00  0.00     0.060 A 
BRANCH  72  73
ATOM     73  S   UNL A   1      47.705  37.412  28.976  1.00  0.00     0.124 S 
ATOM     74  O   UNL A   1      46.718  37.856  29.954  1.00  0.00    -0.237 OA
ATOM     75  O   UNL A   1      49.073  37.282  29.471  1.00  0.00    -0.237 OA
ATOM     76  O   UNL A   1      47.577  37.996  27.644  1.00  0.00    -0.744 OA
ENDBRANCH  72  73
ENDBRANCH  51  65
BRANCH  52  77
ATOM     77  C   UNL A   1      43.418  23.598  26.944  1.00  0.00     0.058 A 
ATOM     78  C   UNL A   1      43.305  22.671  27.991  1.00  0.00     0.135 A 
ATOM     79  C   UNL A   1      43.077  23.166  25.653  1.00  0.00     0.135 A 
ATOM     80  F   UNL A   1      43.627  23.033  29.243  1.00  0.00    -0.206 F 
ATOM     81  C   UNL A   1      42.889  21.362  27.768  1.00  0.00     0.059 A 
ATOM     82  C   UNL A   1      42.631  21.871  25.407  1.00  0.00     0.059 A 
ATOM     83  F   UNL A   1      43.150  24.017  24.617  1.00  0.00    -0.206 F 
ATOM     84  C   UNL A   1      42.550  20.973  26.470  1.00  0.00     0.060 A 
BRANCH  84  85
ATOM     85  S   UNL A   1      41.966  19.286  26.199  1.00  0.00     0.124 S 
ATOM     86  O   UNL A   1      42.784  18.870  25.066  1.00  0.00    -0.237 OA
ATOM     87  O   UNL A   1      42.269  18.648  27.475  1.00  0.00    -0.237 OA
ATOM     88  O   UNL A   1      40.544  19.466  25.918  1.00  0.00    -0.744 OA
ENDBRANCH  84  85
ENDBRANCH  52  77
BRANCH  64  89
ATOM     89  C   UNL A   1      49.544  26.866  26.211  1.00  0.00     0.058 A 
ATOM     90  C   UNL A   1      50.004  27.037  24.895  1.00  0.00     0.135 A 
ATOM     91  C   UNL A   1      50.421  26.286  27.141  1.00  0.00     0.135 A 
ATOM     92  F   UNL A   1      49.205  27.579  23.963  1.00  0.00    -0.206 F 
ATOM     93  C   UNL A   1      51.277  26.624  24.512  1.00  0.00     0.059 A 
ATOM     94  C   UNL A   1      51.710  25.896  26.788  1.00  0.00     0.059 A 
ATOM     95  F   UNL A   1      50.037  26.108  28.415  1.00  0.00    -0.206 F 
ATOM     96  C   UNL A   1      52.124  26.058  25.467  1.00  0.00     0.060 A 
BRANCH  96  97
ATOM     97  S   UNL A   1      53.785  25.560  24.964  1.00  0.00     0.124 S 
ATOM     98  O   UNL A   1      53.809  25.984  23.569  1.00  0.00    -0.237 OA
ATOM     99  O   UNL A   1      54.629  26.329  25.875  1.00  0.00    -0.237 OA
ATOM    100  O   UNL A   1      53.789  24.117  25.183  1.00  0.00    -0.744 OA
ENDBRANCH  96  97
ENDBRANCH  64  89
ENDBRANCH  38  39
ENDBRANCH  30  33
ENDBRANCH  28  29
ENDBRANCH  27  28
ENDBRANCH   1  27
TORSDOF 17
ENDMDL
