MODEL 1
REMARK VINA RESULT:     -11.3      0.000      0.000
REMARK SMILES COc1ccc(NCc2ccc(C(=O)NCCCCNC(=O)c3ccc(-c4c5nc(c(-c6c(F)cc(S(=O)(=O)[O-])cc6F)c6ccc([nH]6)c(-c6c(F)cc(S(=O)(=O)[O-])cc6F)c6nc(c(-c7c(F)cc(S(=O)(=O)[O-])cc7F)c7ccc4[nH]7)C=C6)C=C5)cc3)cn2)cc1Br
REMARK SMILES IDX 17 1 16 2 15 3 13 4 14 5 12 7 9 8 10 9 90 10 11 11 89 12
REMARK SMILES IDX 8 13 7 14 6 16 3 17 4 18 92 19 5 20 91 21 93 22 2 23 1 24
REMARK SMILES IDX 18 25 19 26 20 27 21 28 22 30 23 31 24 32 88 33 25 34 87 35
REMARK SMILES IDX 26 36 27 37 28 38 81 39 29 40 86 41 80 42 82 43 30 44 85 45
REMARK SMILES IDX 79 46 78 47 31 49 65 50 44 51 64 52 45 53 48 54 63 55 83 56
REMARK SMILES IDX 46 57 47 58 62 60 84 61 49 62 32 63 33 64 42 65 34 66 35 67
REMARK SMILES IDX 41 68 43 69 36 70 37 71 38 72 39 73 40 74 66 75 67 76 76 77
REMARK SMILES IDX 68 78 69 79 75 80 77 81 70 82 71 83 72 84 73 85 74 86 50 87
REMARK SMILES IDX 51 88 60 89 52 90 53 91 59 92 61 93 54 94 55 95 56 96 57 97
REMARK SMILES IDX 58 98
REMARK H PARENT 15 6 7 15 20 29 82 48 48 59
REMARK Flexibility Score: inf
ROOT
ATOM      1  C   UNL A   1      32.819  29.374  24.935  1.00  0.00     0.023 C 
ENDROOT
BRANCH   1   2
ATOM      2  C   UNL A   1      31.328  29.715  24.961  1.00  0.00     0.116 C 
BRANCH   2   3
ATOM      3  N   UNL A   1      30.788  29.781  23.617  1.00  0.00    -0.352 N 
ATOM      4  C   UNL A   1      30.437  28.796  22.729  1.00  0.00     0.252 C 
ATOM      5  O   UNL A   1      29.917  29.129  21.665  1.00  0.00    -0.269 OA
ATOM      6  H   UNL A   1      30.649  30.696  23.282  1.00  0.00     0.163 HD
BRANCH   4   7
ATOM      7  C   UNL A   1      30.617  27.353  23.007  1.00  0.00     0.058 A 
ATOM      8  C   UNL A   1      31.188  24.661  23.358  1.00  0.00     0.059 A 
ATOM      9  C   UNL A   1      30.200  25.258  24.136  1.00  0.00     0.026 A 
ATOM     10  N   UNL A   1      31.893  25.364  22.434  1.00  0.00    -0.259 NA
ATOM     11  C   UNL A   1      29.923  26.616  23.964  1.00  0.00     0.017 A 
ATOM     12  C   UNL A   1      31.606  26.685  22.295  1.00  0.00     0.125 A 
BRANCH   8  13
ATOM     13  C   UNL A   1      31.502  23.185  23.562  1.00  0.00     0.169 C 
BRANCH  13  14
ATOM     14  N   UNL A   1      32.207  22.947  24.811  1.00  0.00    -0.379 N 
ATOM     15  H   UNL A   1      31.757  23.244  25.635  1.00  0.00     0.160 HD
BRANCH  14  16
ATOM     16  C   UNL A   1      33.442  22.349  24.967  1.00  0.00     0.036 A 
ATOM     17  C   UNL A   1      36.053  21.301  25.235  1.00  0.00     0.133 A 
ATOM     18  C   UNL A   1      35.004  20.483  24.820  1.00  0.00     0.050 A 
ATOM     19  C   UNL A   1      35.820  22.654  25.466  1.00  0.00     0.062 A 
ATOM     20  C   UNL A   1      33.714  21.008  24.680  1.00  0.00     0.029 A 
ATOM     21  C   UNL A   1      34.523  23.163  25.341  1.00  0.00     0.045 A 
ATOM     22  Br  UNL A   1      37.216  23.860  25.906  1.00  0.00    -0.047 Br
BRANCH  17  23
ATOM     23  O   UNL A   1      37.298  20.737  25.319  1.00  0.00    -0.496 OA
ATOM     24  C   UNL A   1      37.266  19.383  24.864  1.00  0.00     0.278 C 
ENDBRANCH  17  23
ENDBRANCH  14  16
ENDBRANCH  13  14
ENDBRANCH   8  13
ENDBRANCH   4   7
ENDBRANCH   2   3
ENDBRANCH   1   2
BRANCH   1  25
ATOM     25  C   UNL A   1      33.202  28.130  25.740  1.00  0.00     0.023 C 
BRANCH  25  26
ATOM     26  C   UNL A   1      33.614  28.393  27.185  1.00  0.00     0.116 C 
BRANCH  26  27
ATOM     27  N   UNL A   1      33.515  29.796  27.565  1.00  0.00    -0.352 N 
ATOM     28  C   UNL A   1      34.482  30.598  28.121  1.00  0.00     0.251 C 
ATOM     29  H   UNL A   1      32.644  30.224  27.403  1.00  0.00     0.163 HD
ATOM     30  O   UNL A   1      34.208  31.737  28.476  1.00  0.00    -0.269 OA
BRANCH  28  31
ATOM     31  C   UNL A   1      35.840  30.052  28.328  1.00  0.00     0.039 A 
ATOM     32  C   UNL A   1      36.753  30.104  27.272  1.00  0.00     0.014 A 
ATOM     33  C   UNL A   1      36.221  29.534  29.569  1.00  0.00     0.014 A 
ATOM     34  C   UNL A   1      38.073  29.700  27.483  1.00  0.00     0.010 A 
ATOM     35  C   UNL A   1      37.549  29.189  29.794  1.00  0.00     0.010 A 
ATOM     36  C   UNL A   1      38.489  29.276  28.755  1.00  0.00    -0.014 A 
BRANCH  36  37
ATOM     37  C   UNL A   1      39.907  28.936  29.027  1.00  0.00     0.031 A 
ATOM     38  C   UNL A   1      40.838  29.977  29.585  1.00  0.00     0.074 A 
ATOM     39  C   UNL A   1      40.372  27.716  28.697  1.00  0.00     0.049 A 
ATOM     40  N   UNL A   1      42.124  29.898  29.808  1.00  0.00    -0.248 NA
ATOM     41  C   UNL A   1      40.249  31.285  29.911  1.00  0.00     0.031 C 
ATOM     42  C   UNL A   1      39.577  26.640  28.097  1.00  0.00     0.029 A 
ATOM     43  N   UNL A   1      41.630  27.177  28.802  1.00  0.00    -0.354 N 
ATOM     44  C   UNL A   1      42.502  31.149  30.281  1.00  0.00     0.074 A 
ATOM     45  C   UNL A   1      41.317  31.980  30.272  1.00  0.00     0.031 C 
ATOM     46  C   UNL A   1      40.362  25.568  27.904  1.00  0.00     0.029 A 
ATOM     47  C   UNL A   1      41.720  25.888  28.334  1.00  0.00     0.049 A 
ATOM     48  H   UNL A   1      42.395  27.669  29.178  1.00  0.00     0.167 HD
ATOM     49  C   UNL A   1      43.721  31.559  30.704  1.00  0.00     0.037 A 
ATOM     50  C   UNL A   1      42.780  25.060  28.254  1.00  0.00     0.037 A 
ATOM     51  C   UNL A   1      44.889  30.717  30.740  1.00  0.00     0.049 A 
ATOM     52  C   UNL A   1      44.117  25.532  28.749  1.00  0.00     0.074 A 
ATOM     53  C   UNL A   1      46.154  31.021  31.209  1.00  0.00     0.029 A 
ATOM     54  N   UNL A   1      44.932  29.406  30.292  1.00  0.00    -0.354 N 
ATOM     55  N   UNL A   1      44.445  26.699  29.250  1.00  0.00    -0.248 NA
ATOM     56  C   UNL A   1      45.230  24.573  28.676  1.00  0.00     0.031 C 
ATOM     57  C   UNL A   1      46.972  29.902  31.016  1.00  0.00     0.029 A 
ATOM     58  C   UNL A   1      46.205  28.889  30.462  1.00  0.00     0.049 A 
ATOM     59  H   UNL A   1      44.169  28.914  29.910  1.00  0.00     0.167 HD
ATOM     60  C   UNL A   1      45.794  26.609  29.572  1.00  0.00     0.074 A 
ATOM     61  C   UNL A   1      46.220  25.269  29.220  1.00  0.00     0.031 C 
ATOM     62  C   UNL A   1      46.608  27.550  30.111  1.00  0.00     0.037 A 
BRANCH  49  63
ATOM     63  C   UNL A   1      43.849  32.983  31.169  1.00  0.00     0.058 A 
ATOM     64  C   UNL A   1      44.160  34.021  30.277  1.00  0.00     0.135 A 
ATOM     65  C   UNL A   1      43.637  33.318  32.516  1.00  0.00     0.135 A 
ATOM     66  F   UNL A   1      44.388  33.753  28.981  1.00  0.00    -0.206 F 
ATOM     67  C   UNL A   1      44.288  35.336  30.708  1.00  0.00     0.059 A 
ATOM     68  C   UNL A   1      43.736  34.632  32.965  1.00  0.00     0.059 A 
ATOM     69  F   UNL A   1      43.338  32.364  33.411  1.00  0.00    -0.206 F 
ATOM     70  C   UNL A   1      44.078  35.632  32.056  1.00  0.00     0.060 A 
BRANCH  70  71
ATOM     71  S   UNL A   1      44.252  37.343  32.602  1.00  0.00     0.124 S 
ATOM     72  O   UNL A   1      43.155  37.455  33.559  1.00  0.00    -0.237 OA
ATOM     73  O   UNL A   1      45.594  37.356  33.175  1.00  0.00    -0.237 OA
ATOM     74  O   UNL A   1      44.092  38.111  31.372  1.00  0.00    -0.744 OA
ENDBRANCH  70  71
ENDBRANCH  49  63
BRANCH  50  75
ATOM     75  C   UNL A   1      42.607  23.688  27.708  1.00  0.00     0.058 A 
ATOM     76  C   UNL A   1      42.630  23.457  26.325  1.00  0.00     0.135 A 
ATOM     77  C   UNL A   1      42.436  22.583  28.554  1.00  0.00     0.135 A 
ATOM     78  F   UNL A   1      42.786  24.485  25.477  1.00  0.00    -0.206 F 
ATOM     79  C   UNL A   1      42.476  22.180  25.797  1.00  0.00     0.059 A 
ATOM     80  C   UNL A   1      42.301  21.292  28.051  1.00  0.00     0.059 A 
ATOM     81  F   UNL A   1      42.427  22.750  29.886  1.00  0.00    -0.206 F 
ATOM     82  C   UNL A   1      42.314  21.102  26.669  1.00  0.00     0.060 A 
BRANCH  82  83
ATOM     83  S   UNL A   1      42.171  19.440  25.977  1.00  0.00     0.124 S 
ATOM     84  O   UNL A   1      43.039  19.532  24.810  1.00  0.00    -0.237 OA
ATOM     85  O   UNL A   1      42.657  18.607  27.073  1.00  0.00    -0.237 OA
ATOM     86  O   UNL A   1      40.743  19.319  25.696  1.00  0.00    -0.744 OA
ENDBRANCH  82  83
ENDBRANCH  50  75
BRANCH  62  87
ATOM     87  C   UNL A   1      48.031  27.157  30.382  1.00  0.00     0.058 A 
ATOM     88  C   UNL A   1      49.058  27.438  29.468  1.00  0.00     0.135 A 
ATOM     89  C   UNL A   1      48.380  26.537  31.593  1.00  0.00     0.135 A 
ATOM     90  F   UNL A   1      48.774  28.022  28.293  1.00  0.00    -0.206 F 
ATOM     91  C   UNL A   1      50.380  27.101  29.737  1.00  0.00     0.059 A 
ATOM     92  C   UNL A   1      49.698  26.213  31.892  1.00  0.00     0.059 A 
ATOM     93  F   UNL A   1      47.435  26.256  32.504  1.00  0.00    -0.206 F 
ATOM     94  C   UNL A   1      50.691  26.489  30.952  1.00  0.00     0.060 A 
BRANCH  94  95
ATOM     95  S   UNL A   1      52.415  26.089  31.307  1.00  0.00     0.124 S 
ATOM     96  O   UNL A   1      52.296  24.749  31.873  1.00  0.00    -0.237 OA
ATOM     97  O   UNL A   1      53.035  26.167  29.988  1.00  0.00    -0.237 OA
ATOM     98  O   UNL A   1      52.818  27.134  32.245  1.00  0.00    -0.744 OA
ENDBRANCH  94  95
ENDBRANCH  62  87
ENDBRANCH  36  37
ENDBRANCH  28  31
ENDBRANCH  26  27
ENDBRANCH  25  26
ENDBRANCH   1  25
TORSDOF 18
ENDMDL
MODEL 2
REMARK VINA RESULT:     -10.9      4.831     10.645
REMARK SMILES COc1ccc(NCc2ccc(C(=O)NCCCCNC(=O)c3ccc(-c4c5nc(c(-c6c(F)cc(S(=O)(=O)[O-])cc6F)c6ccc([nH]6)c(-c6c(F)cc(S(=O)(=O)[O-])cc6F)c6nc(c(-c7c(F)cc(S(=O)(=O)[O-])cc7F)c7ccc4[nH]7)C=C6)C=C5)cc3)cn2)cc1Br
REMARK SMILES IDX 17 1 16 2 15 3 13 4 14 5 12 7 9 8 10 9 90 10 11 11 89 12
REMARK SMILES IDX 8 13 7 14 6 16 3 17 4 18 92 19 5 20 91 21 93 22 2 23 1 24
REMARK SMILES IDX 18 25 19 26 20 27 21 28 22 30 23 31 24 32 88 33 25 34 87 35
REMARK SMILES IDX 26 36 27 37 28 38 81 39 29 40 86 41 80 42 82 43 30 44 85 45
REMARK SMILES IDX 79 46 78 47 31 49 65 50 44 51 64 52 45 53 48 54 63 55 83 56
REMARK SMILES IDX 46 57 47 58 62 60 84 61 49 62 32 63 33 64 42 65 34 66 35 67
REMARK SMILES IDX 41 68 43 69 36 70 37 71 38 72 39 73 40 74 66 75 67 76 76 77
REMARK SMILES IDX 68 78 69 79 75 80 77 81 70 82 71 83 72 84 73 85 74 86 50 87
REMARK SMILES IDX 51 88 60 89 52 90 53 91 59 92 61 93 54 94 55 95 56 96 57 97
REMARK SMILES IDX 58 98
REMARK H PARENT 15 6 7 15 20 29 82 48 48 59
REMARK Flexibility Score: inf
ROOT
ATOM      1  C   UNL A   1      38.885  22.842  26.472  1.00  0.00     0.023 C 
ENDROOT
BRANCH   1   2
ATOM      2  C   UNL A   1      37.940  21.844  25.801  1.00  0.00     0.116 C 
BRANCH   2   3
ATOM      3  N   UNL A   1      37.675  22.224  24.427  1.00  0.00    -0.352 N 
ATOM      4  C   UNL A   1      36.531  22.657  23.807  1.00  0.00     0.252 C 
ATOM      5  O   UNL A   1      36.600  22.997  22.627  1.00  0.00    -0.269 OA
ATOM      6  H   UNL A   1      38.458  22.160  23.832  1.00  0.00     0.163 HD
BRANCH   4   7
ATOM      7  C   UNL A   1      35.227  22.770  24.502  1.00  0.00     0.058 A 
ATOM      8  C   UNL A   1      32.911  23.182  25.970  1.00  0.00     0.059 A 
ATOM      9  C   UNL A   1      32.862  22.396  24.822  1.00  0.00     0.026 A 
ATOM     10  N   UNL A   1      34.063  23.766  26.389  1.00  0.00    -0.259 NA
ATOM     11  C   UNL A   1      34.029  22.200  24.080  1.00  0.00     0.017 A 
ATOM     12  C   UNL A   1      35.179  23.563  25.642  1.00  0.00     0.125 A 
BRANCH   8  13
ATOM     13  C   UNL A   1      31.633  23.411  26.767  1.00  0.00     0.169 C 
BRANCH  13  14
ATOM     14  N   UNL A   1      31.341  24.827  26.929  1.00  0.00    -0.379 N 
ATOM     15  H   UNL A   1      31.335  25.172  27.851  1.00  0.00     0.160 HD
BRANCH  14  16
ATOM     16  C   UNL A   1      31.070  25.739  25.928  1.00  0.00     0.036 A 
ATOM     17  C   UNL A   1      30.515  27.749  24.021  1.00  0.00     0.133 A 
ATOM     18  C   UNL A   1      30.037  26.453  23.838  1.00  0.00     0.050 A 
ATOM     19  C   UNL A   1      31.223  28.064  25.177  1.00  0.00     0.062 A 
ATOM     20  C   UNL A   1      30.307  25.462  24.790  1.00  0.00     0.029 A 
ATOM     21  C   UNL A   1      31.503  27.061  26.112  1.00  0.00     0.045 A 
ATOM     22  Br  UNL A   1      31.793  29.832  25.563  1.00  0.00    -0.047 Br
BRANCH  17  23
ATOM     23  O   UNL A   1      30.187  28.682  23.073  1.00  0.00    -0.496 OA
ATOM     24  C   UNL A   1      28.770  28.751  22.908  1.00  0.00     0.278 C 
ENDBRANCH  17  23
ENDBRANCH  14  16
ENDBRANCH  13  14
ENDBRANCH   8  13
ENDBRANCH   4   7
ENDBRANCH   2   3
ENDBRANCH   1   2
BRANCH   1  25
ATOM     25  C   UNL A   1      40.073  22.206  27.197  1.00  0.00     0.023 C 
BRANCH  25  26
ATOM     26  C   UNL A   1      41.325  23.072  27.276  1.00  0.00     0.116 C 
BRANCH  26  27
ATOM     27  N   UNL A   1      41.523  23.907  26.099  1.00  0.00    -0.352 N 
ATOM     28  C   UNL A   1      41.567  25.278  26.024  1.00  0.00     0.251 C 
ATOM     29  H   UNL A   1      41.640  23.428  25.248  1.00  0.00     0.163 HD
ATOM     30  O   UNL A   1      41.643  25.833  24.936  1.00  0.00    -0.269 OA
BRANCH  28  31
ATOM     31  C   UNL A   1      41.473  26.072  27.268  1.00  0.00     0.039 A 
ATOM     32  C   UNL A   1      42.531  26.920  27.605  1.00  0.00     0.014 A 
ATOM     33  C   UNL A   1      40.331  26.009  28.072  1.00  0.00     0.014 A 
ATOM     34  C   UNL A   1      42.412  27.761  28.713  1.00  0.00     0.010 A 
ATOM     35  C   UNL A   1      40.190  26.890  29.138  1.00  0.00     0.010 A 
ATOM     36  C   UNL A   1      41.226  27.780  29.464  1.00  0.00    -0.014 A 
BRANCH  36  37
ATOM     37  C   UNL A   1      41.039  28.735  30.584  1.00  0.00     0.031 A 
ATOM     38  C   UNL A   1      41.895  28.627  31.815  1.00  0.00     0.074 A 
ATOM     39  C   UNL A   1      40.049  29.645  30.522  1.00  0.00     0.049 A 
ATOM     40  N   UNL A   1      41.827  29.309  32.929  1.00  0.00    -0.248 NA
ATOM     41  C   UNL A   1      42.949  27.600  31.802  1.00  0.00     0.031 C 
ATOM     42  C   UNL A   1      39.118  29.810  29.402  1.00  0.00     0.029 A 
ATOM     43  N   UNL A   1      39.647  30.595  31.428  1.00  0.00    -0.354 N 
ATOM     44  C   UNL A   1      42.812  28.783  33.756  1.00  0.00     0.074 A 
ATOM     45  C   UNL A   1      43.436  27.697  33.030  1.00  0.00     0.031 C 
ATOM     46  C   UNL A   1      38.266  30.809  29.681  1.00  0.00     0.029 A 
ATOM     47  C   UNL A   1      38.567  31.335  31.009  1.00  0.00     0.049 A 
ATOM     48  H   UNL A   1      40.090  30.732  32.296  1.00  0.00     0.167 HD
ATOM     49  C   UNL A   1      43.178  29.184  34.996  1.00  0.00     0.037 A 
ATOM     50  C   UNL A   1      37.891  32.322  31.629  1.00  0.00     0.037 A 
ATOM     51  C   UNL A   1      42.574  30.286  35.699  1.00  0.00     0.049 A 
ATOM     52  C   UNL A   1      38.330  32.763  32.997  1.00  0.00     0.074 A 
ATOM     53  C   UNL A   1      42.914  30.809  36.934  1.00  0.00     0.029 A 
ATOM     54  N   UNL A   1      41.507  31.035  35.227  1.00  0.00    -0.354 N 
ATOM     55  N   UNL A   1      39.303  32.294  33.741  1.00  0.00    -0.248 NA
ATOM     56  C   UNL A   1      37.583  33.871  33.610  1.00  0.00     0.031 C 
ATOM     57  C   UNL A   1      42.033  31.857  37.222  1.00  0.00     0.029 A 
ATOM     58  C   UNL A   1      41.168  32.010  36.150  1.00  0.00     0.049 A 
ATOM     59  H   UNL A   1      41.058  30.896  34.362  1.00  0.00     0.167 HD
ATOM     60  C   UNL A   1      39.302  33.063  34.899  1.00  0.00     0.074 A 
ATOM     61  C   UNL A   1      38.237  34.035  34.753  1.00  0.00     0.031 C 
ATOM     62  C   UNL A   1      40.109  32.973  35.984  1.00  0.00     0.037 A 
BRANCH  49  63
ATOM     63  C   UNL A   1      44.289  28.427  35.668  1.00  0.00     0.058 A 
ATOM     64  C   UNL A   1      44.028  27.322  36.494  1.00  0.00     0.135 A 
ATOM     65  C   UNL A   1      45.629  28.794  35.468  1.00  0.00     0.135 A 
ATOM     66  F   UNL A   1      42.764  26.938  36.732  1.00  0.00    -0.206 F 
ATOM     67  C   UNL A   1      45.055  26.627  37.124  1.00  0.00     0.059 A 
ATOM     68  C   UNL A   1      46.674  28.098  36.069  1.00  0.00     0.059 A 
ATOM     69  F   UNL A   1      45.933  29.843  34.688  1.00  0.00    -0.206 F 
ATOM     70  C   UNL A   1      46.375  27.025  36.909  1.00  0.00     0.060 A 
BRANCH  70  71
ATOM     71  S   UNL A   1      47.697  26.118  37.737  1.00  0.00     0.124 S 
ATOM     72  O   UNL A   1      48.488  25.655  36.600  1.00  0.00    -0.237 OA
ATOM     73  O   UNL A   1      48.319  27.149  38.561  1.00  0.00    -0.237 OA
ATOM     74  O   UNL A   1      46.986  25.077  38.471  1.00  0.00    -0.744 OA
ENDBRANCH  70  71
ENDBRANCH  49  63
BRANCH  50  75
ATOM     75  C   UNL A   1      36.747  32.979  30.945  1.00  0.00     0.058 A 
ATOM     76  C   UNL A   1      35.427  32.711  31.335  1.00  0.00     0.135 A 
ATOM     77  C   UNL A   1      36.950  33.899  29.905  1.00  0.00     0.135 A 
ATOM     78  F   UNL A   1      35.185  31.835  32.321  1.00  0.00    -0.206 F 
ATOM     79  C   UNL A   1      34.345  33.322  30.709  1.00  0.00     0.059 A 
ATOM     80  C   UNL A   1      35.885  34.539  29.278  1.00  0.00     0.059 A 
ATOM     81  F   UNL A   1      38.196  34.203  29.509  1.00  0.00    -0.206 F 
ATOM     82  C   UNL A   1      34.584  34.236  29.682  1.00  0.00     0.060 A 
BRANCH  82  83
ATOM     83  S   UNL A   1      33.176  35.065  28.913  1.00  0.00     0.124 S 
ATOM     84  O   UNL A   1      32.670  34.023  28.028  1.00  0.00    -0.237 OA
ATOM     85  O   UNL A   1      32.341  35.388  30.067  1.00  0.00    -0.237 OA
ATOM     86  O   UNL A   1      33.787  36.215  28.252  1.00  0.00    -0.744 OA
ENDBRANCH  82  83
ENDBRANCH  50  75
BRANCH  62  87
ATOM     87  C   UNL A   1      39.892  33.969  37.087  1.00  0.00     0.058 A 
ATOM     88  C   UNL A   1      39.169  33.640  38.243  1.00  0.00     0.135 A 
ATOM     89  C   UNL A   1      40.460  35.251  37.009  1.00  0.00     0.135 A 
ATOM     90  F   UNL A   1      38.600  32.430  38.362  1.00  0.00    -0.206 F 
ATOM     91  C   UNL A   1      38.999  34.555  39.277  1.00  0.00     0.059 A 
ATOM     92  C   UNL A   1      40.323  36.173  38.040  1.00  0.00     0.059 A 
ATOM     93  F   UNL A   1      41.170  35.610  35.927  1.00  0.00    -0.206 F 
ATOM     94  C   UNL A   1      39.580  35.820  39.166  1.00  0.00     0.060 A 
BRANCH  94  95
ATOM     95  S   UNL A   1      39.385  36.987  40.529  1.00  0.00     0.124 S 
ATOM     96  O   UNL A   1      38.263  36.404  41.258  1.00  0.00    -0.237 OA
ATOM     97  O   UNL A   1      40.681  36.913  41.196  1.00  0.00    -0.237 OA
ATOM     98  O   UNL A   1      39.106  38.252  39.853  1.00  0.00    -0.744 OA
ENDBRANCH  94  95
ENDBRANCH  62  87
ENDBRANCH  36  37
ENDBRANCH  28  31
ENDBRANCH  26  27
ENDBRANCH  25  26
ENDBRANCH   1  25
TORSDOF 18
ENDMDL
MODEL 3
REMARK VINA RESULT:     -10.6      2.881      3.956
REMARK SMILES COc1ccc(NCc2ccc(C(=O)NCCCCNC(=O)c3ccc(-c4c5nc(c(-c6c(F)cc(S(=O)(=O)[O-])cc6F)c6ccc([nH]6)c(-c6c(F)cc(S(=O)(=O)[O-])cc6F)c6nc(c(-c7c(F)cc(S(=O)(=O)[O-])cc7F)c7ccc4[nH]7)C=C6)C=C5)cc3)cn2)cc1Br
REMARK SMILES IDX 17 1 16 2 15 3 13 4 14 5 12 7 9 8 10 9 90 10 11 11 89 12
REMARK SMILES IDX 8 13 7 14 6 16 3 17 4 18 92 19 5 20 91 21 93 22 2 23 1 24
REMARK SMILES IDX 18 25 19 26 20 27 21 28 22 30 23 31 24 32 88 33 25 34 87 35
REMARK SMILES IDX 26 36 27 37 28 38 81 39 29 40 86 41 80 42 82 43 30 44 85 45
REMARK SMILES IDX 79 46 78 47 31 49 65 50 44 51 64 52 45 53 48 54 63 55 83 56
REMARK SMILES IDX 46 57 47 58 62 60 84 61 49 62 32 63 33 64 42 65 34 66 35 67
REMARK SMILES IDX 41 68 43 69 36 70 37 71 38 72 39 73 40 74 66 75 67 76 76 77
REMARK SMILES IDX 68 78 69 79 75 80 77 81 70 82 71 83 72 84 73 85 74 86 50 87
REMARK SMILES IDX 51 88 60 89 52 90 53 91 59 92 61 93 54 94 55 95 56 96 57 97
REMARK SMILES IDX 58 98
REMARK H PARENT 15 6 7 15 20 29 82 48 48 59
REMARK Flexibility Score: inf
ROOT
ATOM      1  C   UNL A   1      35.579  31.150  27.642  1.00  0.00     0.023 C 
ENDROOT
BRANCH   1   2
ATOM      2  C   UNL A   1      34.292  30.325  27.705  1.00  0.00     0.116 C 
BRANCH   2   3
ATOM      3  N   UNL A   1      33.159  31.094  27.229  1.00  0.00    -0.352 N 
ATOM      4  C   UNL A   1      31.974  30.708  26.658  1.00  0.00     0.252 C 
ATOM      5  O   UNL A   1      31.133  31.573  26.416  1.00  0.00    -0.269 OA
ATOM      6  H   UNL A   1      33.259  32.069  27.334  1.00  0.00     0.163 HD
BRANCH   4   7
ATOM      7  C   UNL A   1      31.642  29.296  26.357  1.00  0.00     0.058 A 
ATOM      8  C   UNL A   1      30.992  26.614  26.077  1.00  0.00     0.059 A 
ATOM      9  C   UNL A   1      31.078  27.419  24.944  1.00  0.00     0.026 A 
ATOM     10  N   UNL A   1      31.209  27.108  27.323  1.00  0.00    -0.259 NA
ATOM     11  C   UNL A   1      31.395  28.771  25.090  1.00  0.00     0.017 A 
ATOM     12  C   UNL A   1      31.507  28.428  27.434  1.00  0.00     0.125 A 
BRANCH   8  13
ATOM     13  C   UNL A   1      30.627  25.145  25.917  1.00  0.00     0.169 C 
BRANCH  13  14
ATOM     14  N   UNL A   1      31.383  24.295  26.823  1.00  0.00    -0.379 N 
ATOM     15  H   UNL A   1      31.114  24.310  27.770  1.00  0.00     0.160 HD
BRANCH  14  16
ATOM     16  C   UNL A   1      32.439  23.467  26.497  1.00  0.00     0.036 A 
ATOM     17  C   UNL A   1      34.470  21.621  25.822  1.00  0.00     0.133 A 
ATOM     18  C   UNL A   1      34.756  22.720  26.629  1.00  0.00     0.050 A 
ATOM     19  C   UNL A   1      33.163  21.405  25.393  1.00  0.00     0.062 A 
ATOM     20  C   UNL A   1      33.745  23.628  26.968  1.00  0.00     0.029 A 
ATOM     21  C   UNL A   1      32.165  22.329  25.722  1.00  0.00     0.045 A 
ATOM     22  Br  UNL A   1      32.666  19.865  24.403  1.00  0.00    -0.047 Br
BRANCH  17  23
ATOM     23  O   UNL A   1      35.492  20.750  25.555  1.00  0.00    -0.496 OA
ATOM     24  C   UNL A   1      36.388  21.310  24.593  1.00  0.00     0.278 C 
ENDBRANCH  17  23
ENDBRANCH  14  16
ENDBRANCH  13  14
ENDBRANCH   8  13
ENDBRANCH   4   7
ENDBRANCH   2   3
ENDBRANCH   1   2
BRANCH   1  25
ATOM     25  C   UNL A   1      35.500  32.508  28.343  1.00  0.00     0.023 C 
BRANCH  25  26
ATOM     26  C   UNL A   1      36.334  32.633  29.614  1.00  0.00     0.116 C 
BRANCH  26  27
ATOM     27  N   UNL A   1      35.969  31.663  30.638  1.00  0.00    -0.352 N 
ATOM     28  C   UNL A   1      36.702  30.599  31.104  1.00  0.00     0.251 C 
ATOM     29  H   UNL A   1      35.084  31.787  31.050  1.00  0.00     0.163 HD
ATOM     30  O   UNL A   1      36.210  29.815  31.905  1.00  0.00    -0.269 OA
BRANCH  28  31
ATOM     31  C   UNL A   1      38.073  30.388  30.590  1.00  0.00     0.039 A 
ATOM     32  C   UNL A   1      39.132  30.346  31.500  1.00  0.00     0.014 A 
ATOM     33  C   UNL A   1      38.302  30.190  29.226  1.00  0.00     0.014 A 
ATOM     34  C   UNL A   1      40.415  30.033  31.047  1.00  0.00     0.010 A 
ATOM     35  C   UNL A   1      39.567  29.819  28.787  1.00  0.00     0.010 A 
ATOM     36  C   UNL A   1      40.635  29.730  29.694  1.00  0.00    -0.014 A 
BRANCH  36  37
ATOM     37  C   UNL A   1      41.969  29.300  29.209  1.00  0.00     0.031 A 
ATOM     38  C   UNL A   1      43.093  30.294  29.114  1.00  0.00     0.074 A 
ATOM     39  C   UNL A   1      42.144  28.034  28.782  1.00  0.00     0.049 A 
ATOM     40  N   UNL A   1      44.299  30.132  28.635  1.00  0.00    -0.248 NA
ATOM     41  C   UNL A   1      42.814  31.656  29.595  1.00  0.00     0.031 C 
ATOM     42  C   UNL A   1      41.112  26.993  28.774  1.00  0.00     0.029 A 
ATOM     43  N   UNL A   1      43.247  27.410  28.255  1.00  0.00    -0.354 N 
ATOM     44  C   UNL A   1      44.917  31.372  28.740  1.00  0.00     0.074 A 
ATOM     45  C   UNL A   1      43.937  32.287  29.287  1.00  0.00     0.031 C 
ATOM     46  C   UNL A   1      41.636  25.858  28.283  1.00  0.00     0.029 A 
ATOM     47  C   UNL A   1      43.027  26.097  27.912  1.00  0.00     0.049 A 
ATOM     48  H   UNL A   1      44.113  27.861  28.134  1.00  0.00     0.167 HD
ATOM     49  C   UNL A   1      46.190  31.712  28.429  1.00  0.00     0.037 A 
ATOM     50  C   UNL A   1      43.853  25.191  27.354  1.00  0.00     0.037 A 
ATOM     51  C   UNL A   1      47.168  30.789  27.914  1.00  0.00     0.049 A 
ATOM     52  C   UNL A   1      45.268  25.586  27.037  1.00  0.00     0.074 A 
ATOM     53  C   UNL A   1      48.501  31.020  27.625  1.00  0.00     0.029 A 
ATOM     54  N   UNL A   1      46.918  29.458  27.614  1.00  0.00    -0.354 N 
ATOM     55  N   UNL A   1      45.855  26.748  27.198  1.00  0.00    -0.248 NA
ATOM     56  C   UNL A   1      46.138  24.546  26.469  1.00  0.00     0.031 C 
ATOM     57  C   UNL A   1      49.051  29.836  27.122  1.00  0.00     0.029 A 
ATOM     58  C   UNL A   1      48.070  28.858  27.133  1.00  0.00     0.049 A 
ATOM     59  H   UNL A   1      46.051  29.006  27.729  1.00  0.00     0.167 HD
ATOM     60  C   UNL A   1      47.166  26.575  26.773  1.00  0.00     0.074 A 
ATOM     61  C   UNL A   1      47.291  25.192  26.357  1.00  0.00     0.031 C 
ATOM     62  C   UNL A   1      48.176  27.478  26.730  1.00  0.00     0.037 A 
BRANCH  49  63
ATOM     63  C   UNL A   1      46.597  33.142  28.644  1.00  0.00     0.058 A 
ATOM     64  C   UNL A   1      46.483  34.099  27.623  1.00  0.00     0.135 A 
ATOM     65  C   UNL A   1      47.086  33.568  29.889  1.00  0.00     0.135 A 
ATOM     66  F   UNL A   1      46.036  33.742  26.408  1.00  0.00    -0.206 F 
ATOM     67  C   UNL A   1      46.868  35.421  27.819  1.00  0.00     0.059 A 
ATOM     68  C   UNL A   1      47.455  34.891  30.115  1.00  0.00     0.059 A 
ATOM     69  F   UNL A   1      47.216  32.693  30.899  1.00  0.00    -0.206 F 
ATOM     70  C   UNL A   1      47.357  35.807  29.068  1.00  0.00     0.060 A 
BRANCH  70  71
ATOM     71  S   UNL A   1      47.859  37.524  29.306  1.00  0.00     0.124 S 
ATOM     72  O   UNL A   1      47.302  38.156  28.114  1.00  0.00    -0.237 OA
ATOM     73  O   UNL A   1      47.211  37.870  30.567  1.00  0.00    -0.237 OA
ATOM     74  O   UNL A   1      49.316  37.448  29.353  1.00  0.00    -0.744 OA
ENDBRANCH  70  71
ENDBRANCH  49  63
BRANCH  50  75
ATOM     75  C   UNL A   1      43.368  23.811  27.090  1.00  0.00     0.058 A 
ATOM     76  C   UNL A   1      43.335  22.853  28.113  1.00  0.00     0.135 A 
ATOM     77  C   UNL A   1      42.911  23.430  25.819  1.00  0.00     0.135 A 
ATOM     78  F   UNL A   1      43.766  23.170  29.342  1.00  0.00    -0.206 F 
ATOM     79  C   UNL A   1      42.878  21.559  27.884  1.00  0.00     0.059 A 
ATOM     80  C   UNL A   1      42.430  22.148  25.571  1.00  0.00     0.059 A 
ATOM     81  F   UNL A   1      42.905  24.318  24.812  1.00  0.00    -0.206 F 
ATOM     82  C   UNL A   1      42.425  21.217  26.609  1.00  0.00     0.060 A 
BRANCH  82  83
ATOM     83  S   UNL A   1      41.782  19.551  26.335  1.00  0.00     0.124 S 
ATOM     84  O   UNL A   1      42.525  19.141  25.150  1.00  0.00    -0.237 OA
ATOM     85  O   UNL A   1      42.138  18.875  27.579  1.00  0.00    -0.237 OA
ATOM     86  O   UNL A   1      40.352  19.774  26.140  1.00  0.00    -0.744 OA
ENDBRANCH  82  83
ENDBRANCH  50  75
BRANCH  62  87
ATOM     87  C   UNL A   1      49.513  26.994  26.245  1.00  0.00     0.058 A 
ATOM     88  C   UNL A   1      50.427  26.373  27.109  1.00  0.00     0.135 A 
ATOM     89  C   UNL A   1      49.860  27.106  24.889  1.00  0.00     0.135 A 
ATOM     90  F   UNL A   1      50.145  26.249  28.415  1.00  0.00    -0.206 F 
ATOM     91  C   UNL A   1      51.650  25.896  26.648  1.00  0.00     0.059 A 
ATOM     92  C   UNL A   1      51.067  26.617  24.403  1.00  0.00     0.059 A 
ATOM     93  F   UNL A   1      49.014  27.684  24.021  1.00  0.00    -0.206 F 
ATOM     94  C   UNL A   1      51.961  26.023  25.293  1.00  0.00     0.060 A 
BRANCH  94  95
ATOM     95  S   UNL A   1      53.535  25.369  24.699  1.00  0.00     0.124 S 
ATOM     96  O   UNL A   1      53.427  23.961  25.068  1.00  0.00    -0.237 OA
ATOM     97  O   UNL A   1      53.476  25.655  23.269  1.00  0.00    -0.237 OA
ATOM     98  O   UNL A   1      54.525  26.141  25.445  1.00  0.00    -0.744 OA
ENDBRANCH  94  95
ENDBRANCH  62  87
ENDBRANCH  36  37
ENDBRANCH  28  31
ENDBRANCH  26  27
ENDBRANCH  25  26
ENDBRANCH   1  25
TORSDOF 18
ENDMDL
