MODEL 1
REMARK VINA RESULT:     -12.4      0.000      0.000
REMARK SMILES C[C@@H]1Cc2ccccc2N1S(=O)(=O)c1cccc(C(=O)NCCCCNC(=O)c2ccc(-c3c4nc(c(-c5c(F)cc(S(=O)(=O)[O-])cc5F)c5ccc([nH]5)c(-c5c(F)cc(S(=O)(=O)[O-])cc5F)c5nc(c(-c6c(F)cc(S(=O)(=O)[O-])cc6F)c6ccc3[nH]6)C=C5)C=C4)cc2)c1
REMARK SMILES IDX 24 1 23 2 22 3 21 4 19 5 20 6 18 8 14 9 15 10 95 11 16 12
REMARK SMILES IDX 17 13 11 14 12 15 13 16 10 17 1 18 2 19 3 20 4 21 9 22 5 23
REMARK SMILES IDX 8 24 6 25 7 26 25 27 26 28 27 29 28 31 29 32 30 33 94 34
REMARK SMILES IDX 31 35 93 36 32 37 33 38 34 39 87 40 35 41 92 42 86 43 88 44
REMARK SMILES IDX 36 45 91 46 85 47 84 48 37 50 71 51 50 52 70 53 51 54 54 55
REMARK SMILES IDX 69 56 89 57 52 58 53 59 68 61 90 62 55 63 38 64 39 65 48 66
REMARK SMILES IDX 40 67 41 68 47 69 49 70 42 71 43 72 44 73 45 74 46 75 72 76
REMARK SMILES IDX 73 77 82 78 74 79 75 80 81 81 83 82 76 83 77 84 78 85 79 86
REMARK SMILES IDX 80 87 56 88 57 89 66 90 58 91 59 92 65 93 67 94 60 95 61 96
REMARK SMILES IDX 62 97 63 98 64 99
REMARK H PARENT 21 7 26 30 88 49 54 60
REMARK Flexibility Score: inf
ROOT
ATOM      1  C   UNL A   1      33.647  28.468  25.995  1.00  0.00     0.023 C 
ENDROOT
BRANCH   1   2
ATOM      2  C   UNL A   1      33.168  29.530  25.016  1.00  0.00     0.023 C 
BRANCH   2   3
ATOM      3  C   UNL A   1      31.669  29.621  24.768  1.00  0.00     0.116 C 
BRANCH   3   4
ATOM      4  N   UNL A   1      31.202  29.100  23.495  1.00  0.00    -0.352 N 
ATOM      5  C   UNL A   1      30.942  27.811  23.080  1.00  0.00     0.251 C 
ATOM      6  O   UNL A   1      30.466  27.649  21.956  1.00  0.00    -0.269 OA
ATOM      7  H   UNL A   1      31.044  29.787  22.808  1.00  0.00     0.163 HD
BRANCH   5   8
ATOM      8  C   UNL A   1      31.302  26.605  23.886  1.00  0.00     0.041 A 
ATOM      9  C   UNL A   1      32.513  24.553  24.218  1.00  0.00     0.088 A 
ATOM     10  C   UNL A   1      31.602  24.130  25.190  1.00  0.00     0.022 A 
ATOM     11  C   UNL A   1      32.445  25.836  23.672  1.00  0.00     0.036 A 
ATOM     12  C   UNL A   1      30.537  24.958  25.523  1.00  0.00     0.002 A 
ATOM     13  C   UNL A   1      30.366  26.170  24.845  1.00  0.00     0.014 A 
BRANCH   9  14
ATOM     14  S   UNL A   1      33.659  23.383  23.536  1.00  0.00     0.264 S 
ATOM     15  O   UNL A   1      34.732  24.132  22.917  1.00  0.00    -0.201 OA
ATOM     16  O   UNL A   1      32.888  22.431  22.755  1.00  0.00    -0.201 OA
BRANCH  14  17
ATOM     17  N   UNL A   1      34.312  22.511  24.887  1.00  0.00    -0.263 N 
ATOM     18  C   UNL A   1      33.090  20.432  25.543  1.00  0.00     0.032 C 
ATOM     19  C   UNL A   1      34.195  21.002  24.659  1.00  0.00     0.101 C 
ATOM     20  C   UNL A   1      35.593  20.393  24.931  1.00  0.00     0.063 C 
ATOM     21  C   UNL A   1      36.432  21.582  25.249  1.00  0.00    -0.021 A 
ATOM     22  C   UNL A   1      35.679  22.748  25.268  1.00  0.00     0.055 A 
ATOM     23  C   UNL A   1      37.784  21.589  25.576  1.00  0.00     0.006 A 
ATOM     24  C   UNL A   1      36.234  23.914  25.766  1.00  0.00     0.027 A 
ATOM     25  C   UNL A   1      38.371  22.791  25.975  1.00  0.00     0.000 A 
ATOM     26  C   UNL A   1      37.593  23.945  26.092  1.00  0.00     0.002 A 
ENDBRANCH  14  17
ENDBRANCH   9  14
ENDBRANCH   5   8
ENDBRANCH   3   4
ENDBRANCH   2   3
ENDBRANCH   1   2
BRANCH   1  27
ATOM     27  C   UNL A   1      33.293  28.694  27.457  1.00  0.00     0.116 C 
BRANCH  27  28
ATOM     28  N   UNL A   1      33.389  30.082  27.889  1.00  0.00    -0.352 N 
ATOM     29  C   UNL A   1      34.467  30.792  28.373  1.00  0.00     0.251 C 
ATOM     30  H   UNL A   1      32.551  30.594  27.825  1.00  0.00     0.163 HD
ATOM     31  O   UNL A   1      34.317  31.952  28.749  1.00  0.00    -0.269 OA
BRANCH  29  32
ATOM     32  C   UNL A   1      35.790  30.141  28.494  1.00  0.00     0.039 A 
ATOM     33  C   UNL A   1      36.215  29.613  29.711  1.00  0.00     0.014 A 
ATOM     34  C   UNL A   1      36.643  30.115  27.387  1.00  0.00     0.014 A 
ATOM     35  C   UNL A   1      37.555  29.292  29.885  1.00  0.00     0.010 A 
ATOM     36  C   UNL A   1      37.965  29.680  27.537  1.00  0.00     0.010 A 
ATOM     37  C   UNL A   1      38.454  29.334  28.806  1.00  0.00    -0.014 A 
BRANCH  37  38
ATOM     38  C   UNL A   1      39.893  29.038  29.045  1.00  0.00     0.031 A 
ATOM     39  C   UNL A   1      40.482  27.699  28.669  1.00  0.00     0.074 A 
ATOM     40  C   UNL A   1      40.693  30.013  29.520  1.00  0.00     0.049 A 
ATOM     41  N   UNL A   1      41.720  27.286  28.774  1.00  0.00    -0.248 NA
ATOM     42  C   UNL A   1      39.567  26.692  28.105  1.00  0.00     0.031 C 
ATOM     43  C   UNL A   1      40.247  31.355  29.905  1.00  0.00     0.029 A 
ATOM     44  N   UNL A   1      42.050  30.046  29.726  1.00  0.00    -0.354 N 
ATOM     45  C   UNL A   1      41.730  25.975  28.306  1.00  0.00     0.074 A 
ATOM     46  C   UNL A   1      40.369  25.647  27.946  1.00  0.00     0.031 C 
ATOM     47  C   UNL A   1      41.314  32.099  30.225  1.00  0.00     0.029 A 
ATOM     48  C   UNL A   1      42.512  31.272  30.144  1.00  0.00     0.049 A 
ATOM     49  H   UNL A   1      42.635  29.267  29.586  1.00  0.00     0.167 HD
ATOM     50  C   UNL A   1      42.781  25.129  28.177  1.00  0.00     0.037 A 
ATOM     51  C   UNL A   1      43.759  31.686  30.441  1.00  0.00     0.037 A 
ATOM     52  C   UNL A   1      44.141  25.470  28.508  1.00  0.00     0.049 A 
ATOM     53  C   UNL A   1      44.898  30.715  30.326  1.00  0.00     0.074 A 
ATOM     54  C   UNL A   1      45.273  24.680  28.408  1.00  0.00     0.029 A 
ATOM     55  N   UNL A   1      44.556  26.702  28.990  1.00  0.00    -0.354 N 
ATOM     56  N   UNL A   1      44.881  29.473  29.905  1.00  0.00    -0.248 NA
ATOM     57  C   UNL A   1      46.224  31.193  30.741  1.00  0.00     0.031 C 
ATOM     58  C   UNL A   1      46.367  25.423  28.862  1.00  0.00     0.029 A 
ATOM     59  C   UNL A   1      45.924  26.689  29.204  1.00  0.00     0.049 A 
ATOM     60  H   UNL A   1      43.965  27.472  29.156  1.00  0.00     0.167 HD
ATOM     61  C   UNL A   1      46.192  29.025  29.993  1.00  0.00     0.074 A 
ATOM     62  C   UNL A   1      46.982  30.134  30.491  1.00  0.00     0.031 C 
ATOM     63  C   UNL A   1      46.696  27.803  29.695  1.00  0.00     0.037 A 
BRANCH  50  64
ATOM     64  C   UNL A   1      42.515  23.744  27.651  1.00  0.00     0.058 A 
ATOM     65  C   UNL A   1      42.426  23.485  26.275  1.00  0.00     0.135 A 
ATOM     66  C   UNL A   1      42.436  22.650  28.529  1.00  0.00     0.135 A 
ATOM     67  F   UNL A   1      42.479  24.495  25.392  1.00  0.00    -0.206 F 
ATOM     68  C   UNL A   1      42.257  22.192  25.788  1.00  0.00     0.059 A 
ATOM     69  C   UNL A   1      42.290  21.346  28.063  1.00  0.00     0.059 A 
ATOM     70  F   UNL A   1      42.516  22.842  29.856  1.00  0.00    -0.206 F 
ATOM     71  C   UNL A   1      42.196  21.128  26.689  1.00  0.00     0.060 A 
BRANCH  71  72
ATOM     72  S   UNL A   1      42.008  19.455  26.035  1.00  0.00     0.124 S 
ATOM     73  O   UNL A   1      42.446  18.648  27.169  1.00  0.00    -0.237 OA
ATOM     74  O   UNL A   1      40.581  19.399  25.734  1.00  0.00    -0.237 OA
ATOM     75  O   UNL A   1      42.893  19.439  24.876  1.00  0.00    -0.744 OA
ENDBRANCH  71  72
ENDBRANCH  50  64
BRANCH  51  76
ATOM     76  C   UNL A   1      43.987  33.087  30.880  1.00  0.00     0.058 A 
ATOM     77  C   UNL A   1      44.181  34.114  29.946  1.00  0.00     0.135 A 
ATOM     78  C   UNL A   1      43.986  33.431  32.241  1.00  0.00     0.135 A 
ATOM     79  F   UNL A   1      44.196  33.835  28.634  1.00  0.00    -0.206 F 
ATOM     80  C   UNL A   1      44.375  35.433  30.345  1.00  0.00     0.059 A 
ATOM     81  C   UNL A   1      44.150  34.746  32.664  1.00  0.00     0.059 A 
ATOM     82  F   UNL A   1      43.789  32.486  33.174  1.00  0.00    -0.206 F 
ATOM     83  C   UNL A   1      44.353  35.738  31.707  1.00  0.00     0.060 A 
BRANCH  83  84
ATOM     84  S   UNL A   1      44.553  37.460  32.213  1.00  0.00     0.124 S 
ATOM     85  O   UNL A   1      43.544  37.578  33.258  1.00  0.00    -0.237 OA
ATOM     86  O   UNL A   1      45.942  37.489  32.659  1.00  0.00    -0.237 OA
ATOM     87  O   UNL A   1      44.282  38.204  30.986  1.00  0.00    -0.744 OA
ENDBRANCH  83  84
ENDBRANCH  51  76
BRANCH  63  88
ATOM     88  C   UNL A   1      48.173  27.599  29.881  1.00  0.00     0.058 A 
ATOM     89  C   UNL A   1      48.688  27.011  31.045  1.00  0.00     0.135 A 
ATOM     90  C   UNL A   1      49.072  27.928  28.854  1.00  0.00     0.135 A 
ATOM     91  F   UNL A   1      47.870  26.686  32.058  1.00  0.00    -0.206 F 
ATOM     92  C   UNL A   1      50.050  26.766  31.190  1.00  0.00     0.059 A 
ATOM     93  C   UNL A   1      50.434  27.670  28.968  1.00  0.00     0.059 A 
ATOM     94  F   UNL A   1      48.625  28.486  27.717  1.00  0.00    -0.206 F 
ATOM     95  C   UNL A   1      50.914  27.094  30.144  1.00  0.00     0.060 A 
BRANCH  95  96
ATOM     96  S   UNL A   1      52.671  26.721  30.327  1.00  0.00     0.124 S 
ATOM     97  O   UNL A   1      53.012  26.245  28.990  1.00  0.00    -0.237 OA
ATOM     98  O   UNL A   1      53.227  28.018  30.700  1.00  0.00    -0.237 OA
ATOM     99  O   UNL A   1      52.697  25.709  31.379  1.00  0.00    -0.744 OA
ENDBRANCH  95  96
ENDBRANCH  63  88
ENDBRANCH  37  38
ENDBRANCH  29  32
ENDBRANCH  27  28
ENDBRANCH   1  27
TORSDOF 16
ENDMDL
MODEL 2
REMARK VINA RESULT:     -12.0      1.072      1.927
REMARK SMILES C[C@@H]1Cc2ccccc2N1S(=O)(=O)c1cccc(C(=O)NCCCCNC(=O)c2ccc(-c3c4nc(c(-c5c(F)cc(S(=O)(=O)[O-])cc5F)c5ccc([nH]5)c(-c5c(F)cc(S(=O)(=O)[O-])cc5F)c5nc(c(-c6c(F)cc(S(=O)(=O)[O-])cc6F)c6ccc3[nH]6)C=C5)C=C4)cc2)c1
REMARK SMILES IDX 24 1 23 2 22 3 21 4 19 5 20 6 18 8 14 9 15 10 95 11 16 12
REMARK SMILES IDX 17 13 11 14 12 15 13 16 10 17 1 18 2 19 3 20 4 21 9 22 5 23
REMARK SMILES IDX 8 24 6 25 7 26 25 27 26 28 27 29 28 31 29 32 30 33 94 34
REMARK SMILES IDX 31 35 93 36 32 37 33 38 34 39 87 40 35 41 92 42 86 43 88 44
REMARK SMILES IDX 36 45 91 46 85 47 84 48 37 50 71 51 50 52 70 53 51 54 54 55
REMARK SMILES IDX 69 56 89 57 52 58 53 59 68 61 90 62 55 63 38 64 39 65 48 66
REMARK SMILES IDX 40 67 41 68 47 69 49 70 42 71 43 72 44 73 45 74 46 75 72 76
REMARK SMILES IDX 73 77 82 78 74 79 75 80 81 81 83 82 76 83 77 84 78 85 79 86
REMARK SMILES IDX 80 87 56 88 57 89 66 90 58 91 59 92 65 93 67 94 60 95 61 96
REMARK SMILES IDX 62 97 63 98 64 99
REMARK H PARENT 21 7 26 30 88 49 54 60
REMARK Flexibility Score: inf
ROOT
ATOM      1  C   UNL A   1      33.642  28.483  25.689  1.00  0.00     0.023 C 
ENDROOT
BRANCH   1   2
ATOM      2  C   UNL A   1      32.911  29.422  24.742  1.00  0.00     0.023 C 
BRANCH   2   3
ATOM      3  C   UNL A   1      32.175  28.792  23.567  1.00  0.00     0.116 C 
BRANCH   3   4
ATOM      4  N   UNL A   1      32.999  28.064  22.618  1.00  0.00    -0.352 N 
ATOM      5  C   UNL A   1      33.108  26.715  22.354  1.00  0.00     0.251 C 
ATOM      6  O   UNL A   1      33.832  26.363  21.423  1.00  0.00    -0.269 OA
ATOM      7  H   UNL A   1      33.582  28.633  22.066  1.00  0.00     0.163 HD
BRANCH   5   8
ATOM      8  C   UNL A   1      32.470  25.663  23.203  1.00  0.00     0.041 A 
ATOM      9  C   UNL A   1      32.577  23.842  24.771  1.00  0.00     0.088 A 
ATOM     10  C   UNL A   1      31.299  23.407  24.409  1.00  0.00     0.022 A 
ATOM     11  C   UNL A   1      33.101  25.037  24.276  1.00  0.00     0.036 A 
ATOM     12  C   UNL A   1      30.593  24.115  23.443  1.00  0.00     0.002 A 
ATOM     13  C   UNL A   1      31.192  25.212  22.815  1.00  0.00     0.014 A 
BRANCH   9  14
ATOM     14  S   UNL A   1      33.618  22.771  25.728  1.00  0.00     0.264 S 
ATOM     15  O   UNL A   1      32.760  21.961  26.565  1.00  0.00    -0.201 OA
ATOM     16  O   UNL A   1      34.652  23.599  26.326  1.00  0.00    -0.201 OA
BRANCH  14  17
ATOM     17  N   UNL A   1      34.409  21.729  24.587  1.00  0.00    -0.263 N 
ATOM     18  C   UNL A   1      36.731  22.382  23.934  1.00  0.00     0.032 C 
ATOM     19  C   UNL A   1      35.894  21.586  24.931  1.00  0.00     0.101 C 
ATOM     20  C   UNL A   1      36.211  20.071  24.947  1.00  0.00     0.063 C 
ATOM     21  C   UNL A   1      34.892  19.438  24.663  1.00  0.00    -0.021 A 
ATOM     22  C   UNL A   1      33.913  20.390  24.415  1.00  0.00     0.055 A 
ATOM     23  C   UNL A   1      34.621  18.078  24.562  1.00  0.00     0.006 A 
ATOM     24  C   UNL A   1      32.686  19.995  23.910  1.00  0.00     0.027 A 
ATOM     25  C   UNL A   1      33.347  17.676  24.156  1.00  0.00     0.000 A 
ATOM     26  C   UNL A   1      32.390  18.633  23.808  1.00  0.00     0.002 A 
ENDBRANCH  14  17
ENDBRANCH   9  14
ENDBRANCH   5   8
ENDBRANCH   3   4
ENDBRANCH   2   3
ENDBRANCH   1   2
BRANCH   1  27
ATOM     27  C   UNL A   1      33.326  28.641  27.169  1.00  0.00     0.116 C 
BRANCH  27  28
ATOM     28  N   UNL A   1      33.373  30.018  27.647  1.00  0.00    -0.352 N 
ATOM     29  C   UNL A   1      34.411  30.731  28.208  1.00  0.00     0.251 C 
ATOM     30  H   UNL A   1      32.529  30.516  27.556  1.00  0.00     0.163 HD
ATOM     31  O   UNL A   1      34.219  31.875  28.610  1.00  0.00    -0.269 OA
BRANCH  29  32
ATOM     32  C   UNL A   1      35.739  30.100  28.378  1.00  0.00     0.039 A 
ATOM     33  C   UNL A   1      36.107  29.535  29.597  1.00  0.00     0.014 A 
ATOM     34  C   UNL A   1      36.650  30.129  27.318  1.00  0.00     0.014 A 
ATOM     35  C   UNL A   1      37.442  29.232  29.832  1.00  0.00     0.010 A 
ATOM     36  C   UNL A   1      37.971  29.713  27.525  1.00  0.00     0.010 A 
ATOM     37  C   UNL A   1      38.397  29.329  28.805  1.00  0.00    -0.014 A 
BRANCH  37  38
ATOM     38  C   UNL A   1      39.827  29.050  29.112  1.00  0.00     0.031 A 
ATOM     39  C   UNL A   1      40.456  27.730  28.738  1.00  0.00     0.074 A 
ATOM     40  C   UNL A   1      40.585  30.027  29.648  1.00  0.00     0.049 A 
ATOM     41  N   UNL A   1      41.694  27.334  28.898  1.00  0.00    -0.248 NA
ATOM     42  C   UNL A   1      39.588  26.721  28.107  1.00  0.00     0.031 C 
ATOM     43  C   UNL A   1      40.097  31.354  30.038  1.00  0.00     0.029 A 
ATOM     44  N   UNL A   1      41.929  30.077  29.924  1.00  0.00    -0.354 N 
ATOM     45  C   UNL A   1      41.750  26.034  28.404  1.00  0.00     0.074 A 
ATOM     46  C   UNL A   1      40.415  25.692  27.968  1.00  0.00     0.031 C 
ATOM     47  C   UNL A   1      41.134  32.107  30.428  1.00  0.00     0.029 A 
ATOM     48  C   UNL A   1      42.348  31.301  30.391  1.00  0.00     0.049 A 
ATOM     49  H   UNL A   1      42.533  29.311  29.798  1.00  0.00     0.167 HD
ATOM     50  C   UNL A   1      42.820  25.207  28.311  1.00  0.00     0.037 A 
ATOM     51  C   UNL A   1      43.571  31.727  30.760  1.00  0.00     0.037 A 
ATOM     52  C   UNL A   1      44.156  25.562  28.719  1.00  0.00     0.049 A 
ATOM     53  C   UNL A   1      44.731  30.777  30.684  1.00  0.00     0.074 A 
ATOM     54  C   UNL A   1      45.305  24.792  28.661  1.00  0.00     0.029 A 
ATOM     55  N   UNL A   1      44.525  26.789  29.247  1.00  0.00    -0.354 N 
ATOM     56  N   UNL A   1      44.756  29.544  30.236  1.00  0.00    -0.248 NA
ATOM     57  C   UNL A   1      46.026  31.267  31.177  1.00  0.00     0.031 C 
ATOM     58  C   UNL A   1      46.361  25.542  29.186  1.00  0.00     0.029 A 
ATOM     59  C   UNL A   1      45.880  26.793  29.532  1.00  0.00     0.049 A 
ATOM     60  H   UNL A   1      43.914  27.547  29.399  1.00  0.00     0.167 HD
ATOM     61  C   UNL A   1      46.069  29.116  30.382  1.00  0.00     0.074 A 
ATOM     62  C   UNL A   1      46.813  30.225  30.943  1.00  0.00     0.031 C 
ATOM     63  C   UNL A   1      46.607  27.909  30.085  1.00  0.00     0.037 A 
BRANCH  50  64
ATOM     64  C   UNL A   1      42.605  23.830  27.743  1.00  0.00     0.058 A 
ATOM     65  C   UNL A   1      42.629  23.594  26.361  1.00  0.00     0.135 A 
ATOM     66  C   UNL A   1      42.460  22.722  28.594  1.00  0.00     0.135 A 
ATOM     67  F   UNL A   1      42.748  24.618  25.502  1.00  0.00    -0.206 F 
ATOM     68  C   UNL A   1      42.507  22.308  25.840  1.00  0.00     0.059 A 
ATOM     69  C   UNL A   1      42.359  21.425  28.097  1.00  0.00     0.059 A 
ATOM     70  F   UNL A   1      42.431  22.892  29.926  1.00  0.00    -0.206 F 
ATOM     71  C   UNL A   1      42.378  21.229  26.717  1.00  0.00     0.060 A 
BRANCH  71  72
ATOM     72  S   UNL A   1      42.252  19.566  26.023  1.00  0.00     0.124 S 
ATOM     73  O   UNL A   1      42.729  18.750  27.135  1.00  0.00    -0.237 OA
ATOM     74  O   UNL A   1      40.826  19.461  25.728  1.00  0.00    -0.237 OA
ATOM     75  O   UNL A   1      43.129  19.614  24.858  1.00  0.00    -0.744 OA
ENDBRANCH  71  72
ENDBRANCH  50  64
BRANCH  51  76
ATOM     76  C   UNL A   1      43.754  33.122  31.240  1.00  0.00     0.058 A 
ATOM     77  C   UNL A   1      44.050  34.161  30.346  1.00  0.00     0.135 A 
ATOM     78  C   UNL A   1      43.605  33.448  32.598  1.00  0.00     0.135 A 
ATOM     79  F   UNL A   1      44.209  33.898  29.041  1.00  0.00    -0.206 F 
ATOM     80  C   UNL A   1      44.203  35.473  30.781  1.00  0.00     0.059 A 
ATOM     81  C   UNL A   1      43.724  34.757  33.053  1.00  0.00     0.059 A 
ATOM     82  F   UNL A   1      43.304  32.493  33.491  1.00  0.00    -0.206 F 
ATOM     83  C   UNL A   1      44.033  35.761  32.137  1.00  0.00     0.060 A 
BRANCH  83  84
ATOM     84  S   UNL A   1      44.180  37.476  32.683  1.00  0.00     0.124 S 
ATOM     85  O   UNL A   1      45.542  37.501  33.204  1.00  0.00    -0.237 OA
ATOM     86  O   UNL A   1      43.956  38.213  31.444  1.00  0.00    -0.237 OA
ATOM     87  O   UNL A   1      43.120  37.603  33.679  1.00  0.00    -0.744 OA
ENDBRANCH  83  84
ENDBRANCH  51  76
BRANCH  63  88
ATOM     88  C   UNL A   1      48.076  27.723  30.342  1.00  0.00     0.058 A 
ATOM     89  C   UNL A   1      48.551  27.297  31.591  1.00  0.00     0.135 A 
ATOM     90  C   UNL A   1      49.008  27.903  29.308  1.00  0.00     0.135 A 
ATOM     91  F   UNL A   1      47.700  27.118  32.613  1.00  0.00    -0.206 F 
ATOM     92  C   UNL A   1      49.905  27.066  31.810  1.00  0.00     0.059 A 
ATOM     93  C   UNL A   1      50.364  27.657  29.498  1.00  0.00     0.059 A 
ATOM     94  F   UNL A   1      48.601  28.303  28.092  1.00  0.00    -0.206 F 
ATOM     95  C   UNL A   1      50.803  27.243  30.755  1.00  0.00     0.060 A 
BRANCH  95  96
ATOM     96  S   UNL A   1      52.550  26.889  31.041  1.00  0.00     0.124 S 
ATOM     97  O   UNL A   1      52.795  27.605  32.290  1.00  0.00    -0.237 OA
ATOM     98  O   UNL A   1      52.562  25.433  31.132  1.00  0.00    -0.237 OA
ATOM     99  O   UNL A   1      53.208  27.443  29.861  1.00  0.00    -0.744 OA
ENDBRANCH  95  96
ENDBRANCH  63  88
ENDBRANCH  37  38
ENDBRANCH  29  32
ENDBRANCH  27  28
ENDBRANCH   1  27
TORSDOF 16
ENDMDL
MODEL 3
REMARK VINA RESULT:     -12.0      0.567      8.132
REMARK SMILES C[C@@H]1Cc2ccccc2N1S(=O)(=O)c1cccc(C(=O)NCCCCNC(=O)c2ccc(-c3c4nc(c(-c5c(F)cc(S(=O)(=O)[O-])cc5F)c5ccc([nH]5)c(-c5c(F)cc(S(=O)(=O)[O-])cc5F)c5nc(c(-c6c(F)cc(S(=O)(=O)[O-])cc6F)c6ccc3[nH]6)C=C5)C=C4)cc2)c1
REMARK SMILES IDX 24 1 23 2 22 3 21 4 19 5 20 6 18 8 14 9 15 10 95 11 16 12
REMARK SMILES IDX 17 13 11 14 12 15 13 16 10 17 1 18 2 19 3 20 4 21 9 22 5 23
REMARK SMILES IDX 8 24 6 25 7 26 25 27 26 28 27 29 28 31 29 32 30 33 94 34
REMARK SMILES IDX 31 35 93 36 32 37 33 38 34 39 87 40 35 41 92 42 86 43 88 44
REMARK SMILES IDX 36 45 91 46 85 47 84 48 37 50 71 51 50 52 70 53 51 54 54 55
REMARK SMILES IDX 69 56 89 57 52 58 53 59 68 61 90 62 55 63 38 64 39 65 48 66
REMARK SMILES IDX 40 67 41 68 47 69 49 70 42 71 43 72 44 73 45 74 46 75 72 76
REMARK SMILES IDX 73 77 82 78 74 79 75 80 81 81 83 82 76 83 77 84 78 85 79 86
REMARK SMILES IDX 80 87 56 88 57 89 66 90 58 91 59 92 65 93 67 94 60 95 61 96
REMARK SMILES IDX 62 97 63 98 64 99
REMARK H PARENT 21 7 26 30 88 49 54 60
REMARK Flexibility Score: inf
ROOT
ATOM      1  C   UNL A   1      33.064  28.405  26.016  1.00  0.00     0.023 C 
ENDROOT
BRANCH   1   2
ATOM      2  C   UNL A   1      32.615  29.660  25.283  1.00  0.00     0.023 C 
BRANCH   2   3
ATOM      3  C   UNL A   1      31.176  29.696  24.784  1.00  0.00     0.116 C 
BRANCH   3   4
ATOM      4  N   UNL A   1      30.959  29.205  23.435  1.00  0.00    -0.352 N 
ATOM      5  C   UNL A   1      30.869  27.922  22.937  1.00  0.00     0.251 C 
ATOM      6  O   UNL A   1      30.590  27.781  21.746  1.00  0.00    -0.269 OA
ATOM      7  H   UNL A   1      30.856  29.911  22.757  1.00  0.00     0.163 HD
BRANCH   5   8
ATOM      8  C   UNL A   1      31.191  26.708  23.746  1.00  0.00     0.041 A 
ATOM      9  C   UNL A   1      32.360  24.634  24.096  1.00  0.00     0.088 A 
ATOM     10  C   UNL A   1      31.422  24.224  25.047  1.00  0.00     0.022 A 
ATOM     11  C   UNL A   1      32.325  25.920  23.553  1.00  0.00     0.036 A 
ATOM     12  C   UNL A   1      30.364  25.069  25.361  1.00  0.00     0.002 A 
ATOM     13  C   UNL A   1      30.228  26.286  24.684  1.00  0.00     0.014 A 
BRANCH   9  14
ATOM     14  S   UNL A   1      33.500  23.447  23.434  1.00  0.00     0.264 S 
ATOM     15  O   UNL A   1      34.584  24.180  22.815  1.00  0.00    -0.201 OA
ATOM     16  O   UNL A   1      32.726  22.495  22.657  1.00  0.00    -0.201 OA
BRANCH  14  17
ATOM     17  N   UNL A   1      34.135  22.583  24.798  1.00  0.00    -0.263 N 
ATOM     18  C   UNL A   1      32.867  20.544  25.490  1.00  0.00     0.032 C 
ATOM     19  C   UNL A   1      33.984  21.074  24.595  1.00  0.00     0.101 C 
ATOM     20  C   UNL A   1      35.367  20.438  24.876  1.00  0.00     0.063 C 
ATOM     21  C   UNL A   1      36.234  21.612  25.173  1.00  0.00    -0.021 A 
ATOM     22  C   UNL A   1      35.508  22.795  25.173  1.00  0.00     0.055 A 
ATOM     23  C   UNL A   1      37.586  21.593  25.497  1.00  0.00     0.006 A 
ATOM     24  C   UNL A   1      36.091  23.956  25.651  1.00  0.00     0.027 A 
ATOM     25  C   UNL A   1      38.202  22.787  25.875  1.00  0.00     0.000 A 
ATOM     26  C   UNL A   1      37.450  23.961  25.974  1.00  0.00     0.002 A 
ENDBRANCH  14  17
ENDBRANCH   9  14
ENDBRANCH   5   8
ENDBRANCH   3   4
ENDBRANCH   2   3
ENDBRANCH   1   2
BRANCH   1  27
ATOM     27  C   UNL A   1      33.447  28.581  27.478  1.00  0.00     0.116 C 
BRANCH  27  28
ATOM     28  N   UNL A   1      33.542  29.971  27.909  1.00  0.00    -0.352 N 
ATOM     29  C   UNL A   1      34.630  30.695  28.347  1.00  0.00     0.251 C 
ATOM     30  H   UNL A   1      32.694  30.471  27.883  1.00  0.00     0.163 HD
ATOM     31  O   UNL A   1      34.480  31.851  28.732  1.00  0.00    -0.269 OA
BRANCH  29  32
ATOM     32  C   UNL A   1      35.966  30.062  28.409  1.00  0.00     0.039 A 
ATOM     33  C   UNL A   1      36.425  29.484  29.590  1.00  0.00     0.014 A 
ATOM     34  C   UNL A   1      36.795  30.103  27.284  1.00  0.00     0.014 A 
ATOM     35  C   UNL A   1      37.774  29.178  29.721  1.00  0.00     0.010 A 
ATOM     36  C   UNL A   1      38.127  29.685  27.386  1.00  0.00     0.010 A 
ATOM     37  C   UNL A   1      38.649  29.287  28.626  1.00  0.00    -0.014 A 
BRANCH  37  38
ATOM     38  C   UNL A   1      40.097  29.006  28.821  1.00  0.00     0.031 A 
ATOM     39  C   UNL A   1      40.996  30.008  29.505  1.00  0.00     0.074 A 
ATOM     40  C   UNL A   1      40.586  27.802  28.462  1.00  0.00     0.049 A 
ATOM     41  N   UNL A   1      42.271  29.911  29.789  1.00  0.00    -0.248 NA
ATOM     42  C   UNL A   1      40.392  31.285  29.922  1.00  0.00     0.031 C 
ATOM     43  C   UNL A   1      39.814  26.741  27.808  1.00  0.00     0.029 A 
ATOM     44  N   UNL A   1      41.831  27.248  28.627  1.00  0.00    -0.354 N 
ATOM     45  C   UNL A   1      42.622  31.110  30.401  1.00  0.00     0.074 A 
ATOM     46  C   UNL A   1      41.436  31.936  30.419  1.00  0.00     0.031 C 
ATOM     47  C   UNL A   1      40.577  25.645  27.698  1.00  0.00     0.029 A 
ATOM     48  C   UNL A   1      41.913  25.943  28.201  1.00  0.00     0.049 A 
ATOM     49  H   UNL A   1      42.591  27.738  29.014  1.00  0.00     0.167 HD
ATOM     50  C   UNL A   1      43.821  31.482  30.912  1.00  0.00     0.037 A 
ATOM     51  C   UNL A   1      42.948  25.082  28.201  1.00  0.00     0.037 A 
ATOM     52  C   UNL A   1      44.993  30.645  30.920  1.00  0.00     0.049 A 
ATOM     53  C   UNL A   1      44.275  25.535  28.738  1.00  0.00     0.074 A 
ATOM     54  C   UNL A   1      46.252  30.934  31.418  1.00  0.00     0.029 A 
ATOM     55  N   UNL A   1      45.050  29.354  30.419  1.00  0.00    -0.354 N 
ATOM     56  N   UNL A   1      44.591  26.683  29.289  1.00  0.00    -0.248 NA
ATOM     57  C   UNL A   1      45.392  24.585  28.639  1.00  0.00     0.031 C 
ATOM     58  C   UNL A   1      47.079  29.831  31.187  1.00  0.00     0.029 A 
ATOM     59  C   UNL A   1      46.325  28.838  30.584  1.00  0.00     0.049 A 
ATOM     60  H   UNL A   1      44.296  28.874  30.005  1.00  0.00     0.167 HD
ATOM     61  C   UNL A   1      45.938  26.588  29.614  1.00  0.00     0.074 A 
ATOM     62  C   UNL A   1      46.375  25.266  29.213  1.00  0.00     0.031 C 
ATOM     63  C   UNL A   1      46.742  27.517  30.185  1.00  0.00     0.037 A 
BRANCH  50  64
ATOM     64  C   UNL A   1      43.939  32.857  31.514  1.00  0.00     0.058 A 
ATOM     65  C   UNL A   1      44.308  33.968  30.741  1.00  0.00     0.135 A 
ATOM     66  C   UNL A   1      43.596  33.080  32.858  1.00  0.00     0.135 A 
ATOM     67  F   UNL A   1      44.662  33.810  29.456  1.00  0.00    -0.206 F 
ATOM     68  C   UNL A   1      44.341  35.251  31.281  1.00  0.00     0.059 A 
ATOM     69  C   UNL A   1      43.600  34.356  33.413  1.00  0.00     0.059 A 
ATOM     70  F   UNL A   1      43.235  32.051  33.643  1.00  0.00    -0.206 F 
ATOM     71  C   UNL A   1      43.981  35.436  32.617  1.00  0.00     0.060 A 
BRANCH  71  72
ATOM     72  S   UNL A   1      44.001  37.112  33.290  1.00  0.00     0.124 S 
ATOM     73  O   UNL A   1      43.816  37.913  32.085  1.00  0.00    -0.237 OA
ATOM     74  O   UNL A   1      42.870  37.088  34.213  1.00  0.00    -0.237 OA
ATOM     75  O   UNL A   1      45.316  37.214  33.914  1.00  0.00    -0.744 OA
ENDBRANCH  71  72
ENDBRANCH  50  64
BRANCH  51  76
ATOM     76  C   UNL A   1      42.766  23.707  27.669  1.00  0.00     0.058 A 
ATOM     77  C   UNL A   1      42.480  22.633  28.526  1.00  0.00     0.135 A 
ATOM     78  C   UNL A   1      42.844  23.444  26.293  1.00  0.00     0.135 A 
ATOM     79  F   UNL A   1      42.402  22.833  29.849  1.00  0.00    -0.206 F 
ATOM     80  C   UNL A   1      42.286  21.345  28.037  1.00  0.00     0.059 A 
ATOM     81  C   UNL A   1      42.627  22.170  25.777  1.00  0.00     0.059 A 
ATOM     82  F   UNL A   1      43.099  24.440  25.430  1.00  0.00    -0.206 F 
ATOM     83  C   UNL A   1      42.358  21.125  26.660  1.00  0.00     0.060 A 
BRANCH  83  84
ATOM     84  S   UNL A   1      42.053  19.460  26.031  1.00  0.00     0.124 S 
ATOM     85  O   UNL A   1      40.614  19.492  25.804  1.00  0.00    -0.237 OA
ATOM     86  O   UNL A   1      42.889  19.427  24.835  1.00  0.00    -0.237 OA
ATOM     87  O   UNL A   1      42.502  18.602  27.123  1.00  0.00    -0.744 OA
ENDBRANCH  83  84
ENDBRANCH  51  76
BRANCH  63  88
ATOM     88  C   UNL A   1      48.174  27.136  30.430  1.00  0.00     0.058 A 
ATOM     89  C   UNL A   1      49.175  27.410  29.487  1.00  0.00     0.135 A 
ATOM     90  C   UNL A   1      48.558  26.558  31.651  1.00  0.00     0.135 A 
ATOM     91  F   UNL A   1      48.858  27.955  28.303  1.00  0.00    -0.206 F 
ATOM     92  C   UNL A   1      50.510  27.113  29.741  1.00  0.00     0.059 A 
ATOM     93  C   UNL A   1      49.890  26.273  31.936  1.00  0.00     0.059 A 
ATOM     94  F   UNL A   1      47.637  26.283  32.588  1.00  0.00    -0.206 F 
ATOM     95  C   UNL A   1      50.858  26.550  30.970  1.00  0.00     0.060 A 
BRANCH  95  96
ATOM     96  S   UNL A   1      52.601  26.218  31.305  1.00  0.00     0.124 S 
ATOM     97  O   UNL A   1      53.172  26.262  29.963  1.00  0.00    -0.237 OA
ATOM     98  O   UNL A   1      52.964  27.324  32.186  1.00  0.00    -0.237 OA
ATOM     99  O   UNL A   1      52.582  24.902  31.937  1.00  0.00    -0.744 OA
ENDBRANCH  95  96
ENDBRANCH  63  88
ENDBRANCH  37  38
ENDBRANCH  29  32
ENDBRANCH  27  28
ENDBRANCH   1  27
TORSDOF 16
ENDMDL
