MODEL 1
REMARK VINA RESULT:     -11.4      0.000      0.000
REMARK SMILES CC[C@@H](C(=O)NCCCCNC(=O)c1ccc(-c2c3nc(c(-c4c(F)cc(S(=O)(=O)[O-])cc4F)c4ccc([nH]4)c(-c4c(F)cc(S(=O)(=O)[O-])cc4F)c4nc(c(-c5c(F)cc(S(=O)(=O)[O-])cc5F)c5ccc2[nH]5)C=C4)C=C3)cc1)n1c(SCc2cccc(C(F)(F)F)c2)nc2ccncc21
REMARK SMILES IDX 7 1 6 2 4 3 5 4 3 6 2 7 1 8 80 9 81 10 100 11 94 12 95 13
REMARK SMILES IDX 99 14 96 15 98 16 97 17 82 18 83 19 84 20 85 21 93 22 86 23
REMARK SMILES IDX 88 24 87 25 89 26 90 27 91 28 92 29 8 30 9 31 10 32 11 33
REMARK SMILES IDX 12 34 13 36 14 37 15 38 79 39 16 40 78 41 17 42 18 43 19 44
REMARK SMILES IDX 72 45 20 46 77 47 71 48 73 49 21 50 76 51 70 52 69 53 22 55
REMARK SMILES IDX 56 56 35 57 55 58 36 59 39 60 54 61 74 62 37 63 38 64 53 66
REMARK SMILES IDX 75 67 40 68 23 69 24 70 33 71 25 72 26 73 32 74 34 75 27 76
REMARK SMILES IDX 28 77 29 78 30 79 31 80 57 81 58 82 67 83 59 84 60 85 66 86
REMARK SMILES IDX 68 87 61 88 62 89 63 90 64 91 65 92 41 93 42 94 51 95 43 96
REMARK SMILES IDX 44 97 50 98 52 99 45 100 46 101 47 102 48 103 49 104
REMARK H PARENT 6 5 11 35 73 54 39 65
REMARK Flexibility Score: inf
ROOT
ATOM      1  C   UNL A   1      35.943  21.148  24.840  1.00  0.00     0.116 C 
ENDROOT
BRANCH   1   2
ATOM      2  N   UNL A   1      35.462  21.371  26.197  1.00  0.00    -0.354 N 
ATOM      3  C   UNL A   1      34.274  21.860  26.669  1.00  0.00     0.243 C 
ATOM      4  O   UNL A   1      34.179  22.036  27.886  1.00  0.00    -0.273 OA
ATOM      5  H   UNL A   1      36.107  21.128  26.899  1.00  0.00     0.163 HD
BRANCH   3   6
ATOM      6  C   UNL A   1      33.110  22.164  25.729  1.00  0.00     0.178 C 
BRANCH   6   7
ATOM      7  C   UNL A   1      32.917  21.058  24.666  1.00  0.00     0.032 C 
ATOM      8  C   UNL A   1      32.512  19.699  25.213  1.00  0.00     0.006 C 
ENDBRANCH   6   7
BRANCH   6   9
ATOM      9  N   UNL A   1      33.207  23.544  25.204  1.00  0.00    -0.305 N 
ATOM     10  C   UNL A   1      34.170  23.991  24.299  1.00  0.00     0.170 A 
ATOM     11  C   UNL A   1      32.708  24.683  25.817  1.00  0.00     0.088 A 
ATOM     12  N   UNL A   1      34.599  25.186  24.656  1.00  0.00    -0.222 NA
ATOM     13  C   UNL A   1      33.642  25.668  25.514  1.00  0.00     0.093 A 
ATOM     14  C   UNL A   1      31.597  24.962  26.604  1.00  0.00     0.139 A 
ATOM     15  C   UNL A   1      33.486  26.954  26.034  1.00  0.00     0.051 A 
ATOM     16  N   UNL A   1      31.440  26.210  27.103  1.00  0.00    -0.262 NA
ATOM     17  C   UNL A   1      32.359  27.156  26.814  1.00  0.00     0.113 A 
BRANCH  10  18
ATOM     18  S   UNL A   1      34.132  23.599  22.596  1.00  0.00    -0.083 SA
BRANCH  18  19
ATOM     19  C   UNL A   1      32.747  24.369  21.755  1.00  0.00     0.113 C 
BRANCH  19  20
ATOM     20  C   UNL A   1      31.772  25.219  22.525  1.00  0.00    -0.037 A 
ATOM     21  C   UNL A   1      30.598  24.721  23.088  1.00  0.00     0.004 A 
ATOM     22  C   UNL A   1      31.965  26.596  22.569  1.00  0.00     0.017 A 
ATOM     23  C   UNL A   1      29.670  25.594  23.676  1.00  0.00     0.001 A 
ATOM     24  C   UNL A   1      31.085  27.488  23.186  1.00  0.00     0.056 A 
ATOM     25  C   UNL A   1      29.913  26.971  23.729  1.00  0.00     0.013 A 
BRANCH  24  26
ATOM     26  C   UNL A   1      31.416  28.957  23.183  1.00  0.00     0.416 C 
ATOM     27  F   UNL A   1      30.358  29.722  22.793  1.00  0.00    -0.166 F 
ATOM     28  F   UNL A   1      31.822  29.439  24.386  1.00  0.00    -0.166 F 
ATOM     29  F   UNL A   1      32.416  29.264  22.300  1.00  0.00    -0.166 F 
ENDBRANCH  24  26
ENDBRANCH  19  20
ENDBRANCH  18  19
ENDBRANCH  10  18
ENDBRANCH   6   9
ENDBRANCH   3   6
ENDBRANCH   1   2
BRANCH   1  30
ATOM     30  C   UNL A   1      37.449  21.370  24.719  1.00  0.00     0.023 C 
BRANCH  30  31
ATOM     31  C   UNL A   1      38.297  20.159  25.082  1.00  0.00     0.023 C 
BRANCH  31  32
ATOM     32  C   UNL A   1      39.387  20.441  26.102  1.00  0.00     0.116 C 
BRANCH  32  33
ATOM     33  N   UNL A   1      40.449  19.445  26.082  1.00  0.00    -0.352 N 
ATOM     34  C   UNL A   1      41.809  19.625  26.137  1.00  0.00     0.251 C 
ATOM     35  H   UNL A   1      40.149  18.510  26.020  1.00  0.00     0.163 HD
ATOM     36  O   UNL A   1      42.560  18.673  25.926  1.00  0.00    -0.269 OA
BRANCH  34  37
ATOM     37  C   UNL A   1      42.365  20.963  26.427  1.00  0.00     0.039 A 
ATOM     38  C   UNL A   1      42.603  21.848  25.374  1.00  0.00     0.014 A 
ATOM     39  C   UNL A   1      42.642  21.349  27.741  1.00  0.00     0.014 A 
ATOM     40  C   UNL A   1      43.075  23.132  25.647  1.00  0.00     0.010 A 
ATOM     41  C   UNL A   1      42.996  22.663  28.018  1.00  0.00     0.010 A 
ATOM     42  C   UNL A   1      43.250  23.561  26.974  1.00  0.00    -0.014 A 
BRANCH  42  43
ATOM     43  C   UNL A   1      43.753  24.924  27.282  1.00  0.00     0.031 A 
ATOM     44  C   UNL A   1      45.204  25.259  27.050  1.00  0.00     0.074 A 
ATOM     45  C   UNL A   1      42.916  25.846  27.798  1.00  0.00     0.049 A 
ATOM     46  N   UNL A   1      45.836  26.385  27.257  1.00  0.00    -0.248 NA
ATOM     47  C   UNL A   1      46.070  24.176  26.551  1.00  0.00     0.031 C 
ATOM     48  C   UNL A   1      41.507  25.621  28.133  1.00  0.00     0.029 A 
ATOM     49  N   UNL A   1      43.127  27.160  28.129  1.00  0.00    -0.354 N 
ATOM     50  C   UNL A   1      47.164  26.141  26.926  1.00  0.00     0.074 A 
ATOM     51  C   UNL A   1      47.265  24.742  26.583  1.00  0.00     0.031 C 
ATOM     52  C   UNL A   1      40.971  26.768  28.578  1.00  0.00     0.029 A 
ATOM     53  C   UNL A   1      42.002  27.800  28.596  1.00  0.00     0.049 A 
ATOM     54  H   UNL A   1      44.002  27.604  28.041  1.00  0.00     0.167 HD
ATOM     55  C   UNL A   1      48.200  27.012  26.874  1.00  0.00     0.037 A 
ATOM     56  C   UNL A   1      41.823  29.078  28.985  1.00  0.00     0.037 A 
ATOM     57  C   UNL A   1      48.083  28.411  27.187  1.00  0.00     0.049 A 
ATOM     58  C   UNL A   1      42.985  30.031  28.902  1.00  0.00     0.074 A 
ATOM     59  C   UNL A   1      49.053  29.394  27.109  1.00  0.00     0.029 A 
ATOM     60  N   UNL A   1      46.924  29.027  27.636  1.00  0.00    -0.354 N 
ATOM     61  N   UNL A   1      44.217  29.800  28.513  1.00  0.00    -0.248 NA
ATOM     62  C   UNL A   1      42.729  31.422  29.298  1.00  0.00     0.031 C 
ATOM     63  C   UNL A   1      48.493  30.594  27.562  1.00  0.00     0.029 A 
ATOM     64  C   UNL A   1      47.159  30.373  27.862  1.00  0.00     0.049 A 
ATOM     65  H   UNL A   1      46.061  28.574  27.774  1.00  0.00     0.167 HD
ATOM     66  C   UNL A   1      44.876  31.024  28.590  1.00  0.00     0.074 A 
ATOM     67  C   UNL A   1      43.897  31.992  29.042  1.00  0.00     0.031 C 
ATOM     68  C   UNL A   1      46.171  31.320  28.315  1.00  0.00     0.037 A 
BRANCH  55  69
ATOM     69  C   UNL A   1      49.543  26.475  26.453  1.00  0.00     0.058 A 
ATOM     70  C   UNL A   1      49.991  26.559  25.124  1.00  0.00     0.135 A 
ATOM     71  C   UNL A   1      50.404  25.888  27.394  1.00  0.00     0.135 A 
ATOM     72  F   UNL A   1      49.202  27.092  24.177  1.00  0.00    -0.206 F 
ATOM     73  C   UNL A   1      51.226  26.052  24.736  1.00  0.00     0.059 A 
ATOM     74  C   UNL A   1      51.660  25.405  27.035  1.00  0.00     0.059 A 
ATOM     75  F   UNL A   1      50.029  25.777  28.678  1.00  0.00    -0.206 F 
ATOM     76  C   UNL A   1      52.056  25.477  25.700  1.00  0.00     0.060 A 
BRANCH  76  77
ATOM     77  S   UNL A   1      53.658  24.831  25.181  1.00  0.00     0.124 S 
ATOM     78  O   UNL A   1      54.512  25.244  26.289  1.00  0.00    -0.237 OA
ATOM     79  O   UNL A   1      53.398  23.399  25.081  1.00  0.00    -0.237 OA
ATOM     80  O   UNL A   1      53.905  25.510  23.913  1.00  0.00    -0.744 OA
ENDBRANCH  76  77
ENDBRANCH  55  69
BRANCH  56  81
ATOM     81  C   UNL A   1      40.486  29.536  29.450  1.00  0.00     0.058 A 
ATOM     82  C   UNL A   1      40.227  29.750  30.813  1.00  0.00     0.135 A 
ATOM     83  C   UNL A   1      39.441  29.774  28.544  1.00  0.00     0.135 A 
ATOM     84  F   UNL A   1      41.190  29.532  31.721  1.00  0.00    -0.206 F 
ATOM     85  C   UNL A   1      38.976  30.163  31.262  1.00  0.00     0.059 A 
ATOM     86  C   UNL A   1      38.191  30.215  28.966  1.00  0.00     0.059 A 
ATOM     87  F   UNL A   1      39.641  29.603  27.228  1.00  0.00    -0.206 F 
ATOM     88  C   UNL A   1      37.964  30.394  30.330  1.00  0.00     0.060 A 
BRANCH  88  89
ATOM     89  S   UNL A   1      36.358  30.971  30.920  1.00  0.00     0.124 S 
ATOM     90  O   UNL A   1      35.998  29.920  31.865  1.00  0.00    -0.237 OA
ATOM     91  O   UNL A   1      36.693  32.267  31.502  1.00  0.00    -0.237 OA
ATOM     92  O   UNL A   1      35.554  31.028  29.702  1.00  0.00    -0.744 OA
ENDBRANCH  88  89
ENDBRANCH  56  81
BRANCH  68  93
ATOM     93  C   UNL A   1      46.593  32.758  28.464  1.00  0.00     0.058 A 
ATOM     94  C   UNL A   1      47.161  33.244  29.652  1.00  0.00     0.135 A 
ATOM     95  C   UNL A   1      46.443  33.656  27.395  1.00  0.00     0.135 A 
ATOM     96  F   UNL A   1      47.325  32.428  30.706  1.00  0.00    -0.206 F 
ATOM     97  C   UNL A   1      47.521  34.580  29.792  1.00  0.00     0.059 A 
ATOM     98  C   UNL A   1      46.830  34.987  27.499  1.00  0.00     0.059 A 
ATOM     99  F   UNL A   1      45.923  33.240  26.229  1.00  0.00    -0.206 F 
ATOM    100  C   UNL A   1      47.347  35.446  28.710  1.00  0.00     0.060 A 
BRANCH 100 101
ATOM    101  S   UNL A   1      47.813  37.177  28.904  1.00  0.00     0.124 S 
ATOM    102  O   UNL A   1      47.307  37.468  30.242  1.00  0.00    -0.237 OA
ATOM    103  O   UNL A   1      49.266  37.126  28.773  1.00  0.00    -0.237 OA
ATOM    104  O   UNL A   1      47.114  37.843  27.810  1.00  0.00    -0.744 OA
ENDBRANCH 100 101
ENDBRANCH  68  93
ENDBRANCH  42  43
ENDBRANCH  34  37
ENDBRANCH  32  33
ENDBRANCH  31  32
ENDBRANCH  30  31
ENDBRANCH   1  30
TORSDOF 20
ENDMDL
MODEL 2
REMARK VINA RESULT:     -11.3      5.922      8.142
REMARK SMILES CC[C@@H](C(=O)NCCCCNC(=O)c1ccc(-c2c3nc(c(-c4c(F)cc(S(=O)(=O)[O-])cc4F)c4ccc([nH]4)c(-c4c(F)cc(S(=O)(=O)[O-])cc4F)c4nc(c(-c5c(F)cc(S(=O)(=O)[O-])cc5F)c5ccc2[nH]5)C=C4)C=C3)cc1)n1c(SCc2cccc(C(F)(F)F)c2)nc2ccncc21
REMARK SMILES IDX 7 1 6 2 4 3 5 4 3 6 2 7 1 8 80 9 81 10 100 11 94 12 95 13
REMARK SMILES IDX 99 14 96 15 98 16 97 17 82 18 83 19 84 20 85 21 93 22 86 23
REMARK SMILES IDX 88 24 87 25 89 26 90 27 91 28 92 29 8 30 9 31 10 32 11 33
REMARK SMILES IDX 12 34 13 36 14 37 15 38 79 39 16 40 78 41 17 42 18 43 19 44
REMARK SMILES IDX 72 45 20 46 77 47 71 48 73 49 21 50 76 51 70 52 69 53 22 55
REMARK SMILES IDX 56 56 35 57 55 58 36 59 39 60 54 61 74 62 37 63 38 64 53 66
REMARK SMILES IDX 75 67 40 68 23 69 24 70 33 71 25 72 26 73 32 74 34 75 27 76
REMARK SMILES IDX 28 77 29 78 30 79 31 80 57 81 58 82 67 83 59 84 60 85 66 86
REMARK SMILES IDX 68 87 61 88 62 89 63 90 64 91 65 92 41 93 42 94 51 95 43 96
REMARK SMILES IDX 44 97 50 98 52 99 45 100 46 101 47 102 48 103 49 104
REMARK H PARENT 6 5 11 35 73 54 39 65
REMARK Flexibility Score: inf
ROOT
ATOM      1  C   UNL A   1      36.350  21.936  25.695  1.00  0.00     0.116 C 
ENDROOT
BRANCH   1   2
ATOM      2  N   UNL A   1      35.447  22.104  26.825  1.00  0.00    -0.354 N 
ATOM      3  C   UNL A   1      34.084  22.008  26.920  1.00  0.00     0.243 C 
ATOM      4  O   UNL A   1      33.571  22.304  28.001  1.00  0.00    -0.273 OA
ATOM      5  H   UNL A   1      35.896  22.326  27.672  1.00  0.00     0.163 HD
BRANCH   3   6
ATOM      6  C   UNL A   1      33.237  21.544  25.738  1.00  0.00     0.178 C 
BRANCH   6   7
ATOM      7  C   UNL A   1      34.039  20.653  24.762  1.00  0.00     0.032 C 
ATOM      8  C   UNL A   1      33.310  19.415  24.266  1.00  0.00     0.006 C 
ENDBRANCH   6   7
BRANCH   6   9
ATOM      9  N   UNL A   1      32.525  22.685  25.123  1.00  0.00    -0.305 N 
ATOM     10  C   UNL A   1      31.138  22.821  25.054  1.00  0.00     0.170 A 
ATOM     11  C   UNL A   1      33.035  23.534  24.153  1.00  0.00     0.088 A 
ATOM     12  N   UNL A   1      30.792  23.283  23.868  1.00  0.00    -0.222 NA
ATOM     13  C   UNL A   1      31.940  23.825  23.346  1.00  0.00     0.093 A 
ATOM     14  C   UNL A   1      34.295  24.048  23.869  1.00  0.00     0.139 A 
ATOM     15  C   UNL A   1      32.108  24.620  22.211  1.00  0.00     0.051 A 
ATOM     16  N   UNL A   1      34.458  24.825  22.773  1.00  0.00    -0.262 NA
ATOM     17  C   UNL A   1      33.391  25.092  21.990  1.00  0.00     0.113 A 
BRANCH  10  18
ATOM     18  S   UNL A   1      30.153  23.254  26.432  1.00  0.00    -0.083 SA
BRANCH  18  19
ATOM     19  C   UNL A   1      30.327  24.986  26.870  1.00  0.00     0.113 C 
BRANCH  19  20
ATOM     20  C   UNL A   1      30.469  26.028  25.792  1.00  0.00    -0.037 A 
ATOM     21  C   UNL A   1      29.510  26.244  24.803  1.00  0.00     0.004 A 
ATOM     22  C   UNL A   1      31.669  26.722  25.679  1.00  0.00     0.017 A 
ATOM     23  C   UNL A   1      29.768  27.138  23.752  1.00  0.00     0.001 A 
ATOM     24  C   UNL A   1      31.940  27.652  24.673  1.00  0.00     0.056 A 
ATOM     25  C   UNL A   1      30.975  27.842  23.688  1.00  0.00     0.013 A 
BRANCH  24  26
ATOM     26  C   UNL A   1      33.272  28.354  24.669  1.00  0.00     0.416 C 
ATOM     27  F   UNL A   1      33.834  28.398  25.909  1.00  0.00    -0.166 F 
ATOM     28  F   UNL A   1      34.195  27.793  23.845  1.00  0.00    -0.166 F 
ATOM     29  F   UNL A   1      33.171  29.662  24.283  1.00  0.00    -0.166 F 
ENDBRANCH  24  26
ENDBRANCH  19  20
ENDBRANCH  18  19
ENDBRANCH  10  18
ENDBRANCH   6   9
ENDBRANCH   3   6
ENDBRANCH   1   2
BRANCH   1  30
ATOM     30  C   UNL A   1      37.452  22.993  25.677  1.00  0.00     0.023 C 
BRANCH  30  31
ATOM     31  C   UNL A   1      38.791  22.518  26.225  1.00  0.00     0.023 C 
BRANCH  31  32
ATOM     32  C   UNL A   1      39.607  23.603  26.909  1.00  0.00     0.116 C 
BRANCH  32  33
ATOM     33  N   UNL A   1      40.743  24.041  26.109  1.00  0.00    -0.352 N 
ATOM     34  C   UNL A   1      41.498  25.182  26.225  1.00  0.00     0.251 C 
ATOM     35  H   UNL A   1      41.008  23.431  25.383  1.00  0.00     0.163 HD
ATOM     36  O   UNL A   1      42.308  25.470  25.345  1.00  0.00    -0.269 OA
BRANCH  34  37
ATOM     37  C   UNL A   1      41.319  26.068  27.394  1.00  0.00     0.039 A 
ATOM     38  C   UNL A   1      42.117  27.207  27.518  1.00  0.00     0.014 A 
ATOM     39  C   UNL A   1      40.355  25.781  28.365  1.00  0.00     0.014 A 
ATOM     40  C   UNL A   1      41.915  28.076  28.590  1.00  0.00     0.010 A 
ATOM     41  C   UNL A   1      40.076  26.707  29.360  1.00  0.00     0.010 A 
ATOM     42  C   UNL A   1      40.874  27.849  29.506  1.00  0.00    -0.014 A 
BRANCH  42  43
ATOM     43  C   UNL A   1      40.645  28.763  30.654  1.00  0.00     0.031 A 
ATOM     44  C   UNL A   1      41.489  28.634  31.897  1.00  0.00     0.074 A 
ATOM     45  C   UNL A   1      39.664  29.685  30.591  1.00  0.00     0.049 A 
ATOM     46  N   UNL A   1      41.444  29.331  33.002  1.00  0.00    -0.248 NA
ATOM     47  C   UNL A   1      42.493  27.555  31.915  1.00  0.00     0.031 C 
ATOM     48  C   UNL A   1      38.736  29.862  29.471  1.00  0.00     0.029 A 
ATOM     49  N   UNL A   1      39.284  30.650  31.489  1.00  0.00    -0.354 N 
ATOM     50  C   UNL A   1      42.399  28.770  33.843  1.00  0.00     0.074 A 
ATOM     51  C   UNL A   1      42.951  27.627  33.155  1.00  0.00     0.031 C 
ATOM     52  C   UNL A   1      37.926  30.900  29.729  1.00  0.00     0.029 A 
ATOM     53  C   UNL A   1      38.249  31.441  31.045  1.00  0.00     0.049 A 
ATOM     54  H   UNL A   1      39.711  30.766  32.368  1.00  0.00     0.167 HD
ATOM     55  C   UNL A   1      42.810  29.192  35.063  1.00  0.00     0.037 A 
ATOM     56  C   UNL A   1      37.638  32.489  31.631  1.00  0.00     0.037 A 
ATOM     57  C   UNL A   1      42.277  30.351  35.727  1.00  0.00     0.049 A 
ATOM     58  C   UNL A   1      38.124  32.950  32.980  1.00  0.00     0.074 A 
ATOM     59  C   UNL A   1      42.661  30.903  36.936  1.00  0.00     0.029 A 
ATOM     60  N   UNL A   1      41.245  31.138  35.238  1.00  0.00    -0.354 N 
ATOM     61  N   UNL A   1      39.082  32.454  33.727  1.00  0.00    -0.248 NA
ATOM     62  C   UNL A   1      37.454  34.122  33.558  1.00  0.00     0.031 C 
ATOM     63  C   UNL A   1      41.826  31.993  37.202  1.00  0.00     0.029 A 
ATOM     64  C   UNL A   1      40.962  32.159  36.131  1.00  0.00     0.049 A 
ATOM     65  H   UNL A   1      40.781  30.994  34.382  1.00  0.00     0.167 HD
ATOM     66  C   UNL A   1      39.148  33.271  34.851  1.00  0.00     0.074 A 
ATOM     67  C   UNL A   1      38.148  34.304  34.672  1.00  0.00     0.031 C 
ATOM     68  C   UNL A   1      39.960  33.176  35.935  1.00  0.00     0.037 A 
BRANCH  55  69
ATOM     69  C   UNL A   1      43.893  28.401  35.747  1.00  0.00     0.058 A 
ATOM     70  C   UNL A   1      43.596  27.332  36.611  1.00  0.00     0.135 A 
ATOM     71  C   UNL A   1      45.247  28.697  35.520  1.00  0.00     0.135 A 
ATOM     72  F   UNL A   1      42.320  27.015  36.881  1.00  0.00    -0.206 F 
ATOM     73  C   UNL A   1      44.598  26.610  37.250  1.00  0.00     0.059 A 
ATOM     74  C   UNL A   1      46.267  27.965  36.122  1.00  0.00     0.059 A 
ATOM     75  F   UNL A   1      45.590  29.708  34.708  1.00  0.00    -0.206 F 
ATOM     76  C   UNL A   1      45.932  26.934  36.998  1.00  0.00     0.060 A 
BRANCH  76  77
ATOM     77  S   UNL A   1      47.220  25.982  37.831  1.00  0.00     0.124 S 
ATOM     78  O   UNL A   1      46.728  25.967  39.205  1.00  0.00    -0.237 OA
ATOM     79  O   UNL A   1      47.168  24.706  37.125  1.00  0.00    -0.237 OA
ATOM     80  O   UNL A   1      48.427  26.772  37.606  1.00  0.00    -0.744 OA
ENDBRANCH  76  77
ENDBRANCH  55  69
BRANCH  56  81
ATOM     81  C   UNL A   1      36.531  33.195  30.931  1.00  0.00     0.058 A 
ATOM     82  C   UNL A   1      36.776  33.976  29.791  1.00  0.00     0.135 A 
ATOM     83  C   UNL A   1      35.206  33.100  31.384  1.00  0.00     0.135 A 
ATOM     84  F   UNL A   1      38.025  34.103  29.320  1.00  0.00    -0.206 F 
ATOM     85  C   UNL A   1      35.751  34.654  29.137  1.00  0.00     0.059 A 
ATOM     86  C   UNL A   1      34.161  33.745  30.730  1.00  0.00     0.059 A 
ATOM     87  F   UNL A   1      34.915  32.351  32.459  1.00  0.00    -0.206 F 
ATOM     88  C   UNL A   1      34.445  34.531  29.614  1.00  0.00     0.060 A 
BRANCH  88  89
ATOM     89  S   UNL A   1      33.118  35.380  28.733  1.00  0.00     0.124 S 
ATOM     90  O   UNL A   1      32.375  35.985  29.832  1.00  0.00    -0.237 OA
ATOM     91  O   UNL A   1      33.860  36.302  27.878  1.00  0.00    -0.237 OA
ATOM     92  O   UNL A   1      32.435  34.297  28.029  1.00  0.00    -0.744 OA
ENDBRANCH  88  89
ENDBRANCH  56  81
BRANCH  68  93
ATOM     93  C   UNL A   1      39.820  34.238  36.993  1.00  0.00     0.058 A 
ATOM     94  C   UNL A   1      38.982  34.068  38.106  1.00  0.00     0.135 A 
ATOM     95  C   UNL A   1      40.550  35.434  36.899  1.00  0.00     0.135 A 
ATOM     96  F   UNL A   1      38.261  32.945  38.245  1.00  0.00    -0.206 F 
ATOM     97  C   UNL A   1      38.836  35.067  39.064  1.00  0.00     0.059 A 
ATOM     98  C   UNL A   1      40.448  36.430  37.863  1.00  0.00     0.059 A 
ATOM     99  F   UNL A   1      41.380  35.641  35.864  1.00  0.00    -0.206 F 
ATOM    100  C   UNL A   1      39.571  36.247  38.931  1.00  0.00     0.060 A 
BRANCH 100 101
ATOM    101  S   UNL A   1      39.369  37.535  40.177  1.00  0.00     0.124 S 
ATOM    102  O   UNL A   1      40.699  38.138  40.192  1.00  0.00    -0.237 OA
ATOM    103  O   UNL A   1      38.307  38.358  39.607  1.00  0.00    -0.237 OA
ATOM    104  O   UNL A   1      39.003  36.793  41.380  1.00  0.00    -0.744 OA
ENDBRANCH 100 101
ENDBRANCH  68  93
ENDBRANCH  42  43
ENDBRANCH  34  37
ENDBRANCH  32  33
ENDBRANCH  31  32
ENDBRANCH  30  31
ENDBRANCH   1  30
TORSDOF 20
ENDMDL
MODEL 3
REMARK VINA RESULT:     -10.7      5.291     13.216
REMARK SMILES CC[C@@H](C(=O)NCCCCNC(=O)c1ccc(-c2c3nc(c(-c4c(F)cc(S(=O)(=O)[O-])cc4F)c4ccc([nH]4)c(-c4c(F)cc(S(=O)(=O)[O-])cc4F)c4nc(c(-c5c(F)cc(S(=O)(=O)[O-])cc5F)c5ccc2[nH]5)C=C4)C=C3)cc1)n1c(SCc2cccc(C(F)(F)F)c2)nc2ccncc21
REMARK SMILES IDX 7 1 6 2 4 3 5 4 3 6 2 7 1 8 80 9 81 10 100 11 94 12 95 13
REMARK SMILES IDX 99 14 96 15 98 16 97 17 82 18 83 19 84 20 85 21 93 22 86 23
REMARK SMILES IDX 88 24 87 25 89 26 90 27 91 28 92 29 8 30 9 31 10 32 11 33
REMARK SMILES IDX 12 34 13 36 14 37 15 38 79 39 16 40 78 41 17 42 18 43 19 44
REMARK SMILES IDX 72 45 20 46 77 47 71 48 73 49 21 50 76 51 70 52 69 53 22 55
REMARK SMILES IDX 56 56 35 57 55 58 36 59 39 60 54 61 74 62 37 63 38 64 53 66
REMARK SMILES IDX 75 67 40 68 23 69 24 70 33 71 25 72 26 73 32 74 34 75 27 76
REMARK SMILES IDX 28 77 29 78 30 79 31 80 57 81 58 82 67 83 59 84 60 85 66 86
REMARK SMILES IDX 68 87 61 88 62 89 63 90 64 91 65 92 41 93 42 94 51 95 43 96
REMARK SMILES IDX 44 97 50 98 52 99 45 100 46 101 47 102 48 103 49 104
REMARK H PARENT 6 5 11 35 73 54 39 65
REMARK Flexibility Score: inf
ROOT
ATOM      1  C   UNL A   1      44.971  41.362  29.738  1.00  0.00     0.116 C 
ENDROOT
BRANCH   1   2
ATOM      2  N   UNL A   1      46.161  41.603  28.933  1.00  0.00    -0.354 N 
ATOM      3  C   UNL A   1      46.517  41.164  27.686  1.00  0.00     0.243 C 
ATOM      4  O   UNL A   1      47.648  41.451  27.287  1.00  0.00    -0.273 OA
ATOM      5  H   UNL A   1      46.829  42.183  29.363  1.00  0.00     0.163 HD
BRANCH   3   6
ATOM      6  C   UNL A   1      45.547  40.364  26.820  1.00  0.00     0.178 C 
BRANCH   6   7
ATOM      7  C   UNL A   1      46.282  39.517  25.756  1.00  0.00     0.032 C 
ATOM      8  C   UNL A   1      46.600  38.090  26.170  1.00  0.00     0.006 C 
ENDBRANCH   6   7
BRANCH   6   9
ATOM      9  N   UNL A   1      44.462  41.230  26.309  1.00  0.00    -0.305 N 
ATOM     10  C   UNL A   1      43.199  40.785  25.918  1.00  0.00     0.170 A 
ATOM     11  C   UNL A   1      44.625  42.472  25.714  1.00  0.00     0.088 A 
ATOM     12  N   UNL A   1      42.828  41.406  24.815  1.00  0.00    -0.222 NA
ATOM     13  C   UNL A   1      43.635  42.513  24.738  1.00  0.00     0.093 A 
ATOM     14  C   UNL A   1      45.513  43.527  25.884  1.00  0.00     0.139 A 
ATOM     15  C   UNL A   1      43.547  43.616  23.888  1.00  0.00     0.051 A 
ATOM     16  N   UNL A   1      45.424  44.601  25.065  1.00  0.00    -0.262 NA
ATOM     17  C   UNL A   1      44.467  44.626  24.113  1.00  0.00     0.113 A 
BRANCH  10  18
ATOM     18  S   UNL A   1      41.961  40.308  27.058  1.00  0.00    -0.083 SA
BRANCH  18  19
ATOM     19  C   UNL A   1      41.406  38.624  26.787  1.00  0.00     0.113 C 
BRANCH  19  20
ATOM     20  C   UNL A   1      42.221  37.467  27.300  1.00  0.00    -0.037 A 
ATOM     21  C   UNL A   1      42.656  37.360  28.620  1.00  0.00     0.004 A 
ATOM     22  C   UNL A   1      42.691  36.519  26.396  1.00  0.00     0.017 A 
ATOM     23  C   UNL A   1      43.525  36.324  28.997  1.00  0.00     0.001 A 
ATOM     24  C   UNL A   1      43.518  35.450  26.746  1.00  0.00     0.056 A 
ATOM     25  C   UNL A   1      43.951  35.371  28.067  1.00  0.00     0.013 A 
BRANCH  24  26
ATOM     26  C   UNL A   1      43.944  34.478  25.678  1.00  0.00     0.416 C 
ATOM     27  F   UNL A   1      44.049  33.205  26.152  1.00  0.00    -0.166 F 
ATOM     28  F   UNL A   1      43.109  34.425  24.608  1.00  0.00    -0.166 F 
ATOM     29  F   UNL A   1      45.181  34.768  25.173  1.00  0.00    -0.166 F 
ENDBRANCH  24  26
ENDBRANCH  19  20
ENDBRANCH  18  19
ENDBRANCH  10  18
ENDBRANCH   6   9
ENDBRANCH   3   6
ENDBRANCH   1   2
BRANCH   1  30
ATOM     30  C   UNL A   1      44.769  39.878  30.037  1.00  0.00     0.023 C 
BRANCH  30  31
ATOM     31  C   UNL A   1      45.971  39.193  30.672  1.00  0.00     0.023 C 
BRANCH  31  32
ATOM     32  C   UNL A   1      46.447  37.953  29.931  1.00  0.00     0.116 C 
BRANCH  32  33
ATOM     33  N   UNL A   1      47.898  37.833  29.911  1.00  0.00    -0.352 N 
ATOM     34  C   UNL A   1      48.674  36.707  29.784  1.00  0.00     0.251 C 
ATOM     35  H   UNL A   1      48.393  38.679  30.001  1.00  0.00     0.163 HD
ATOM     36  O   UNL A   1      49.888  36.778  29.969  1.00  0.00    -0.269 OA
BRANCH  34  37
ATOM     37  C   UNL A   1      48.045  35.413  29.447  1.00  0.00     0.039 A 
ATOM     38  C   UNL A   1      47.705  35.143  28.120  1.00  0.00     0.014 A 
ATOM     39  C   UNL A   1      47.798  34.461  30.440  1.00  0.00     0.014 A 
ATOM     40  C   UNL A   1      47.162  33.901  27.787  1.00  0.00     0.010 A 
ATOM     41  C   UNL A   1      47.372  33.187  30.089  1.00  0.00     0.010 A 
ATOM     42  C   UNL A   1      47.016  32.901  28.765  1.00  0.00    -0.014 A 
BRANCH  42  43
ATOM     43  C   UNL A   1      46.438  31.575  28.429  1.00  0.00     0.031 A 
ATOM     44  C   UNL A   1      47.294  30.531  27.758  1.00  0.00     0.074 A 
ATOM     45  C   UNL A   1      45.141  31.322  28.696  1.00  0.00     0.049 A 
ATOM     46  N   UNL A   1      46.978  29.319  27.383  1.00  0.00    -0.248 NA
ATOM     47  C   UNL A   1      48.681  30.909  27.434  1.00  0.00     0.031 C 
ATOM     48  C   UNL A   1      44.193  32.276  29.279  1.00  0.00     0.029 A 
ATOM     49  N   UNL A   1      44.396  30.185  28.516  1.00  0.00    -0.354 N 
ATOM     50  C   UNL A   1      48.115  28.801  26.774  1.00  0.00     0.074 A 
ATOM     51  C   UNL A   1      49.103  29.854  26.756  1.00  0.00     0.031 C 
ATOM     52  C   UNL A   1      43.008  31.671  29.449  1.00  0.00     0.029 A 
ATOM     53  C   UNL A   1      43.098  30.300  28.956  1.00  0.00     0.049 A 
ATOM     54  H   UNL A   1      44.756  29.364  28.110  1.00  0.00     0.167 HD
ATOM     55  C   UNL A   1      48.333  27.548  26.308  1.00  0.00     0.037 A 
ATOM     56  C   UNL A   1      42.097  29.398  28.968  1.00  0.00     0.037 A 
ATOM     57  C   UNL A   1      47.354  26.496  26.359  1.00  0.00     0.049 A 
ATOM     58  C   UNL A   1      42.368  28.007  28.459  1.00  0.00     0.074 A 
ATOM     59  C   UNL A   1      47.489  25.175  25.970  1.00  0.00     0.029 A 
ATOM     60  N   UNL A   1      46.058  26.644  26.830  1.00  0.00    -0.354 N 
ATOM     61  N   UNL A   1      43.475  27.512  27.958  1.00  0.00    -0.248 NA
ATOM     62  C   UNL A   1      41.258  27.048  28.532  1.00  0.00     0.031 C 
ATOM     63  C   UNL A   1      46.257  24.538  26.158  1.00  0.00     0.029 A 
ATOM     64  C   UNL A   1      45.373  25.445  26.721  1.00  0.00     0.049 A 
ATOM     65  H   UNL A   1      45.679  27.479  27.189  1.00  0.00     0.167 HD
ATOM     66  C   UNL A   1      43.203  26.176  27.681  1.00  0.00     0.074 A 
ATOM     67  C   UNL A   1      41.834  25.938  28.093  1.00  0.00     0.031 C 
ATOM     68  C   UNL A   1      44.010  25.231  27.135  1.00  0.00     0.037 A 
BRANCH  55  69
ATOM     69  C   UNL A   1      49.685  27.251  25.713  1.00  0.00     0.058 A 
ATOM     70  C   UNL A   1      49.943  27.416  24.341  1.00  0.00     0.135 A 
ATOM     71  C   UNL A   1      50.743  26.816  26.526  1.00  0.00     0.135 A 
ATOM     72  F   UNL A   1      48.964  27.810  23.512  1.00  0.00    -0.206 F 
ATOM     73  C   UNL A   1      51.188  27.129  23.794  1.00  0.00     0.059 A 
ATOM     74  C   UNL A   1      52.008  26.556  26.006  1.00  0.00     0.059 A 
ATOM     75  F   UNL A   1      50.555  26.636  27.843  1.00  0.00    -0.206 F 
ATOM     76  C   UNL A   1      52.217  26.700  24.635  1.00  0.00     0.060 A 
BRANCH  76  77
ATOM     77  S   UNL A   1      53.828  26.339  23.907  1.00  0.00     0.124 S 
ATOM     78  O   UNL A   1      53.458  25.978  22.543  1.00  0.00    -0.237 OA
ATOM     79  O   UNL A   1      54.529  27.611  24.058  1.00  0.00    -0.237 OA
ATOM     80  O   UNL A   1      54.336  25.246  24.730  1.00  0.00    -0.744 OA
ENDBRANCH  76  77
ENDBRANCH  55  69
BRANCH  56  81
ATOM     81  C   UNL A   1      40.763  29.769  29.513  1.00  0.00     0.058 A 
ATOM     82  C   UNL A   1      39.658  29.946  28.665  1.00  0.00     0.135 A 
ATOM     83  C   UNL A   1      40.563  29.950  30.890  1.00  0.00     0.135 A 
ATOM     84  F   UNL A   1      39.797  29.789  27.340  1.00  0.00    -0.206 F 
ATOM     85  C   UNL A   1      38.409  30.309  29.160  1.00  0.00     0.059 A 
ATOM     86  C   UNL A   1      39.317  30.285  31.411  1.00  0.00     0.059 A 
ATOM     87  F   UNL A   1      41.582  29.775  31.746  1.00  0.00    -0.206 F 
ATOM     88  C   UNL A   1      38.249  30.475  30.537  1.00  0.00     0.060 A 
BRANCH  88  89
ATOM     89  S   UNL A   1      36.614  30.905  31.172  1.00  0.00     0.124 S 
ATOM     90  O   UNL A   1      36.247  29.688  31.886  1.00  0.00    -0.237 OA
ATOM     91  O   UNL A   1      36.905  32.070  32.001  1.00  0.00    -0.237 OA
ATOM     92  O   UNL A   1      35.846  31.183  29.961  1.00  0.00    -0.744 OA
ENDBRANCH  88  89
ENDBRANCH  56  81
BRANCH  68  93
ATOM     93  C   UNL A   1      43.438  23.846  26.983  1.00  0.00     0.058 A 
ATOM     94  C   UNL A   1      43.425  22.929  28.046  1.00  0.00     0.135 A 
ATOM     95  C   UNL A   1      42.878  23.439  25.761  1.00  0.00     0.135 A 
ATOM     96  F   UNL A   1      43.949  23.266  29.236  1.00  0.00    -0.206 F 
ATOM     97  C   UNL A   1      42.922  21.642  27.889  1.00  0.00     0.059 A 
ATOM     98  C   UNL A   1      42.336  22.170  25.592  1.00  0.00     0.059 A 
ATOM     99  F   UNL A   1      42.847  24.282  24.717  1.00  0.00    -0.206 F 
ATOM    100  C   UNL A   1      42.383  21.270  26.656  1.00  0.00     0.060 A 
BRANCH 100 101
ATOM    101  S   UNL A   1      41.737  19.597  26.463  1.00  0.00     0.124 S 
ATOM    102  O   UNL A   1      40.308  19.851  26.303  1.00  0.00    -0.237 OA
ATOM    103  O   UNL A   1      42.435  19.128  25.271  1.00  0.00    -0.237 OA
ATOM    104  O   UNL A   1      42.122  18.938  27.708  1.00  0.00    -0.744 OA
ENDBRANCH 100 101
ENDBRANCH  68  93
ENDBRANCH  42  43
ENDBRANCH  34  37
ENDBRANCH  32  33
ENDBRANCH  31  32
ENDBRANCH  30  31
ENDBRANCH   1  30
TORSDOF 20
ENDMDL
