MODEL 1
REMARK VINA RESULT:     -12.0      0.000      0.000
REMARK SMILES CCc1nn(C)c(C[C@@H](C(=O)NCCCCNC(=O)c2ccc(-c3c4nc(c(-c5c(F)cc(S(=O)(=O)[O-])cc5F)c5ccc([nH]5)c(-c5c(F)cc(S(=O)(=O)[O-])cc5F)c5nc(c(-c6c(F)cc(S(=O)(=O)[O-])cc6F)c6ccc3[nH]6)C=C5)C=C4)cc2)c2cccc(C)c2)c1Br
REMARK SMILES IDX 14 1 13 2 12 3 10 4 11 5 9 7 8 8 7 9 3 10 4 11 93 12 5 13
REMARK SMILES IDX 94 14 6 15 2 16 1 17 86 18 87 19 92 20 88 21 90 22 89 23
REMARK SMILES IDX 91 24 15 25 16 26 17 27 18 28 19 30 20 31 21 32 85 33 22 34
REMARK SMILES IDX 84 35 23 36 24 37 25 38 78 39 26 40 83 41 77 42 79 43 27 44
REMARK SMILES IDX 82 45 76 46 75 47 28 49 62 50 41 51 61 52 42 53 45 54 60 55
REMARK SMILES IDX 80 56 43 57 44 58 59 60 81 61 46 62 29 63 30 64 39 65 31 66
REMARK SMILES IDX 32 67 38 68 40 69 33 70 34 71 35 72 36 73 37 74 63 75 64 76
REMARK SMILES IDX 73 77 65 78 66 79 72 80 74 81 67 82 68 83 69 84 70 85 71 86
REMARK SMILES IDX 47 87 48 88 57 89 49 90 50 91 56 92 58 93 51 94 52 95 53 96
REMARK SMILES IDX 54 97 55 98
REMARK H PARENT 12 6 17 29 79 48 45 59
REMARK Flexibility Score: inf
ROOT
ATOM      1  C   UNL A   1      37.410  22.478  25.024  1.00  0.00     0.023 C 
ENDROOT
BRANCH   1   2
ATOM      2  C   UNL A   1      36.250  21.965  24.157  1.00  0.00     0.116 C 
BRANCH   2   3
ATOM      3  N   UNL A   1      35.658  23.010  23.348  1.00  0.00    -0.356 N 
ATOM      4  C   UNL A   1      34.647  23.904  23.514  1.00  0.00     0.227 C 
ATOM      5  O   UNL A   1      34.375  24.505  22.468  1.00  0.00    -0.274 OA
ATOM      6  H   UNL A   1      36.091  23.093  22.468  1.00  0.00     0.163 HD
BRANCH   4   7
ATOM      7  C   UNL A   1      33.887  24.150  24.853  1.00  0.00     0.114 C 
BRANCH   7   8
ATOM      8  C   UNL A   1      32.614  23.291  25.035  1.00  0.00     0.075 C 
BRANCH   8   9
ATOM      9  C   UNL A   1      32.762  21.812  24.967  1.00  0.00     0.054 A 
ATOM     10  C   UNL A   1      32.809  19.628  24.493  1.00  0.00     0.077 A 
ATOM     11  N   UNL A   1      33.346  19.742  25.721  1.00  0.00    -0.177 NA
ATOM     12  C   UNL A   1      32.530  20.905  23.957  1.00  0.00     0.062 A 
ATOM     13  N   UNL A   1      33.266  21.066  26.004  1.00  0.00    -0.271 N 
ATOM     14  Br  UNL A   1      31.910  21.266  22.227  1.00  0.00    -0.047 Br
ATOM     15  C   UNL A   1      33.452  21.518  27.370  1.00  0.00     0.174 C 
BRANCH  10  16
ATOM     16  C   UNL A   1      32.585  18.275  23.889  1.00  0.00     0.056 C 
ATOM     17  C   UNL A   1      33.867  17.553  23.484  1.00  0.00     0.011 C 
ENDBRANCH  10  16
ENDBRANCH   8   9
ENDBRANCH   7   8
BRANCH   7  18
ATOM     18  C   UNL A   1      33.338  25.601  25.013  1.00  0.00    -0.035 A 
ATOM     19  C   UNL A   1      32.023  25.948  24.648  1.00  0.00     0.004 A 
ATOM     20  C   UNL A   1      34.070  26.546  25.762  1.00  0.00     0.008 A 
ATOM     21  C   UNL A   1      31.471  27.187  24.973  1.00  0.00     0.001 A 
ATOM     22  C   UNL A   1      33.499  27.777  26.142  1.00  0.00    -0.051 A 
ATOM     23  C   UNL A   1      32.204  28.096  25.723  1.00  0.00     0.003 A 
ATOM     24  C   UNL A   1      34.238  28.751  27.011  1.00  0.00     0.044 C 
ENDBRANCH   7  18
ENDBRANCH   4   7
ENDBRANCH   2   3
ENDBRANCH   1   2
BRANCH   1  25
ATOM     25  C   UNL A   1      37.295  23.768  25.841  1.00  0.00     0.023 C 
BRANCH  25  26
ATOM     26  C   UNL A   1      38.336  23.889  26.935  1.00  0.00     0.116 C 
BRANCH  26  27
ATOM     27  N   UNL A   1      39.470  22.957  26.765  1.00  0.00    -0.352 N 
ATOM     28  C   UNL A   1      40.800  23.253  26.498  1.00  0.00     0.251 C 
ATOM     29  H   UNL A   1      39.254  22.001  26.852  1.00  0.00     0.163 HD
ATOM     30  O   UNL A   1      41.580  22.409  26.066  1.00  0.00    -0.269 OA
BRANCH  28  31
ATOM     31  C   UNL A   1      41.253  24.615  26.804  1.00  0.00     0.039 A 
ATOM     32  C   UNL A   1      41.090  25.703  25.942  1.00  0.00     0.014 A 
ATOM     33  C   UNL A   1      41.647  24.783  28.122  1.00  0.00     0.014 A 
ATOM     34  C   UNL A   1      41.225  26.984  26.476  1.00  0.00     0.010 A 
ATOM     35  C   UNL A   1      41.426  25.999  28.679  1.00  0.00     0.010 A 
ATOM     36  C   UNL A   1      41.357  27.115  27.866  1.00  0.00    -0.014 A 
BRANCH  36  37
ATOM     37  C   UNL A   1      41.307  28.380  28.579  1.00  0.00     0.031 A 
ATOM     38  C   UNL A   1      42.427  29.292  28.247  1.00  0.00     0.074 A 
ATOM     39  C   UNL A   1      40.189  28.785  29.228  1.00  0.00     0.049 A 
ATOM     40  N   UNL A   1      43.537  29.426  28.893  1.00  0.00    -0.248 NA
ATOM     41  C   UNL A   1      42.440  29.937  26.923  1.00  0.00     0.031 C 
ATOM     42  C   UNL A   1      38.871  28.135  29.306  1.00  0.00     0.029 A 
ATOM     43  N   UNL A   1      39.976  29.942  29.902  1.00  0.00    -0.354 N 
ATOM     44  C   UNL A   1      44.231  30.427  28.223  1.00  0.00     0.074 A 
ATOM     45  C   UNL A   1      43.673  30.453  26.900  1.00  0.00     0.031 C 
ATOM     46  C   UNL A   1      37.954  29.002  29.787  1.00  0.00     0.029 A 
ATOM     47  C   UNL A   1      38.648  30.190  30.240  1.00  0.00     0.049 A 
ATOM     48  H   UNL A   1      40.706  30.561  30.134  1.00  0.00     0.167 HD
ATOM     49  C   UNL A   1      44.944  31.360  28.920  1.00  0.00     0.037 A 
ATOM     50  C   UNL A   1      38.169  31.298  30.861  1.00  0.00     0.037 A 
ATOM     51  C   UNL A   1      45.038  30.966  30.314  1.00  0.00     0.049 A 
ATOM     52  C   UNL A   1      39.338  31.934  31.533  1.00  0.00     0.074 A 
ATOM     53  C   UNL A   1      45.526  29.862  30.984  1.00  0.00     0.029 A 
ATOM     54  N   UNL A   1      44.183  31.594  31.192  1.00  0.00    -0.354 N 
ATOM     55  N   UNL A   1      40.004  31.367  32.507  1.00  0.00    -0.248 NA
ATOM     56  C   UNL A   1      40.077  32.935  30.779  1.00  0.00     0.031 C 
ATOM     57  C   UNL A   1      44.587  29.623  32.032  1.00  0.00     0.029 A 
ATOM     58  C   UNL A   1      43.636  30.645  32.016  1.00  0.00     0.049 A 
ATOM     59  H   UNL A   1      43.996  32.560  31.223  1.00  0.00     0.167 HD
ATOM     60  C   UNL A   1      41.342  31.619  32.224  1.00  0.00     0.074 A 
ATOM     61  C   UNL A   1      41.318  32.652  31.189  1.00  0.00     0.031 C 
ATOM     62  C   UNL A   1      42.325  30.756  32.625  1.00  0.00     0.037 A 
BRANCH  49  63
ATOM     63  C   UNL A   1      45.166  32.804  28.504  1.00  0.00     0.058 A 
ATOM     64  C   UNL A   1      46.496  33.279  28.439  1.00  0.00     0.135 A 
ATOM     65  C   UNL A   1      44.171  33.804  28.447  1.00  0.00     0.135 A 
ATOM     66  F   UNL A   1      47.531  32.423  28.438  1.00  0.00    -0.206 F 
ATOM     67  C   UNL A   1      46.812  34.636  28.462  1.00  0.00     0.059 A 
ATOM     68  C   UNL A   1      44.466  35.163  28.421  1.00  0.00     0.059 A 
ATOM     69  F   UNL A   1      42.864  33.539  28.492  1.00  0.00    -0.206 F 
ATOM     70  C   UNL A   1      45.786  35.571  28.481  1.00  0.00     0.060 A 
BRANCH  70  71
ATOM     71  S   UNL A   1      46.185  37.318  28.632  1.00  0.00     0.124 S 
ATOM     72  O   UNL A   1      46.115  37.505  30.076  1.00  0.00    -0.237 OA
ATOM     73  O   UNL A   1      47.517  37.373  28.040  1.00  0.00    -0.237 OA
ATOM     74  O   UNL A   1      45.132  37.970  27.858  1.00  0.00    -0.744 OA
ENDBRANCH  70  71
ENDBRANCH  49  63
BRANCH  50  75
ATOM     75  C   UNL A   1      36.877  31.998  30.625  1.00  0.00     0.058 A 
ATOM     76  C   UNL A   1      35.886  32.081  31.618  1.00  0.00     0.135 A 
ATOM     77  C   UNL A   1      36.700  32.837  29.505  1.00  0.00     0.135 A 
ATOM     78  F   UNL A   1      35.985  31.335  32.730  1.00  0.00    -0.206 F 
ATOM     79  C   UNL A   1      34.804  32.967  31.526  1.00  0.00     0.059 A 
ATOM     80  C   UNL A   1      35.630  33.727  29.388  1.00  0.00     0.059 A 
ATOM     81  F   UNL A   1      37.616  32.877  28.525  1.00  0.00    -0.206 F 
ATOM     82  C   UNL A   1      34.694  33.802  30.413  1.00  0.00     0.060 A 
BRANCH  82  83
ATOM     83  S   UNL A   1      33.382  35.049  30.357  1.00  0.00     0.124 S 
ATOM     84  O   UNL A   1      34.141  36.276  30.136  1.00  0.00    -0.237 OA
ATOM     85  O   UNL A   1      32.568  34.593  29.237  1.00  0.00    -0.237 OA
ATOM     86  O   UNL A   1      32.749  34.936  31.669  1.00  0.00    -0.744 OA
ENDBRANCH  82  83
ENDBRANCH  50  75
BRANCH  62  87
ATOM     87  C   UNL A   1      41.988  29.697  33.647  1.00  0.00     0.058 A 
ATOM     88  C   UNL A   1      41.589  28.382  33.344  1.00  0.00     0.135 A 
ATOM     89  C   UNL A   1      42.293  29.976  34.987  1.00  0.00     0.135 A 
ATOM     90  F   UNL A   1      41.361  28.005  32.078  1.00  0.00    -0.206 F 
ATOM     91  C   UNL A   1      41.487  27.396  34.331  1.00  0.00     0.059 A 
ATOM     92  C   UNL A   1      42.227  29.005  35.982  1.00  0.00     0.059 A 
ATOM     93  F   UNL A   1      42.736  31.197  35.332  1.00  0.00    -0.206 F 
ATOM     94  C   UNL A   1      41.819  27.716  35.647  1.00  0.00     0.060 A 
BRANCH  94  95
ATOM     95  S   UNL A   1      41.794  26.422  36.908  1.00  0.00     0.124 S 
ATOM     96  O   UNL A   1      42.944  26.776  37.733  1.00  0.00    -0.237 OA
ATOM     97  O   UNL A   1      40.487  26.607  37.529  1.00  0.00    -0.237 OA
ATOM     98  O   UNL A   1      41.937  25.190  36.135  1.00  0.00    -0.744 OA
ENDBRANCH  94  95
ENDBRANCH  62  87
ENDBRANCH  36  37
ENDBRANCH  28  31
ENDBRANCH  26  27
ENDBRANCH  25  26
ENDBRANCH   1  25
TORSDOF 18
ENDMDL
MODEL 2
REMARK VINA RESULT:     -11.9      1.814      3.919
REMARK SMILES CCc1nn(C)c(C[C@@H](C(=O)NCCCCNC(=O)c2ccc(-c3c4nc(c(-c5c(F)cc(S(=O)(=O)[O-])cc5F)c5ccc([nH]5)c(-c5c(F)cc(S(=O)(=O)[O-])cc5F)c5nc(c(-c6c(F)cc(S(=O)(=O)[O-])cc6F)c6ccc3[nH]6)C=C5)C=C4)cc2)c2cccc(C)c2)c1Br
REMARK SMILES IDX 14 1 13 2 12 3 10 4 11 5 9 7 8 8 7 9 3 10 4 11 93 12 5 13
REMARK SMILES IDX 94 14 6 15 2 16 1 17 86 18 87 19 92 20 88 21 90 22 89 23
REMARK SMILES IDX 91 24 15 25 16 26 17 27 18 28 19 30 20 31 21 32 85 33 22 34
REMARK SMILES IDX 84 35 23 36 24 37 25 38 78 39 26 40 83 41 77 42 79 43 27 44
REMARK SMILES IDX 82 45 76 46 75 47 28 49 62 50 41 51 61 52 42 53 45 54 60 55
REMARK SMILES IDX 80 56 43 57 44 58 59 60 81 61 46 62 29 63 30 64 39 65 31 66
REMARK SMILES IDX 32 67 38 68 40 69 33 70 34 71 35 72 36 73 37 74 63 75 64 76
REMARK SMILES IDX 73 77 65 78 66 79 72 80 74 81 67 82 68 83 69 84 70 85 71 86
REMARK SMILES IDX 47 87 48 88 57 89 49 90 50 91 56 92 58 93 51 94 52 95 53 96
REMARK SMILES IDX 54 97 55 98
REMARK H PARENT 12 6 17 29 79 48 45 59
REMARK Flexibility Score: inf
ROOT
ATOM      1  C   UNL A   1      38.276  21.821  25.880  1.00  0.00     0.023 C 
ENDROOT
BRANCH   1   2
ATOM      2  C   UNL A   1      36.928  21.756  25.147  1.00  0.00     0.116 C 
BRANCH   2   3
ATOM      3  N   UNL A   1      35.821  21.507  26.047  1.00  0.00    -0.356 N 
ATOM      4  C   UNL A   1      34.506  21.191  25.896  1.00  0.00     0.227 C 
ATOM      5  O   UNL A   1      33.885  21.243  26.965  1.00  0.00    -0.274 OA
ATOM      6  H   UNL A   1      36.081  21.586  26.993  1.00  0.00     0.163 HD
BRANCH   4   7
ATOM      7  C   UNL A   1      33.830  20.819  24.542  1.00  0.00     0.114 C 
BRANCH   7   8
ATOM      8  C   UNL A   1      32.397  21.376  24.368  1.00  0.00     0.075 C 
BRANCH   8   9
ATOM      9  C   UNL A   1      32.216  22.852  24.424  1.00  0.00     0.054 A 
ATOM     10  C   UNL A   1      31.677  24.985  24.812  1.00  0.00     0.077 A 
ATOM     11  N   UNL A   1      32.571  25.017  23.807  1.00  0.00    -0.177 NA
ATOM     12  C   UNL A   1      31.514  23.665  25.284  1.00  0.00     0.062 A 
ATOM     13  N   UNL A   1      32.848  23.712  23.560  1.00  0.00    -0.271 N 
ATOM     14  Br  UNL A   1      30.487  23.139  26.760  1.00  0.00    -0.047 Br
ATOM     15  C   UNL A   1      33.524  23.345  22.331  1.00  0.00     0.174 C 
BRANCH  10  16
ATOM     16  C   UNL A   1      31.014  26.249  25.272  1.00  0.00     0.056 C 
ATOM     17  C   UNL A   1      29.840  26.689  24.403  1.00  0.00     0.011 C 
ENDBRANCH  10  16
ENDBRANCH   8   9
ENDBRANCH   7   8
BRANCH   7  18
ATOM     18  C   UNL A   1      33.621  19.287  24.337  1.00  0.00    -0.035 A 
ATOM     19  C   UNL A   1      32.762  18.775  23.346  1.00  0.00     0.004 A 
ATOM     20  C   UNL A   1      34.483  18.373  24.979  1.00  0.00     0.008 A 
ATOM     21  C   UNL A   1      32.727  17.416  23.033  1.00  0.00     0.001 A 
ATOM     22  C   UNL A   1      34.493  17.009  24.627  1.00  0.00    -0.051 A 
ATOM     23  C   UNL A   1      33.594  16.537  23.666  1.00  0.00     0.003 A 
ATOM     24  C   UNL A   1      35.465  16.046  25.242  1.00  0.00     0.044 C 
ENDBRANCH   7  18
ENDBRANCH   4   7
ENDBRANCH   2   3
ENDBRANCH   1   2
BRANCH   1  25
ATOM     25  C   UNL A   1      39.271  20.657  25.842  1.00  0.00     0.023 C 
BRANCH  25  26
ATOM     26  C   UNL A   1      40.480  20.862  26.732  1.00  0.00     0.116 C 
BRANCH  26  27
ATOM     27  N   UNL A   1      41.701  21.221  25.981  1.00  0.00    -0.352 N 
ATOM     28  C   UNL A   1      42.321  22.459  25.879  1.00  0.00     0.251 C 
ATOM     29  H   UNL A   1      42.131  20.487  25.487  1.00  0.00     0.163 HD
ATOM     30  O   UNL A   1      43.128  22.712  24.989  1.00  0.00    -0.269 OA
BRANCH  28  31
ATOM     31  C   UNL A   1      42.007  23.447  26.918  1.00  0.00     0.039 A 
ATOM     32  C   UNL A   1      42.689  23.543  28.135  1.00  0.00     0.014 A 
ATOM     33  C   UNL A   1      41.130  24.434  26.496  1.00  0.00     0.014 A 
ATOM     34  C   UNL A   1      42.551  24.719  28.870  1.00  0.00     0.010 A 
ATOM     35  C   UNL A   1      41.291  25.669  27.032  1.00  0.00     0.010 A 
ATOM     36  C   UNL A   1      41.872  25.796  28.280  1.00  0.00    -0.014 A 
BRANCH  36  37
ATOM     37  C   UNL A   1      41.822  27.137  28.836  1.00  0.00     0.031 A 
ATOM     38  C   UNL A   1      42.979  27.980  28.455  1.00  0.00     0.074 A 
ATOM     39  C   UNL A   1      40.687  27.638  29.379  1.00  0.00     0.049 A 
ATOM     40  N   UNL A   1      44.062  28.167  29.133  1.00  0.00    -0.248 NA
ATOM     41  C   UNL A   1      43.069  28.464  27.066  1.00  0.00     0.031 C 
ATOM     42  C   UNL A   1      39.350  27.029  29.469  1.00  0.00     0.029 A 
ATOM     43  N   UNL A   1      40.473  28.871  29.901  1.00  0.00    -0.354 N 
ATOM     44  C   UNL A   1      44.812  29.069  28.385  1.00  0.00     0.074 A 
ATOM     45  C   UNL A   1      44.315  28.949  27.042  1.00  0.00     0.031 C 
ATOM     46  C   UNL A   1      38.435  27.965  29.801  1.00  0.00     0.029 A 
ATOM     47  C   UNL A   1      39.138  29.184  30.144  1.00  0.00     0.049 A 
ATOM     48  H   UNL A   1      41.208  29.498  30.094  1.00  0.00     0.167 HD
ATOM     49  C   UNL A   1      45.515  30.062  29.001  1.00  0.00     0.037 A 
ATOM     50  C   UNL A   1      38.660  30.367  30.607  1.00  0.00     0.037 A 
ATOM     51  C   UNL A   1      45.536  29.834  30.434  1.00  0.00     0.049 A 
ATOM     52  C   UNL A   1      39.813  31.054  31.255  1.00  0.00     0.074 A 
ATOM     53  C   UNL A   1      45.965  28.808  31.252  1.00  0.00     0.029 A 
ATOM     54  N   UNL A   1      44.658  30.579  31.190  1.00  0.00    -0.354 N 
ATOM     55  N   UNL A   1      40.419  30.593  32.320  1.00  0.00    -0.248 NA
ATOM     56  C   UNL A   1      40.611  31.944  30.425  1.00  0.00     0.031 C 
ATOM     57  C   UNL A   1      44.973  28.713  32.274  1.00  0.00     0.029 A 
ATOM     58  C   UNL A   1      44.050  29.745  32.093  1.00  0.00     0.049 A 
ATOM     59  H   UNL A   1      44.495  31.545  31.099  1.00  0.00     0.167 HD
ATOM     60  C   UNL A   1      41.775  30.782  32.075  1.00  0.00     0.074 A 
ATOM     61  C   UNL A   1      41.824  31.687  30.925  1.00  0.00     0.031 C 
ATOM     62  C   UNL A   1      42.716  29.953  32.621  1.00  0.00     0.037 A 
BRANCH  49  63
ATOM     63  C   UNL A   1      45.794  31.443  28.430  1.00  0.00     0.058 A 
ATOM     64  C   UNL A   1      44.701  32.185  27.926  1.00  0.00     0.135 A 
ATOM     65  C   UNL A   1      47.068  31.949  28.093  1.00  0.00     0.135 A 
ATOM     66  F   UNL A   1      43.439  31.831  28.215  1.00  0.00    -0.206 F 
ATOM     67  C   UNL A   1      44.861  33.252  27.043  1.00  0.00     0.059 A 
ATOM     68  C   UNL A   1      47.248  33.042  27.252  1.00  0.00     0.059 A 
ATOM     69  F   UNL A   1      48.209  31.379  28.485  1.00  0.00    -0.206 F 
ATOM     70  C   UNL A   1      46.143  33.655  26.691  1.00  0.00     0.060 A 
BRANCH  70  71
ATOM     71  S   UNL A   1      46.355  34.950  25.462  1.00  0.00     0.124 S 
ATOM     72  O   UNL A   1      45.343  34.582  24.479  1.00  0.00    -0.237 OA
ATOM     73  O   UNL A   1      46.085  36.151  26.244  1.00  0.00    -0.237 OA
ATOM     74  O   UNL A   1      47.742  34.783  25.036  1.00  0.00    -0.744 OA
ENDBRANCH  70  71
ENDBRANCH  49  63
BRANCH  50  75
ATOM     75  C   UNL A   1      37.399  31.060  30.229  1.00  0.00     0.058 A 
ATOM     76  C   UNL A   1      36.536  31.611  31.193  1.00  0.00     0.135 A 
ATOM     77  C   UNL A   1      37.149  31.434  28.891  1.00  0.00     0.135 A 
ATOM     78  F   UNL A   1      36.713  31.327  32.493  1.00  0.00    -0.206 F 
ATOM     79  C   UNL A   1      35.512  32.507  30.858  1.00  0.00     0.059 A 
ATOM     80  C   UNL A   1      36.134  32.324  28.533  1.00  0.00     0.059 A 
ATOM     81  F   UNL A   1      37.946  31.011  27.899  1.00  0.00    -0.206 F 
ATOM     82  C   UNL A   1      35.329  32.873  29.524  1.00  0.00     0.060 A 
BRANCH  82  83
ATOM     83  S   UNL A   1      34.106  34.141  29.104  1.00  0.00     0.124 S 
ATOM     84  O   UNL A   1      33.222  33.419  28.195  1.00  0.00    -0.237 OA
ATOM     85  O   UNL A   1      33.543  34.473  30.409  1.00  0.00    -0.237 OA
ATOM     86  O   UNL A   1      34.907  35.196  28.488  1.00  0.00    -0.744 OA
ENDBRANCH  82  83
ENDBRANCH  50  75
BRANCH  62  87
ATOM     87  C   UNL A   1      42.306  29.030  33.742  1.00  0.00     0.058 A 
ATOM     88  C   UNL A   1      41.616  27.815  33.574  1.00  0.00     0.135 A 
ATOM     89  C   UNL A   1      42.828  29.295  35.017  1.00  0.00     0.135 A 
ATOM     90  F   UNL A   1      41.159  27.442  32.371  1.00  0.00    -0.206 F 
ATOM     91  C   UNL A   1      41.445  26.912  34.629  1.00  0.00     0.059 A 
ATOM     92  C   UNL A   1      42.695  28.400  36.074  1.00  0.00     0.059 A 
ATOM     93  F   UNL A   1      43.546  30.410  35.227  1.00  0.00    -0.206 F 
ATOM     94  C   UNL A   1      41.998  27.211  35.875  1.00  0.00     0.060 A 
BRANCH  94  95
ATOM     95  S   UNL A   1      41.874  26.002  37.212  1.00  0.00     0.124 S 
ATOM     96  O   UNL A   1      40.471  26.113  37.596  1.00  0.00    -0.237 OA
ATOM     97  O   UNL A   1      42.255  24.758  36.553  1.00  0.00    -0.237 OA
ATOM     98  O   UNL A   1      42.831  26.489  38.203  1.00  0.00    -0.744 OA
ENDBRANCH  94  95
ENDBRANCH  62  87
ENDBRANCH  36  37
ENDBRANCH  28  31
ENDBRANCH  26  27
ENDBRANCH  25  26
ENDBRANCH   1  25
TORSDOF 18
ENDMDL
MODEL 3
REMARK VINA RESULT:     -11.9      3.174      8.167
REMARK SMILES CCc1nn(C)c(C[C@@H](C(=O)NCCCCNC(=O)c2ccc(-c3c4nc(c(-c5c(F)cc(S(=O)(=O)[O-])cc5F)c5ccc([nH]5)c(-c5c(F)cc(S(=O)(=O)[O-])cc5F)c5nc(c(-c6c(F)cc(S(=O)(=O)[O-])cc6F)c6ccc3[nH]6)C=C5)C=C4)cc2)c2cccc(C)c2)c1Br
REMARK SMILES IDX 14 1 13 2 12 3 10 4 11 5 9 7 8 8 7 9 3 10 4 11 93 12 5 13
REMARK SMILES IDX 94 14 6 15 2 16 1 17 86 18 87 19 92 20 88 21 90 22 89 23
REMARK SMILES IDX 91 24 15 25 16 26 17 27 18 28 19 30 20 31 21 32 85 33 22 34
REMARK SMILES IDX 84 35 23 36 24 37 25 38 78 39 26 40 83 41 77 42 79 43 27 44
REMARK SMILES IDX 82 45 76 46 75 47 28 49 62 50 41 51 61 52 42 53 45 54 60 55
REMARK SMILES IDX 80 56 43 57 44 58 59 60 81 61 46 62 29 63 30 64 39 65 31 66
REMARK SMILES IDX 32 67 38 68 40 69 33 70 34 71 35 72 36 73 37 74 63 75 64 76
REMARK SMILES IDX 73 77 65 78 66 79 72 80 74 81 67 82 68 83 69 84 70 85 71 86
REMARK SMILES IDX 47 87 48 88 57 89 49 90 50 91 56 92 58 93 51 94 52 95 53 96
REMARK SMILES IDX 54 97 55 98
REMARK H PARENT 12 6 17 29 79 48 45 59
REMARK Flexibility Score: inf
ROOT
ATOM      1  C   UNL A   1      32.253  29.724  26.693  1.00  0.00     0.023 C 
ENDROOT
BRANCH   1   2
ATOM      2  C   UNL A   1      33.516  29.204  25.991  1.00  0.00     0.116 C 
BRANCH   2   3
ATOM      3  N   UNL A   1      33.412  29.265  24.548  1.00  0.00    -0.356 N 
ATOM      4  C   UNL A   1      32.582  28.726  23.615  1.00  0.00     0.227 C 
ATOM      5  O   UNL A   1      32.983  28.919  22.461  1.00  0.00    -0.274 OA
ATOM      6  H   UNL A   1      34.109  29.833  24.146  1.00  0.00     0.163 HD
BRANCH   4   7
ATOM      7  C   UNL A   1      31.278  27.934  23.935  1.00  0.00     0.114 C 
BRANCH   7   8
ATOM      8  C   UNL A   1      31.176  26.558  23.236  1.00  0.00     0.075 C 
BRANCH   8   9
ATOM      9  C   UNL A   1      32.385  25.690  23.236  1.00  0.00     0.054 A 
ATOM     10  C   UNL A   1      34.198  24.448  23.645  1.00  0.00     0.077 A 
ATOM     11  N   UNL A   1      34.017  24.394  22.313  1.00  0.00    -0.177 NA
ATOM     12  C   UNL A   1      33.143  25.160  24.256  1.00  0.00     0.062 A 
ATOM     13  N   UNL A   1      32.942  25.189  22.085  1.00  0.00    -0.271 N 
ATOM     14  Br  UNL A   1      32.880  25.380  26.098  1.00  0.00    -0.047 Br
ATOM     15  C   UNL A   1      32.651  25.629  20.734  1.00  0.00     0.174 C 
BRANCH  10  16
ATOM     16  C   UNL A   1      35.397  23.803  24.271  1.00  0.00     0.056 C 
ATOM     17  C   UNL A   1      36.252  22.997  23.296  1.00  0.00     0.011 C 
ENDBRANCH  10  16
ENDBRANCH   8   9
ENDBRANCH   7   8
BRANCH   7  18
ATOM     18  C   UNL A   1      29.972  28.646  23.465  1.00  0.00    -0.035 A 
ATOM     19  C   UNL A   1      28.772  27.942  23.252  1.00  0.00     0.004 A 
ATOM     20  C   UNL A   1      29.900  30.055  23.484  1.00  0.00     0.008 A 
ATOM     21  C   UNL A   1      27.563  28.600  23.026  1.00  0.00     0.001 A 
ATOM     22  C   UNL A   1      28.672  30.725  23.314  1.00  0.00    -0.051 A 
ATOM     23  C   UNL A   1      27.512  29.987  23.064  1.00  0.00     0.003 A 
ATOM     24  C   UNL A   1      28.571  32.218  23.417  1.00  0.00     0.044 C 
ENDBRANCH   7  18
ENDBRANCH   4   7
ENDBRANCH   2   3
ENDBRANCH   1   2
BRANCH   1  25
ATOM     25  C   UNL A   1      31.942  31.220  26.787  1.00  0.00     0.023 C 
BRANCH  25  26
ATOM     26  C   UNL A   1      33.088  32.046  27.335  1.00  0.00     0.116 C 
BRANCH  26  27
ATOM     27  N   UNL A   1      32.723  33.456  27.583  1.00  0.00    -0.352 N 
ATOM     28  C   UNL A   1      33.153  34.296  28.601  1.00  0.00     0.251 C 
ATOM     29  H   UNL A   1      32.092  33.853  26.941  1.00  0.00     0.163 HD
ATOM     30  O   UNL A   1      32.553  35.326  28.893  1.00  0.00    -0.269 OA
BRANCH  28  31
ATOM     31  C   UNL A   1      34.396  33.924  29.289  1.00  0.00     0.039 A 
ATOM     32  C   UNL A   1      34.474  32.941  30.280  1.00  0.00     0.014 A 
ATOM     33  C   UNL A   1      35.532  34.463  28.707  1.00  0.00     0.014 A 
ATOM     34  C   UNL A   1      35.733  32.430  30.594  1.00  0.00     0.010 A 
ATOM     35  C   UNL A   1      36.666  33.722  28.770  1.00  0.00     0.010 A 
ATOM     36  C   UNL A   1      36.823  32.808  29.796  1.00  0.00    -0.014 A 
BRANCH  36  37
ATOM     37  C   UNL A   1      38.144  32.210  29.875  1.00  0.00     0.031 A 
ATOM     38  C   UNL A   1      38.209  30.841  29.311  1.00  0.00     0.074 A 
ATOM     39  C   UNL A   1      39.244  32.951  30.148  1.00  0.00     0.049 A 
ATOM     40  N   UNL A   1      38.101  29.728  29.959  1.00  0.00    -0.248 NA
ATOM     41  C   UNL A   1      38.125  30.677  27.849  1.00  0.00     0.031 C 
ATOM     42  C   UNL A   1      39.360  34.406  30.348  1.00  0.00     0.029 A 
ATOM     43  N   UNL A   1      40.536  32.550  30.220  1.00  0.00    -0.354 N 
ATOM     44  C   UNL A   1      38.278  28.732  29.004  1.00  0.00     0.074 A 
ATOM     45  C   UNL A   1      37.967  29.354  27.748  1.00  0.00     0.031 C 
ATOM     46  C   UNL A   1      40.657  34.779  30.293  1.00  0.00     0.029 A 
ATOM     47  C   UNL A   1      41.471  33.582  30.261  1.00  0.00     0.049 A 
ATOM     48  H   UNL A   1      40.795  31.600  30.243  1.00  0.00     0.167 HD
ATOM     49  C   UNL A   1      38.992  27.608  29.303  1.00  0.00     0.037 A 
ATOM     50  C   UNL A   1      42.822  33.444  30.277  1.00  0.00     0.037 A 
ATOM     51  C   UNL A   1      39.255  27.556  30.729  1.00  0.00     0.049 A 
ATOM     52  C   UNL A   1      43.091  32.051  30.735  1.00  0.00     0.074 A 
ATOM     53  C   UNL A   1      38.470  27.550  31.865  1.00  0.00     0.029 A 
ATOM     54  N   UNL A   1      40.512  27.941  31.140  1.00  0.00    -0.354 N 
ATOM     55  N   UNL A   1      42.778  31.614  31.928  1.00  0.00    -0.248 NA
ATOM     56  C   UNL A   1      43.210  31.023  29.711  1.00  0.00     0.031 C 
ATOM     57  C   UNL A   1      39.163  28.381  32.796  1.00  0.00     0.029 A 
ATOM     58  C   UNL A   1      40.378  28.766  32.226  1.00  0.00     0.049 A 
ATOM     59  H   UNL A   1      41.362  27.670  30.725  1.00  0.00     0.167 HD
ATOM     60  C   UNL A   1      42.252  30.343  31.721  1.00  0.00     0.074 A 
ATOM     61  C   UNL A   1      42.615  30.007  30.344  1.00  0.00     0.031 C 
ATOM     62  C   UNL A   1      41.317  29.817  32.569  1.00  0.00     0.037 A 
BRANCH  49  63
ATOM     63  C   UNL A   1      39.837  26.805  28.328  1.00  0.00     0.058 A 
ATOM     64  C   UNL A   1      39.691  25.399  28.326  1.00  0.00     0.135 A 
ATOM     65  C   UNL A   1      40.956  27.291  27.618  1.00  0.00     0.135 A 
ATOM     66  F   UNL A   1      38.641  24.816  28.928  1.00  0.00    -0.206 F 
ATOM     67  C   UNL A   1      40.653  24.544  27.790  1.00  0.00     0.059 A 
ATOM     68  C   UNL A   1      41.903  26.455  27.035  1.00  0.00     0.059 A 
ATOM     69  F   UNL A   1      41.247  28.589  27.511  1.00  0.00    -0.206 F 
ATOM     70  C   UNL A   1      41.771  25.085  27.169  1.00  0.00     0.060 A 
BRANCH  70  71
ATOM     71  S   UNL A   1      43.072  23.992  26.583  1.00  0.00     0.124 S 
ATOM     72  O   UNL A   1      42.981  22.897  27.542  1.00  0.00    -0.237 OA
ATOM     73  O   UNL A   1      42.625  23.696  25.226  1.00  0.00    -0.237 OA
ATOM     74  O   UNL A   1      44.272  24.818  26.677  1.00  0.00    -0.744 OA
ENDBRANCH  70  71
ENDBRANCH  49  63
BRANCH  50  75
ATOM     75  C   UNL A   1      43.841  34.300  29.611  1.00  0.00     0.058 A 
ATOM     76  C   UNL A   1      44.759  35.069  30.347  1.00  0.00     0.135 A 
ATOM     77  C   UNL A   1      44.111  34.169  28.232  1.00  0.00     0.135 A 
ATOM     78  F   UNL A   1      44.594  35.228  31.669  1.00  0.00    -0.206 F 
ATOM     79  C   UNL A   1      45.896  35.644  29.761  1.00  0.00     0.059 A 
ATOM     80  C   UNL A   1      45.235  34.733  27.625  1.00  0.00     0.059 A 
ATOM     81  F   UNL A   1      43.330  33.410  27.448  1.00  0.00    -0.206 F 
ATOM     82  C   UNL A   1      46.136  35.455  28.400  1.00  0.00     0.060 A 
BRANCH  82  83
ATOM     83  S   UNL A   1      47.675  36.069  27.670  1.00  0.00     0.124 S 
ATOM     84  O   UNL A   1      48.592  34.961  27.921  1.00  0.00    -0.237 OA
ATOM     85  O   UNL A   1      47.296  36.279  26.277  1.00  0.00    -0.237 OA
ATOM     86  O   UNL A   1      47.949  37.287  28.428  1.00  0.00    -0.744 OA
ENDBRANCH  82  83
ENDBRANCH  50  75
BRANCH  62  87
ATOM     87  C   UNL A   1      41.090  30.485  33.904  1.00  0.00     0.058 A 
ATOM     88  C   UNL A   1      41.923  30.342  35.029  1.00  0.00     0.135 A 
ATOM     89  C   UNL A   1      40.101  31.478  33.966  1.00  0.00     0.135 A 
ATOM     90  F   UNL A   1      42.947  29.478  35.023  1.00  0.00    -0.206 F 
ATOM     91  C   UNL A   1      41.770  31.142  36.166  1.00  0.00     0.059 A 
ATOM     92  C   UNL A   1      39.948  32.305  35.074  1.00  0.00     0.059 A 
ATOM     93  F   UNL A   1      39.312  31.703  32.902  1.00  0.00    -0.206 F 
ATOM     94  C   UNL A   1      40.783  32.129  36.174  1.00  0.00     0.060 A 
BRANCH  94  95
ATOM     95  S   UNL A   1      40.650  33.237  37.595  1.00  0.00     0.124 S 
ATOM     96  O   UNL A   1      39.809  32.468  38.506  1.00  0.00    -0.237 OA
ATOM     97  O   UNL A   1      42.042  33.400  38.003  1.00  0.00    -0.237 OA
ATOM     98  O   UNL A   1      40.030  34.436  37.037  1.00  0.00    -0.744 OA
ENDBRANCH  94  95
ENDBRANCH  62  87
ENDBRANCH  36  37
ENDBRANCH  28  31
ENDBRANCH  26  27
ENDBRANCH  25  26
ENDBRANCH   1  25
TORSDOF 18
ENDMDL
