MODEL 1
REMARK VINA RESULT:     -14.1      0.000      0.000
REMARK SMILES COc1ccc(C2=NN(C(=O)CCC(=O)NCCCCNC(=O)c3ccc(-c4c5nc(c(-c6c(F)cc(S(=O)(=O)[O-])cc6F)c6ccc([nH]6)c(-c6c(F)cc(S(=O)(=O)[O-])cc6F)c6nc(c(-c7c(F)cc(S(=O)(=O)[O-])cc7F)c7ccc4[nH]7)C=C6)C=C5)cc3)[C@H](c3ccc(Cl)cc3Cl)C2)cc1
REMARK SMILES IDX 17 1 16 2 14 3 15 4 13 6 12 7 10 8 11 9 9 10 7 11 8 12 99 13
REMARK SMILES IDX 90 14 6 15 3 16 4 17 101 18 5 19 100 20 2 21 1 22 91 23
REMARK SMILES IDX 92 24 97 25 93 26 96 27 98 28 94 29 95 30 18 31 19 32 20 33
REMARK SMILES IDX 21 34 22 35 23 37 24 38 25 39 89 40 26 41 88 42 27 43 28 44
REMARK SMILES IDX 29 45 82 46 30 47 87 48 81 49 83 50 31 51 86 52 80 53 79 54
REMARK SMILES IDX 32 56 66 57 45 58 65 59 46 60 49 61 64 62 84 63 47 64 48 65
REMARK SMILES IDX 63 67 85 68 50 69 33 70 34 71 43 72 35 73 36 74 42 75 44 76
REMARK SMILES IDX 37 77 38 78 39 79 40 80 41 81 67 82 68 83 77 84 69 85 70 86
REMARK SMILES IDX 76 87 78 88 71 89 72 90 73 91 74 92 75 93 51 94 52 95 61 96
REMARK SMILES IDX 53 97 54 98 60 99 62 100 55 101 56 102 57 103 58 104 59 105
REMARK H PARENT 16 5 21 36 83 55 49 66
REMARK Flexibility Score: inf
ROOT
ATOM      1  C   UNL A   1      33.297  21.025  25.114  1.00  0.00     0.116 C 
ENDROOT
BRANCH   1   2
ATOM      2  N   UNL A   1      33.054  21.976  26.367  1.00  0.00    -0.356 N 
ATOM      3  C   UNL A   1      32.042  22.692  26.941  1.00  0.00     0.220 C 
ATOM      4  O   UNL A   1      32.311  23.150  28.061  1.00  0.00    -0.275 OA
ATOM      5  H   UNL A   1      33.886  22.081  26.885  1.00  0.00     0.163 HD
BRANCH   3   6
ATOM      6  C   UNL A   1      30.632  22.944  26.392  1.00  0.00     0.110 C 
BRANCH   6   7
ATOM      7  C   UNL A   1      30.381  23.870  25.214  1.00  0.00     0.112 C 
BRANCH   7   8
ATOM      8  C   UNL A   1      29.830  25.108  25.807  1.00  0.00     0.243 C 
ATOM      9  O   UNL A   1      29.086  25.117  26.778  1.00  0.00    -0.273 OA
BRANCH   8  10
ATOM     10  N   UNL A   1      30.197  26.177  25.036  1.00  0.00    -0.225 N 
ATOM     11  C   UNL A   1      29.619  28.057  22.813  1.00  0.00     0.071 C 
ATOM     12  N   UNL A   1      29.114  26.644  23.488  1.00  0.00    -0.174 NA
ATOM     13  C   UNL A   1      31.339  28.599  23.501  1.00  0.00     0.091 C 
ATOM     14  C   UNL A   1      31.653  27.510  25.089  1.00  0.00     0.149 C 
BRANCH  11  15
ATOM     15  C   UNL A   1      28.715  29.348  22.570  1.00  0.00    -0.002 A 
ATOM     16  C   UNL A   1      28.243  32.146  22.606  1.00  0.00     0.118 A 
ATOM     17  C   UNL A   1      28.627  31.559  21.436  1.00  0.00     0.047 A 
ATOM     18  C   UNL A   1      27.750  31.283  23.559  1.00  0.00     0.047 A 
ATOM     19  C   UNL A   1      28.786  30.157  21.396  1.00  0.00     0.014 A 
ATOM     20  C   UNL A   1      28.006  29.895  23.580  1.00  0.00     0.014 A 
BRANCH  16  21
ATOM     21  O   UNL A   1      28.264  33.504  22.724  1.00  0.00    -0.497 OA
ATOM     22  C   UNL A   1      29.395  34.056  23.417  1.00  0.00     0.278 C 
ENDBRANCH  16  21
ENDBRANCH  11  15
BRANCH  14  23
ATOM     23  C   UNL A   1      32.290  28.389  26.235  1.00  0.00    -0.004 A 
ATOM     24  C   UNL A   1      31.726  29.671  26.477  1.00  0.00     0.009 A 
ATOM     25  C   UNL A   1      33.675  28.291  26.568  1.00  0.00     0.047 A 
ATOM     26  C   UNL A   1      32.489  30.781  26.891  1.00  0.00     0.021 A 
ATOM     27  C   UNL A   1      34.408  29.380  27.088  1.00  0.00     0.041 A 
ATOM     28  Cl  UNL A   1      34.697  26.964  26.141  1.00  0.00    -0.084 Cl
ATOM     29  C   UNL A   1      33.827  30.629  27.203  1.00  0.00     0.042 A 
ATOM     30  Cl  UNL A   1      34.780  31.986  27.655  1.00  0.00    -0.084 Cl
ENDBRANCH  14  23
ENDBRANCH   8  10
ENDBRANCH   7   8
ENDBRANCH   6   7
ENDBRANCH   3   6
ENDBRANCH   1   2
BRANCH   1  31
ATOM     31  C   UNL A   1      34.847  19.480  24.595  1.00  0.00     0.023 C 
BRANCH  31  32
ATOM     32  C   UNL A   1      36.741  19.913  24.859  1.00  0.00     0.023 C 
BRANCH  32  33
ATOM     33  C   UNL A   1      37.321  21.505  25.485  1.00  0.00     0.116 C 
BRANCH  33  34
ATOM     34  N   UNL A   1      38.683  22.099  25.321  1.00  0.00    -0.352 N 
ATOM     35  C   UNL A   1      39.618  22.220  26.412  1.00  0.00     0.251 C 
ATOM     36  H   UNL A   1      38.953  22.420  24.430  1.00  0.00     0.163 HD
ATOM     37  O   UNL A   1      40.517  21.388  26.535  1.00  0.00    -0.269 OA
BRANCH  35  38
ATOM     38  C   UNL A   1      39.760  23.516  27.215  1.00  0.00     0.039 A 
ATOM     39  C   UNL A   1      40.863  23.684  28.077  1.00  0.00     0.014 A 
ATOM     40  C   UNL A   1      38.891  24.608  27.105  1.00  0.00     0.014 A 
ATOM     41  C   UNL A   1      41.289  24.975  28.490  1.00  0.00     0.010 A 
ATOM     42  C   UNL A   1      39.311  25.910  27.530  1.00  0.00     0.010 A 
ATOM     43  C   UNL A   1      40.580  26.129  28.114  1.00  0.00    -0.014 A 
BRANCH  43  44
ATOM     44  C   UNL A   1      41.042  27.476  28.617  1.00  0.00     0.031 A 
ATOM     45  C   UNL A   1      42.510  27.731  28.403  1.00  0.00     0.074 A 
ATOM     46  C   UNL A   1      40.265  28.479  29.112  1.00  0.00     0.049 A 
ATOM     47  N   UNL A   1      43.238  28.777  28.676  1.00  0.00    -0.248 NA
ATOM     48  C   UNL A   1      43.249  26.626  27.770  1.00  0.00     0.031 C 
ATOM     49  C   UNL A   1      38.815  28.439  29.312  1.00  0.00     0.029 A 
ATOM     50  N   UNL A   1      40.589  29.771  29.517  1.00  0.00    -0.354 N 
ATOM     51  C   UNL A   1      44.518  28.449  28.246  1.00  0.00     0.074 A 
ATOM     52  C   UNL A   1      44.477  27.101  27.738  1.00  0.00     0.031 C 
ATOM     53  C   UNL A   1      38.378  29.637  29.759  1.00  0.00     0.029 A 
ATOM     54  C   UNL A   1      39.511  30.548  29.917  1.00  0.00     0.049 A 
ATOM     55  H   UNL A   1      41.515  30.108  29.518  1.00  0.00     0.167 HD
ATOM     56  C   UNL A   1      45.638  29.202  28.248  1.00  0.00     0.037 A 
ATOM     57  C   UNL A   1      39.445  31.834  30.355  1.00  0.00     0.037 A 
ATOM     58  C   UNL A   1      45.691  30.542  28.747  1.00  0.00     0.049 A 
ATOM     59  C   UNL A   1      40.735  32.635  30.435  1.00  0.00     0.074 A 
ATOM     60  C   UNL A   1      46.788  31.371  28.867  1.00  0.00     0.029 A 
ATOM     61  N   UNL A   1      44.591  31.249  29.209  1.00  0.00    -0.354 N 
ATOM     62  N   UNL A   1      41.947  32.283  30.069  1.00  0.00    -0.248 NA
ATOM     63  C   UNL A   1      40.660  33.997  30.993  1.00  0.00     0.031 C 
ATOM     64  C   UNL A   1      46.360  32.568  29.447  1.00  0.00     0.029 A 
ATOM     65  C   UNL A   1      44.986  32.504  29.629  1.00  0.00     0.049 A 
ATOM     66  H   UNL A   1      43.668  30.907  29.234  1.00  0.00     0.167 HD
ATOM     67  C   UNL A   1      42.765  33.380  30.327  1.00  0.00     0.074 A 
ATOM     68  C   UNL A   1      41.912  34.418  30.867  1.00  0.00     0.031 C 
ATOM     69  C   UNL A   1      44.102  33.521  30.142  1.00  0.00     0.037 A 
BRANCH  56  70
ATOM     70  C   UNL A   1      46.887  28.531  27.758  1.00  0.00     0.058 A 
ATOM     71  C   UNL A   1      47.248  28.532  26.399  1.00  0.00     0.135 A 
ATOM     72  C   UNL A   1      47.675  27.788  28.648  1.00  0.00     0.135 A 
ATOM     73  F   UNL A   1      46.493  29.180  25.498  1.00  0.00    -0.206 F 
ATOM     74  C   UNL A   1      48.324  27.782  25.937  1.00  0.00     0.059 A 
ATOM     75  C   UNL A   1      48.777  27.062  28.213  1.00  0.00     0.059 A 
ATOM     76  F   UNL A   1      47.353  27.732  29.951  1.00  0.00    -0.206 F 
ATOM     77  C   UNL A   1      49.081  27.050  26.852  1.00  0.00     0.060 A 
BRANCH  77  78
ATOM     78  S   UNL A   1      50.469  26.076  26.239  1.00  0.00     0.124 S 
ATOM     79  O   UNL A   1      50.124  25.933  24.828  1.00  0.00    -0.237 OA
ATOM     80  O   UNL A   1      51.607  26.944  26.528  1.00  0.00    -0.237 OA
ATOM     81  O   UNL A   1      50.401  24.852  27.031  1.00  0.00    -0.744 OA
ENDBRANCH  77  78
ENDBRANCH  56  70
BRANCH  57  82
ATOM     82  C   UNL A   1      38.149  32.476  30.791  1.00  0.00     0.058 A 
ATOM     83  C   UNL A   1      37.355  33.245  29.917  1.00  0.00     0.135 A 
ATOM     84  C   UNL A   1      37.715  32.405  32.126  1.00  0.00     0.135 A 
ATOM     85  F   UNL A   1      37.725  33.395  28.635  1.00  0.00    -0.206 F 
ATOM     86  C   UNL A   1      36.200  33.912  30.342  1.00  0.00     0.059 A 
ATOM     87  C   UNL A   1      36.551  33.040  32.571  1.00  0.00     0.059 A 
ATOM     88  F   UNL A   1      38.428  31.712  33.026  1.00  0.00    -0.206 F 
ATOM     89  C   UNL A   1      35.801  33.798  31.675  1.00  0.00     0.060 A 
BRANCH  89  90
ATOM     90  S   UNL A   1      34.278  34.616  32.214  1.00  0.00     0.124 S 
ATOM     91  O   UNL A   1      34.787  35.621  33.141  1.00  0.00    -0.237 OA
ATOM     92  O   UNL A   1      33.739  35.123  30.956  1.00  0.00    -0.237 OA
ATOM     93  O   UNL A   1      33.511  33.531  32.821  1.00  0.00    -0.744 OA
ENDBRANCH  89  90
ENDBRANCH  57  82
BRANCH  69  94
ATOM     94  C   UNL A   1      44.730  34.844  30.485  1.00  0.00     0.058 A 
ATOM     95  C   UNL A   1      45.361  35.066  31.718  1.00  0.00     0.135 A 
ATOM     96  C   UNL A   1      44.805  35.859  29.515  1.00  0.00     0.135 A 
ATOM     97  F   UNL A   1      45.323  34.125  32.675  1.00  0.00    -0.206 F 
ATOM     98  C   UNL A   1      46.032  36.254  31.984  1.00  0.00     0.059 A 
ATOM     99  C   UNL A   1      45.496  37.042  29.749  1.00  0.00     0.059 A 
ATOM    100  F   UNL A   1      44.235  35.687  28.312  1.00  0.00    -0.206 F 
ATOM    101  C   UNL A   1      46.099  37.233  30.990  1.00  0.00     0.060 A 
BRANCH 101 102
ATOM    102  S   UNL A   1      47.019  38.748  31.332  1.00  0.00     0.124 S 
ATOM    103  O   UNL A   1      47.788  38.907  30.102  1.00  0.00    -0.237 OA
ATOM    104  O   UNL A   1      45.952  39.721  31.544  1.00  0.00    -0.237 OA
ATOM    105  O   UNL A   1      47.798  38.412  32.520  1.00  0.00    -0.744 OA
ENDBRANCH 101 102
ENDBRANCH  69  94
ENDBRANCH  43  44
ENDBRANCH  35  38
ENDBRANCH  33  34
ENDBRANCH  32  33
ENDBRANCH  31  32
ENDBRANCH   1  31
TORSDOF 20
ENDMDL
MODEL 2
REMARK VINA RESULT:     -14.0      1.763      3.875
REMARK SMILES COc1ccc(C2=NN(C(=O)CCC(=O)NCCCCNC(=O)c3ccc(-c4c5nc(c(-c6c(F)cc(S(=O)(=O)[O-])cc6F)c6ccc([nH]6)c(-c6c(F)cc(S(=O)(=O)[O-])cc6F)c6nc(c(-c7c(F)cc(S(=O)(=O)[O-])cc7F)c7ccc4[nH]7)C=C6)C=C5)cc3)[C@H](c3ccc(Cl)cc3Cl)C2)cc1
REMARK SMILES IDX 17 1 16 2 14 3 15 4 13 6 12 7 10 8 11 9 9 10 7 11 8 12 99 13
REMARK SMILES IDX 90 14 6 15 3 16 4 17 101 18 5 19 100 20 2 21 1 22 91 23
REMARK SMILES IDX 92 24 97 25 93 26 96 27 98 28 94 29 95 30 18 31 19 32 20 33
REMARK SMILES IDX 21 34 22 35 23 37 24 38 25 39 89 40 26 41 88 42 27 43 28 44
REMARK SMILES IDX 29 45 82 46 30 47 87 48 81 49 83 50 31 51 86 52 80 53 79 54
REMARK SMILES IDX 32 56 66 57 45 58 65 59 46 60 49 61 64 62 84 63 47 64 48 65
REMARK SMILES IDX 63 67 85 68 50 69 33 70 34 71 43 72 35 73 36 74 42 75 44 76
REMARK SMILES IDX 37 77 38 78 39 79 40 80 41 81 67 82 68 83 77 84 69 85 70 86
REMARK SMILES IDX 76 87 78 88 71 89 72 90 73 91 74 92 75 93 51 94 52 95 61 96
REMARK SMILES IDX 53 97 54 98 60 99 62 100 55 101 56 102 57 103 58 104 59 105
REMARK H PARENT 16 5 21 36 83 55 49 66
REMARK Flexibility Score: inf
ROOT
ATOM      1  C   UNL A   1      33.488  23.504  22.607  1.00  0.00     0.116 C 
ENDROOT
BRANCH   1   2
ATOM      2  N   UNL A   1      32.711  24.403  21.548  1.00  0.00    -0.356 N 
ATOM      3  C   UNL A   1      32.381  25.714  21.348  1.00  0.00     0.220 C 
ATOM      4  O   UNL A   1      31.901  25.955  20.231  1.00  0.00    -0.275 OA
ATOM      5  H   UNL A   1      32.361  23.845  20.815  1.00  0.00     0.163 HD
BRANCH   3   6
ATOM      6  C   UNL A   1      32.580  26.896  22.305  1.00  0.00     0.110 C 
BRANCH   6   7
ATOM      7  C   UNL A   1      32.048  28.283  21.991  1.00  0.00     0.112 C 
BRANCH   7   8
ATOM      8  C   UNL A   1      30.692  28.319  22.583  1.00  0.00     0.243 C 
ATOM      9  O   UNL A   1      29.713  28.762  21.999  1.00  0.00    -0.273 OA
BRANCH   8  10
ATOM     10  N   UNL A   1      30.758  27.890  23.881  1.00  0.00    -0.225 N 
ATOM     11  C   UNL A   1      30.406  25.737  25.894  1.00  0.00     0.071 C 
ATOM     12  N   UNL A   1      30.065  26.129  24.332  1.00  0.00    -0.174 NA
ATOM     13  C   UNL A   1      31.020  27.271  26.893  1.00  0.00     0.091 C 
ATOM     14  C   UNL A   1      31.451  28.639  25.571  1.00  0.00     0.149 C 
BRANCH  11  15
ATOM     15  C   UNL A   1      31.195  24.439  26.378  1.00  0.00    -0.002 A 
ATOM     16  C   UNL A   1      32.812  22.150  25.928  1.00  0.00     0.118 A 
ATOM     17  C   UNL A   1      33.405  23.302  26.355  1.00  0.00     0.047 A 
ATOM     18  C   UNL A   1      31.449  22.089  26.122  1.00  0.00     0.047 A 
ATOM     19  C   UNL A   1      32.594  24.418  26.655  1.00  0.00     0.014 A 
ATOM     20  C   UNL A   1      30.623  23.218  26.308  1.00  0.00     0.014 A 
BRANCH  16  21
ATOM     21  O   UNL A   1      33.577  21.127  25.456  1.00  0.00    -0.497 OA
ATOM     22  C   UNL A   1      32.864  20.046  24.833  1.00  0.00     0.278 C 
ENDBRANCH  16  21
ENDBRANCH  11  15
BRANCH  14  23
ATOM     23  C   UNL A   1      32.784  29.383  25.973  1.00  0.00    -0.004 A 
ATOM     24  C   UNL A   1      33.919  28.585  26.284  1.00  0.00     0.009 A 
ATOM     25  C   UNL A   1      32.763  30.646  26.636  1.00  0.00     0.047 A 
ATOM     26  C   UNL A   1      34.875  28.953  27.252  1.00  0.00     0.021 A 
ATOM     27  C   UNL A   1      33.784  31.055  27.522  1.00  0.00     0.041 A 
ATOM     28  Cl  UNL A   1      31.402  31.713  26.676  1.00  0.00    -0.084 Cl
ATOM     29  C   UNL A   1      34.808  30.192  27.862  1.00  0.00     0.042 A 
ATOM     30  Cl  UNL A   1      35.935  30.628  29.084  1.00  0.00    -0.084 Cl
ENDBRANCH  14  23
ENDBRANCH   8  10
ENDBRANCH   7   8
ENDBRANCH   6   7
ENDBRANCH   3   6
ENDBRANCH   1   2
BRANCH   1  31
ATOM     31  C   UNL A   1      35.659  23.074  23.007  1.00  0.00     0.023 C 
BRANCH  31  32
ATOM     32  C   UNL A   1      36.395  23.483  24.778  1.00  0.00     0.023 C 
BRANCH  32  33
ATOM     33  C   UNL A   1      37.402  22.324  25.730  1.00  0.00     0.116 C 
BRANCH  33  34
ATOM     34  N   UNL A   1      38.871  22.084  25.598  1.00  0.00    -0.352 N 
ATOM     35  C   UNL A   1      39.776  22.148  26.720  1.00  0.00     0.251 C 
ATOM     36  H   UNL A   1      39.236  21.871  24.708  1.00  0.00     0.163 HD
ATOM     37  O   UNL A   1      40.137  21.106  27.266  1.00  0.00    -0.269 OA
BRANCH  35  38
ATOM     38  C   UNL A   1      40.578  23.413  27.040  1.00  0.00     0.039 A 
ATOM     39  C   UNL A   1      40.348  24.588  26.296  1.00  0.00     0.014 A 
ATOM     40  C   UNL A   1      41.498  23.515  28.088  1.00  0.00     0.014 A 
ATOM     41  C   UNL A   1      40.707  25.866  26.804  1.00  0.00     0.010 A 
ATOM     42  C   UNL A   1      41.872  24.801  28.598  1.00  0.00     0.010 A 
ATOM     43  C   UNL A   1      41.371  25.998  28.036  1.00  0.00    -0.014 A 
BRANCH  43  44
ATOM     44  C   UNL A   1      41.775  27.372  28.514  1.00  0.00     0.031 A 
ATOM     45  C   UNL A   1      43.220  27.703  28.258  1.00  0.00     0.074 A 
ATOM     46  C   UNL A   1      40.959  28.338  29.022  1.00  0.00     0.049 A 
ATOM     47  N   UNL A   1      43.899  28.789  28.501  1.00  0.00    -0.248 NA
ATOM     48  C   UNL A   1      44.000  26.632  27.614  1.00  0.00     0.031 C 
ATOM     49  C   UNL A   1      39.519  28.223  29.262  1.00  0.00     0.029 A 
ATOM     50  N   UNL A   1      41.225  29.649  29.406  1.00  0.00    -0.354 N 
ATOM     51  C   UNL A   1      45.182  28.524  28.039  1.00  0.00     0.074 A 
ATOM     52  C   UNL A   1      45.199  27.172  27.544  1.00  0.00     0.031 C 
ATOM     53  C   UNL A   1      39.032  29.401  29.711  1.00  0.00     0.029 A 
ATOM     54  C   UNL A   1      40.118  30.371  29.829  1.00  0.00     0.049 A 
ATOM     55  H   UNL A   1      42.131  30.034  29.379  1.00  0.00     0.167 HD
ATOM     56  C   UNL A   1      46.260  29.336  28.003  1.00  0.00     0.037 A 
ATOM     57  C   UNL A   1      39.995  31.657  30.258  1.00  0.00     0.037 A 
ATOM     58  C   UNL A   1      46.256  30.682  28.489  1.00  0.00     0.049 A 
ATOM     59  C   UNL A   1      41.243  32.526  30.295  1.00  0.00     0.074 A 
ATOM     60  C   UNL A   1      47.310  31.569  28.571  1.00  0.00     0.029 A 
ATOM     61  N   UNL A   1      45.133  31.334  28.975  1.00  0.00    -0.354 N 
ATOM     62  N   UNL A   1      42.461  32.235  29.899  1.00  0.00    -0.248 NA
ATOM     63  C   UNL A   1      41.110  33.887  30.843  1.00  0.00     0.031 C 
ATOM     64  C   UNL A   1      46.834  32.747  29.153  1.00  0.00     0.029 A 
ATOM     65  C   UNL A   1      45.471  32.613  29.373  1.00  0.00     0.049 A 
ATOM     66  H   UNL A   1      44.230  30.944  29.028  1.00  0.00     0.167 HD
ATOM     67  C   UNL A   1      43.226  33.377  30.125  1.00  0.00     0.074 A 
ATOM     68  C   UNL A   1      42.334  34.373  30.679  1.00  0.00     0.031 C 
ATOM     69  C   UNL A   1      44.549  33.586  29.902  1.00  0.00     0.037 A 
BRANCH  56  70
ATOM     70  C   UNL A   1      47.530  28.727  27.484  1.00  0.00     0.058 A 
ATOM     71  C   UNL A   1      47.760  28.544  26.110  1.00  0.00     0.135 A 
ATOM     72  C   UNL A   1      48.481  28.225  28.384  1.00  0.00     0.135 A 
ATOM     73  F   UNL A   1      46.851  28.956  25.210  1.00  0.00    -0.206 F 
ATOM     74  C   UNL A   1      48.870  27.846  25.649  1.00  0.00     0.059 A 
ATOM     75  C   UNL A   1      49.616  27.556  27.944  1.00  0.00     0.059 A 
ATOM     76  F   UNL A   1      48.291  28.349  29.708  1.00  0.00    -0.206 F 
ATOM     77  C   UNL A   1      49.791  27.354  26.575  1.00  0.00     0.060 A 
BRANCH  77  78
ATOM     78  S   UNL A   1      51.223  26.443  25.966  1.00  0.00     0.124 S 
ATOM     79  O   UNL A   1      50.968  25.108  26.499  1.00  0.00    -0.237 OA
ATOM     80  O   UNL A   1      51.086  26.584  24.519  1.00  0.00    -0.237 OA
ATOM     81  O   UNL A   1      52.353  27.151  26.558  1.00  0.00    -0.744 OA
ENDBRANCH  77  78
ENDBRANCH  56  70
BRANCH  57  82
ATOM     82  C   UNL A   1      38.680  32.233  30.724  1.00  0.00     0.058 A 
ATOM     83  C   UNL A   1      37.975  33.203  29.984  1.00  0.00     0.135 A 
ATOM     84  C   UNL A   1      38.134  31.886  31.973  1.00  0.00     0.135 A 
ATOM     85  F   UNL A   1      38.453  33.619  28.800  1.00  0.00    -0.206 F 
ATOM     86  C   UNL A   1      36.801  33.802  30.457  1.00  0.00     0.059 A 
ATOM     87  C   UNL A   1      36.949  32.449  32.456  1.00  0.00     0.059 A 
ATOM     88  F   UNL A   1      38.758  30.987  32.749  1.00  0.00    -0.206 F 
ATOM     89  C   UNL A   1      36.290  33.412  31.695  1.00  0.00     0.060 A 
BRANCH  89  90
ATOM     90  S   UNL A   1      34.742  34.146  32.284  1.00  0.00     0.124 S 
ATOM     91  O   UNL A   1      34.483  33.374  33.494  1.00  0.00    -0.237 OA
ATOM     92  O   UNL A   1      35.121  35.541  32.485  1.00  0.00    -0.237 OA
ATOM     93  O   UNL A   1      33.818  33.911  31.177  1.00  0.00    -0.744 OA
ENDBRANCH  89  90
ENDBRANCH  57  82
BRANCH  69  94
ATOM     94  C   UNL A   1      45.114  34.945  30.215  1.00  0.00     0.058 A 
ATOM     95  C   UNL A   1      45.125  35.977  29.266  1.00  0.00     0.135 A 
ATOM     96  C   UNL A   1      45.537  35.246  31.522  1.00  0.00     0.135 A 
ATOM     97  F   UNL A   1      44.726  35.741  28.006  1.00  0.00    -0.206 F 
ATOM     98  C   UNL A   1      45.551  37.259  29.597  1.00  0.00     0.059 A 
ATOM     99  C   UNL A   1      45.937  36.527  31.882  1.00  0.00     0.059 A 
ATOM    100  F   UNL A   1      45.525  34.298  32.472  1.00  0.00    -0.206 F 
ATOM    101  C   UNL A   1      45.948  37.525  30.910  1.00  0.00     0.060 A 
BRANCH 101 102
ATOM    102  S   UNL A   1      46.446  39.207  31.336  1.00  0.00     0.124 S 
ATOM    103  O   UNL A   1      46.171  39.239  32.769  1.00  0.00    -0.237 OA
ATOM    104  O   UNL A   1      47.856  39.220  30.960  1.00  0.00    -0.237 OA
ATOM    105  O   UNL A   1      45.575  40.039  30.511  1.00  0.00    -0.744 OA
ENDBRANCH 101 102
ENDBRANCH  69  94
ENDBRANCH  43  44
ENDBRANCH  35  38
ENDBRANCH  33  34
ENDBRANCH  32  33
ENDBRANCH  31  32
ENDBRANCH   1  31
TORSDOF 20
ENDMDL
MODEL 3
REMARK VINA RESULT:     -12.9      1.559      3.978
REMARK SMILES COc1ccc(C2=NN(C(=O)CCC(=O)NCCCCNC(=O)c3ccc(-c4c5nc(c(-c6c(F)cc(S(=O)(=O)[O-])cc6F)c6ccc([nH]6)c(-c6c(F)cc(S(=O)(=O)[O-])cc6F)c6nc(c(-c7c(F)cc(S(=O)(=O)[O-])cc7F)c7ccc4[nH]7)C=C6)C=C5)cc3)[C@H](c3ccc(Cl)cc3Cl)C2)cc1
REMARK SMILES IDX 17 1 16 2 14 3 15 4 13 6 12 7 10 8 11 9 9 10 7 11 8 12 99 13
REMARK SMILES IDX 90 14 6 15 3 16 4 17 101 18 5 19 100 20 2 21 1 22 91 23
REMARK SMILES IDX 92 24 97 25 93 26 96 27 98 28 94 29 95 30 18 31 19 32 20 33
REMARK SMILES IDX 21 34 22 35 23 37 24 38 25 39 89 40 26 41 88 42 27 43 28 44
REMARK SMILES IDX 29 45 82 46 30 47 87 48 81 49 83 50 31 51 86 52 80 53 79 54
REMARK SMILES IDX 32 56 66 57 45 58 65 59 46 60 49 61 64 62 84 63 47 64 48 65
REMARK SMILES IDX 63 67 85 68 50 69 33 70 34 71 43 72 35 73 36 74 42 75 44 76
REMARK SMILES IDX 37 77 38 78 39 79 40 80 41 81 67 82 68 83 77 84 69 85 70 86
REMARK SMILES IDX 76 87 78 88 71 89 72 90 73 91 74 92 75 93 51 94 52 95 61 96
REMARK SMILES IDX 53 97 54 98 60 99 62 100 55 101 56 102 57 103 58 104 59 105
REMARK H PARENT 16 5 21 36 83 55 49 66
REMARK Flexibility Score: inf
ROOT
ATOM      1  C   UNL A   1      34.569  24.746  23.439  1.00  0.00     0.116 C 
ENDROOT
BRANCH   1   2
ATOM      2  N   UNL A   1      34.626  26.099  22.602  1.00  0.00    -0.356 N 
ATOM      3  C   UNL A   1      33.825  27.163  22.299  1.00  0.00     0.220 C 
ATOM      4  O   UNL A   1      34.408  28.098  21.731  1.00  0.00    -0.275 OA
ATOM      5  H   UNL A   1      35.506  26.199  22.171  1.00  0.00     0.163 HD
BRANCH   3   6
ATOM      6  C   UNL A   1      32.336  27.347  22.621  1.00  0.00     0.110 C 
BRANCH   6   7
ATOM      7  C   UNL A   1      31.634  28.683  22.445  1.00  0.00     0.112 C 
BRANCH   7   8
ATOM      8  C   UNL A   1      30.294  28.495  23.041  1.00  0.00     0.243 C 
ATOM      9  O   UNL A   1      29.320  29.170  22.737  1.00  0.00    -0.273 OA
BRANCH   8  10
ATOM     10  N   UNL A   1      30.370  27.552  24.030  1.00  0.00    -0.225 N 
ATOM     11  C   UNL A   1      30.403  24.703  24.862  1.00  0.00     0.071 C 
ATOM     12  N   UNL A   1      30.086  25.681  23.577  1.00  0.00    -0.174 NA
ATOM     13  C   UNL A   1      30.563  25.712  26.500  1.00  0.00     0.091 C 
ATOM     14  C   UNL A   1      30.746  27.579  25.968  1.00  0.00     0.149 C 
BRANCH  11  15
ATOM     15  C   UNL A   1      31.443  23.495  24.879  1.00  0.00    -0.002 A 
ATOM     16  C   UNL A   1      32.117  20.739  24.800  1.00  0.00     0.118 A 
ATOM     17  C   UNL A   1      32.196  21.470  23.650  1.00  0.00     0.047 A 
ATOM     18  C   UNL A   1      32.092  21.480  25.961  1.00  0.00     0.047 A 
ATOM     19  C   UNL A   1      31.937  22.856  23.702  1.00  0.00     0.014 A 
ATOM     20  C   UNL A   1      31.722  22.840  26.026  1.00  0.00     0.014 A 
BRANCH  16  21
ATOM     21  O   UNL A   1      32.177  19.379  24.746  1.00  0.00    -0.497 OA
ATOM     22  C   UNL A   1      33.486  18.803  24.874  1.00  0.00     0.278 C 
ENDBRANCH  16  21
ENDBRANCH  11  15
BRANCH  14  23
ATOM     23  C   UNL A   1      31.833  28.296  26.862  1.00  0.00    -0.004 A 
ATOM     24  C   UNL A   1      31.620  29.661  27.195  1.00  0.00     0.009 A 
ATOM     25  C   UNL A   1      33.208  27.917  26.812  1.00  0.00     0.047 A 
ATOM     26  C   UNL A   1      32.670  30.589  27.341  1.00  0.00     0.021 A 
ATOM     27  C   UNL A   1      34.255  28.829  27.069  1.00  0.00     0.041 A 
ATOM     28  Cl  UNL A   1      33.793  26.418  26.178  1.00  0.00    -0.084 Cl
ATOM     29  C   UNL A   1      33.986  30.167  27.286  1.00  0.00     0.042 A 
ATOM     30  Cl  UNL A   1      35.274  31.299  27.406  1.00  0.00    -0.084 Cl
ENDBRANCH  14  23
ENDBRANCH   8  10
ENDBRANCH   7   8
ENDBRANCH   6   7
ENDBRANCH   3   6
ENDBRANCH   1   2
BRANCH   1  31
ATOM     31  C   UNL A   1      35.168  24.167  25.527  1.00  0.00     0.023 C 
BRANCH  31  32
ATOM     32  C   UNL A   1      35.787  22.337  25.861  1.00  0.00     0.023 C 
BRANCH  32  33
ATOM     33  C   UNL A   1      37.170  21.576  24.984  1.00  0.00     0.116 C 
BRANCH  33  34
ATOM     34  N   UNL A   1      38.608  21.982  25.038  1.00  0.00    -0.352 N 
ATOM     35  C   UNL A   1      39.363  22.016  26.267  1.00  0.00     0.251 C 
ATOM     36  H   UNL A   1      39.059  22.235  24.200  1.00  0.00     0.163 HD
ATOM     37  O   UNL A   1      40.110  21.078  26.545  1.00  0.00    -0.269 OA
BRANCH  35  38
ATOM     38  C   UNL A   1      39.546  23.308  27.067  1.00  0.00     0.039 A 
ATOM     39  C   UNL A   1      40.619  23.417  27.976  1.00  0.00     0.014 A 
ATOM     40  C   UNL A   1      38.750  24.448  26.912  1.00  0.00     0.014 A 
ATOM     41  C   UNL A   1      41.102  24.684  28.400  1.00  0.00     0.010 A 
ATOM     42  C   UNL A   1      39.228  25.727  27.347  1.00  0.00     0.010 A 
ATOM     43  C   UNL A   1      40.480  25.875  27.986  1.00  0.00    -0.014 A 
BRANCH  43  44
ATOM     44  C   UNL A   1      41.000  27.197  28.500  1.00  0.00     0.031 A 
ATOM     45  C   UNL A   1      42.475  27.397  28.277  1.00  0.00     0.074 A 
ATOM     46  C   UNL A   1      40.267  28.224  29.014  1.00  0.00     0.049 A 
ATOM     47  N   UNL A   1      43.246  28.410  28.555  1.00  0.00    -0.248 NA
ATOM     48  C   UNL A   1      43.165  26.271  27.625  1.00  0.00     0.031 C 
ATOM     49  C   UNL A   1      38.819  28.239  29.226  1.00  0.00     0.029 A 
ATOM     50  N   UNL A   1      40.646  29.496  29.431  1.00  0.00    -0.354 N 
ATOM     51  C   UNL A   1      44.508  28.036  28.111  1.00  0.00     0.074 A 
ATOM     52  C   UNL A   1      44.410  26.697  27.588  1.00  0.00     0.031 C 
ATOM     53  C   UNL A   1      38.434  29.448  29.690  1.00  0.00     0.029 A 
ATOM     54  C   UNL A   1      39.602  30.311  29.849  1.00  0.00     0.049 A 
ATOM     55  H   UNL A   1      41.584  29.797  29.428  1.00  0.00     0.167 HD
ATOM     56  C   UNL A   1      45.658  28.744  28.112  1.00  0.00     0.037 A 
ATOM     57  C   UNL A   1      39.591  31.593  30.303  1.00  0.00     0.037 A 
ATOM     58  C   UNL A   1      45.768  30.075  28.626  1.00  0.00     0.049 A 
ATOM     59  C   UNL A   1      40.913  32.342  30.381  1.00  0.00     0.074 A 
ATOM     60  C   UNL A   1      46.898  30.858  28.747  1.00  0.00     0.029 A 
ATOM     61  N   UNL A   1      44.701  30.819  29.106  1.00  0.00    -0.354 N 
ATOM     62  N   UNL A   1      42.106  31.946  30.001  1.00  0.00    -0.248 NA
ATOM     63  C   UNL A   1      40.896  33.699  30.956  1.00  0.00     0.031 C 
ATOM     64  C   UNL A   1      46.522  32.064  29.345  1.00  0.00     0.029 A 
ATOM     65  C   UNL A   1      45.148  32.053  29.537  1.00  0.00     0.049 A 
ATOM     66  H   UNL A   1      43.765  30.514  29.135  1.00  0.00     0.167 HD
ATOM     67  C   UNL A   1      42.970  33.007  30.265  1.00  0.00     0.074 A 
ATOM     68  C   UNL A   1      42.163  34.072  30.824  1.00  0.00     0.031 C 
ATOM     69  C   UNL A   1      44.310  33.097  30.070  1.00  0.00     0.037 A 
BRANCH  56  70
ATOM     70  C   UNL A   1      46.875  28.030  27.604  1.00  0.00     0.058 A 
ATOM     71  C   UNL A   1      47.677  27.236  28.442  1.00  0.00     0.135 A 
ATOM     72  C   UNL A   1      47.301  28.232  26.283  1.00  0.00     0.135 A 
ATOM     73  F   UNL A   1      47.343  27.061  29.731  1.00  0.00    -0.206 F 
ATOM     74  C   UNL A   1      48.881  26.702  27.997  1.00  0.00     0.059 A 
ATOM     75  C   UNL A   1      48.482  27.677  25.807  1.00  0.00     0.059 A 
ATOM     76  F   UNL A   1      46.585  29.007  25.452  1.00  0.00    -0.206 F 
ATOM     77  C   UNL A   1      49.275  26.930  26.678  1.00  0.00     0.060 A 
BRANCH  77  78
ATOM     78  S   UNL A   1      50.843  26.239  26.115  1.00  0.00     0.124 S 
ATOM     79  O   UNL A   1      50.868  24.962  26.820  1.00  0.00    -0.237 OA
ATOM     80  O   UNL A   1      50.645  26.162  24.671  1.00  0.00    -0.237 OA
ATOM     81  O   UNL A   1      51.826  27.222  26.559  1.00  0.00    -0.744 OA
ENDBRANCH  77  78
ENDBRANCH  56  70
BRANCH  57  82
ATOM     82  C   UNL A   1      38.325  32.281  30.757  1.00  0.00     0.058 A 
ATOM     83  C   UNL A   1      37.911  32.289  32.104  1.00  0.00     0.135 A 
ATOM     84  C   UNL A   1      37.450  32.878  29.833  1.00  0.00     0.135 A 
ATOM     85  F   UNL A   1      38.672  31.702  33.042  1.00  0.00    -0.206 F 
ATOM     86  C   UNL A   1      36.694  32.850  32.512  1.00  0.00     0.059 A 
ATOM     87  C   UNL A   1      36.242  33.469  30.218  1.00  0.00     0.059 A 
ATOM     88  F   UNL A   1      37.761  32.890  28.529  1.00  0.00    -0.206 F 
ATOM     89  C   UNL A   1      35.867  33.445  31.559  1.00  0.00     0.060 A 
BRANCH  89  90
ATOM     90  S   UNL A   1      34.319  34.219  32.093  1.00  0.00     0.124 S 
ATOM     91  O   UNL A   1      33.689  34.544  30.819  1.00  0.00    -0.237 OA
ATOM     92  O   UNL A   1      33.690  33.150  32.862  1.00  0.00    -0.237 OA
ATOM     93  O   UNL A   1      34.770  35.363  32.882  1.00  0.00    -0.744 OA
ENDBRANCH  89  90
ENDBRANCH  57  82
BRANCH  69  94
ATOM     94  C   UNL A   1      44.993  34.390  30.423  1.00  0.00     0.058 A 
ATOM     95  C   UNL A   1      45.605  34.587  31.670  1.00  0.00     0.135 A 
ATOM     96  C   UNL A   1      45.138  35.396  29.452  1.00  0.00     0.135 A 
ATOM     97  F   UNL A   1      45.500  33.653  32.629  1.00  0.00    -0.206 F 
ATOM     98  C   UNL A   1      46.326  35.743  31.948  1.00  0.00     0.059 A 
ATOM     99  C   UNL A   1      45.879  36.546  29.698  1.00  0.00     0.059 A 
ATOM    100  F   UNL A   1      44.589  35.247  28.236  1.00  0.00    -0.206 F 
ATOM    101  C   UNL A   1      46.463  36.713  30.952  1.00  0.00     0.060 A 
BRANCH 101 102
ATOM    102  S   UNL A   1      47.446  38.183  31.310  1.00  0.00     0.124 S 
ATOM    103  O   UNL A   1      47.416  38.876  30.026  1.00  0.00    -0.237 OA
ATOM    104  O   UNL A   1      46.689  38.812  32.388  1.00  0.00    -0.237 OA
ATOM    105  O   UNL A   1      48.744  37.638  31.699  1.00  0.00    -0.744 OA
ENDBRANCH 101 102
ENDBRANCH  69  94
ENDBRANCH  43  44
ENDBRANCH  35  38
ENDBRANCH  33  34
ENDBRANCH  32  33
ENDBRANCH  31  32
ENDBRANCH   1  31
TORSDOF 20
ENDMDL
