MODEL 1
REMARK VINA RESULT:     -11.8      0.000      0.000
REMARK SMILES COc1ccc(CSc2ncccc2C(=O)NCCCCNC(=O)c2ccc(-c3c4nc(c(-c5c(F)cc(S(=O)(=O)[O-])cc5F)c5ccc([nH]5)c(-c5c(F)cc(S(=O)(=O)[O-])cc5F)c5nc(c(-c6c(F)cc(S(=O)(=O)[O-])cc6F)c6ccc3[nH]6)C=C5)C=C4)cc2)cc1
REMARK SMILES IDX 19 1 18 2 17 3 15 4 16 5 14 7 9 8 10 9 11 10 13 11 12 12
REMARK SMILES IDX 8 13 7 14 6 15 3 16 4 17 92 18 5 19 91 20 2 21 1 22 20 23
REMARK SMILES IDX 21 24 22 25 23 26 24 28 25 29 26 30 90 31 27 32 89 33 28 34
REMARK SMILES IDX 29 35 30 36 83 37 31 38 88 39 82 40 84 41 32 42 87 43 81 44
REMARK SMILES IDX 80 45 33 47 67 48 46 49 66 50 47 51 50 52 65 53 85 54 48 55
REMARK SMILES IDX 49 56 64 58 86 59 51 60 34 61 35 62 44 63 36 64 37 65 43 66
REMARK SMILES IDX 45 67 38 68 39 69 40 70 41 71 42 72 68 73 69 74 78 75 70 76
REMARK SMILES IDX 71 77 77 78 79 79 72 80 73 81 74 82 75 83 76 84 52 85 53 86
REMARK SMILES IDX 62 87 54 88 55 89 61 90 63 91 56 92 57 93 58 94 59 95 60 96
REMARK H PARENT 17 6 22 27 84 46 50 57
REMARK Flexibility Score: inf
ROOT
ATOM      1  C   UNL A   1      38.083  23.608  26.146  1.00  0.00     0.023 C 
ENDROOT
BRANCH   1   2
ATOM      2  C   UNL A   1      36.918  22.912  25.435  1.00  0.00     0.116 C 
BRANCH   2   3
ATOM      3  N   UNL A   1      35.877  22.583  26.391  1.00  0.00    -0.352 N 
ATOM      4  C   UNL A   1      34.610  23.049  26.644  1.00  0.00     0.254 C 
ATOM      5  O   UNL A   1      34.086  22.575  27.651  1.00  0.00    -0.269 OA
ATOM      6  H   UNL A   1      36.141  21.856  27.001  1.00  0.00     0.163 HD
BRANCH   4   7
ATOM      7  C   UNL A   1      33.866  24.009  25.768  1.00  0.00     0.072 A 
ATOM      8  C   UNL A   1      32.721  23.623  25.047  1.00  0.00     0.109 A 
ATOM      9  N   UNL A   1      32.079  24.463  24.183  1.00  0.00    -0.249 NA
ATOM     10  C   UNL A   1      32.542  25.716  24.034  1.00  0.00     0.112 A 
ATOM     11  C   UNL A   1      34.250  25.354  25.644  1.00  0.00     0.018 A 
ATOM     12  C   UNL A   1      33.603  26.211  24.755  1.00  0.00     0.021 A 
BRANCH   8  13
ATOM     13  S   UNL A   1      31.830  22.083  25.209  1.00  0.00    -0.101 SA
BRANCH  13  14
ATOM     14  C   UNL A   1      32.273  21.288  23.638  1.00  0.00     0.112 C 
BRANCH  14  15
ATOM     15  C   UNL A   1      32.866  19.907  23.791  1.00  0.00    -0.037 A 
ATOM     16  C   UNL A   1      33.962  17.331  24.121  1.00  0.00     0.118 A 
ATOM     17  C   UNL A   1      32.949  17.554  23.190  1.00  0.00     0.047 A 
ATOM     18  C   UNL A   1      34.432  18.397  24.887  1.00  0.00     0.047 A 
ATOM     19  C   UNL A   1      32.392  18.824  23.037  1.00  0.00     0.008 A 
ATOM     20  C   UNL A   1      33.886  19.676  24.723  1.00  0.00     0.008 A 
BRANCH  16  21
ATOM     21  O   UNL A   1      34.427  16.045  24.171  1.00  0.00    -0.497 OA
ATOM     22  C   UNL A   1      35.327  15.749  25.231  1.00  0.00     0.278 C 
ENDBRANCH  16  21
ENDBRANCH  14  15
ENDBRANCH  13  14
ENDBRANCH   8  13
ENDBRANCH   4   7
ENDBRANCH   2   3
ENDBRANCH   1   2
BRANCH   1  23
ATOM     23  C   UNL A   1      39.184  22.653  26.630  1.00  0.00     0.023 C 
BRANCH  23  24
ATOM     24  C   UNL A   1      40.471  23.329  27.096  1.00  0.00     0.116 C 
BRANCH  24  25
ATOM     25  N   UNL A   1      41.145  24.062  26.036  1.00  0.00    -0.352 N 
ATOM     26  C   UNL A   1      41.578  25.368  26.034  1.00  0.00     0.251 C 
ATOM     27  H   UNL A   1      41.312  23.557  25.207  1.00  0.00     0.163 HD
ATOM     28  O   UNL A   1      42.028  25.863  25.012  1.00  0.00    -0.269 OA
BRANCH  26  29
ATOM     29  C   UNL A   1      41.454  26.172  27.269  1.00  0.00     0.039 A 
ATOM     30  C   UNL A   1      42.468  27.081  27.581  1.00  0.00     0.014 A 
ATOM     31  C   UNL A   1      40.336  26.047  28.098  1.00  0.00     0.014 A 
ATOM     32  C   UNL A   1      42.329  27.914  28.693  1.00  0.00     0.010 A 
ATOM     33  C   UNL A   1      40.173  26.918  29.172  1.00  0.00     0.010 A 
ATOM     34  C   UNL A   1      41.165  27.862  29.476  1.00  0.00    -0.014 A 
BRANCH  34  35
ATOM     35  C   UNL A   1      40.960  28.797  30.611  1.00  0.00     0.031 A 
ATOM     36  C   UNL A   1      41.784  28.660  31.861  1.00  0.00     0.074 A 
ATOM     37  C   UNL A   1      39.981  29.721  30.541  1.00  0.00     0.049 A 
ATOM     38  N   UNL A   1      41.698  29.325  32.983  1.00  0.00    -0.248 NA
ATOM     39  C   UNL A   1      42.824  27.618  31.858  1.00  0.00     0.031 C 
ATOM     40  C   UNL A   1      39.081  29.916  29.402  1.00  0.00     0.029 A 
ATOM     41  N   UNL A   1      39.568  30.660  31.451  1.00  0.00    -0.354 N 
ATOM     42  C   UNL A   1      42.657  28.775  33.825  1.00  0.00     0.074 A 
ATOM     43  C   UNL A   1      43.283  27.690  33.100  1.00  0.00     0.031 C 
ATOM     44  C   UNL A   1      38.234  30.922  29.676  1.00  0.00     0.029 A 
ATOM     45  C   UNL A   1      38.508  31.422  31.019  1.00  0.00     0.049 A 
ATOM     46  H   UNL A   1      39.992  30.778  32.332  1.00  0.00     0.167 HD
ATOM     47  C   UNL A   1      42.999  29.154  35.079  1.00  0.00     0.037 A 
ATOM     48  C   UNL A   1      37.831  32.408  31.637  1.00  0.00     0.037 A 
ATOM     49  C   UNL A   1      42.393  30.254  35.783  1.00  0.00     0.049 A 
ATOM     50  C   UNL A   1      38.242  32.823  33.023  1.00  0.00     0.074 A 
ATOM     51  C   UNL A   1      42.710  30.755  37.034  1.00  0.00     0.029 A 
ATOM     52  N   UNL A   1      41.349  31.027  35.296  1.00  0.00    -0.354 N 
ATOM     53  N   UNL A   1      39.192  32.332  33.782  1.00  0.00    -0.248 NA
ATOM     54  C   UNL A   1      37.496  33.932  33.635  1.00  0.00     0.031 C 
ATOM     55  C   UNL A   1      41.835  31.810  37.317  1.00  0.00     0.029 A 
ATOM     56  C   UNL A   1      41.000  31.992  36.226  1.00  0.00     0.049 A 
ATOM     57  H   UNL A   1      40.918  30.906  34.420  1.00  0.00     0.167 HD
ATOM     58  C   UNL A   1      39.178  33.087  34.949  1.00  0.00     0.074 A 
ATOM     59  C   UNL A   1      38.129  34.075  34.793  1.00  0.00     0.031 C 
ATOM     60  C   UNL A   1      39.961  32.975  36.048  1.00  0.00     0.037 A 
BRANCH  47  61
ATOM     61  C   UNL A   1      44.086  28.376  35.768  1.00  0.00     0.058 A 
ATOM     62  C   UNL A   1      45.441  28.707  35.605  1.00  0.00     0.135 A 
ATOM     63  C   UNL A   1      43.771  27.309  36.624  1.00  0.00     0.135 A 
ATOM     64  F   UNL A   1      45.799  29.709  34.786  1.00  0.00    -0.206 F 
ATOM     65  C   UNL A   1      46.447  27.987  36.242  1.00  0.00     0.059 A 
ATOM     66  C   UNL A   1      44.759  26.591  37.290  1.00  0.00     0.059 A 
ATOM     67  F   UNL A   1      42.492  26.951  36.814  1.00  0.00    -0.206 F 
ATOM     68  C   UNL A   1      46.096  26.928  37.081  1.00  0.00     0.060 A 
BRANCH  68  69
ATOM     69  S   UNL A   1      47.413  26.003  37.898  1.00  0.00     0.124 S 
ATOM     70  O   UNL A   1      46.645  25.092  38.743  1.00  0.00    -0.237 OA
ATOM     71  O   UNL A   1      48.109  25.388  36.774  1.00  0.00    -0.237 OA
ATOM     72  O   UNL A   1      48.162  27.034  38.609  1.00  0.00    -0.744 OA
ENDBRANCH  68  69
ENDBRANCH  47  61
BRANCH  48  73
ATOM     73  C   UNL A   1      36.710  33.090  30.938  1.00  0.00     0.058 A 
ATOM     74  C   UNL A   1      35.379  32.856  31.315  1.00  0.00     0.135 A 
ATOM     75  C   UNL A   1      36.945  33.998  29.894  1.00  0.00     0.135 A 
ATOM     76  F   UNL A   1      35.105  31.993  32.304  1.00  0.00    -0.206 F 
ATOM     77  C   UNL A   1      34.319  33.484  30.671  1.00  0.00     0.059 A 
ATOM     78  C   UNL A   1      35.902  34.656  29.250  1.00  0.00     0.059 A 
ATOM     79  F   UNL A   1      38.202  34.270  29.510  1.00  0.00    -0.206 F 
ATOM     80  C   UNL A   1      34.590  34.384  29.639  1.00  0.00     0.060 A 
BRANCH  80  81
ATOM     81  S   UNL A   1      33.209  35.233  28.842  1.00  0.00     0.124 S 
ATOM     82  O   UNL A   1      32.445  35.696  29.995  1.00  0.00    -0.237 OA
ATOM     83  O   UNL A   1      33.888  36.267  28.068  1.00  0.00    -0.237 OA
ATOM     84  O   UNL A   1      32.583  34.179  28.050  1.00  0.00    -0.744 OA
ENDBRANCH  80  81
ENDBRANCH  48  73
BRANCH  60  85
ATOM     85  C   UNL A   1      39.744  33.966  37.157  1.00  0.00     0.058 A 
ATOM     86  C   UNL A   1      38.827  33.724  38.191  1.00  0.00     0.135 A 
ATOM     87  C   UNL A   1      40.504  35.145  37.213  1.00  0.00     0.135 A 
ATOM     88  F   UNL A   1      38.073  32.614  38.180  1.00  0.00    -0.206 F 
ATOM     89  C   UNL A   1      38.659  34.627  39.236  1.00  0.00     0.059 A 
ATOM     90  C   UNL A   1      40.369  36.050  38.261  1.00  0.00     0.059 A 
ATOM     91  F   UNL A   1      41.400  35.418  36.251  1.00  0.00    -0.206 F 
ATOM     92  C   UNL A   1      39.436  35.787  39.263  1.00  0.00     0.060 A 
BRANCH  92  93
ATOM     93  S   UNL A   1      39.239  36.931  40.645  1.00  0.00     0.124 S 
ATOM     94  O   UNL A   1      38.368  37.947  40.063  1.00  0.00    -0.237 OA
ATOM     95  O   UNL A   1      38.631  36.086  41.668  1.00  0.00    -0.237 OA
ATOM     96  O   UNL A   1      40.605  37.360  40.927  1.00  0.00    -0.744 OA
ENDBRANCH  92  93
ENDBRANCH  60  85
ENDBRANCH  34  35
ENDBRANCH  26  29
ENDBRANCH  24  25
ENDBRANCH  23  24
ENDBRANCH   1  23
TORSDOF 18
ENDMDL
MODEL 2
REMARK VINA RESULT:     -11.7      3.020      4.768
REMARK SMILES COc1ccc(CSc2ncccc2C(=O)NCCCCNC(=O)c2ccc(-c3c4nc(c(-c5c(F)cc(S(=O)(=O)[O-])cc5F)c5ccc([nH]5)c(-c5c(F)cc(S(=O)(=O)[O-])cc5F)c5nc(c(-c6c(F)cc(S(=O)(=O)[O-])cc6F)c6ccc3[nH]6)C=C5)C=C4)cc2)cc1
REMARK SMILES IDX 19 1 18 2 17 3 15 4 16 5 14 7 9 8 10 9 11 10 13 11 12 12
REMARK SMILES IDX 8 13 7 14 6 15 3 16 4 17 92 18 5 19 91 20 2 21 1 22 20 23
REMARK SMILES IDX 21 24 22 25 23 26 24 28 25 29 26 30 90 31 27 32 89 33 28 34
REMARK SMILES IDX 29 35 30 36 83 37 31 38 88 39 82 40 84 41 32 42 87 43 81 44
REMARK SMILES IDX 80 45 33 47 67 48 46 49 66 50 47 51 50 52 65 53 85 54 48 55
REMARK SMILES IDX 49 56 64 58 86 59 51 60 34 61 35 62 44 63 36 64 37 65 43 66
REMARK SMILES IDX 45 67 38 68 39 69 40 70 41 71 42 72 68 73 69 74 78 75 70 76
REMARK SMILES IDX 71 77 77 78 79 79 72 80 73 81 74 82 75 83 76 84 52 85 53 86
REMARK SMILES IDX 62 87 54 88 55 89 61 90 63 91 56 92 57 93 58 94 59 95 60 96
REMARK H PARENT 17 6 22 27 84 46 50 57
REMARK Flexibility Score: inf
ROOT
ATOM      1  C   UNL A   1      35.559  21.921  26.326  1.00  0.00     0.023 C 
ENDROOT
BRANCH   1   2
ATOM      2  C   UNL A   1      34.294  21.595  27.128  1.00  0.00     0.116 C 
BRANCH   2   3
ATOM      3  N   UNL A   1      33.482  20.633  26.407  1.00  0.00    -0.352 N 
ATOM      4  C   UNL A   1      32.697  20.676  25.280  1.00  0.00     0.254 C 
ATOM      5  O   UNL A   1      32.060  19.646  25.066  1.00  0.00    -0.269 OA
ATOM      6  H   UNL A   1      33.497  19.741  26.823  1.00  0.00     0.163 HD
BRANCH   4   7
ATOM      7  C   UNL A   1      32.634  21.834  24.333  1.00  0.00     0.072 A 
ATOM      8  C   UNL A   1      31.719  22.889  24.510  1.00  0.00     0.109 A 
ATOM      9  N   UNL A   1      31.595  23.911  23.613  1.00  0.00    -0.249 NA
ATOM     10  C   UNL A   1      32.393  23.926  22.533  1.00  0.00     0.112 A 
ATOM     11  C   UNL A   1      33.504  21.949  23.237  1.00  0.00     0.018 A 
ATOM     12  C   UNL A   1      33.372  22.985  22.314  1.00  0.00     0.021 A 
BRANCH   8  13
ATOM     13  S   UNL A   1      30.686  23.173  25.939  1.00  0.00    -0.101 SA
BRANCH  13  14
ATOM     14  C   UNL A   1      31.834  24.116  26.984  1.00  0.00     0.112 C 
BRANCH  14  15
ATOM     15  C   UNL A   1      32.097  25.523  26.500  1.00  0.00    -0.037 A 
ATOM     16  C   UNL A   1      32.602  28.130  25.555  1.00  0.00     0.118 A 
ATOM     17  C   UNL A   1      31.342  27.787  26.044  1.00  0.00     0.047 A 
ATOM     18  C   UNL A   1      33.613  27.170  25.541  1.00  0.00     0.047 A 
ATOM     19  C   UNL A   1      31.084  26.492  26.495  1.00  0.00     0.008 A 
ATOM     20  C   UNL A   1      33.361  25.875  26.009  1.00  0.00     0.008 A 
BRANCH  16  21
ATOM     21  O   UNL A   1      32.728  29.430  25.148  1.00  0.00    -0.497 OA
ATOM     22  C   UNL A   1      31.611  30.272  25.398  1.00  0.00     0.278 C 
ENDBRANCH  16  21
ENDBRANCH  14  15
ENDBRANCH  13  14
ENDBRANCH   8  13
ENDBRANCH   4   7
ENDBRANCH   2   3
ENDBRANCH   1   2
BRANCH   1  23
ATOM     23  C   UNL A   1      35.654  23.384  25.870  1.00  0.00     0.023 C 
BRANCH  23  24
ATOM     24  C   UNL A   1      36.955  23.762  25.167  1.00  0.00     0.116 C 
BRANCH  24  25
ATOM     25  N   UNL A   1      38.013  22.783  25.364  1.00  0.00    -0.352 N 
ATOM     26  C   UNL A   1      39.200  22.925  26.043  1.00  0.00     0.251 C 
ATOM     27  H   UNL A   1      37.858  21.900  24.955  1.00  0.00     0.163 HD
ATOM     28  O   UNL A   1      40.032  22.030  26.017  1.00  0.00    -0.269 OA
BRANCH  26  29
ATOM     29  C   UNL A   1      39.473  24.185  26.768  1.00  0.00     0.039 A 
ATOM     30  C   UNL A   1      38.944  24.347  28.051  1.00  0.00     0.014 A 
ATOM     31  C   UNL A   1      40.261  25.186  26.196  1.00  0.00     0.014 A 
ATOM     32  C   UNL A   1      39.262  25.489  28.789  1.00  0.00     0.010 A 
ATOM     33  C   UNL A   1      40.624  26.296  26.954  1.00  0.00     0.010 A 
ATOM     34  C   UNL A   1      40.132  26.456  28.259  1.00  0.00    -0.014 A 
BRANCH  34  35
ATOM     35  C   UNL A   1      40.551  27.634  29.058  1.00  0.00     0.031 A 
ATOM     36  C   UNL A   1      41.858  27.618  29.800  1.00  0.00     0.074 A 
ATOM     37  C   UNL A   1      39.718  28.688  29.173  1.00  0.00     0.049 A 
ATOM     38  N   UNL A   1      42.358  28.513  30.611  1.00  0.00    -0.248 NA
ATOM     39  C   UNL A   1      42.702  26.424  29.628  1.00  0.00     0.031 C 
ATOM     40  C   UNL A   1      38.400  28.798  28.543  1.00  0.00     0.029 A 
ATOM     41  N   UNL A   1      39.848  29.861  29.872  1.00  0.00    -0.354 N 
ATOM     42  C   UNL A   1      43.564  27.987  31.060  1.00  0.00     0.074 A 
ATOM     43  C   UNL A   1      43.699  26.674  30.466  1.00  0.00     0.031 C 
ATOM     44  C   UNL A   1      37.852  29.980  28.871  1.00  0.00     0.029 A 
ATOM     45  C   UNL A   1      38.762  30.697  29.758  1.00  0.00     0.049 A 
ATOM     46  H   UNL A   1      40.646  30.085  30.404  1.00  0.00     0.167 HD
ATOM     47  C   UNL A   1      44.484  28.556  31.875  1.00  0.00     0.037 A 
ATOM     48  C   UNL A   1      38.524  31.901  30.311  1.00  0.00     0.037 A 
ATOM     49  C   UNL A   1      44.357  29.876  32.437  1.00  0.00     0.049 A 
ATOM     50  C   UNL A   1      39.570  32.521  31.198  1.00  0.00     0.074 A 
ATOM     51  C   UNL A   1      45.261  30.565  33.227  1.00  0.00     0.029 A 
ATOM     52  N   UNL A   1      43.259  30.706  32.267  1.00  0.00    -0.354 N 
ATOM     53  N   UNL A   1      40.732  32.035  31.563  1.00  0.00    -0.248 NA
ATOM     54  C   UNL A   1      39.277  33.854  31.741  1.00  0.00     0.031 C 
ATOM     55  C   UNL A   1      44.696  31.801  33.561  1.00  0.00     0.029 A 
ATOM     56  C   UNL A   1      43.457  31.897  32.947  1.00  0.00     0.049 A 
ATOM     57  H   UNL A   1      42.457  30.482  31.743  1.00  0.00     0.167 HD
ATOM     58  C   UNL A   1      41.322  33.013  32.356  1.00  0.00     0.074 A 
ATOM     59  C   UNL A   1      40.391  34.122  32.411  1.00  0.00     0.031 C 
ATOM     60  C   UNL A   1      42.524  32.995  32.980  1.00  0.00     0.037 A 
BRANCH  47  61
ATOM     61  C   UNL A   1      45.714  27.756  32.200  1.00  0.00     0.058 A 
ATOM     62  C   UNL A   1      46.852  27.791  31.377  1.00  0.00     0.135 A 
ATOM     63  C   UNL A   1      45.770  26.967  33.360  1.00  0.00     0.135 A 
ATOM     64  F   UNL A   1      46.847  28.517  30.247  1.00  0.00    -0.206 F 
ATOM     65  C   UNL A   1      47.990  27.050  31.677  1.00  0.00     0.059 A 
ATOM     66  C   UNL A   1      46.907  26.238  33.693  1.00  0.00     0.059 A 
ATOM     67  F   UNL A   1      44.711  26.897  34.181  1.00  0.00    -0.206 F 
ATOM     68  C   UNL A   1      48.007  26.274  32.837  1.00  0.00     0.060 A 
BRANCH  68  69
ATOM     69  S   UNL A   1      49.491  25.317  33.211  1.00  0.00     0.124 S 
ATOM     70  O   UNL A   1      50.085  25.173  31.885  1.00  0.00    -0.237 OA
ATOM     71  O   UNL A   1      50.205  26.192  34.133  1.00  0.00    -0.237 OA
ATOM     72  O   UNL A   1      48.964  24.089  33.798  1.00  0.00    -0.744 OA
ENDBRANCH  68  69
ENDBRANCH  47  61
BRANCH  48  73
ATOM     73  C   UNL A   1      37.253  32.615  30.018  1.00  0.00     0.058 A 
ATOM     74  C   UNL A   1      36.080  32.311  30.726  1.00  0.00     0.135 A 
ATOM     75  C   UNL A   1      37.188  33.620  29.042  1.00  0.00     0.135 A 
ATOM     76  F   UNL A   1      36.092  31.354  31.665  1.00  0.00    -0.206 F 
ATOM     77  C   UNL A   1      34.882  32.967  30.464  1.00  0.00     0.059 A 
ATOM     78  C   UNL A   1      36.007  34.307  28.779  1.00  0.00     0.059 A 
ATOM     79  F   UNL A   1      38.288  33.959  28.352  1.00  0.00    -0.206 F 
ATOM     80  C   UNL A   1      34.855  33.965  29.489  1.00  0.00     0.060 A 
BRANCH  80  81
ATOM     81  S   UNL A   1      33.306  34.846  29.191  1.00  0.00     0.124 S 
ATOM     82  O   UNL A   1      33.789  36.123  28.680  1.00  0.00    -0.237 OA
ATOM     83  O   UNL A   1      32.641  33.980  28.223  1.00  0.00    -0.237 OA
ATOM     84  O   UNL A   1      32.686  34.886  30.511  1.00  0.00    -0.744 OA
ENDBRANCH  80  81
ENDBRANCH  48  73
BRANCH  60  85
ATOM     85  C   UNL A   1      42.923  34.224  33.748  1.00  0.00     0.058 A 
ATOM     86  C   UNL A   1      42.744  34.316  35.136  1.00  0.00     0.135 A 
ATOM     87  C   UNL A   1      43.545  35.299  33.091  1.00  0.00     0.135 A 
ATOM     88  F   UNL A   1      42.149  33.318  35.808  1.00  0.00    -0.206 F 
ATOM     89  C   UNL A   1      43.152  35.440  35.847  1.00  0.00     0.059 A 
ATOM     90  C   UNL A   1      43.982  36.422  33.786  1.00  0.00     0.059 A 
ATOM     91  F   UNL A   1      43.747  35.255  31.765  1.00  0.00    -0.206 F 
ATOM     92  C   UNL A   1      43.772  36.488  35.162  1.00  0.00     0.060 A 
BRANCH  92  93
ATOM     93  S   UNL A   1      44.334  37.924  36.101  1.00  0.00     0.124 S 
ATOM     94  O   UNL A   1      43.504  37.836  37.298  1.00  0.00    -0.237 OA
ATOM     95  O   UNL A   1      45.752  37.639  36.291  1.00  0.00    -0.237 OA
ATOM     96  O   UNL A   1      44.040  39.045  35.213  1.00  0.00    -0.744 OA
ENDBRANCH  92  93
ENDBRANCH  60  85
ENDBRANCH  34  35
ENDBRANCH  26  29
ENDBRANCH  24  25
ENDBRANCH  23  24
ENDBRANCH   1  23
TORSDOF 18
ENDMDL
MODEL 3
REMARK VINA RESULT:     -11.7      6.025      8.358
REMARK SMILES COc1ccc(CSc2ncccc2C(=O)NCCCCNC(=O)c2ccc(-c3c4nc(c(-c5c(F)cc(S(=O)(=O)[O-])cc5F)c5ccc([nH]5)c(-c5c(F)cc(S(=O)(=O)[O-])cc5F)c5nc(c(-c6c(F)cc(S(=O)(=O)[O-])cc6F)c6ccc3[nH]6)C=C5)C=C4)cc2)cc1
REMARK SMILES IDX 19 1 18 2 17 3 15 4 16 5 14 7 9 8 10 9 11 10 13 11 12 12
REMARK SMILES IDX 8 13 7 14 6 15 3 16 4 17 92 18 5 19 91 20 2 21 1 22 20 23
REMARK SMILES IDX 21 24 22 25 23 26 24 28 25 29 26 30 90 31 27 32 89 33 28 34
REMARK SMILES IDX 29 35 30 36 83 37 31 38 88 39 82 40 84 41 32 42 87 43 81 44
REMARK SMILES IDX 80 45 33 47 67 48 46 49 66 50 47 51 50 52 65 53 85 54 48 55
REMARK SMILES IDX 49 56 64 58 86 59 51 60 34 61 35 62 44 63 36 64 37 65 43 66
REMARK SMILES IDX 45 67 38 68 39 69 40 70 41 71 42 72 68 73 69 74 78 75 70 76
REMARK SMILES IDX 71 77 77 78 79 79 72 80 73 81 74 82 75 83 76 84 52 85 53 86
REMARK SMILES IDX 62 87 54 88 55 89 61 90 63 91 56 92 57 93 58 94 59 95 60 96
REMARK H PARENT 17 6 22 27 84 46 50 57
REMARK Flexibility Score: inf
ROOT
ATOM      1  C   UNL A   1      36.901  20.731  25.213  1.00  0.00     0.023 C 
ENDROOT
BRANCH   1   2
ATOM      2  C   UNL A   1      36.655  22.154  25.724  1.00  0.00     0.116 C 
BRANCH   2   3
ATOM      3  N   UNL A   1      35.583  22.152  26.702  1.00  0.00    -0.352 N 
ATOM      4  C   UNL A   1      34.416  22.860  26.865  1.00  0.00     0.254 C 
ATOM      5  O   UNL A   1      33.830  22.637  27.922  1.00  0.00    -0.269 OA
ATOM      6  H   UNL A   1      35.724  21.490  27.416  1.00  0.00     0.163 HD
BRANCH   4   7
ATOM      7  C   UNL A   1      33.839  23.792  25.844  1.00  0.00     0.072 A 
ATOM      8  C   UNL A   1      32.750  23.423  25.034  1.00  0.00     0.109 A 
ATOM      9  N   UNL A   1      32.263  24.231  24.045  1.00  0.00    -0.249 NA
ATOM     10  C   UNL A   1      32.828  25.435  23.857  1.00  0.00     0.112 A 
ATOM     11  C   UNL A   1      34.329  25.095  25.665  1.00  0.00     0.018 A 
ATOM     12  C   UNL A   1      33.841  25.918  24.651  1.00  0.00     0.021 A 
BRANCH   8  13
ATOM     13  S   UNL A   1      31.738  21.962  25.209  1.00  0.00    -0.101 SA
BRANCH  13  14
ATOM     14  C   UNL A   1      32.240  21.042  23.726  1.00  0.00     0.112 C 
BRANCH  14  15
ATOM     15  C   UNL A   1      32.576  19.592  23.983  1.00  0.00    -0.037 A 
ATOM     16  C   UNL A   1      33.237  16.889  24.430  1.00  0.00     0.118 A 
ATOM     17  C   UNL A   1      33.196  17.791  25.492  1.00  0.00     0.047 A 
ATOM     18  C   UNL A   1      32.943  17.336  23.142  1.00  0.00     0.047 A 
ATOM     19  C   UNL A   1      32.887  19.134  25.270  1.00  0.00     0.008 A 
ATOM     20  C   UNL A   1      32.616  18.679  22.921  1.00  0.00     0.008 A 
BRANCH  16  21
ATOM     21  O   UNL A   1      33.547  15.603  24.778  1.00  0.00    -0.497 OA
ATOM     22  C   UNL A   1      32.528  14.877  25.452  1.00  0.00     0.278 C 
ENDBRANCH  16  21
ENDBRANCH  14  15
ENDBRANCH  13  14
ENDBRANCH   8  13
ENDBRANCH   4   7
ENDBRANCH   2   3
ENDBRANCH   1   2
BRANCH   1  23
ATOM     23  C   UNL A   1      38.365  20.437  24.854  1.00  0.00     0.023 C 
BRANCH  23  24
ATOM     24  C   UNL A   1      39.355  20.558  26.010  1.00  0.00     0.116 C 
BRANCH  24  25
ATOM     25  N   UNL A   1      40.317  19.469  26.050  1.00  0.00    -0.352 N 
ATOM     26  C   UNL A   1      41.684  19.534  26.191  1.00  0.00     0.251 C 
ATOM     27  H   UNL A   1      39.941  18.563  25.964  1.00  0.00     0.163 HD
ATOM     28  O   UNL A   1      42.359  18.520  26.092  1.00  0.00    -0.269 OA
BRANCH  26  29
ATOM     29  C   UNL A   1      42.325  20.846  26.423  1.00  0.00     0.039 A 
ATOM     30  C   UNL A   1      42.659  21.633  25.318  1.00  0.00     0.014 A 
ATOM     31  C   UNL A   1      42.575  21.304  27.719  1.00  0.00     0.014 A 
ATOM     32  C   UNL A   1      43.183  22.912  25.515  1.00  0.00     0.010 A 
ATOM     33  C   UNL A   1      43.042  22.601  27.914  1.00  0.00     0.010 A 
ATOM     34  C   UNL A   1      43.346  23.418  26.815  1.00  0.00    -0.014 A 
BRANCH  34  35
ATOM     35  C   UNL A   1      43.821  24.806  27.046  1.00  0.00     0.031 A 
ATOM     36  C   UNL A   1      45.273  25.148  26.861  1.00  0.00     0.074 A 
ATOM     37  C   UNL A   1      42.955  25.738  27.492  1.00  0.00     0.049 A 
ATOM     38  N   UNL A   1      45.891  26.277  27.091  1.00  0.00    -0.248 NA
ATOM     39  C   UNL A   1      46.152  24.069  26.382  1.00  0.00     0.031 C 
ATOM     40  C   UNL A   1      41.533  25.513  27.759  1.00  0.00     0.029 A 
ATOM     41  N   UNL A   1      43.146  27.057  27.813  1.00  0.00    -0.354 N 
ATOM     42  C   UNL A   1      47.230  26.043  26.801  1.00  0.00     0.074 A 
ATOM     43  C   UNL A   1      47.343  24.651  26.423  1.00  0.00     0.031 C 
ATOM     44  C   UNL A   1      40.978  26.659  28.187  1.00  0.00     0.029 A 
ATOM     45  C   UNL A   1      42.008  27.689  28.257  1.00  0.00     0.049 A 
ATOM     46  H   UNL A   1      44.017  27.510  27.734  1.00  0.00     0.167 HD
ATOM     47  C   UNL A   1      48.266  26.914  26.827  1.00  0.00     0.037 A 
ATOM     48  C   UNL A   1      41.818  28.954  28.677  1.00  0.00     0.037 A 
ATOM     49  C   UNL A   1      48.140  28.307  27.175  1.00  0.00     0.049 A 
ATOM     50  C   UNL A   1      42.981  29.909  28.679  1.00  0.00     0.074 A 
ATOM     51  C   UNL A   1      49.119  29.285  27.174  1.00  0.00     0.029 A 
ATOM     52  N   UNL A   1      46.963  28.918  27.581  1.00  0.00    -0.354 N 
ATOM     53  N   UNL A   1      44.229  29.686  28.344  1.00  0.00    -0.248 NA
ATOM     54  C   UNL A   1      42.710  31.288  29.108  1.00  0.00     0.031 C 
ATOM     55  C   UNL A   1      48.541  30.482  27.611  1.00  0.00     0.029 A 
ATOM     56  C   UNL A   1      47.193  30.258  27.846  1.00  0.00     0.049 A 
ATOM     57  H   UNL A   1      46.094  28.466  27.669  1.00  0.00     0.167 HD
ATOM     58  C   UNL A   1      44.887  30.902  28.495  1.00  0.00     0.074 A 
ATOM     59  C   UNL A   1      43.896  31.859  28.943  1.00  0.00     0.031 C 
ATOM     60  C   UNL A   1      46.191  31.199  28.280  1.00  0.00     0.037 A 
BRANCH  47  61
ATOM     61  C   UNL A   1      49.626  26.389  26.462  1.00  0.00     0.058 A 
ATOM     62  C   UNL A   1      50.472  25.811  27.422  1.00  0.00     0.135 A 
ATOM     63  C   UNL A   1      50.080  26.436  25.134  1.00  0.00     0.135 A 
ATOM     64  F   UNL A   1      50.094  25.753  28.710  1.00  0.00    -0.206 F 
ATOM     65  C   UNL A   1      51.731  25.326  27.085  1.00  0.00     0.059 A 
ATOM     66  C   UNL A   1      51.325  25.935  24.770  1.00  0.00     0.059 A 
ATOM     67  F   UNL A   1      49.311  26.979  24.177  1.00  0.00    -0.206 F 
ATOM     68  C   UNL A   1      52.150  25.395  25.755  1.00  0.00     0.060 A 
BRANCH  68  69
ATOM     69  S   UNL A   1      53.787  24.762  25.334  1.00  0.00     0.124 S 
ATOM     70  O   UNL A   1      54.521  25.008  26.573  1.00  0.00    -0.237 OA
ATOM     71  O   UNL A   1      53.514  23.363  25.027  1.00  0.00    -0.237 OA
ATOM     72  O   UNL A   1      54.186  25.584  24.196  1.00  0.00    -0.744 OA
ENDBRANCH  68  69
ENDBRANCH  47  61
BRANCH  48  73
ATOM     73  C   UNL A   1      40.466  29.400  29.105  1.00  0.00     0.058 A 
ATOM     74  C   UNL A   1      40.171  29.600  30.462  1.00  0.00     0.135 A 
ATOM     75  C   UNL A   1      39.450  29.649  28.170  1.00  0.00     0.135 A 
ATOM     76  F   UNL A   1      41.109  29.370  31.392  1.00  0.00    -0.206 F 
ATOM     77  C   UNL A   1      38.911  30.014  30.879  1.00  0.00     0.059 A 
ATOM     78  C   UNL A   1      38.188  30.087  28.561  1.00  0.00     0.059 A 
ATOM     79  F   UNL A   1      39.689  29.490  26.859  1.00  0.00    -0.206 F 
ATOM     80  C   UNL A   1      37.925  30.257  29.921  1.00  0.00     0.060 A 
BRANCH  80  81
ATOM     81  S   UNL A   1      36.307  30.843  30.470  1.00  0.00     0.124 S 
ATOM     82  O   UNL A   1      36.644  32.142  31.040  1.00  0.00    -0.237 OA
ATOM     83  O   UNL A   1      35.550  30.869  29.222  1.00  0.00    -0.237 OA
ATOM     84  O   UNL A   1      35.889  29.822  31.425  1.00  0.00    -0.744 OA
ENDBRANCH  80  81
ENDBRANCH  48  73
BRANCH  60  85
ATOM     85  C   UNL A   1      46.620  32.624  28.490  1.00  0.00     0.058 A 
ATOM     86  C   UNL A   1      46.583  33.564  27.450  1.00  0.00     0.135 A 
ATOM     87  C   UNL A   1      47.018  33.064  29.762  1.00  0.00     0.135 A 
ATOM     88  F   UNL A   1      46.215  33.191  26.214  1.00  0.00    -0.206 F 
ATOM     89  C   UNL A   1      46.943  34.892  27.660  1.00  0.00     0.059 A 
ATOM     90  C   UNL A   1      47.360  34.392  30.000  1.00  0.00     0.059 A 
ATOM     91  F   UNL A   1      47.063  32.205  30.792  1.00  0.00    -0.206 F 
ATOM     92  C   UNL A   1      47.329  35.296  28.939  1.00  0.00     0.060 A 
BRANCH  92  93
ATOM     93  S   UNL A   1      47.754  37.030  29.209  1.00  0.00     0.124 S 
ATOM     94  O   UNL A   1      47.731  37.554  27.848  1.00  0.00    -0.237 OA
ATOM     95  O   UNL A   1      46.678  37.485  30.083  1.00  0.00    -0.237 OA
ATOM     96  O   UNL A   1      49.072  36.962  29.833  1.00  0.00    -0.744 OA
ENDBRANCH  92  93
ENDBRANCH  60  85
ENDBRANCH  34  35
ENDBRANCH  26  29
ENDBRANCH  24  25
ENDBRANCH  23  24
ENDBRANCH   1  23
TORSDOF 18
ENDMDL
