MODEL 1
REMARK VINA RESULT:     -12.0      0.000      0.000
REMARK SMILES CS(=O)(=O)c1ccc(N2N=C(C(=O)NCCCCNC(=O)c3ccc(-c4c5nc(c(-c6c(F)cc(S(=O)(=O)[O-])cc6F)c6ccc([nH]6)c(-c6c(F)cc(S(=O)(=O)[O-])cc6F)c6nc(c(-c7c(F)cc(S(=O)(=O)[O-])cc7F)c7ccc4[nH]7)C=C6)C=C5)cc3)C[C@H]2c2cccs2)cc1
REMARK SMILES IDX 17 1 16 2 15 3 14 4 12 5 13 6 11 8 9 9 10 10 89 11 88 12
REMARK SMILES IDX 8 13 5 14 6 15 96 16 7 17 95 18 2 19 1 20 3 21 4 22 90 23
REMARK SMILES IDX 91 24 94 25 92 26 93 27 18 28 19 29 20 30 21 32 22 33 23 34
REMARK SMILES IDX 87 35 24 36 86 37 25 38 26 39 27 40 80 41 28 42 85 43 79 44
REMARK SMILES IDX 81 45 29 46 84 47 78 48 77 49 30 51 64 52 43 53 63 54 44 55
REMARK SMILES IDX 47 56 62 57 82 58 45 59 46 60 61 62 83 63 48 64 31 65 32 66
REMARK SMILES IDX 41 67 33 68 34 69 40 70 42 71 35 72 36 73 37 74 38 75 39 76
REMARK SMILES IDX 65 77 66 78 75 79 67 80 68 81 74 82 76 83 69 84 70 85 71 86
REMARK SMILES IDX 72 87 73 88 49 89 50 90 59 91 51 92 52 93 58 94 60 95 53 96
REMARK SMILES IDX 54 97 55 98 56 99 57 100
REMARK H PARENT 14 7 19 31 81 50 47 61
REMARK Flexibility Score: inf
ROOT
ATOM      1  C   UNL A   1      32.308  28.270  26.548  1.00  0.00     0.023 C 
ENDROOT
BRANCH   1   2
ATOM      2  C   UNL A   1      32.371  26.907  25.871  1.00  0.00     0.023 C 
BRANCH   2   3
ATOM      3  C   UNL A   1      31.199  25.995  26.208  1.00  0.00     0.116 C 
BRANCH   3   4
ATOM      4  N   UNL A   1      30.464  25.607  25.021  1.00  0.00    -0.351 N 
ATOM      5  C   UNL A   1      30.721  24.773  23.962  1.00  0.00     0.267 C 
ATOM      6  O   UNL A   1      29.889  24.723  23.059  1.00  0.00    -0.268 OA
ATOM      7  H   UNL A   1      29.581  26.038  24.962  1.00  0.00     0.163 HD
BRANCH   5   8
ATOM      8  C   UNL A   1      31.946  23.877  23.866  1.00  0.00     0.128 C 
ATOM      9  N   UNL A   1      33.173  22.161  24.184  1.00  0.00    -0.256 N 
ATOM     10  N   UNL A   1      31.899  22.632  24.236  1.00  0.00    -0.171 NA
ATOM     11  C   UNL A   1      34.139  23.108  23.628  1.00  0.00     0.154 C 
ATOM     12  C   UNL A   1      33.269  24.334  23.354  1.00  0.00     0.097 C 
BRANCH   9  13
ATOM     13  C   UNL A   1      33.417  20.794  24.228  1.00  0.00     0.060 A 
ATOM     14  C   UNL A   1      33.828  18.020  24.343  1.00  0.00     0.067 A 
ATOM     15  C   UNL A   1      34.810  18.888  24.828  1.00  0.00     0.022 A 
ATOM     16  C   UNL A   1      32.657  18.523  23.778  1.00  0.00     0.022 A 
ATOM     17  C   UNL A   1      34.606  20.271  24.752  1.00  0.00     0.029 A 
ATOM     18  C   UNL A   1      32.461  19.902  23.729  1.00  0.00     0.029 A 
BRANCH  14  19
ATOM     19  S   UNL A   1      34.074  16.267  24.467  1.00  0.00     0.175 S 
ATOM     20  C   UNL A   1      32.623  15.640  25.277  1.00  0.00     0.163 C 
ATOM     21  O   UNL A   1      35.183  16.049  25.376  1.00  0.00    -0.224 OA
ATOM     22  O   UNL A   1      34.092  15.743  23.115  1.00  0.00    -0.224 OA
ENDBRANCH  14  19
ENDBRANCH   9  13
BRANCH  11  23
ATOM     23  C   UNL A   1      35.382  23.396  24.461  1.00  0.00     0.030 A 
ATOM     24  C   UNL A   1      36.701  23.273  24.051  1.00  0.00     0.017 A 
ATOM     25  S   UNL A   1      35.316  23.898  26.106  1.00  0.00    -0.147 S 
ATOM     26  C   UNL A   1      37.635  23.621  25.068  1.00  0.00     0.012 A 
ATOM     27  C   UNL A   1      37.010  24.034  26.220  1.00  0.00     0.065 A 
ENDBRANCH  11  23
ENDBRANCH   5   8
ENDBRANCH   3   4
ENDBRANCH   2   3
ENDBRANCH   1   2
BRANCH   1  28
ATOM     28  C   UNL A   1      33.578  28.673  27.287  1.00  0.00     0.116 C 
BRANCH  28  29
ATOM     29  N   UNL A   1      33.574  30.063  27.728  1.00  0.00    -0.352 N 
ATOM     30  C   UNL A   1      34.597  30.765  28.325  1.00  0.00     0.251 C 
ATOM     31  H   UNL A   1      32.737  30.560  27.582  1.00  0.00     0.163 HD
ATOM     32  O   UNL A   1      34.414  31.897  28.757  1.00  0.00    -0.269 OA
BRANCH  30  33
ATOM     33  C   UNL A   1      35.906  30.101  28.464  1.00  0.00     0.039 A 
ATOM     34  C   UNL A   1      36.790  30.104  27.384  1.00  0.00     0.014 A 
ATOM     35  C   UNL A   1      36.291  29.591  29.706  1.00  0.00     0.014 A 
ATOM     36  C   UNL A   1      38.103  29.669  27.577  1.00  0.00     0.010 A 
ATOM     37  C   UNL A   1      37.619  29.243  29.915  1.00  0.00     0.010 A 
ATOM     38  C   UNL A   1      38.540  29.285  28.855  1.00  0.00    -0.014 A 
BRANCH  38  39
ATOM     39  C   UNL A   1      39.953  28.912  29.124  1.00  0.00     0.031 A 
ATOM     40  C   UNL A   1      40.903  29.958  29.637  1.00  0.00     0.074 A 
ATOM     41  C   UNL A   1      40.398  27.677  28.821  1.00  0.00     0.049 A 
ATOM     42  N   UNL A   1      42.201  29.897  29.779  1.00  0.00    -0.248 NA
ATOM     43  C   UNL A   1      40.317  31.258  30.008  1.00  0.00     0.031 C 
ATOM     44  C   UNL A   1      39.580  26.586  28.283  1.00  0.00     0.029 A 
ATOM     45  N   UNL A   1      41.659  27.136  28.895  1.00  0.00    -0.354 N 
ATOM     46  C   UNL A   1      42.587  31.148  30.245  1.00  0.00     0.074 A 
ATOM     47  C   UNL A   1      41.397  31.968  30.298  1.00  0.00     0.031 C 
ATOM     48  C   UNL A   1      40.358  25.509  28.081  1.00  0.00     0.029 A 
ATOM     49  C   UNL A   1      41.736  25.844  28.425  1.00  0.00     0.049 A 
ATOM     50  H   UNL A   1      42.434  27.627  29.251  1.00  0.00     0.167 HD
ATOM     51  C   UNL A   1      43.817  31.567  30.623  1.00  0.00     0.037 A 
ATOM     52  C   UNL A   1      42.801  25.034  28.263  1.00  0.00     0.037 A 
ATOM     53  C   UNL A   1      44.993  30.740  30.581  1.00  0.00     0.049 A 
ATOM     54  C   UNL A   1      44.167  25.534  28.655  1.00  0.00     0.074 A 
ATOM     55  C   UNL A   1      46.282  31.060  30.966  1.00  0.00     0.029 A 
ATOM     56  N   UNL A   1      45.023  29.427  30.132  1.00  0.00    -0.354 N 
ATOM     57  N   UNL A   1      44.509  26.706  29.136  1.00  0.00    -0.248 NA
ATOM     58  C   UNL A   1      45.294  24.604  28.488  1.00  0.00     0.031 C 
ATOM     59  C   UNL A   1      47.102  29.958  30.707  1.00  0.00     0.029 A 
ATOM     60  C   UNL A   1      46.312  28.930  30.217  1.00  0.00     0.049 A 
ATOM     61  H   UNL A   1      44.243  28.926  29.800  1.00  0.00     0.167 HD
ATOM     62  C   UNL A   1      45.880  26.640  29.363  1.00  0.00     0.074 A 
ATOM     63  C   UNL A   1      46.305  25.313  28.973  1.00  0.00     0.031 C 
ATOM     64  C   UNL A   1      46.712  27.592  29.852  1.00  0.00     0.037 A 
BRANCH  51  65
ATOM     65  C   UNL A   1      43.950  32.977  31.129  1.00  0.00     0.058 A 
ATOM     66  C   UNL A   1      44.197  34.048  30.255  1.00  0.00     0.135 A 
ATOM     67  C   UNL A   1      43.790  33.269  32.493  1.00  0.00     0.135 A 
ATOM     68  F   UNL A   1      44.377  33.824  28.943  1.00  0.00    -0.206 F 
ATOM     69  C   UNL A   1      44.308  35.354  30.718  1.00  0.00     0.059 A 
ATOM     70  C   UNL A   1      43.865  34.574  32.974  1.00  0.00     0.059 A 
ATOM     71  F   UNL A   1      43.556  32.284  33.374  1.00  0.00    -0.206 F 
ATOM     72  C   UNL A   1      44.137  35.607  32.079  1.00  0.00     0.060 A 
BRANCH  72  73
ATOM     73  S   UNL A   1      44.272  37.311  32.657  1.00  0.00     0.124 S 
ATOM     74  O   UNL A   1      43.182  37.377  33.627  1.00  0.00    -0.237 OA
ATOM     75  O   UNL A   1      45.620  37.343  33.217  1.00  0.00    -0.237 OA
ATOM     76  O   UNL A   1      44.080  38.100  31.444  1.00  0.00    -0.744 OA
ENDBRANCH  72  73
ENDBRANCH  51  65
BRANCH  52  77
ATOM     77  C   UNL A   1      42.626  23.668  27.696  1.00  0.00     0.058 A 
ATOM     78  C   UNL A   1      42.438  22.553  28.528  1.00  0.00     0.135 A 
ATOM     79  C   UNL A   1      42.659  23.445  26.310  1.00  0.00     0.135 A 
ATOM     80  F   UNL A   1      42.403  22.711  29.861  1.00  0.00    -0.206 F 
ATOM     81  C   UNL A   1      42.321  21.267  28.013  1.00  0.00     0.059 A 
ATOM     82  C   UNL A   1      42.513  22.172  25.768  1.00  0.00     0.059 A 
ATOM     83  F   UNL A   1      42.817  24.476  25.466  1.00  0.00    -0.206 F 
ATOM     84  C   UNL A   1      42.361  21.085  26.628  1.00  0.00     0.060 A 
BRANCH  84  85
ATOM     85  S   UNL A   1      42.187  19.414  25.969  1.00  0.00     0.124 S 
ATOM     86  O   UNL A   1      42.977  19.499  24.745  1.00  0.00    -0.237 OA
ATOM     87  O   UNL A   1      42.755  18.601  27.041  1.00  0.00    -0.237 OA
ATOM     88  O   UNL A   1      40.747  19.275  25.782  1.00  0.00    -0.744 OA
ENDBRANCH  84  85
ENDBRANCH  52  77
BRANCH  64  89
ATOM     89  C   UNL A   1      48.157  27.228  30.058  1.00  0.00     0.058 A 
ATOM     90  C   UNL A   1      49.109  27.368  29.039  1.00  0.00     0.135 A 
ATOM     91  C   UNL A   1      48.606  26.825  31.326  1.00  0.00     0.135 A 
ATOM     92  F   UNL A   1      48.731  27.742  27.806  1.00  0.00    -0.206 F 
ATOM     93  C   UNL A   1      50.458  27.117  29.267  1.00  0.00     0.059 A 
ATOM     94  C   UNL A   1      49.952  26.598  31.586  1.00  0.00     0.059 A 
ATOM     95  F   UNL A   1      47.735  26.684  32.339  1.00  0.00    -0.206 F 
ATOM     96  C   UNL A   1      50.872  26.742  30.549  1.00  0.00     0.060 A 
BRANCH  96  97
ATOM     97  S   UNL A   1      52.635  26.493  30.849  1.00  0.00     0.124 S 
ATOM     98  O   UNL A   1      53.174  26.545  29.494  1.00  0.00    -0.237 OA
ATOM     99  O   UNL A   1      52.967  27.625  31.708  1.00  0.00    -0.237 OA
ATOM    100  O   UNL A   1      52.689  25.186  31.496  1.00  0.00    -0.744 OA
ENDBRANCH  96  97
ENDBRANCH  64  89
ENDBRANCH  38  39
ENDBRANCH  30  33
ENDBRANCH  28  29
ENDBRANCH   1  28
TORSDOF 17
ENDMDL
MODEL 2
REMARK VINA RESULT:     -12.0      0.846      1.691
REMARK SMILES CS(=O)(=O)c1ccc(N2N=C(C(=O)NCCCCNC(=O)c3ccc(-c4c5nc(c(-c6c(F)cc(S(=O)(=O)[O-])cc6F)c6ccc([nH]6)c(-c6c(F)cc(S(=O)(=O)[O-])cc6F)c6nc(c(-c7c(F)cc(S(=O)(=O)[O-])cc7F)c7ccc4[nH]7)C=C6)C=C5)cc3)C[C@H]2c2cccs2)cc1
REMARK SMILES IDX 17 1 16 2 15 3 14 4 12 5 13 6 11 8 9 9 10 10 89 11 88 12
REMARK SMILES IDX 8 13 5 14 6 15 96 16 7 17 95 18 2 19 1 20 3 21 4 22 90 23
REMARK SMILES IDX 91 24 94 25 92 26 93 27 18 28 19 29 20 30 21 32 22 33 23 34
REMARK SMILES IDX 87 35 24 36 86 37 25 38 26 39 27 40 80 41 28 42 85 43 79 44
REMARK SMILES IDX 81 45 29 46 84 47 78 48 77 49 30 51 64 52 43 53 63 54 44 55
REMARK SMILES IDX 47 56 62 57 82 58 45 59 46 60 61 62 83 63 48 64 31 65 32 66
REMARK SMILES IDX 41 67 33 68 34 69 40 70 42 71 35 72 36 73 37 74 38 75 39 76
REMARK SMILES IDX 65 77 66 78 75 79 67 80 68 81 74 82 76 83 69 84 70 85 71 86
REMARK SMILES IDX 72 87 73 88 49 89 50 90 59 91 51 92 52 93 58 94 60 95 53 96
REMARK SMILES IDX 54 97 55 98 56 99 57 100
REMARK H PARENT 14 7 19 31 81 50 47 61
REMARK Flexibility Score: inf
ROOT
ATOM      1  C   UNL A   1      32.570  28.373  26.132  1.00  0.00     0.023 C 
ENDROOT
BRANCH   1   2
ATOM      2  C   UNL A   1      31.324  27.721  26.717  1.00  0.00     0.023 C 
BRANCH   2   3
ATOM      3  C   UNL A   1      30.689  26.676  25.810  1.00  0.00     0.116 C 
BRANCH   3   4
ATOM      4  N   UNL A   1      30.034  25.632  26.572  1.00  0.00    -0.351 N 
ATOM      5  C   UNL A   1      30.115  24.262  26.590  1.00  0.00     0.267 C 
ATOM      6  O   UNL A   1      29.345  23.654  27.330  1.00  0.00    -0.268 OA
ATOM      7  H   UNL A   1      29.387  25.985  27.224  1.00  0.00     0.163 HD
BRANCH   5   8
ATOM      8  C   UNL A   1      31.129  23.462  25.788  1.00  0.00     0.128 C 
ATOM      9  N   UNL A   1      32.374  21.814  25.255  1.00  0.00    -0.256 N 
ATOM     10  N   UNL A   1      31.304  22.191  26.002  1.00  0.00    -0.171 NA
ATOM     11  C   UNL A   1      32.894  22.864  24.380  1.00  0.00     0.154 C 
ATOM     12  C   UNL A   1      31.985  24.045  24.717  1.00  0.00     0.097 C 
BRANCH   9  13
ATOM     13  C   UNL A   1      32.632  20.468  25.030  1.00  0.00     0.060 A 
ATOM     14  C   UNL A   1      33.221  17.753  24.630  1.00  0.00     0.067 A 
ATOM     15  C   UNL A   1      32.863  18.552  23.542  1.00  0.00     0.022 A 
ATOM     16  C   UNL A   1      33.263  18.287  25.916  1.00  0.00     0.022 A 
ATOM     17  C   UNL A   1      32.553  19.902  23.751  1.00  0.00     0.029 A 
ATOM     18  C   UNL A   1      32.972  19.637  26.105  1.00  0.00     0.029 A 
BRANCH  14  19
ATOM     19  S   UNL A   1      33.642  16.050  24.360  1.00  0.00     0.175 S 
ATOM     20  C   UNL A   1      35.144  15.782  25.269  1.00  0.00     0.163 C 
ATOM     21  O   UNL A   1      33.976  15.904  22.957  1.00  0.00    -0.224 OA
ATOM     22  O   UNL A   1      32.599  15.251  24.974  1.00  0.00    -0.224 OA
ENDBRANCH  14  19
ENDBRANCH   9  13
BRANCH  11  23
ATOM     23  C   UNL A   1      34.383  23.172  24.478  1.00  0.00     0.030 A 
ATOM     24  C   UNL A   1      35.281  23.268  23.426  1.00  0.00     0.017 A 
ATOM     25  S   UNL A   1      35.195  23.416  25.976  1.00  0.00    -0.147 S 
ATOM     26  C   UNL A   1      36.605  23.571  23.850  1.00  0.00     0.012 A 
ATOM     27  C   UNL A   1      36.684  23.734  25.212  1.00  0.00     0.065 A 
ENDBRANCH  11  23
ENDBRANCH   5   8
ENDBRANCH   3   4
ENDBRANCH   2   3
ENDBRANCH   1   2
BRANCH   1  28
ATOM     28  C   UNL A   1      33.664  28.681  27.148  1.00  0.00     0.116 C 
BRANCH  28  29
ATOM     29  N   UNL A   1      33.635  30.057  27.630  1.00  0.00    -0.352 N 
ATOM     30  C   UNL A   1      34.635  30.750  28.274  1.00  0.00     0.251 C 
ATOM     31  H   UNL A   1      32.798  30.550  27.477  1.00  0.00     0.163 HD
ATOM     32  O   UNL A   1      34.430  31.867  28.733  1.00  0.00    -0.269 OA
BRANCH  30  33
ATOM     33  C   UNL A   1      35.947  30.093  28.427  1.00  0.00     0.039 A 
ATOM     34  C   UNL A   1      36.843  30.103  27.357  1.00  0.00     0.014 A 
ATOM     35  C   UNL A   1      36.321  29.585  29.673  1.00  0.00     0.014 A 
ATOM     36  C   UNL A   1      38.157  29.676  27.565  1.00  0.00     0.010 A 
ATOM     37  C   UNL A   1      37.649  29.244  29.897  1.00  0.00     0.010 A 
ATOM     38  C   UNL A   1      38.581  29.293  28.848  1.00  0.00    -0.014 A 
BRANCH  38  39
ATOM     39  C   UNL A   1      39.993  28.928  29.133  1.00  0.00     0.031 A 
ATOM     40  C   UNL A   1      40.933  29.981  29.650  1.00  0.00     0.074 A 
ATOM     41  C   UNL A   1      40.447  27.694  28.840  1.00  0.00     0.049 A 
ATOM     42  N   UNL A   1      42.230  29.927  29.805  1.00  0.00    -0.248 NA
ATOM     43  C   UNL A   1      40.337  31.280  30.008  1.00  0.00     0.031 C 
ATOM     44  C   UNL A   1      39.640  26.596  28.300  1.00  0.00     0.029 A 
ATOM     45  N   UNL A   1      41.709  27.159  28.930  1.00  0.00    -0.354 N 
ATOM     46  C   UNL A   1      42.605  31.183  30.268  1.00  0.00     0.074 A 
ATOM     47  C   UNL A   1      41.411  31.997  30.306  1.00  0.00     0.031 C 
ATOM     48  C   UNL A   1      40.425  25.522  28.112  1.00  0.00     0.029 A 
ATOM     49  C   UNL A   1      41.798  25.865  28.467  1.00  0.00     0.049 A 
ATOM     50  H   UNL A   1      42.479  27.655  29.292  1.00  0.00     0.167 HD
ATOM     51  C   UNL A   1      43.829  31.609  30.657  1.00  0.00     0.037 A 
ATOM     52  C   UNL A   1      42.868  25.059  28.320  1.00  0.00     0.037 A 
ATOM     53  C   UNL A   1      45.009  30.787  30.631  1.00  0.00     0.049 A 
ATOM     54  C   UNL A   1      44.228  25.568  28.723  1.00  0.00     0.074 A 
ATOM     55  C   UNL A   1      46.293  31.116  31.027  1.00  0.00     0.029 A 
ATOM     56  N   UNL A   1      45.051  29.473  30.189  1.00  0.00    -0.354 N 
ATOM     57  N   UNL A   1      44.559  26.744  29.201  1.00  0.00    -0.248 NA
ATOM     58  C   UNL A   1      45.361  24.643  28.572  1.00  0.00     0.031 C 
ATOM     59  C   UNL A   1      47.121  30.016  30.782  1.00  0.00     0.029 A 
ATOM     60  C   UNL A   1      46.341  28.982  30.289  1.00  0.00     0.049 A 
ATOM     61  H   UNL A   1      44.277  28.966  29.852  1.00  0.00     0.167 HD
ATOM     62  C   UNL A   1      45.928  26.686  29.443  1.00  0.00     0.074 A 
ATOM     63  C   UNL A   1      46.363  25.359  29.064  1.00  0.00     0.031 C 
ATOM     64  C   UNL A   1      46.750  27.645  29.936  1.00  0.00     0.037 A 
BRANCH  51  65
ATOM     65  C   UNL A   1      43.950  33.023  31.157  1.00  0.00     0.058 A 
ATOM     66  C   UNL A   1      43.888  33.321  32.528  1.00  0.00     0.135 A 
ATOM     67  C   UNL A   1      44.169  34.084  30.264  1.00  0.00     0.135 A 
ATOM     68  F   UNL A   1      43.662  32.348  33.424  1.00  0.00    -0.206 F 
ATOM     69  C   UNL A   1      44.012  34.626  32.994  1.00  0.00     0.059 A 
ATOM     70  C   UNL A   1      44.328  35.393  30.712  1.00  0.00     0.059 A 
ATOM     71  F   UNL A   1      44.232  33.856  28.943  1.00  0.00    -0.206 F 
ATOM     72  C   UNL A   1      44.236  35.654  32.078  1.00  0.00     0.060 A 
BRANCH  72  73
ATOM     73  S   UNL A   1      44.408  37.337  32.704  1.00  0.00     0.124 S 
ATOM     74  O   UNL A   1      43.220  37.459  33.544  1.00  0.00    -0.237 OA
ATOM     75  O   UNL A   1      45.682  37.275  33.416  1.00  0.00    -0.237 OA
ATOM     76  O   UNL A   1      44.407  38.154  31.495  1.00  0.00    -0.744 OA
ENDBRANCH  72  73
ENDBRANCH  51  65
BRANCH  52  77
ATOM     77  C   UNL A   1      42.705  23.689  27.758  1.00  0.00     0.058 A 
ATOM     78  C   UNL A   1      42.723  23.466  26.373  1.00  0.00     0.135 A 
ATOM     79  C   UNL A   1      42.512  22.577  28.593  1.00  0.00     0.135 A 
ATOM     80  F   UNL A   1      42.899  24.495  25.530  1.00  0.00    -0.206 F 
ATOM     81  C   UNL A   1      42.524  22.199  25.834  1.00  0.00     0.059 A 
ATOM     82  C   UNL A   1      42.343  21.295  28.080  1.00  0.00     0.059 A 
ATOM     83  F   UNL A   1      42.505  22.730  29.927  1.00  0.00    -0.206 F 
ATOM     84  C   UNL A   1      42.333  21.118  26.698  1.00  0.00     0.060 A 
BRANCH  84  85
ATOM     85  S   UNL A   1      42.097  19.474  25.989  1.00  0.00     0.124 S 
ATOM     86  O   UNL A   1      40.658  19.463  25.748  1.00  0.00    -0.237 OA
ATOM     87  O   UNL A   1      42.944  19.529  24.801  1.00  0.00    -0.237 OA
ATOM     88  O   UNL A   1      42.567  18.583  27.044  1.00  0.00    -0.744 OA
ENDBRANCH  84  85
ENDBRANCH  52  77
BRANCH  64  89
ATOM     89  C   UNL A   1      48.195  27.289  30.157  1.00  0.00     0.058 A 
ATOM     90  C   UNL A   1      49.163  27.455  29.156  1.00  0.00     0.135 A 
ATOM     91  C   UNL A   1      48.627  26.866  31.425  1.00  0.00     0.135 A 
ATOM     92  F   UNL A   1      48.801  27.848  27.925  1.00  0.00    -0.206 F 
ATOM     93  C   UNL A   1      50.510  27.210  29.402  1.00  0.00     0.059 A 
ATOM     94  C   UNL A   1      49.972  26.645  31.703  1.00  0.00     0.059 A 
ATOM     95  F   UNL A   1      47.742  26.700  32.421  1.00  0.00    -0.206 F 
ATOM     96  C   UNL A   1      50.906  26.816  30.682  1.00  0.00     0.060 A 
BRANCH  96  97
ATOM     97  S   UNL A   1      52.666  26.576  31.006  1.00  0.00     0.124 S 
ATOM     98  O   UNL A   1      52.958  27.697  31.893  1.00  0.00    -0.237 OA
ATOM     99  O   UNL A   1      52.692  25.254  31.623  1.00  0.00    -0.237 OA
ATOM    100  O   UNL A   1      53.270  26.652  29.678  1.00  0.00    -0.744 OA
ENDBRANCH  96  97
ENDBRANCH  64  89
ENDBRANCH  38  39
ENDBRANCH  30  33
ENDBRANCH  28  29
ENDBRANCH   1  28
TORSDOF 17
ENDMDL
MODEL 3
REMARK VINA RESULT:     -11.7      3.467      9.792
REMARK SMILES CS(=O)(=O)c1ccc(N2N=C(C(=O)NCCCCNC(=O)c3ccc(-c4c5nc(c(-c6c(F)cc(S(=O)(=O)[O-])cc6F)c6ccc([nH]6)c(-c6c(F)cc(S(=O)(=O)[O-])cc6F)c6nc(c(-c7c(F)cc(S(=O)(=O)[O-])cc7F)c7ccc4[nH]7)C=C6)C=C5)cc3)C[C@H]2c2cccs2)cc1
REMARK SMILES IDX 17 1 16 2 15 3 14 4 12 5 13 6 11 8 9 9 10 10 89 11 88 12
REMARK SMILES IDX 8 13 5 14 6 15 96 16 7 17 95 18 2 19 1 20 3 21 4 22 90 23
REMARK SMILES IDX 91 24 94 25 92 26 93 27 18 28 19 29 20 30 21 32 22 33 23 34
REMARK SMILES IDX 87 35 24 36 86 37 25 38 26 39 27 40 80 41 28 42 85 43 79 44
REMARK SMILES IDX 81 45 29 46 84 47 78 48 77 49 30 51 64 52 43 53 63 54 44 55
REMARK SMILES IDX 47 56 62 57 82 58 45 59 46 60 61 62 83 63 48 64 31 65 32 66
REMARK SMILES IDX 41 67 33 68 34 69 40 70 42 71 35 72 36 73 37 74 38 75 39 76
REMARK SMILES IDX 65 77 66 78 75 79 67 80 68 81 74 82 76 83 69 84 70 85 71 86
REMARK SMILES IDX 72 87 73 88 49 89 50 90 59 91 51 92 52 93 58 94 60 95 53 96
REMARK SMILES IDX 54 97 55 98 56 99 57 100
REMARK H PARENT 14 7 19 31 81 50 47 61
REMARK Flexibility Score: inf
ROOT
ATOM      1  C   UNL A   1      35.672  23.248  26.043  1.00  0.00     0.023 C 
ENDROOT
BRANCH   1   2
ATOM      2  C   UNL A   1      35.086  21.885  25.700  1.00  0.00     0.023 C 
BRANCH   2   3
ATOM      3  C   UNL A   1      33.744  21.952  24.983  1.00  0.00     0.116 C 
BRANCH   3   4
ATOM      4  N   UNL A   1      33.889  22.417  23.618  1.00  0.00    -0.351 N 
ATOM      5  C   UNL A   1      33.450  23.520  22.928  1.00  0.00     0.267 C 
ATOM      6  O   UNL A   1      33.696  23.575  21.725  1.00  0.00    -0.268 OA
ATOM      7  H   UNL A   1      34.422  21.805  23.061  1.00  0.00     0.163 HD
BRANCH   5   8
ATOM      8  C   UNL A   1      32.726  24.691  23.572  1.00  0.00     0.128 C 
ATOM      9  N   UNL A   1      31.752  26.584  23.707  1.00  0.00    -0.256 N 
ATOM     10  N   UNL A   1      32.160  25.612  22.850  1.00  0.00    -0.171 NA
ATOM     11  C   UNL A   1      31.943  26.256  25.119  1.00  0.00     0.154 C 
ATOM     12  C   UNL A   1      32.603  24.879  25.045  1.00  0.00     0.097 C 
BRANCH   9  13
ATOM     13  C   UNL A   1      30.853  27.556  23.288  1.00  0.00     0.060 A 
ATOM     14  C   UNL A   1      29.092  29.582  22.468  1.00  0.00     0.067 A 
ATOM     15  C   UNL A   1      28.592  28.444  23.106  1.00  0.00     0.022 A 
ATOM     16  C   UNL A   1      30.456  29.707  22.212  1.00  0.00     0.022 A 
ATOM     17  C   UNL A   1      29.474  27.430  23.497  1.00  0.00     0.029 A 
ATOM     18  C   UNL A   1      31.324  28.697  22.626  1.00  0.00     0.029 A 
BRANCH  14  19
ATOM     19  S   UNL A   1      27.977  30.882  22.000  1.00  0.00     0.175 S 
ATOM     20  C   UNL A   1      28.917  32.382  22.124  1.00  0.00     0.163 C 
ATOM     21  O   UNL A   1      26.946  30.953  23.017  1.00  0.00    -0.224 OA
ATOM     22  O   UNL A   1      27.646  30.675  20.603  1.00  0.00    -0.224 OA
ENDBRANCH  14  19
ENDBRANCH   9  13
BRANCH  11  23
ATOM     23  C   UNL A   1      32.701  27.269  25.969  1.00  0.00     0.030 A 
ATOM     24  C   UNL A   1      34.051  27.572  25.888  1.00  0.00     0.017 A 
ATOM     25  S   UNL A   1      31.960  28.185  27.223  1.00  0.00    -0.147 S 
ATOM     26  C   UNL A   1      34.455  28.568  26.823  1.00  0.00     0.012 A 
ATOM     27  C   UNL A   1      33.399  29.027  27.572  1.00  0.00     0.065 A 
ENDBRANCH  11  23
ENDBRANCH   5   8
ENDBRANCH   3   4
ENDBRANCH   2   3
ENDBRANCH   1   2
BRANCH   1  28
ATOM     28  C   UNL A   1      36.917  23.624  25.249  1.00  0.00     0.116 C 
BRANCH  28  29
ATOM     29  N   UNL A   1      38.032  22.707  25.454  1.00  0.00    -0.352 N 
ATOM     30  C   UNL A   1      39.222  22.952  26.102  1.00  0.00     0.251 C 
ATOM     31  H   UNL A   1      37.921  21.802  25.083  1.00  0.00     0.163 HD
ATOM     32  O   UNL A   1      40.124  22.123  26.093  1.00  0.00    -0.269 OA
BRANCH  30  33
ATOM     33  C   UNL A   1      39.392  24.254  26.773  1.00  0.00     0.039 A 
ATOM     34  C   UNL A   1      38.905  24.422  28.069  1.00  0.00     0.014 A 
ATOM     35  C   UNL A   1      40.144  25.255  26.152  1.00  0.00     0.014 A 
ATOM     36  C   UNL A   1      39.250  25.572  28.783  1.00  0.00     0.010 A 
ATOM     37  C   UNL A   1      40.556  26.353  26.895  1.00  0.00     0.010 A 
ATOM     38  C   UNL A   1      40.119  26.520  28.219  1.00  0.00    -0.014 A 
BRANCH  38  39
ATOM     39  C   UNL A   1      40.591  27.706  28.980  1.00  0.00     0.031 A 
ATOM     40  C   UNL A   1      41.919  27.647  29.681  1.00  0.00     0.074 A 
ATOM     41  C   UNL A   1      39.794  28.783  29.119  1.00  0.00     0.049 A 
ATOM     42  N   UNL A   1      42.444  28.492  30.530  1.00  0.00    -0.248 NA
ATOM     43  C   UNL A   1      42.754  26.462  29.418  1.00  0.00     0.031 C 
ATOM     44  C   UNL A   1      38.467  28.944  28.517  1.00  0.00     0.029 A 
ATOM     45  N   UNL A   1      39.971  29.942  29.836  1.00  0.00    -0.354 N 
ATOM     46  C   UNL A   1      43.661  27.938  30.907  1.00  0.00     0.074 A 
ATOM     47  C   UNL A   1      43.767  26.656  30.249  1.00  0.00     0.031 C 
ATOM     48  C   UNL A   1      37.956  30.130  28.885  1.00  0.00     0.029 A 
ATOM     49  C   UNL A   1      38.890  30.794  29.789  1.00  0.00     0.049 A 
ATOM     50  H   UNL A   1      40.794  30.144  30.336  1.00  0.00     0.167 HD
ATOM     51  C   UNL A   1      44.618  28.464  31.706  1.00  0.00     0.037 A 
ATOM     52  C   UNL A   1      38.667  31.961  30.425  1.00  0.00     0.037 A 
ATOM     53  C   UNL A   1      44.511  29.749  32.345  1.00  0.00     0.049 A 
ATOM     54  C   UNL A   1      39.730  32.510  31.340  1.00  0.00     0.074 A 
ATOM     55  C   UNL A   1      45.435  30.385  33.155  1.00  0.00     0.029 A 
ATOM     56  N   UNL A   1      43.416  30.595  32.245  1.00  0.00    -0.354 N 
ATOM     57  N   UNL A   1      40.895  31.994  31.652  1.00  0.00    -0.248 NA
ATOM     58  C   UNL A   1      39.454  33.801  31.989  1.00  0.00     0.031 C 
ATOM     59  C   UNL A   1      44.881  31.595  33.582  1.00  0.00     0.029 A 
ATOM     60  C   UNL A   1      43.636  31.741  32.990  1.00  0.00     0.049 A 
ATOM     61  H   UNL A   1      42.602  30.407  31.723  1.00  0.00     0.167 HD
ATOM     62  C   UNL A   1      41.505  32.913  32.501  1.00  0.00     0.074 A 
ATOM     63  C   UNL A   1      40.583  34.019  32.650  1.00  0.00     0.031 C 
ATOM     64  C   UNL A   1      42.718  32.848  33.101  1.00  0.00     0.037 A 
BRANCH  51  65
ATOM     65  C   UNL A   1      45.870  27.658  31.921  1.00  0.00     0.058 A 
ATOM     66  C   UNL A   1      46.969  27.769  31.055  1.00  0.00     0.135 A 
ATOM     67  C   UNL A   1      45.988  26.797  33.024  1.00  0.00     0.135 A 
ATOM     68  F   UNL A   1      46.904  28.564  29.975  1.00  0.00    -0.206 F 
ATOM     69  C   UNL A   1      48.132  27.035  31.259  1.00  0.00     0.059 A 
ATOM     70  C   UNL A   1      47.155  26.077  33.264  1.00  0.00     0.059 A 
ATOM     71  F   UNL A   1      44.966  26.649  33.881  1.00  0.00    -0.206 F 
ATOM     72  C   UNL A   1      48.217  26.194  32.368  1.00  0.00     0.060 A 
BRANCH  72  73
ATOM     73  S   UNL A   1      49.740  25.260  32.622  1.00  0.00     0.124 S 
ATOM     74  O   UNL A   1      49.268  24.151  33.445  1.00  0.00    -0.237 OA
ATOM     75  O   UNL A   1      50.124  24.916  31.256  1.00  0.00    -0.237 OA
ATOM     76  O   UNL A   1      50.617  26.213  33.297  1.00  0.00    -0.744 OA
ENDBRANCH  72  73
ENDBRANCH  51  65
BRANCH  52  77
ATOM     77  C   UNL A   1      37.382  32.689  30.229  1.00  0.00     0.058 A 
ATOM     78  C   UNL A   1      36.295  32.490  31.094  1.00  0.00     0.135 A 
ATOM     79  C   UNL A   1      37.209  33.588  29.164  1.00  0.00     0.135 A 
ATOM     80  F   UNL A   1      36.407  31.638  32.125  1.00  0.00    -0.206 F 
ATOM     81  C   UNL A   1      35.075  33.128  30.894  1.00  0.00     0.059 A 
ATOM     82  C   UNL A   1      36.009  34.262  28.961  1.00  0.00     0.059 A 
ATOM     83  F   UNL A   1      38.222  33.831  28.317  1.00  0.00    -0.206 F 
ATOM     84  C   UNL A   1      34.941  34.013  29.822  1.00  0.00     0.060 A 
BRANCH  84  85
ATOM     85  S   UNL A   1      33.360  34.851  29.584  1.00  0.00     0.124 S 
ATOM     86  O   UNL A   1      32.843  34.894  30.947  1.00  0.00    -0.237 OA
ATOM     87  O   UNL A   1      33.775  36.131  29.017  1.00  0.00    -0.237 OA
ATOM     88  O   UNL A   1      32.647  33.969  28.665  1.00  0.00    -0.744 OA
ENDBRANCH  84  85
ENDBRANCH  52  77
BRANCH  64  89
ATOM     89  C   UNL A   1      43.161  34.025  33.928  1.00  0.00     0.058 A 
ATOM     90  C   UNL A   1      42.961  34.075  35.315  1.00  0.00     0.135 A 
ATOM     91  C   UNL A   1      43.880  35.072  33.329  1.00  0.00     0.135 A 
ATOM     92  F   UNL A   1      42.272  33.103  35.934  1.00  0.00    -0.206 F 
ATOM     93  C   UNL A   1      43.456  35.125  36.081  1.00  0.00     0.059 A 
ATOM     94  C   UNL A   1      44.410  36.116  34.079  1.00  0.00     0.059 A 
ATOM     95  F   UNL A   1      44.106  35.068  32.005  1.00  0.00    -0.206 F 
ATOM     96  C   UNL A   1      44.190  36.136  35.455  1.00  0.00     0.060 A 
BRANCH  96  97
ATOM     97  S   UNL A   1      44.890  37.452  36.474  1.00  0.00     0.124 S 
ATOM     98  O   UNL A   1      45.226  36.730  37.697  1.00  0.00    -0.237 OA
ATOM     99  O   UNL A   1      46.022  37.899  35.669  1.00  0.00    -0.237 OA
ATOM    100  O   UNL A   1      43.796  38.411  36.592  1.00  0.00    -0.744 OA
ENDBRANCH  96  97
ENDBRANCH  64  89
ENDBRANCH  38  39
ENDBRANCH  30  33
ENDBRANCH  28  29
ENDBRANCH   1  28
TORSDOF 17
ENDMDL
