MODEL 1
REMARK VINA RESULT:     -11.0      0.000      0.000
REMARK SMILES CCn1c(=O)n(CC)c2cc(C(=O)NCCCCNC(=O)c3ccc(-c4c5nc(c(-c6c(F)cc(S(=O)(=O)[O-])cc6F)c6ccc([nH]6)c(-c6c(F)cc(S(=O)(=O)[O-])cc6F)c6nc(c(-c7c(F)cc(S(=O)(=O)[O-])cc7F)c7ccc4[nH]7)C=C6)C=C5)cc3)ccc21
REMARK SMILES IDX 17 1 16 2 15 3 14 4 12 5 13 6 11 8 3 9 4 10 90 11 5 12 6 13
REMARK SMILES IDX 9 14 89 15 10 16 88 17 2 18 1 19 7 20 8 21 18 22 19 23 20 24
REMARK SMILES IDX 21 26 22 27 23 28 87 29 24 30 86 31 25 32 26 33 27 34 80 35
REMARK SMILES IDX 28 36 85 37 79 38 81 39 29 40 84 41 78 42 77 43 30 45 64 46
REMARK SMILES IDX 43 47 63 48 44 49 47 50 62 51 82 52 45 53 46 54 61 56 83 57
REMARK SMILES IDX 48 58 31 59 32 60 41 61 33 62 34 63 40 64 42 65 35 66 36 67
REMARK SMILES IDX 37 68 38 69 39 70 65 71 66 72 75 73 67 74 68 75 74 76 76 77
REMARK SMILES IDX 69 78 70 79 71 80 72 81 73 82 49 83 50 84 59 85 51 86 52 87
REMARK SMILES IDX 58 88 60 89 53 90 54 91 55 92 56 93 57 94
REMARK H PARENT 14 7 19 25 81 44 47 55
REMARK Flexibility Score: inf
ROOT
ATOM      1  C   UNL A   1      34.801  34.750  28.833  1.00  0.00     0.023 C 
ENDROOT
BRANCH   1   2
ATOM      2  C   UNL A   1      33.646  35.710  29.159  1.00  0.00     0.023 C 
BRANCH   2   3
ATOM      3  C   UNL A   1      32.913  35.360  30.457  1.00  0.00     0.116 C 
BRANCH   3   4
ATOM      4  N   UNL A   1      33.175  36.358  31.470  1.00  0.00    -0.352 N 
ATOM      5  C   UNL A   1      34.017  36.388  32.548  1.00  0.00     0.251 C 
ATOM      6  O   UNL A   1      34.033  37.425  33.213  1.00  0.00    -0.269 OA
ATOM      7  H   UNL A   1      32.642  37.178  31.362  1.00  0.00     0.163 HD
BRANCH   5   8
ATOM      8  C   UNL A   1      34.960  35.285  32.902  1.00  0.00     0.042 A 
ATOM      9  N   UNL A   1      37.755  32.223  33.175  1.00  0.00    -0.292 N 
ATOM     10  C   UNL A   1      38.753  32.713  32.304  1.00  0.00     0.329 A 
ATOM     11  C   UNL A   1      36.724  33.167  33.255  1.00  0.00     0.069 A 
ATOM     12  O   UNL A   1      39.808  32.159  32.014  1.00  0.00    -0.248 OA
ATOM     13  N   UNL A   1      38.297  33.966  31.840  1.00  0.00    -0.292 N 
ATOM     14  C   UNL A   1      37.039  34.221  32.399  1.00  0.00     0.070 A 
ATOM     15  C   UNL A   1      35.578  33.180  34.015  1.00  0.00     0.029 A 
ATOM     16  C   UNL A   1      36.176  35.277  32.198  1.00  0.00     0.042 A 
ATOM     17  C   UNL A   1      34.719  34.278  33.863  1.00  0.00     0.016 A 
BRANCH   9  18
ATOM     18  C   UNL A   1      37.789  30.946  33.839  1.00  0.00     0.124 C 
ATOM     19  C   UNL A   1      38.818  30.904  34.956  1.00  0.00     0.028 C 
ENDBRANCH   9  18
BRANCH  13  20
ATOM     20  C   UNL A   1      39.040  34.867  30.998  1.00  0.00     0.124 C 
ATOM     21  C   UNL A   1      38.890  34.559  29.518  1.00  0.00     0.028 C 
ENDBRANCH  13  20
ENDBRANCH   5   8
ENDBRANCH   3   4
ENDBRANCH   2   3
ENDBRANCH   1   2
BRANCH   1  22
ATOM     22  C   UNL A   1      34.551  33.317  29.305  1.00  0.00     0.116 C 
BRANCH  22  23
ATOM     23  N   UNL A   1      34.397  32.376  28.211  1.00  0.00    -0.352 N 
ATOM     24  C   UNL A   1      35.017  31.222  27.827  1.00  0.00     0.251 C 
ATOM     25  H   UNL A   1      33.671  32.631  27.598  1.00  0.00     0.163 HD
ATOM     26  O   UNL A   1      34.515  30.632  26.866  1.00  0.00    -0.269 OA
BRANCH  24  27
ATOM     27  C   UNL A   1      36.275  30.701  28.415  1.00  0.00     0.039 A 
ATOM     28  C   UNL A   1      37.330  31.488  28.875  1.00  0.00     0.014 A 
ATOM     29  C   UNL A   1      36.431  29.303  28.395  1.00  0.00     0.014 A 
ATOM     30  C   UNL A   1      38.567  30.924  29.111  1.00  0.00     0.010 A 
ATOM     31  C   UNL A   1      37.656  28.724  28.685  1.00  0.00     0.010 A 
ATOM     32  C   UNL A   1      38.740  29.553  28.947  1.00  0.00    -0.014 A 
BRANCH  32  33
ATOM     33  C   UNL A   1      40.087  29.036  29.114  1.00  0.00     0.031 A 
ATOM     34  C   UNL A   1      40.527  28.913  30.534  1.00  0.00     0.074 A 
ATOM     35  C   UNL A   1      40.834  28.658  28.059  1.00  0.00     0.049 A 
ATOM     36  N   UNL A   1      41.501  29.519  31.132  1.00  0.00    -0.248 NA
ATOM     37  C   UNL A   1      39.657  28.146  31.443  1.00  0.00     0.031 C 
ATOM     38  C   UNL A   1      40.444  28.531  26.652  1.00  0.00     0.029 A 
ATOM     39  N   UNL A   1      42.114  28.207  28.055  1.00  0.00    -0.354 N 
ATOM     40  C   UNL A   1      41.494  29.053  32.446  1.00  0.00     0.074 A 
ATOM     41  C   UNL A   1      40.256  28.338  32.618  1.00  0.00     0.031 C 
ATOM     42  C   UNL A   1      41.373  27.800  25.994  1.00  0.00     0.029 A 
ATOM     43  C   UNL A   1      42.483  27.542  26.891  1.00  0.00     0.049 A 
ATOM     44  H   UNL A   1      42.729  28.339  28.812  1.00  0.00     0.167 HD
ATOM     45  C   UNL A   1      42.592  29.123  33.248  1.00  0.00     0.037 A 
ATOM     46  C   UNL A   1      43.581  26.755  26.753  1.00  0.00     0.037 A 
ATOM     47  C   UNL A   1      43.540  30.092  32.769  1.00  0.00     0.049 A 
ATOM     48  C   UNL A   1      44.536  27.169  27.822  1.00  0.00     0.074 A 
ATOM     49  C   UNL A   1      43.508  31.463  32.602  1.00  0.00     0.029 A 
ATOM     50  N   UNL A   1      44.598  29.652  32.010  1.00  0.00    -0.354 N 
ATOM     51  N   UNL A   1      45.100  28.348  27.863  1.00  0.00    -0.248 NA
ATOM     52  C   UNL A   1      44.460  26.471  29.098  1.00  0.00     0.031 C 
ATOM     53  C   UNL A   1      44.197  31.700  31.375  1.00  0.00     0.029 A 
ATOM     54  C   UNL A   1      44.667  30.472  30.909  1.00  0.00     0.049 A 
ATOM     55  H   UNL A   1      45.192  28.895  32.216  1.00  0.00     0.167 HD
ATOM     56  C   UNL A   1      45.079  28.713  29.203  1.00  0.00     0.074 A 
ATOM     57  C   UNL A   1      44.712  27.492  29.922  1.00  0.00     0.031 C 
ATOM     58  C   UNL A   1      45.076  30.023  29.595  1.00  0.00     0.037 A 
BRANCH  45  59
ATOM     59  C   UNL A   1      42.927  28.092  34.295  1.00  0.00     0.058 A 
ATOM     60  C   UNL A   1      42.949  28.445  35.659  1.00  0.00     0.135 A 
ATOM     61  C   UNL A   1      43.483  26.830  33.983  1.00  0.00     0.135 A 
ATOM     62  F   UNL A   1      42.465  29.628  36.068  1.00  0.00    -0.206 F 
ATOM     63  C   UNL A   1      43.526  27.625  36.632  1.00  0.00     0.059 A 
ATOM     64  C   UNL A   1      44.013  25.976  34.941  1.00  0.00     0.059 A 
ATOM     65  F   UNL A   1      43.621  26.408  32.719  1.00  0.00    -0.206 F 
ATOM     66  C   UNL A   1      44.067  26.396  36.259  1.00  0.00     0.060 A 
BRANCH  66  67
ATOM     67  S   UNL A   1      44.903  25.383  37.492  1.00  0.00     0.124 S 
ATOM     68  O   UNL A   1      44.339  25.905  38.731  1.00  0.00    -0.237 OA
ATOM     69  O   UNL A   1      44.480  24.039  37.112  1.00  0.00    -0.237 OA
ATOM     70  O   UNL A   1      46.315  25.676  37.268  1.00  0.00    -0.744 OA
ENDBRANCH  66  67
ENDBRANCH  45  59
BRANCH  46  71
ATOM     71  C   UNL A   1      43.619  25.409  26.113  1.00  0.00     0.058 A 
ATOM     72  C   UNL A   1      44.608  25.078  25.169  1.00  0.00     0.135 A 
ATOM     73  C   UNL A   1      42.862  24.328  26.617  1.00  0.00     0.135 A 
ATOM     74  F   UNL A   1      45.391  26.038  24.652  1.00  0.00    -0.206 F 
ATOM     75  C   UNL A   1      44.866  23.755  24.786  1.00  0.00     0.059 A 
ATOM     76  C   UNL A   1      43.095  23.006  26.245  1.00  0.00     0.059 A 
ATOM     77  F   UNL A   1      41.930  24.513  27.563  1.00  0.00    -0.206 F 
ATOM     78  C   UNL A   1      44.116  22.722  25.349  1.00  0.00     0.060 A 
BRANCH  78  79
ATOM     79  S   UNL A   1      44.559  21.003  24.999  1.00  0.00     0.124 S 
ATOM     80  O   UNL A   1      43.494  20.273  25.678  1.00  0.00    -0.237 OA
ATOM     81  O   UNL A   1      44.528  20.969  23.541  1.00  0.00    -0.237 OA
ATOM     82  O   UNL A   1      45.886  20.865  25.595  1.00  0.00    -0.744 OA
ENDBRANCH  78  79
ENDBRANCH  46  71
BRANCH  58  83
ATOM     83  C   UNL A   1      45.292  31.088  28.545  1.00  0.00     0.058 A 
ATOM     84  C   UNL A   1      44.278  31.586  27.704  1.00  0.00     0.135 A 
ATOM     85  C   UNL A   1      46.531  31.742  28.497  1.00  0.00     0.135 A 
ATOM     86  F   UNL A   1      43.031  31.101  27.767  1.00  0.00    -0.206 F 
ATOM     87  C   UNL A   1      44.501  32.648  26.822  1.00  0.00     0.059 A 
ATOM     88  C   UNL A   1      46.768  32.821  27.649  1.00  0.00     0.059 A 
ATOM     89  F   UNL A   1      47.521  31.365  29.322  1.00  0.00    -0.206 F 
ATOM     90  C   UNL A   1      45.753  33.259  26.801  1.00  0.00     0.060 A 
BRANCH  90  91
ATOM     91  S   UNL A   1      46.029  34.660  25.694  1.00  0.00     0.124 S 
ATOM     92  O   UNL A   1      47.449  34.533  25.384  1.00  0.00    -0.237 OA
ATOM     93  O   UNL A   1      45.113  34.378  24.593  1.00  0.00    -0.237 OA
ATOM     94  O   UNL A   1      45.671  35.817  26.511  1.00  0.00    -0.744 OA
ENDBRANCH  90  91
ENDBRANCH  58  83
ENDBRANCH  32  33
ENDBRANCH  24  27
ENDBRANCH  22  23
ENDBRANCH   1  22
TORSDOF 16
ENDMDL
MODEL 2
REMARK VINA RESULT:     -11.0      3.565      6.265
REMARK SMILES CCn1c(=O)n(CC)c2cc(C(=O)NCCCCNC(=O)c3ccc(-c4c5nc(c(-c6c(F)cc(S(=O)(=O)[O-])cc6F)c6ccc([nH]6)c(-c6c(F)cc(S(=O)(=O)[O-])cc6F)c6nc(c(-c7c(F)cc(S(=O)(=O)[O-])cc7F)c7ccc4[nH]7)C=C6)C=C5)cc3)ccc21
REMARK SMILES IDX 17 1 16 2 15 3 14 4 12 5 13 6 11 8 3 9 4 10 90 11 5 12 6 13
REMARK SMILES IDX 9 14 89 15 10 16 88 17 2 18 1 19 7 20 8 21 18 22 19 23 20 24
REMARK SMILES IDX 21 26 22 27 23 28 87 29 24 30 86 31 25 32 26 33 27 34 80 35
REMARK SMILES IDX 28 36 85 37 79 38 81 39 29 40 84 41 78 42 77 43 30 45 64 46
REMARK SMILES IDX 43 47 63 48 44 49 47 50 62 51 82 52 45 53 46 54 61 56 83 57
REMARK SMILES IDX 48 58 31 59 32 60 41 61 33 62 34 63 40 64 42 65 35 66 36 67
REMARK SMILES IDX 37 68 38 69 39 70 65 71 66 72 75 73 67 74 68 75 74 76 76 77
REMARK SMILES IDX 69 78 70 79 71 80 72 81 73 82 49 83 50 84 59 85 51 86 52 87
REMARK SMILES IDX 58 88 60 89 53 90 54 91 55 92 56 93 57 94
REMARK H PARENT 14 7 19 25 81 44 47 55
REMARK Flexibility Score: inf
ROOT
ATOM      1  C   UNL A   1      33.196  28.377  27.305  1.00  0.00     0.023 C 
ENDROOT
BRANCH   1   2
ATOM      2  C   UNL A   1      31.745  28.431  26.803  1.00  0.00     0.023 C 
BRANCH   2   3
ATOM      3  C   UNL A   1      31.419  27.347  25.771  1.00  0.00     0.116 C 
BRANCH   3   4
ATOM      4  N   UNL A   1      30.816  26.202  26.415  1.00  0.00    -0.352 N 
ATOM      5  C   UNL A   1      31.206  24.897  26.542  1.00  0.00     0.251 C 
ATOM      6  O   UNL A   1      30.471  24.157  27.197  1.00  0.00    -0.269 OA
ATOM      7  H   UNL A   1      29.955  26.401  26.848  1.00  0.00     0.163 HD
BRANCH   5   8
ATOM      8  C   UNL A   1      32.492  24.354  26.010  1.00  0.00     0.042 A 
ATOM      9  N   UNL A   1      35.970  22.306  25.023  1.00  0.00    -0.292 N 
ATOM     10  C   UNL A   1      35.509  20.973  25.097  1.00  0.00     0.329 A 
ATOM     11  C   UNL A   1      34.898  23.169  25.282  1.00  0.00     0.069 A 
ATOM     12  O   UNL A   1      36.171  19.959  24.907  1.00  0.00    -0.248 OA
ATOM     13  N   UNL A   1      34.139  21.044  25.426  1.00  0.00    -0.292 N 
ATOM     14  C   UNL A   1      33.780  22.390  25.573  1.00  0.00     0.070 A 
ATOM     15  C   UNL A   1      34.828  24.542  25.261  1.00  0.00     0.029 A 
ATOM     16  C   UNL A   1      32.579  22.953  25.947  1.00  0.00     0.042 A 
ATOM     17  C   UNL A   1      33.595  25.127  25.584  1.00  0.00     0.016 A 
BRANCH   9  18
ATOM     18  C   UNL A   1      37.330  22.699  24.758  1.00  0.00     0.124 C 
ATOM     19  C   UNL A   1      38.087  23.048  26.028  1.00  0.00     0.028 C 
ENDBRANCH   9  18
BRANCH  13  20
ATOM     20  C   UNL A   1      33.241  19.921  25.515  1.00  0.00     0.124 C 
ATOM     21  C   UNL A   1      32.767  19.429  24.158  1.00  0.00     0.028 C 
ENDBRANCH  13  20
ENDBRANCH   5   8
ENDBRANCH   3   4
ENDBRANCH   2   3
ENDBRANCH   1   2
BRANCH   1  22
ATOM     22  C   UNL A   1      34.149  29.269  26.508  1.00  0.00     0.116 C 
BRANCH  22  23
ATOM     23  N   UNL A   1      34.231  30.621  27.027  1.00  0.00    -0.352 N 
ATOM     24  C   UNL A   1      35.171  31.349  27.700  1.00  0.00     0.251 C 
ATOM     25  H   UNL A   1      33.413  31.139  26.853  1.00  0.00     0.163 HD
ATOM     26  O   UNL A   1      34.905  32.540  27.881  1.00  0.00    -0.269 OA
BRANCH  24  27
ATOM     27  C   UNL A   1      36.409  30.788  28.294  1.00  0.00     0.039 A 
ATOM     28  C   UNL A   1      37.425  31.539  28.884  1.00  0.00     0.014 A 
ATOM     29  C   UNL A   1      36.593  29.402  28.139  1.00  0.00     0.014 A 
ATOM     30  C   UNL A   1      38.660  30.972  29.123  1.00  0.00     0.010 A 
ATOM     31  C   UNL A   1      37.814  28.815  28.429  1.00  0.00     0.010 A 
ATOM     32  C   UNL A   1      38.867  29.627  28.829  1.00  0.00    -0.014 A 
BRANCH  32  33
ATOM     33  C   UNL A   1      40.215  29.115  29.009  1.00  0.00     0.031 A 
ATOM     34  C   UNL A   1      40.645  29.006  30.433  1.00  0.00     0.074 A 
ATOM     35  C   UNL A   1      40.969  28.730  27.961  1.00  0.00     0.049 A 
ATOM     36  N   UNL A   1      41.615  29.620  31.031  1.00  0.00    -0.248 NA
ATOM     37  C   UNL A   1      39.772  28.245  31.343  1.00  0.00     0.031 C 
ATOM     38  C   UNL A   1      40.589  28.590  26.553  1.00  0.00     0.029 A 
ATOM     39  N   UNL A   1      42.250  28.282  27.970  1.00  0.00    -0.354 N 
ATOM     40  C   UNL A   1      41.600  29.166  32.349  1.00  0.00     0.074 A 
ATOM     41  C   UNL A   1      40.363  28.450  32.519  1.00  0.00     0.031 C 
ATOM     42  C   UNL A   1      41.524  27.855  25.908  1.00  0.00     0.029 A 
ATOM     43  C   UNL A   1      42.629  27.608  26.815  1.00  0.00     0.049 A 
ATOM     44  H   UNL A   1      42.860  28.423  28.730  1.00  0.00     0.167 HD
ATOM     45  C   UNL A   1      42.693  29.246  33.158  1.00  0.00     0.037 A 
ATOM     46  C   UNL A   1      43.729  26.823  26.690  1.00  0.00     0.037 A 
ATOM     47  C   UNL A   1      43.642  30.213  32.676  1.00  0.00     0.049 A 
ATOM     48  C   UNL A   1      44.676  27.249  27.762  1.00  0.00     0.074 A 
ATOM     49  C   UNL A   1      43.607  31.583  32.496  1.00  0.00     0.029 A 
ATOM     50  N   UNL A   1      44.705  29.769  31.928  1.00  0.00    -0.354 N 
ATOM     51  N   UNL A   1      45.237  28.430  27.796  1.00  0.00    -0.248 NA
ATOM     52  C   UNL A   1      44.594  26.562  29.043  1.00  0.00     0.031 C 
ATOM     53  C   UNL A   1      44.303  31.811  31.272  1.00  0.00     0.029 A 
ATOM     54  C   UNL A   1      44.780  30.579  30.820  1.00  0.00     0.049 A 
ATOM     55  H   UNL A   1      45.300  29.015  32.144  1.00  0.00     0.167 HD
ATOM     56  C   UNL A   1      45.207  28.806  29.133  1.00  0.00     0.074 A 
ATOM     57  C   UNL A   1      44.838  27.591  29.860  1.00  0.00     0.031 C 
ATOM     58  C   UNL A   1      45.198  30.119  29.513  1.00  0.00     0.037 A 
BRANCH  45  59
ATOM     59  C   UNL A   1      43.023  28.225  34.216  1.00  0.00     0.058 A 
ATOM     60  C   UNL A   1      43.055  28.595  35.576  1.00  0.00     0.135 A 
ATOM     61  C   UNL A   1      43.567  26.955  33.917  1.00  0.00     0.135 A 
ATOM     62  F   UNL A   1      42.582  29.787  35.971  1.00  0.00    -0.206 F 
ATOM     63  C   UNL A   1      43.629  27.782  36.556  1.00  0.00     0.059 A 
ATOM     64  C   UNL A   1      44.095  26.108  34.883  1.00  0.00     0.059 A 
ATOM     65  F   UNL A   1      43.696  26.516  32.658  1.00  0.00    -0.206 F 
ATOM     66  C   UNL A   1      44.157  26.544  36.196  1.00  0.00     0.060 A 
BRANCH  66  67
ATOM     67  S   UNL A   1      44.990  25.540  37.438  1.00  0.00     0.124 S 
ATOM     68  O   UNL A   1      46.384  25.666  37.031  1.00  0.00    -0.237 OA
ATOM     69  O   UNL A   1      44.619  26.223  38.674  1.00  0.00    -0.237 OA
ATOM     70  O   UNL A   1      44.396  24.219  37.257  1.00  0.00    -0.744 OA
ENDBRANCH  66  67
ENDBRANCH  45  59
BRANCH  46  71
ATOM     71  C   UNL A   1      43.775  25.471  26.062  1.00  0.00     0.058 A 
ATOM     72  C   UNL A   1      44.803  25.116  25.170  1.00  0.00     0.135 A 
ATOM     73  C   UNL A   1      42.977  24.407  26.537  1.00  0.00     0.135 A 
ATOM     74  F   UNL A   1      45.626  26.058  24.685  1.00  0.00    -0.206 F 
ATOM     75  C   UNL A   1      45.056  23.786  24.810  1.00  0.00     0.059 A 
ATOM     76  C   UNL A   1      43.204  23.078  26.187  1.00  0.00     0.059 A 
ATOM     77  F   UNL A   1      42.003  24.616  27.436  1.00  0.00    -0.206 F 
ATOM     78  C   UNL A   1      44.263  22.770  25.344  1.00  0.00     0.060 A 
BRANCH  78  79
ATOM     79  S   UNL A   1      44.692  21.041  25.028  1.00  0.00     0.124 S 
ATOM     80  O   UNL A   1      44.630  20.975  23.572  1.00  0.00    -0.237 OA
ATOM     81  O   UNL A   1      46.023  20.943  25.616  1.00  0.00    -0.237 OA
ATOM     82  O   UNL A   1      43.647  20.298  25.729  1.00  0.00    -0.744 OA
ENDBRANCH  78  79
ENDBRANCH  46  71
BRANCH  58  83
ATOM     83  C   UNL A   1      45.417  31.176  28.454  1.00  0.00     0.058 A 
ATOM     84  C   UNL A   1      44.391  31.733  27.668  1.00  0.00     0.135 A 
ATOM     85  C   UNL A   1      46.687  31.761  28.344  1.00  0.00     0.135 A 
ATOM     86  F   UNL A   1      43.124  31.316  27.794  1.00  0.00    -0.206 F 
ATOM     87  C   UNL A   1      44.627  32.784  26.777  1.00  0.00     0.059 A 
ATOM     88  C   UNL A   1      46.939  32.830  27.486  1.00  0.00     0.059 A 
ATOM     89  F   UNL A   1      47.695  31.327  29.117  1.00  0.00    -0.206 F 
ATOM     90  C   UNL A   1      45.908  33.326  26.692  1.00  0.00     0.060 A 
BRANCH  90  91
ATOM     91  S   UNL A   1      46.203  34.715  25.575  1.00  0.00     0.124 S 
ATOM     92  O   UNL A   1      47.617  34.555  25.252  1.00  0.00    -0.237 OA
ATOM     93  O   UNL A   1      45.270  34.447  24.484  1.00  0.00    -0.237 OA
ATOM     94  O   UNL A   1      45.878  35.883  26.388  1.00  0.00    -0.744 OA
ENDBRANCH  90  91
ENDBRANCH  58  83
ENDBRANCH  32  33
ENDBRANCH  24  27
ENDBRANCH  22  23
ENDBRANCH   1  22
TORSDOF 16
ENDMDL
MODEL 3
REMARK VINA RESULT:     -10.9      4.153     11.298
REMARK SMILES CCn1c(=O)n(CC)c2cc(C(=O)NCCCCNC(=O)c3ccc(-c4c5nc(c(-c6c(F)cc(S(=O)(=O)[O-])cc6F)c6ccc([nH]6)c(-c6c(F)cc(S(=O)(=O)[O-])cc6F)c6nc(c(-c7c(F)cc(S(=O)(=O)[O-])cc7F)c7ccc4[nH]7)C=C6)C=C5)cc3)ccc21
REMARK SMILES IDX 17 1 16 2 15 3 14 4 12 5 13 6 11 8 3 9 4 10 90 11 5 12 6 13
REMARK SMILES IDX 9 14 89 15 10 16 88 17 2 18 1 19 7 20 8 21 18 22 19 23 20 24
REMARK SMILES IDX 21 26 22 27 23 28 87 29 24 30 86 31 25 32 26 33 27 34 80 35
REMARK SMILES IDX 28 36 85 37 79 38 81 39 29 40 84 41 78 42 77 43 30 45 64 46
REMARK SMILES IDX 43 47 63 48 44 49 47 50 62 51 82 52 45 53 46 54 61 56 83 57
REMARK SMILES IDX 48 58 31 59 32 60 41 61 33 62 34 63 40 64 42 65 35 66 36 67
REMARK SMILES IDX 37 68 38 69 39 70 65 71 66 72 75 73 67 74 68 75 74 76 76 77
REMARK SMILES IDX 69 78 70 79 71 80 72 81 73 82 49 83 50 84 59 85 51 86 52 87
REMARK SMILES IDX 58 88 60 89 53 90 54 91 55 92 56 93 57 94
REMARK H PARENT 14 7 19 25 81 44 47 55
REMARK Flexibility Score: inf
ROOT
ATOM      1  C   UNL A   1      41.125  19.956  26.901  1.00  0.00     0.023 C 
ENDROOT
BRANCH   1   2
ATOM      2  C   UNL A   1      40.818  21.424  27.235  1.00  0.00     0.023 C 
BRANCH   2   3
ATOM      3  C   UNL A   1      39.635  21.991  26.445  1.00  0.00     0.116 C 
BRANCH   3   4
ATOM      4  N   UNL A   1      38.981  20.944  25.694  1.00  0.00    -0.352 N 
ATOM      5  C   UNL A   1      37.705  20.800  25.220  1.00  0.00     0.251 C 
ATOM      6  O   UNL A   1      37.464  19.782  24.569  1.00  0.00    -0.269 OA
ATOM      7  H   UNL A   1      39.569  20.185  25.480  1.00  0.00     0.163 HD
BRANCH   5   8
ATOM      8  C   UNL A   1      36.635  21.830  25.376  1.00  0.00     0.042 A 
ATOM      9  N   UNL A   1      33.316  24.328  25.273  1.00  0.00    -0.292 N 
ATOM     10  C   UNL A   1      32.287  23.376  25.098  1.00  0.00     0.329 A 
ATOM     11  C   UNL A   1      34.539  23.656  25.383  1.00  0.00     0.069 A 
ATOM     12  O   UNL A   1      31.088  23.606  24.985  1.00  0.00    -0.248 OA
ATOM     13  N   UNL A   1      32.914  22.111  25.084  1.00  0.00    -0.292 N 
ATOM     14  C   UNL A   1      34.296  22.292  25.224  1.00  0.00     0.070 A 
ATOM     15  C   UNL A   1      35.805  24.133  25.627  1.00  0.00     0.029 A 
ATOM     16  C   UNL A   1      35.319  21.369  25.205  1.00  0.00     0.042 A 
ATOM     17  C   UNL A   1      36.848  23.196  25.668  1.00  0.00     0.016 A 
BRANCH   9  18
ATOM     18  C   UNL A   1      33.128  25.755  25.298  1.00  0.00     0.124 C 
ATOM     19  C   UNL A   1      33.614  26.423  24.023  1.00  0.00     0.028 C 
ENDBRANCH   9  18
BRANCH  13  20
ATOM     20  C   UNL A   1      32.236  20.842  25.020  1.00  0.00     0.124 C 
ATOM     21  C   UNL A   1      32.516  20.083  23.734  1.00  0.00     0.028 C 
ENDBRANCH  13  20
ENDBRANCH   5   8
ENDBRANCH   3   4
ENDBRANCH   2   3
ENDBRANCH   1   2
BRANCH   1  22
ATOM     22  C   UNL A   1      42.611  19.606  27.006  1.00  0.00     0.116 C 
BRANCH  22  23
ATOM     23  N   UNL A   1      43.315  19.727  25.743  1.00  0.00    -0.352 N 
ATOM     24  C   UNL A   1      44.023  20.711  25.115  1.00  0.00     0.251 C 
ATOM     25  H   UNL A   1      43.271  18.901  25.210  1.00  0.00     0.163 HD
ATOM     26  O   UNL A   1      44.579  20.389  24.062  1.00  0.00    -0.269 OA
BRANCH  24  27
ATOM     27  C   UNL A   1      44.081  22.125  25.558  1.00  0.00     0.039 A 
ATOM     28  C   UNL A   1      44.947  22.625  26.529  1.00  0.00     0.014 A 
ATOM     29  C   UNL A   1      43.103  22.981  25.017  1.00  0.00     0.014 A 
ATOM     30  C   UNL A   1      44.721  23.865  27.092  1.00  0.00     0.010 A 
ATOM     31  C   UNL A   1      42.906  24.248  25.540  1.00  0.00     0.010 A 
ATOM     32  C   UNL A   1      43.658  24.641  26.640  1.00  0.00    -0.014 A 
BRANCH  32  33
ATOM     33  C   UNL A   1      43.412  25.890  27.340  1.00  0.00     0.031 A 
ATOM     34  C   UNL A   1      44.449  26.937  27.109  1.00  0.00     0.074 A 
ATOM     35  C   UNL A   1      42.305  26.076  28.085  1.00  0.00     0.049 A 
ATOM     36  N   UNL A   1      45.241  27.491  27.970  1.00  0.00    -0.248 NA
ATOM     37  C   UNL A   1      44.757  27.282  25.710  1.00  0.00     0.031 C 
ATOM     38  C   UNL A   1      41.126  25.216  28.216  1.00  0.00     0.029 A 
ATOM     39  N   UNL A   1      41.966  27.160  28.828  1.00  0.00    -0.354 N 
ATOM     40  C   UNL A   1      46.009  28.405  27.251  1.00  0.00     0.074 A 
ATOM     41  C   UNL A   1      45.779  28.124  25.858  1.00  0.00     0.031 C 
ATOM     42  C   UNL A   1      40.116  25.922  28.771  1.00  0.00     0.029 A 
ATOM     43  C   UNL A   1      40.620  27.223  29.168  1.00  0.00     0.049 A 
ATOM     44  H   UNL A   1      42.619  27.844  29.103  1.00  0.00     0.167 HD
ATOM     45  C   UNL A   1      46.636  29.457  27.847  1.00  0.00     0.037 A 
ATOM     46  C   UNL A   1      39.981  28.324  29.640  1.00  0.00     0.037 A 
ATOM     47  C   UNL A   1      46.788  29.252  29.262  1.00  0.00     0.049 A 
ATOM     48  C   UNL A   1      41.035  29.210  30.216  1.00  0.00     0.074 A 
ATOM     49  C   UNL A   1      47.480  28.334  30.029  1.00  0.00     0.029 A 
ATOM     50  N   UNL A   1      45.866  29.818  30.108  1.00  0.00    -0.354 N 
ATOM     51  N   UNL A   1      41.748  28.889  31.264  1.00  0.00    -0.248 NA
ATOM     52  C   UNL A   1      41.637  30.200  29.333  1.00  0.00     0.031 C 
ATOM     53  C   UNL A   1      46.610  28.034  31.118  1.00  0.00     0.029 A 
ATOM     54  C   UNL A   1      45.476  28.837  30.989  1.00  0.00     0.049 A 
ATOM     55  H   UNL A   1      45.544  30.748  30.087  1.00  0.00     0.167 HD
ATOM     56  C   UNL A   1      43.038  29.314  30.969  1.00  0.00     0.074 A 
ATOM     57  C   UNL A   1      42.896  30.156  29.781  1.00  0.00     0.031 C 
ATOM     58  C   UNL A   1      44.137  28.724  31.528  1.00  0.00     0.037 A 
BRANCH  45  59
ATOM     59  C   UNL A   1      46.835  30.795  27.183  1.00  0.00     0.058 A 
ATOM     60  C   UNL A   1      48.120  31.368  27.108  1.00  0.00     0.135 A 
ATOM     61  C   UNL A   1      45.763  31.655  26.849  1.00  0.00     0.135 A 
ATOM     62  F   UNL A   1      49.209  30.648  27.421  1.00  0.00    -0.206 F 
ATOM     63  C   UNL A   1      48.319  32.709  26.774  1.00  0.00     0.059 A 
ATOM     64  C   UNL A   1      45.943  32.977  26.463  1.00  0.00     0.059 A 
ATOM     65  F   UNL A   1      44.484  31.278  26.974  1.00  0.00    -0.206 F 
ATOM     66  C   UNL A   1      47.221  33.509  26.465  1.00  0.00     0.060 A 
BRANCH  66  67
ATOM     67  S   UNL A   1      47.466  35.263  26.134  1.00  0.00     0.124 S 
ATOM     68  O   UNL A   1      48.495  35.226  25.102  1.00  0.00    -0.237 OA
ATOM     69  O   UNL A   1      46.135  35.674  25.697  1.00  0.00    -0.237 OA
ATOM     70  O   UNL A   1      47.886  35.794  27.427  1.00  0.00    -0.744 OA
ENDBRANCH  66  67
ENDBRANCH  45  59
BRANCH  46  71
ATOM     71  C   UNL A   1      38.660  28.837  29.177  1.00  0.00     0.058 A 
ATOM     72  C   UNL A   1      37.611  29.071  30.083  1.00  0.00     0.135 A 
ATOM     73  C   UNL A   1      38.487  29.373  27.882  1.00  0.00     0.135 A 
ATOM     74  F   UNL A   1      37.698  28.618  31.344  1.00  0.00    -0.206 F 
ATOM     75  C   UNL A   1      36.484  29.832  29.744  1.00  0.00     0.059 A 
ATOM     76  C   UNL A   1      37.372  30.125  27.519  1.00  0.00     0.059 A 
ATOM     77  F   UNL A   1      39.445  29.262  26.950  1.00  0.00    -0.206 F 
ATOM     78  C   UNL A   1      36.385  30.375  28.463  1.00  0.00     0.060 A 
BRANCH  78  79
ATOM     79  S   UNL A   1      35.027  31.503  28.073  1.00  0.00     0.124 S 
ATOM     80  O   UNL A   1      34.219  30.700  27.162  1.00  0.00    -0.237 OA
ATOM     81  O   UNL A   1      34.447  31.754  29.388  1.00  0.00    -0.237 OA
ATOM     82  O   UNL A   1      35.700  32.648  27.463  1.00  0.00    -0.744 OA
ENDBRANCH  78  79
ENDBRANCH  46  71
BRANCH  58  83
ATOM     83  C   UNL A   1      43.929  27.715  32.633  1.00  0.00     0.058 A 
ATOM     84  C   UNL A   1      43.864  26.323  32.432  1.00  0.00     0.135 A 
ATOM     85  C   UNL A   1      43.957  28.161  33.962  1.00  0.00     0.135 A 
ATOM     86  F   UNL A   1      43.950  25.801  31.202  1.00  0.00    -0.206 F 
ATOM     87  C   UNL A   1      43.777  25.423  33.499  1.00  0.00     0.059 A 
ATOM     88  C   UNL A   1      43.903  27.282  35.042  1.00  0.00     0.059 A 
ATOM     89  F   UNL A   1      44.090  29.470  34.228  1.00  0.00    -0.206 F 
ATOM     90  C   UNL A   1      43.797  25.913  34.802  1.00  0.00     0.060 A 
BRANCH  90  91
ATOM     91  S   UNL A   1      43.731  24.748  36.182  1.00  0.00     0.124 S 
ATOM     92  O   UNL A   1      43.719  23.460  35.497  1.00  0.00    -0.237 OA
ATOM     93  O   UNL A   1      44.953  25.062  36.918  1.00  0.00    -0.237 OA
ATOM     94  O   UNL A   1      42.492  25.100  36.869  1.00  0.00    -0.744 OA
ENDBRANCH  90  91
ENDBRANCH  58  83
ENDBRANCH  32  33
ENDBRANCH  24  27
ENDBRANCH  22  23
ENDBRANCH   1  22
TORSDOF 16
ENDMDL
