MODEL 1
REMARK VINA RESULT:     -10.4      0.000      0.000
REMARK SMILES CCC[NH2+][C@@](C)(C[N@H+]1CCC(C)(C)C1)C(=O)NCCCCNC(=O)c1ccc(-c2c3nc(c(-c4c(F)cc(S(=O)(=O)[O-])cc4F)c4ccc([nH]4)c(-c4c(F)cc(S(=O)(=O)[O-])cc4F)c4nc(c(-c5c(F)cc(S(=O)(=O)[O-])cc5F)c5ccc2[nH]5)C=C4)C=C3)cc1
REMARK SMILES IDX 19 1 18 2 17 3 15 4 16 5 5 7 6 8 4 9 3 12 2 13 1 14 7 15
REMARK SMILES IDX 8 16 9 17 14 18 10 20 11 21 12 22 13 23 20 24 21 25 22 26
REMARK SMILES IDX 23 27 24 29 25 30 26 31 90 32 27 33 89 34 28 35 29 36 30 37
REMARK SMILES IDX 83 38 31 39 88 40 82 41 84 42 32 43 87 44 81 45 80 46 33 48
REMARK SMILES IDX 67 49 46 50 66 51 47 52 50 53 65 54 85 55 48 56 49 57 64 59
REMARK SMILES IDX 86 60 51 61 34 62 35 63 44 64 36 65 37 66 43 67 45 68 38 69
REMARK SMILES IDX 39 70 40 71 41 72 42 73 68 74 69 75 78 76 70 77 71 78 77 79
REMARK SMILES IDX 79 80 72 81 73 82 74 83 75 84 76 85 52 86 53 87 62 88 54 89
REMARK SMILES IDX 55 90 61 91 63 92 56 93 57 94 58 95 59 96 60 97
REMARK H PARENT 17 6 4 10 4 11 8 19 22 28 84 47 50 58
REMARK Flexibility Score: inf
ROOT
ATOM      1  C   UNL A   1      31.670  27.251  26.119  1.00  0.00     0.023 C 
ENDROOT
BRANCH   1   2
ATOM      2  C   UNL A   1      31.899  25.741  26.065  1.00  0.00     0.116 C 
BRANCH   2   3
ATOM      3  N   UNL A   1      31.663  25.199  24.742  1.00  0.00    -0.350 N 
ATOM      4  C   UNL A   1      31.666  23.930  24.235  1.00  0.00     0.287 C 
ATOM      5  O   UNL A   1      31.473  23.877  23.013  1.00  0.00    -0.268 OA
ATOM      6  H   UNL A   1      31.457  25.887  24.070  1.00  0.00     0.163 HD
BRANCH   4   7
ATOM      7  C   UNL A   1      31.841  22.647  25.131  1.00  0.00     0.221 C 
ATOM      8  C   UNL A   1      30.712  22.547  26.180  1.00  0.00     0.097 C 
BRANCH   7   9
ATOM      9  N   UNL A   1      31.800  21.391  24.305  1.00  0.00    -0.329 N 
ATOM     10  H   UNL A   1      30.848  21.282  23.955  1.00  0.00     0.347 HD
ATOM     11  H   UNL A   1      32.509  21.524  23.583  1.00  0.00     0.347 HD
BRANCH   9  12
ATOM     12  C   UNL A   1      32.169  20.149  24.981  1.00  0.00     0.261 C 
BRANCH  12  13
ATOM     13  C   UNL A   1      32.773  19.148  23.989  1.00  0.00     0.058 C 
ATOM     14  C   UNL A   1      32.903  17.738  24.551  1.00  0.00     0.010 C 
ENDBRANCH  12  13
ENDBRANCH   9  12
ENDBRANCH   7   9
BRANCH   7  15
ATOM     15  C   UNL A   1      33.229  22.706  25.871  1.00  0.00     0.341 C 
BRANCH  15  16
ATOM     16  N   UNL A   1      34.419  22.991  25.047  1.00  0.00    -0.329 N 
ATOM     17  C   UNL A   1      35.221  24.116  25.539  1.00  0.00     0.263 C 
ATOM     18  C   UNL A   1      35.310  21.837  24.879  1.00  0.00     0.269 C 
ATOM     19  H   UNL A   1      34.015  23.237  24.143  1.00  0.00     0.348 HD
ATOM     20  C   UNL A   1      36.677  23.671  25.509  1.00  0.00     0.073 C 
ATOM     21  C   UNL A   1      36.690  22.445  24.598  1.00  0.00     0.019 C 
ATOM     22  C   UNL A   1      36.835  22.856  23.124  1.00  0.00     0.017 C 
ATOM     23  C   UNL A   1      37.820  21.482  24.971  1.00  0.00     0.017 C 
ENDBRANCH  15  16
ENDBRANCH   7  15
ENDBRANCH   4   7
ENDBRANCH   2   3
ENDBRANCH   1   2
BRANCH   1  24
ATOM     24  C   UNL A   1      32.154  27.932  27.399  1.00  0.00     0.023 C 
BRANCH  24  25
ATOM     25  C   UNL A   1      33.494  28.650  27.288  1.00  0.00     0.116 C 
BRANCH  25  26
ATOM     26  N   UNL A   1      33.446  30.038  27.728  1.00  0.00    -0.352 N 
ATOM     27  C   UNL A   1      34.454  30.783  28.294  1.00  0.00     0.251 C 
ATOM     28  H   UNL A   1      32.586  30.500  27.605  1.00  0.00     0.163 HD
ATOM     29  O   UNL A   1      34.238  31.923  28.694  1.00  0.00    -0.269 OA
BRANCH  27  30
ATOM     30  C   UNL A   1      35.788  30.170  28.452  1.00  0.00     0.039 A 
ATOM     31  C   UNL A   1      36.662  30.161  27.363  1.00  0.00     0.014 A 
ATOM     32  C   UNL A   1      36.193  29.682  29.697  1.00  0.00     0.014 A 
ATOM     33  C   UNL A   1      37.980  29.738  27.546  1.00  0.00     0.010 A 
ATOM     34  C   UNL A   1      37.521  29.318  29.890  1.00  0.00     0.010 A 
ATOM     35  C   UNL A   1      38.430  29.356  28.819  1.00  0.00    -0.014 A 
BRANCH  35  36
ATOM     36  C   UNL A   1      39.849  29.008  29.071  1.00  0.00     0.031 A 
ATOM     37  C   UNL A   1      40.795  30.058  29.581  1.00  0.00     0.074 A 
ATOM     38  C   UNL A   1      40.304  27.782  28.746  1.00  0.00     0.049 A 
ATOM     39  N   UNL A   1      42.093  29.999  29.725  1.00  0.00    -0.248 NA
ATOM     40  C   UNL A   1      40.205  31.356  29.945  1.00  0.00     0.031 C 
ATOM     41  C   UNL A   1      39.491  26.693  28.199  1.00  0.00     0.029 A 
ATOM     42  N   UNL A   1      41.568  27.252  28.807  1.00  0.00    -0.354 N 
ATOM     43  C   UNL A   1      42.480  31.258  30.169  1.00  0.00     0.074 A 
ATOM     44  C   UNL A   1      41.283  32.069  30.237  1.00  0.00     0.031 C 
ATOM     45  C   UNL A   1      40.274  25.623  27.984  1.00  0.00     0.029 A 
ATOM     46  C   UNL A   1      41.648  25.960  28.342  1.00  0.00     0.049 A 
ATOM     47  H   UNL A   1      42.344  27.749  29.151  1.00  0.00     0.167 HD
ATOM     48  C   UNL A   1      43.717  31.691  30.506  1.00  0.00     0.037 A 
ATOM     49  C   UNL A   1      42.713  25.145  28.207  1.00  0.00     0.037 A 
ATOM     50  C   UNL A   1      44.897  30.868  30.473  1.00  0.00     0.049 A 
ATOM     51  C   UNL A   1      44.073  25.641  28.610  1.00  0.00     0.074 A 
ATOM     52  C   UNL A   1      46.187  31.196  30.853  1.00  0.00     0.029 A 
ATOM     53  N   UNL A   1      44.928  29.550  30.042  1.00  0.00    -0.354 N 
ATOM     54  N   UNL A   1      44.415  26.820  29.073  1.00  0.00    -0.248 NA
ATOM     55  C   UNL A   1      45.193  24.698  28.476  1.00  0.00     0.031 C 
ATOM     56  C   UNL A   1      47.003  30.082  30.628  1.00  0.00     0.029 A 
ATOM     57  C   UNL A   1      46.216  29.051  30.139  1.00  0.00     0.049 A 
ATOM     58  H   UNL A   1      44.150  29.043  29.715  1.00  0.00     0.167 HD
ATOM     59  C   UNL A   1      45.784  26.753  29.307  1.00  0.00     0.074 A 
ATOM     60  C   UNL A   1      46.206  25.417  28.941  1.00  0.00     0.031 C 
ATOM     61  C   UNL A   1      46.614  27.712  29.784  1.00  0.00     0.037 A 
BRANCH  48  62
ATOM     62  C   UNL A   1      43.853  33.122  30.943  1.00  0.00     0.058 A 
ATOM     63  C   UNL A   1      43.633  33.505  32.275  1.00  0.00     0.135 A 
ATOM     64  C   UNL A   1      44.220  34.118  30.025  1.00  0.00     0.135 A 
ATOM     65  F   UNL A   1      43.263  32.593  33.188  1.00  0.00    -0.206 F 
ATOM     66  C   UNL A   1      43.741  34.832  32.677  1.00  0.00     0.059 A 
ATOM     67  C   UNL A   1      44.357  35.449  30.409  1.00  0.00     0.059 A 
ATOM     68  F   UNL A   1      44.440  33.805  28.737  1.00  0.00    -0.206 F 
ATOM     69  C   UNL A   1      44.098  35.798  31.734  1.00  0.00     0.060 A 
BRANCH  69  70
ATOM     70  S   UNL A   1      44.226  37.518  32.266  1.00  0.00     0.124 S 
ATOM     71  O   UNL A   1      45.645  37.614  32.595  1.00  0.00    -0.237 OA
ATOM     72  O   UNL A   1      43.802  38.249  31.076  1.00  0.00    -0.237 OA
ATOM     73  O   UNL A   1      43.311  37.591  33.401  1.00  0.00    -0.744 OA
ENDBRANCH  69  70
ENDBRANCH  48  62
BRANCH  49  74
ATOM     74  C   UNL A   1      42.528  23.766  27.684  1.00  0.00     0.058 A 
ATOM     75  C   UNL A   1      42.498  23.522  26.304  1.00  0.00     0.135 A 
ATOM     76  C   UNL A   1      42.398  22.668  28.548  1.00  0.00     0.135 A 
ATOM     77  F   UNL A   1      42.614  24.542  25.440  1.00  0.00    -0.206 F 
ATOM     78  C   UNL A   1      42.333  22.238  25.795  1.00  0.00     0.059 A 
ATOM     79  C   UNL A   1      42.250  21.373  28.062  1.00  0.00     0.059 A 
ATOM     80  F   UNL A   1      42.436  22.850  29.877  1.00  0.00    -0.206 F 
ATOM     81  C   UNL A   1      42.211  21.169  26.683  1.00  0.00     0.060 A 
BRANCH  81  82
ATOM     82  S   UNL A   1      42.051  19.498  26.014  1.00  0.00     0.124 S 
ATOM     83  O   UNL A   1      42.892  19.576  24.827  1.00  0.00    -0.237 OA
ATOM     84  O   UNL A   1      42.564  18.677  27.108  1.00  0.00    -0.237 OA
ATOM     85  O   UNL A   1      40.618  19.373  25.769  1.00  0.00    -0.744 OA
ENDBRANCH  81  82
ENDBRANCH  49  74
BRANCH  61  86
ATOM     86  C   UNL A   1      48.058  27.347  29.970  1.00  0.00     0.058 A 
ATOM     87  C   UNL A   1      49.031  27.694  29.022  1.00  0.00     0.135 A 
ATOM     88  C   UNL A   1      48.479  26.705  31.145  1.00  0.00     0.135 A 
ATOM     89  F   UNL A   1      48.674  28.302  27.880  1.00  0.00    -0.206 F 
ATOM     90  C   UNL A   1      50.376  27.410  29.228  1.00  0.00     0.059 A 
ATOM     91  C   UNL A   1      49.822  26.428  31.381  1.00  0.00     0.059 A 
ATOM     92  F   UNL A   1      47.586  26.359  32.085  1.00  0.00    -0.206 F 
ATOM     93  C   UNL A   1      50.762  26.779  30.412  1.00  0.00     0.060 A 
BRANCH  93  94
ATOM     94  S   UNL A   1      52.517  26.464  30.698  1.00  0.00     0.124 S 
ATOM     95  O   UNL A   1      52.982  26.152  29.351  1.00  0.00    -0.237 OA
ATOM     96  O   UNL A   1      52.980  27.735  31.249  1.00  0.00    -0.237 OA
ATOM     97  O   UNL A   1      52.513  25.346  31.637  1.00  0.00    -0.744 OA
ENDBRANCH  93  94
ENDBRANCH  61  86
ENDBRANCH  35  36
ENDBRANCH  27  30
ENDBRANCH  25  26
ENDBRANCH  24  25
ENDBRANCH   1  24
TORSDOF 19
ENDMDL
MODEL 2
REMARK VINA RESULT:     -10.3      2.830      4.616
REMARK SMILES CCC[NH2+][C@@](C)(C[N@H+]1CCC(C)(C)C1)C(=O)NCCCCNC(=O)c1ccc(-c2c3nc(c(-c4c(F)cc(S(=O)(=O)[O-])cc4F)c4ccc([nH]4)c(-c4c(F)cc(S(=O)(=O)[O-])cc4F)c4nc(c(-c5c(F)cc(S(=O)(=O)[O-])cc5F)c5ccc2[nH]5)C=C4)C=C3)cc1
REMARK SMILES IDX 19 1 18 2 17 3 15 4 16 5 5 7 6 8 4 9 3 12 2 13 1 14 7 15
REMARK SMILES IDX 8 16 9 17 14 18 10 20 11 21 12 22 13 23 20 24 21 25 22 26
REMARK SMILES IDX 23 27 24 29 25 30 26 31 90 32 27 33 89 34 28 35 29 36 30 37
REMARK SMILES IDX 83 38 31 39 88 40 82 41 84 42 32 43 87 44 81 45 80 46 33 48
REMARK SMILES IDX 67 49 46 50 66 51 47 52 50 53 65 54 85 55 48 56 49 57 64 59
REMARK SMILES IDX 86 60 51 61 34 62 35 63 44 64 36 65 37 66 43 67 45 68 38 69
REMARK SMILES IDX 39 70 40 71 41 72 42 73 68 74 69 75 78 76 70 77 71 78 77 79
REMARK SMILES IDX 79 80 72 81 73 82 74 83 75 84 76 85 52 86 53 87 62 88 54 89
REMARK SMILES IDX 55 90 61 91 63 92 56 93 57 94 58 95 59 96 60 97
REMARK H PARENT 17 6 4 10 4 11 8 19 22 28 84 47 50 58
REMARK Flexibility Score: inf
ROOT
ATOM      1  C   UNL A   1      34.446  29.029  27.266  1.00  0.00     0.023 C 
ENDROOT
BRANCH   1   2
ATOM      2  C   UNL A   1      33.424  28.422  26.306  1.00  0.00     0.116 C 
BRANCH   2   3
ATOM      3  N   UNL A   1      33.655  28.827  24.934  1.00  0.00    -0.350 N 
ATOM      4  C   UNL A   1      33.162  28.398  23.734  1.00  0.00     0.287 C 
ATOM      5  O   UNL A   1      33.659  28.967  22.754  1.00  0.00    -0.268 OA
ATOM      6  H   UNL A   1      34.301  29.565  24.849  1.00  0.00     0.163 HD
BRANCH   4   7
ATOM      7  C   UNL A   1      32.023  27.318  23.611  1.00  0.00     0.221 C 
ATOM      8  C   UNL A   1      31.805  26.910  22.138  1.00  0.00     0.097 C 
BRANCH   7   9
ATOM      9  N   UNL A   1      32.363  26.071  24.378  1.00  0.00    -0.329 N 
ATOM     10  H   UNL A   1      32.415  25.302  23.711  1.00  0.00     0.347 HD
ATOM     11  H   UNL A   1      33.240  26.283  24.856  1.00  0.00     0.347 HD
BRANCH   9  12
ATOM     12  C   UNL A   1      31.436  25.677  25.437  1.00  0.00     0.261 C 
BRANCH  12  13
ATOM     13  C   UNL A   1      32.106  24.705  26.415  1.00  0.00     0.058 C 
ATOM     14  C   UNL A   1      33.573  24.441  26.100  1.00  0.00     0.010 C 
ENDBRANCH  12  13
ENDBRANCH   9  12
ENDBRANCH   7   9
BRANCH   7  15
ATOM     15  C   UNL A   1      30.679  27.901  24.188  1.00  0.00     0.341 C 
BRANCH  15  16
ATOM     16  N   UNL A   1      29.755  28.535  23.230  1.00  0.00    -0.329 N 
ATOM     17  C   UNL A   1      28.434  27.898  23.175  1.00  0.00     0.263 C 
ATOM     18  C   UNL A   1      29.556  29.970  23.463  1.00  0.00     0.269 C 
ATOM     19  H   UNL A   1      30.228  28.402  22.336  1.00  0.00     0.348 HD
ATOM     20  C   UNL A   1      27.400  29.015  23.212  1.00  0.00     0.073 C 
ATOM     21  C   UNL A   1      28.181  30.280  22.860  1.00  0.00     0.019 C 
ATOM     22  C   UNL A   1      28.263  30.469  21.336  1.00  0.00     0.017 C 
ATOM     23  C   UNL A   1      27.550  31.522  23.494  1.00  0.00     0.017 C 
ENDBRANCH  15  16
ENDBRANCH   7  15
ENDBRANCH   4   7
ENDBRANCH   2   3
ENDBRANCH   1   2
BRANCH   1  24
ATOM     24  C   UNL A   1      34.292  30.531  27.510  1.00  0.00     0.023 C 
BRANCH  24  25
ATOM     25  C   UNL A   1      35.494  31.214  28.151  1.00  0.00     0.116 C 
BRANCH  25  26
ATOM     26  N   UNL A   1      35.376  31.360  29.595  1.00  0.00    -0.352 N 
ATOM     27  C   UNL A   1      36.249  30.926  30.566  1.00  0.00     0.251 C 
ATOM     28  H   UNL A   1      34.572  31.827  29.917  1.00  0.00     0.163 HD
ATOM     29  O   UNL A   1      35.970  31.047  31.755  1.00  0.00    -0.269 OA
BRANCH  27  30
ATOM     30  C   UNL A   1      37.504  30.270  30.150  1.00  0.00     0.039 A 
ATOM     31  C   UNL A   1      37.879  30.317  28.806  1.00  0.00     0.014 A 
ATOM     32  C   UNL A   1      38.340  29.685  31.105  1.00  0.00     0.014 A 
ATOM     33  C   UNL A   1      39.139  29.850  28.429  1.00  0.00     0.010 A 
ATOM     34  C   UNL A   1      39.617  29.276  30.736  1.00  0.00     0.010 A 
ATOM     35  C   UNL A   1      40.033  29.367  29.398  1.00  0.00    -0.014 A 
BRANCH  35  36
ATOM     36  C   UNL A   1      41.417  28.967  29.049  1.00  0.00     0.031 A 
ATOM     37  C   UNL A   1      42.509  30.000  29.026  1.00  0.00     0.074 A 
ATOM     38  C   UNL A   1      41.669  27.703  28.656  1.00  0.00     0.049 A 
ATOM     39  N   UNL A   1      43.743  29.888  28.609  1.00  0.00    -0.248 NA
ATOM     40  C   UNL A   1      42.154  31.346  29.504  1.00  0.00     0.031 C 
ATOM     41  C   UNL A   1      40.682  26.623  28.592  1.00  0.00     0.029 A 
ATOM     42  N   UNL A   1      42.828  27.117  28.215  1.00  0.00    -0.354 N 
ATOM     43  C   UNL A   1      44.304  31.151  28.748  1.00  0.00     0.074 A 
ATOM     44  C   UNL A   1      43.265  32.022  29.255  1.00  0.00     0.031 C 
ATOM     45  C   UNL A   1      41.279  25.505  28.148  1.00  0.00     0.029 A 
ATOM     46  C   UNL A   1      42.680  25.796  27.861  1.00  0.00     0.049 A 
ATOM     47  H   UNL A   1      43.686  27.597  28.157  1.00  0.00     0.167 HD
ATOM     48  C   UNL A   1      45.573  31.544  28.492  1.00  0.00     0.037 A 
ATOM     49  C   UNL A   1      43.570  24.924  27.349  1.00  0.00     0.037 A 
ATOM     50  C   UNL A   1      46.612  30.665  28.025  1.00  0.00     0.049 A 
ATOM     51  C   UNL A   1      44.981  25.377  27.097  1.00  0.00     0.074 A 
ATOM     52  C   UNL A   1      47.945  30.952  27.794  1.00  0.00     0.029 A 
ATOM     53  N   UNL A   1      46.433  29.322  27.724  1.00  0.00    -0.354 N 
ATOM     54  N   UNL A   1      45.508  26.565  27.279  1.00  0.00    -0.248 NA
ATOM     55  C   UNL A   1      45.920  24.376  26.572  1.00  0.00     0.031 C 
ATOM     56  C   UNL A   1      48.568  29.789  27.330  1.00  0.00     0.029 A 
ATOM     57  C   UNL A   1      47.630  28.768  27.303  1.00  0.00     0.049 A 
ATOM     58  H   UNL A   1      45.581  28.834  27.799  1.00  0.00     0.167 HD
ATOM     59  C   UNL A   1      46.844  26.447  26.913  1.00  0.00     0.074 A 
ATOM     60  C   UNL A   1      47.047  25.072  26.505  1.00  0.00     0.031 C 
ATOM     61  C   UNL A   1      47.815  27.393  26.916  1.00  0.00     0.037 A 
BRANCH  48  62
ATOM     62  C   UNL A   1      45.907  32.991  28.719  1.00  0.00     0.058 A 
ATOM     63  C   UNL A   1      45.762  33.945  27.699  1.00  0.00     0.135 A 
ATOM     64  C   UNL A   1      46.363  33.432  29.971  1.00  0.00     0.135 A 
ATOM     65  F   UNL A   1      45.346  33.571  26.479  1.00  0.00    -0.206 F 
ATOM     66  C   UNL A   1      46.088  35.281  27.902  1.00  0.00     0.059 A 
ATOM     67  C   UNL A   1      46.673  34.769  30.204  1.00  0.00     0.059 A 
ATOM     68  F   UNL A   1      46.521  32.560  30.980  1.00  0.00    -0.206 F 
ATOM     69  C   UNL A   1      46.548  35.683  29.158  1.00  0.00     0.060 A 
BRANCH  69  70
ATOM     70  S   UNL A   1      46.977  37.418  29.407  1.00  0.00     0.124 S 
ATOM     71  O   UNL A   1      48.435  37.366  29.359  1.00  0.00    -0.237 OA
ATOM     72  O   UNL A   1      46.330  38.070  28.273  1.00  0.00    -0.237 OA
ATOM     73  O   UNL A   1      46.402  37.725  30.714  1.00  0.00    -0.744 OA
ENDBRANCH  69  70
ENDBRANCH  48  62
BRANCH  49  74
ATOM     74  C   UNL A   1      43.156  23.526  27.062  1.00  0.00     0.058 A 
ATOM     75  C   UNL A   1      42.908  23.109  25.747  1.00  0.00     0.135 A 
ATOM     76  C   UNL A   1      43.020  22.579  28.088  1.00  0.00     0.135 A 
ATOM     77  F   UNL A   1      43.021  23.982  24.734  1.00  0.00    -0.206 F 
ATOM     78  C   UNL A   1      42.526  21.803  25.457  1.00  0.00     0.059 A 
ATOM     79  C   UNL A   1      42.657  21.262  27.821  1.00  0.00     0.059 A 
ATOM     80  F   UNL A   1      43.263  22.926  29.361  1.00  0.00    -0.206 F 
ATOM     81  C   UNL A   1      42.405  20.886  26.502  1.00  0.00     0.060 A 
BRANCH  81  82
ATOM     82  S   UNL A   1      41.961  19.179  26.112  1.00  0.00     0.124 S 
ATOM     83  O   UNL A   1      42.834  18.900  24.978  1.00  0.00    -0.237 OA
ATOM     84  O   UNL A   1      42.286  18.483  27.354  1.00  0.00    -0.237 OA
ATOM     85  O   UNL A   1      40.536  19.265  25.808  1.00  0.00    -0.744 OA
ENDBRANCH  81  82
ENDBRANCH  49  74
BRANCH  61  86
ATOM     86  C   UNL A   1      49.193  26.970  26.498  1.00  0.00     0.058 A 
ATOM     87  C   UNL A   1      50.110  26.442  27.419  1.00  0.00     0.135 A 
ATOM     88  C   UNL A   1      49.573  27.029  25.148  1.00  0.00     0.135 A 
ATOM     89  F   UNL A   1      49.794  26.372  28.722  1.00  0.00    -0.206 F 
ATOM     90  C   UNL A   1      51.362  25.992  27.017  1.00  0.00     0.059 A 
ATOM     91  C   UNL A   1      50.813  26.567  24.721  1.00  0.00     0.059 A 
ATOM     92  F   UNL A   1      48.728  27.520  24.228  1.00  0.00    -0.206 F 
ATOM     93  C   UNL A   1      51.704  26.056  25.665  1.00  0.00     0.060 A 
BRANCH  93  94
ATOM     94  S   UNL A   1      53.310  25.418  25.142  1.00  0.00     0.124 S 
ATOM     95  O   UNL A   1      53.319  25.768  23.726  1.00  0.00    -0.237 OA
ATOM     96  O   UNL A   1      54.237  26.168  25.986  1.00  0.00    -0.237 OA
ATOM     97  O   UNL A   1      53.220  23.991  25.438  1.00  0.00    -0.744 OA
ENDBRANCH  93  94
ENDBRANCH  61  86
ENDBRANCH  35  36
ENDBRANCH  27  30
ENDBRANCH  25  26
ENDBRANCH  24  25
ENDBRANCH   1  24
TORSDOF 19
ENDMDL
MODEL 3
REMARK VINA RESULT:     -10.2      5.269      9.936
REMARK SMILES CCC[NH2+][C@@](C)(C[N@H+]1CCC(C)(C)C1)C(=O)NCCCCNC(=O)c1ccc(-c2c3nc(c(-c4c(F)cc(S(=O)(=O)[O-])cc4F)c4ccc([nH]4)c(-c4c(F)cc(S(=O)(=O)[O-])cc4F)c4nc(c(-c5c(F)cc(S(=O)(=O)[O-])cc5F)c5ccc2[nH]5)C=C4)C=C3)cc1
REMARK SMILES IDX 19 1 18 2 17 3 15 4 16 5 5 7 6 8 4 9 3 12 2 13 1 14 7 15
REMARK SMILES IDX 8 16 9 17 14 18 10 20 11 21 12 22 13 23 20 24 21 25 22 26
REMARK SMILES IDX 23 27 24 29 25 30 26 31 90 32 27 33 89 34 28 35 29 36 30 37
REMARK SMILES IDX 83 38 31 39 88 40 82 41 84 42 32 43 87 44 81 45 80 46 33 48
REMARK SMILES IDX 67 49 46 50 66 51 47 52 50 53 65 54 85 55 48 56 49 57 64 59
REMARK SMILES IDX 86 60 51 61 34 62 35 63 44 64 36 65 37 66 43 67 45 68 38 69
REMARK SMILES IDX 39 70 40 71 41 72 42 73 68 74 69 75 78 76 70 77 71 78 77 79
REMARK SMILES IDX 79 80 72 81 73 82 74 83 75 84 76 85 52 86 53 87 62 88 54 89
REMARK SMILES IDX 55 90 61 91 63 92 56 93 57 94 58 95 59 96 60 97
REMARK H PARENT 17 6 4 10 4 11 8 19 22 28 84 47 50 58
REMARK Flexibility Score: inf
ROOT
ATOM      1  C   UNL A   1      37.824  22.199  25.680  1.00  0.00     0.023 C 
ENDROOT
BRANCH   1   2
ATOM      2  C   UNL A   1      36.520  21.463  25.379  1.00  0.00     0.116 C 
BRANCH   2   3
ATOM      3  N   UNL A   1      35.606  21.487  26.503  1.00  0.00    -0.350 N 
ATOM      4  C   UNL A   1      34.299  21.861  26.641  1.00  0.00     0.287 C 
ATOM      5  O   UNL A   1      33.876  21.791  27.803  1.00  0.00    -0.268 OA
ATOM      6  H   UNL A   1      36.011  21.166  27.340  1.00  0.00     0.163 HD
BRANCH   4   7
ATOM      7  C   UNL A   1      33.395  22.289  25.425  1.00  0.00     0.221 C 
ATOM      8  C   UNL A   1      31.901  22.276  25.816  1.00  0.00     0.097 C 
BRANCH   7   9
ATOM      9  N   UNL A   1      33.726  23.679  24.958  1.00  0.00    -0.329 N 
ATOM     10  H   UNL A   1      34.741  23.771  24.952  1.00  0.00     0.347 HD
ATOM     11  H   UNL A   1      33.283  23.765  24.043  1.00  0.00     0.347 HD
BRANCH   9  12
ATOM     12  C   UNL A   1      33.187  24.784  25.749  1.00  0.00     0.261 C 
BRANCH  12  13
ATOM     13  C   UNL A   1      33.952  26.082  25.466  1.00  0.00     0.058 C 
ATOM     14  C   UNL A   1      33.496  27.256  26.322  1.00  0.00     0.010 C 
ENDBRANCH  12  13
ENDBRANCH   9  12
ENDBRANCH   7   9
BRANCH   7  15
ATOM     15  C   UNL A   1      33.623  21.298  24.224  1.00  0.00     0.341 C 
BRANCH  15  16
ATOM     16  N   UNL A   1      33.013  19.960  24.332  1.00  0.00    -0.329 N 
ATOM     17  C   UNL A   1      32.131  19.622  23.210  1.00  0.00     0.263 C 
ATOM     18  C   UNL A   1      33.992  18.876  24.482  1.00  0.00     0.269 C 
ATOM     19  H   UNL A   1      32.459  20.031  25.185  1.00  0.00     0.348 HD
ATOM     20  C   UNL A   1      32.487  18.207  22.774  1.00  0.00     0.073 C 
ATOM     21  C   UNL A   1      33.281  17.627  23.944  1.00  0.00     0.019 C 
ATOM     22  C   UNL A   1      32.341  17.017  24.997  1.00  0.00     0.017 C 
ATOM     23  C   UNL A   1      34.278  16.566  23.474  1.00  0.00     0.017 C 
ENDBRANCH  15  16
ENDBRANCH   7  15
ENDBRANCH   4   7
ENDBRANCH   2   3
ENDBRANCH   1   2
BRANCH   1  24
ATOM     24  C   UNL A   1      37.663  23.671  26.061  1.00  0.00     0.023 C 
BRANCH  24  25
ATOM     25  C   UNL A   1      38.864  24.299  26.757  1.00  0.00     0.116 C 
BRANCH  25  26
ATOM     26  N   UNL A   1      39.882  24.782  25.834  1.00  0.00    -0.352 N 
ATOM     27  C   UNL A   1      40.809  25.778  26.038  1.00  0.00     0.251 C 
ATOM     28  H   UNL A   1      39.911  24.342  24.955  1.00  0.00     0.163 HD
ATOM     29  O   UNL A   1      41.552  26.135  25.129  1.00  0.00    -0.269 OA
BRANCH  27  30
ATOM     30  C   UNL A   1      40.860  26.440  27.357  1.00  0.00     0.039 A 
ATOM     31  C   UNL A   1      41.696  27.546  27.527  1.00  0.00     0.014 A 
ATOM     32  C   UNL A   1      40.022  26.012  28.390  1.00  0.00     0.014 A 
ATOM     33  C   UNL A   1      41.628  28.280  28.713  1.00  0.00     0.010 A 
ATOM     34  C   UNL A   1      39.914  26.780  29.545  1.00  0.00     0.010 A 
ATOM     35  C   UNL A   1      40.706  27.928  29.711  1.00  0.00    -0.014 A 
BRANCH  35  36
ATOM     36  C   UNL A   1      40.530  28.749  30.932  1.00  0.00     0.031 A 
ATOM     37  C   UNL A   1      39.491  29.834  30.959  1.00  0.00     0.074 A 
ATOM     38  C   UNL A   1      41.370  28.586  31.973  1.00  0.00     0.049 A 
ATOM     39  N   UNL A   1      39.278  30.752  31.865  1.00  0.00    -0.248 NA
ATOM     40  C   UNL A   1      38.594  29.916  29.795  1.00  0.00     0.031 C 
ATOM     41  C   UNL A   1      42.449  27.598  32.046  1.00  0.00     0.029 A 
ATOM     42  N   UNL A   1      41.463  29.265  33.163  1.00  0.00    -0.354 N 
ATOM     43  C   UNL A   1      38.244  31.537  31.370  1.00  0.00     0.074 A 
ATOM     44  C   UNL A   1      37.896  31.008  30.069  1.00  0.00     0.031 C 
ATOM     45  C   UNL A   1      43.088  27.728  33.220  1.00  0.00     0.029 A 
ATOM     46  C   UNL A   1      42.490  28.830  33.968  1.00  0.00     0.049 A 
ATOM     47  H   UNL A   1      40.852  29.994  33.416  1.00  0.00     0.167 HD
ATOM     48  C   UNL A   1      37.630  32.591  31.957  1.00  0.00     0.037 A 
ATOM     49  C   UNL A   1      42.910  29.280  35.166  1.00  0.00     0.037 A 
ATOM     50  C   UNL A   1      37.954  33.088  33.267  1.00  0.00     0.049 A 
ATOM     51  C   UNL A   1      42.196  30.437  35.808  1.00  0.00     0.074 A 
ATOM     52  C   UNL A   1      37.349  34.111  33.975  1.00  0.00     0.029 A 
ATOM     53  N   UNL A   1      38.969  32.589  34.072  1.00  0.00    -0.354 N 
ATOM     54  N   UNL A   1      41.188  31.139  35.347  1.00  0.00    -0.248 NA
ATOM     55  C   UNL A   1      42.672  30.863  37.132  1.00  0.00     0.031 C 
ATOM     56  C   UNL A   1      38.015  34.248  35.198  1.00  0.00     0.029 A 
ATOM     57  C   UNL A   1      39.013  33.289  35.266  1.00  0.00     0.049 A 
ATOM     58  H   UNL A   1      39.570  31.847  33.830  1.00  0.00     0.167 HD
ATOM     59  C   UNL A   1      40.895  32.074  36.334  1.00  0.00     0.074 A 
ATOM     60  C   UNL A   1      41.828  31.845  37.418  1.00  0.00     0.031 C 
ATOM     61  C   UNL A   1      39.939  33.034  36.339  1.00  0.00     0.037 A 
BRANCH  48  62
ATOM     62  C   UNL A   1      36.540  33.274  31.181  1.00  0.00     0.058 A 
ATOM     63  C   UNL A   1      35.185  33.077  31.491  1.00  0.00     0.135 A 
ATOM     64  C   UNL A   1      36.852  34.147  30.127  1.00  0.00     0.135 A 
ATOM     65  F   UNL A   1      34.834  32.239  32.478  1.00  0.00    -0.206 F 
ATOM     66  C   UNL A   1      34.176  33.694  30.761  1.00  0.00     0.059 A 
ATOM     67  C   UNL A   1      35.859  34.795  29.397  1.00  0.00     0.059 A 
ATOM     68  F   UNL A   1      38.133  34.369  29.788  1.00  0.00    -0.206 F 
ATOM     69  C   UNL A   1      34.523  34.548  29.712  1.00  0.00     0.060 A 
BRANCH  69  70
ATOM     70  S   UNL A   1      33.203  35.337  28.767  1.00  0.00     0.124 S 
ATOM     71  O   UNL A   1      32.444  35.997  29.825  1.00  0.00    -0.237 OA
ATOM     72  O   UNL A   1      33.941  36.223  27.872  1.00  0.00    -0.237 OA
ATOM     73  O   UNL A   1      32.532  34.214  28.120  1.00  0.00    -0.744 OA
ENDBRANCH  69  70
ENDBRANCH  48  62
BRANCH  49  74
ATOM     74  C   UNL A   1      44.053  28.618  35.847  1.00  0.00     0.058 A 
ATOM     75  C   UNL A   1      43.838  27.560  36.741  1.00  0.00     0.135 A 
ATOM     76  C   UNL A   1      45.377  29.013  35.605  1.00  0.00     0.135 A 
ATOM     77  F   UNL A   1      42.588  27.151  37.008  1.00  0.00    -0.206 F 
ATOM     78  C   UNL A   1      44.895  26.922  37.383  1.00  0.00     0.059 A 
ATOM     79  C   UNL A   1      46.452  28.379  36.220  1.00  0.00     0.059 A 
ATOM     80  F   UNL A   1      45.635  30.010  34.744  1.00  0.00    -0.206 F 
ATOM     81  C   UNL A   1      46.199  27.339  37.115  1.00  0.00     0.060 A 
BRANCH  81  82
ATOM     82  S   UNL A   1      47.569  26.471  37.911  1.00  0.00     0.124 S 
ATOM     83  O   UNL A   1      46.959  26.050  39.166  1.00  0.00    -0.237 OA
ATOM     84  O   UNL A   1      47.859  25.407  36.954  1.00  0.00    -0.237 OA
ATOM     85  O   UNL A   1      48.598  27.500  38.020  1.00  0.00    -0.744 OA
ENDBRANCH  81  82
ENDBRANCH  49  74
BRANCH  61  86
ATOM     86  C   UNL A   1      39.827  33.890  37.568  1.00  0.00     0.058 A 
ATOM     87  C   UNL A   1      40.491  35.121  37.668  1.00  0.00     0.135 A 
ATOM     88  C   UNL A   1      38.988  33.505  38.625  1.00  0.00     0.135 A 
ATOM     89  F   UNL A   1      41.309  35.529  36.685  1.00  0.00    -0.206 F 
ATOM     90  C   UNL A   1      40.333  35.941  38.780  1.00  0.00     0.059 A 
ATOM     91  C   UNL A   1      38.801  34.317  39.739  1.00  0.00     0.059 A 
ATOM     92  F   UNL A   1      38.326  32.338  38.573  1.00  0.00    -0.206 F 
ATOM     93  C   UNL A   1      39.484  35.531  39.809  1.00  0.00     0.060 A 
BRANCH  93  94
ATOM     94  S   UNL A   1      39.241  36.626  41.224  1.00  0.00     0.124 S 
ATOM     95  O   UNL A   1      40.580  36.658  41.804  1.00  0.00    -0.237 OA
ATOM     96  O   UNL A   1      38.795  37.864  40.592  1.00  0.00    -0.237 OA
ATOM     97  O   UNL A   1      38.228  35.936  42.017  1.00  0.00    -0.744 OA
ENDBRANCH  93  94
ENDBRANCH  61  86
ENDBRANCH  35  36
ENDBRANCH  27  30
ENDBRANCH  25  26
ENDBRANCH  24  25
ENDBRANCH   1  24
TORSDOF 19
ENDMDL
