MODEL 1
REMARK VINA RESULT:     -10.3      0.000      0.000
REMARK SMILES CCC(CC)([NH2+]Cc1ccc(I)cc1)C(=O)NCCCCNC(=O)c1ccc(-c2c3nc(c(-c4c(F)cc(S(=O)(=O)[O-])cc4F)c4ccc([nH]4)c(-c4c(F)cc(S(=O)(=O)[O-])cc4F)c4nc(c(-c5c(F)cc(S(=O)(=O)[O-])cc5F)c5ccc2[nH]5)C=C4)C=C3)cc1
REMARK SMILES IDX 19 1 18 2 17 3 15 4 16 5 3 7 2 8 1 9 4 10 5 11 6 12 7 15
REMARK SMILES IDX 8 16 9 17 14 18 10 19 13 20 11 21 12 22 20 23 21 24 22 25
REMARK SMILES IDX 23 26 24 28 25 29 26 30 90 31 27 32 89 33 28 34 29 35 30 36
REMARK SMILES IDX 83 37 31 38 88 39 82 40 84 41 32 42 87 43 81 44 80 45 33 47
REMARK SMILES IDX 67 48 46 49 66 50 47 51 50 52 65 53 85 54 48 55 49 56 64 58
REMARK SMILES IDX 86 59 51 60 34 61 35 62 44 63 36 64 37 65 43 66 45 67 38 68
REMARK SMILES IDX 39 69 40 70 41 71 42 72 68 73 69 74 78 75 70 76 71 77 77 78
REMARK SMILES IDX 79 79 72 80 73 81 74 82 75 83 76 84 52 85 53 86 62 87 54 88
REMARK SMILES IDX 55 89 61 90 63 91 56 92 57 93 58 94 59 95 60 96
REMARK H PARENT 17 6 6 13 6 14 22 27 84 46 50 57
REMARK Flexibility Score: inf
ROOT
ATOM      1  C   UNL A   1      37.216  21.709  25.353  1.00  0.00     0.023 C 
ENDROOT
BRANCH   1   2
ATOM      2  C   UNL A   1      35.798  21.128  25.447  1.00  0.00     0.116 C 
BRANCH   2   3
ATOM      3  N   UNL A   1      34.992  21.961  26.307  1.00  0.00    -0.351 N 
ATOM      4  C   UNL A   1      33.955  22.801  26.052  1.00  0.00     0.281 C 
ATOM      5  O   UNL A   1      33.831  23.683  26.916  1.00  0.00    -0.268 OA
ATOM      6  H   UNL A   1      35.241  21.912  27.258  1.00  0.00     0.163 HD
BRANCH   4   7
ATOM      7  C   UNL A   1      32.904  22.647  24.875  1.00  0.00     0.175 C 
BRANCH   7   8
ATOM      8  C   UNL A   1      32.351  21.166  25.033  1.00  0.00     0.076 C 
ATOM      9  C   UNL A   1      32.480  20.254  23.806  1.00  0.00     0.011 C 
ENDBRANCH   7   8
BRANCH   7  10
ATOM     10  C   UNL A   1      33.570  22.777  23.482  1.00  0.00     0.076 C 
ATOM     11  C   UNL A   1      34.544  23.958  23.335  1.00  0.00     0.011 C 
ENDBRANCH   7  10
BRANCH   7  12
ATOM     12  N   UNL A   1      31.655  23.447  24.999  1.00  0.00    -0.330 N 
ATOM     13  H   UNL A   1      31.966  24.355  25.347  1.00  0.00     0.347 HD
ATOM     14  H   UNL A   1      31.099  22.778  25.530  1.00  0.00     0.347 HD
BRANCH  12  15
ATOM     15  C   UNL A   1      30.686  23.763  23.971  1.00  0.00     0.298 C 
BRANCH  15  16
ATOM     16  C   UNL A   1      30.468  25.190  23.487  1.00  0.00     0.006 A 
ATOM     17  C   UNL A   1      31.333  25.906  22.656  1.00  0.00     0.010 A 
ATOM     18  C   UNL A   1      29.305  25.863  23.912  1.00  0.00     0.010 A 
ATOM     19  C   UNL A   1      31.112  27.250  22.327  1.00  0.00     0.015 A 
ATOM     20  C   UNL A   1      29.056  27.201  23.569  1.00  0.00     0.015 A 
ATOM     21  C   UNL A   1      29.973  27.895  22.789  1.00  0.00     0.013 A 
ATOM     22  I   UNL A   1      29.645  29.886  22.299  1.00  0.00    -0.044 I 
ENDBRANCH  15  16
ENDBRANCH  12  15
ENDBRANCH   7  12
ENDBRANCH   4   7
ENDBRANCH   2   3
ENDBRANCH   1   2
BRANCH   1  23
ATOM     23  C   UNL A   1      38.318  20.702  25.043  1.00  0.00     0.023 C 
BRANCH  23  24
ATOM     24  C   UNL A   1      39.513  20.769  25.978  1.00  0.00     0.116 C 
BRANCH  24  25
ATOM     25  N   UNL A   1      40.310  19.548  25.998  1.00  0.00    -0.352 N 
ATOM     26  C   UNL A   1      41.668  19.427  26.185  1.00  0.00     0.251 C 
ATOM     27  H   UNL A   1      39.816  18.707  25.862  1.00  0.00     0.163 HD
ATOM     28  O   UNL A   1      42.219  18.335  26.080  1.00  0.00    -0.269 OA
BRANCH  26  29
ATOM     29  C   UNL A   1      42.452  20.647  26.465  1.00  0.00     0.039 A 
ATOM     30  C   UNL A   1      43.018  21.351  25.401  1.00  0.00     0.014 A 
ATOM     31  C   UNL A   1      42.536  21.140  27.770  1.00  0.00     0.014 A 
ATOM     32  C   UNL A   1      43.597  22.598  25.638  1.00  0.00     0.010 A 
ATOM     33  C   UNL A   1      43.030  22.419  27.988  1.00  0.00     0.010 A 
ATOM     34  C   UNL A   1      43.565  23.162  26.925  1.00  0.00    -0.014 A 
BRANCH  34  35
ATOM     35  C   UNL A   1      44.087  24.527  27.188  1.00  0.00     0.031 A 
ATOM     36  C   UNL A   1      43.139  25.624  27.589  1.00  0.00     0.074 A 
ATOM     37  C   UNL A   1      45.392  24.796  26.984  1.00  0.00     0.049 A 
ATOM     38  N   UNL A   1      43.378  26.897  27.769  1.00  0.00    -0.248 NA
ATOM     39  C   UNL A   1      41.728  25.246  27.773  1.00  0.00     0.031 C 
ATOM     40  C   UNL A   1      46.398  23.832  26.530  1.00  0.00     0.029 A 
ATOM     41  N   UNL A   1      46.096  25.967  27.121  1.00  0.00    -0.354 N 
ATOM     42  C   UNL A   1      42.148  27.472  28.068  1.00  0.00     0.074 A 
ATOM     43  C   UNL A   1      41.158  26.421  27.983  1.00  0.00     0.031 C 
ATOM     44  C   UNL A   1      47.590  24.444  26.449  1.00  0.00     0.029 A 
ATOM     45  C   UNL A   1      47.430  25.850  26.811  1.00  0.00     0.049 A 
ATOM     46  H   UNL A   1      45.684  26.811  27.414  1.00  0.00     0.167 HD
ATOM     47  C   UNL A   1      41.874  28.752  28.411  1.00  0.00     0.037 A 
ATOM     48  C   UNL A   1      48.413  26.772  26.815  1.00  0.00     0.037 A 
ATOM     49  C   UNL A   1      42.870  29.782  28.531  1.00  0.00     0.049 A 
ATOM     50  C   UNL A   1      48.091  28.181  27.230  1.00  0.00     0.074 A 
ATOM     51  C   UNL A   1      42.705  31.096  28.933  1.00  0.00     0.029 A 
ATOM     52  N   UNL A   1      44.219  29.613  28.256  1.00  0.00    -0.354 N 
ATOM     53  N   UNL A   1      46.932  28.694  27.572  1.00  0.00    -0.248 NA
ATOM     54  C   UNL A   1      49.207  29.135  27.271  1.00  0.00     0.031 C 
ATOM     55  C   UNL A   1      43.952  31.730  28.870  1.00  0.00     0.029 A 
ATOM     56  C   UNL A   1      44.898  30.800  28.468  1.00  0.00     0.049 A 
ATOM     57  H   UNL A   1      44.632  28.772  27.952  1.00  0.00     0.167 HD
ATOM     58  C   UNL A   1      47.184  30.024  27.890  1.00  0.00     0.074 A 
ATOM     59  C   UNL A   1      48.606  30.233  27.712  1.00  0.00     0.031 C 
ATOM     60  C   UNL A   1      46.317  30.985  28.293  1.00  0.00     0.037 A 
BRANCH  47  61
ATOM     61  C   UNL A   1      40.438  29.097  28.698  1.00  0.00     0.058 A 
ATOM     62  C   UNL A   1      39.519  29.332  27.661  1.00  0.00     0.135 A 
ATOM     63  C   UNL A   1      39.971  29.185  30.018  1.00  0.00     0.135 A 
ATOM     64  F   UNL A   1      39.917  29.279  26.380  1.00  0.00    -0.206 F 
ATOM     65  C   UNL A   1      38.199  29.680  27.924  1.00  0.00     0.059 A 
ATOM     66  C   UNL A   1      38.646  29.502  30.305  1.00  0.00     0.059 A 
ATOM     67  F   UNL A   1      40.806  28.970  31.047  1.00  0.00    -0.206 F 
ATOM     68  C   UNL A   1      37.773  29.766  29.250  1.00  0.00     0.060 A 
BRANCH  68  69
ATOM     69  S   UNL A   1      36.058  30.226  29.575  1.00  0.00     0.124 S 
ATOM     70  O   UNL A   1      35.841  29.626  30.889  1.00  0.00    -0.237 OA
ATOM     71  O   UNL A   1      36.112  31.684  29.545  1.00  0.00    -0.237 OA
ATOM     72  O   UNL A   1      35.326  29.607  28.474  1.00  0.00    -0.744 OA
ENDBRANCH  68  69
ENDBRANCH  47  61
BRANCH  48  73
ATOM     73  C   UNL A   1      49.798  26.381  26.444  1.00  0.00     0.058 A 
ATOM     74  C   UNL A   1      50.712  25.955  27.420  1.00  0.00     0.135 A 
ATOM     75  C   UNL A   1      50.232  26.404  25.109  1.00  0.00     0.135 A 
ATOM     76  F   UNL A   1      50.347  25.922  28.710  1.00  0.00    -0.206 F 
ATOM     77  C   UNL A   1      52.010  25.579  27.089  1.00  0.00     0.059 A 
ATOM     78  C   UNL A   1      51.517  26.010  24.751  1.00  0.00     0.059 A 
ATOM     79  F   UNL A   1      49.390  26.786  24.136  1.00  0.00    -0.206 F 
ATOM     80  C   UNL A   1      52.403  25.608  25.750  1.00  0.00     0.060 A 
BRANCH  80  81
ATOM     81  S   UNL A   1      54.072  25.063  25.326  1.00  0.00     0.124 S 
ATOM     82  O   UNL A   1      53.829  23.699  24.873  1.00  0.00    -0.237 OA
ATOM     83  O   UNL A   1      54.455  26.021  24.293  1.00  0.00    -0.237 OA
ATOM     84  O   UNL A   1      54.797  25.192  26.587  1.00  0.00    -0.744 OA
ENDBRANCH  80  81
ENDBRANCH  48  73
BRANCH  60  85
ATOM     85  C   UNL A   1      46.883  32.342  28.599  1.00  0.00     0.058 A 
ATOM     86  C   UNL A   1      46.969  33.342  27.619  1.00  0.00     0.135 A 
ATOM     87  C   UNL A   1      47.292  32.663  29.904  1.00  0.00     0.135 A 
ATOM     88  F   UNL A   1      46.597  33.084  26.355  1.00  0.00    -0.206 F 
ATOM     89  C   UNL A   1      47.457  34.610  27.918  1.00  0.00     0.059 A 
ATOM     90  C   UNL A   1      47.760  33.931  30.231  1.00  0.00     0.059 A 
ATOM     91  F   UNL A   1      47.220  31.744  30.880  1.00  0.00    -0.206 F 
ATOM     92  C   UNL A   1      47.850  34.896  29.228  1.00  0.00     0.060 A 
BRANCH  92  93
ATOM     93  S   UNL A   1      48.445  36.555  29.611  1.00  0.00     0.124 S 
ATOM     94  O   UNL A   1      47.208  37.233  29.984  1.00  0.00    -0.237 OA
ATOM     95  O   UNL A   1      49.387  36.307  30.699  1.00  0.00    -0.237 OA
ATOM     96  O   UNL A   1      49.050  36.997  28.357  1.00  0.00    -0.744 OA
ENDBRANCH  92  93
ENDBRANCH  60  85
ENDBRANCH  34  35
ENDBRANCH  26  29
ENDBRANCH  24  25
ENDBRANCH  23  24
ENDBRANCH   1  23
TORSDOF 19
ENDMDL
MODEL 2
REMARK VINA RESULT:     -10.3      6.707     11.964
REMARK SMILES CCC(CC)([NH2+]Cc1ccc(I)cc1)C(=O)NCCCCNC(=O)c1ccc(-c2c3nc(c(-c4c(F)cc(S(=O)(=O)[O-])cc4F)c4ccc([nH]4)c(-c4c(F)cc(S(=O)(=O)[O-])cc4F)c4nc(c(-c5c(F)cc(S(=O)(=O)[O-])cc5F)c5ccc2[nH]5)C=C4)C=C3)cc1
REMARK SMILES IDX 19 1 18 2 17 3 15 4 16 5 3 7 2 8 1 9 4 10 5 11 6 12 7 15
REMARK SMILES IDX 8 16 9 17 14 18 10 19 13 20 11 21 12 22 20 23 21 24 22 25
REMARK SMILES IDX 23 26 24 28 25 29 26 30 90 31 27 32 89 33 28 34 29 35 30 36
REMARK SMILES IDX 83 37 31 38 88 39 82 40 84 41 32 42 87 43 81 44 80 45 33 47
REMARK SMILES IDX 67 48 46 49 66 50 47 51 50 52 65 53 85 54 48 55 49 56 64 58
REMARK SMILES IDX 86 59 51 60 34 61 35 62 44 63 36 64 37 65 43 66 45 67 38 68
REMARK SMILES IDX 39 69 40 70 41 71 42 72 68 73 69 74 78 75 70 76 71 77 77 78
REMARK SMILES IDX 79 79 72 80 73 81 74 82 75 83 76 84 52 85 53 86 62 87 54 88
REMARK SMILES IDX 55 89 61 90 63 91 56 92 57 93 58 94 59 95 60 96
REMARK H PARENT 17 6 6 13 6 14 22 27 84 46 50 57
REMARK Flexibility Score: inf
ROOT
ATOM      1  C   UNL A   1      32.763  30.264  26.381  1.00  0.00     0.023 C 
ENDROOT
BRANCH   1   2
ATOM      2  C   UNL A   1      31.802  29.420  25.531  1.00  0.00     0.116 C 
BRANCH   2   3
ATOM      3  N   UNL A   1      32.366  29.222  24.219  1.00  0.00    -0.351 N 
ATOM      4  C   UNL A   1      33.047  28.184  23.665  1.00  0.00     0.281 C 
ATOM      5  O   UNL A   1      33.773  28.536  22.723  1.00  0.00    -0.268 OA
ATOM      6  H   UNL A   1      32.235  29.982  23.608  1.00  0.00     0.163 HD
BRANCH   4   7
ATOM      7  C   UNL A   1      32.875  26.654  24.046  1.00  0.00     0.175 C 
BRANCH   7   8
ATOM      8  C   UNL A   1      31.318  26.488  24.316  1.00  0.00     0.076 C 
ATOM      9  C   UNL A   1      30.571  25.494  23.417  1.00  0.00     0.011 C 
ENDBRANCH   7   8
BRANCH   7  10
ATOM     10  C   UNL A   1      33.640  26.290  25.343  1.00  0.00     0.076 C 
ATOM     11  C   UNL A   1      32.945  25.250  26.237  1.00  0.00     0.011 C 
ENDBRANCH   7  10
BRANCH   7  12
ATOM     12  N   UNL A   1      33.094  25.674  22.947  1.00  0.00    -0.330 N 
ATOM     13  H   UNL A   1      33.258  26.249  22.120  1.00  0.00     0.347 HD
ATOM     14  H   UNL A   1      32.271  25.091  23.098  1.00  0.00     0.347 HD
BRANCH  12  15
ATOM     15  C   UNL A   1      34.087  24.624  22.866  1.00  0.00     0.298 C 
BRANCH  15  16
ATOM     16  C   UNL A   1      33.772  23.190  23.266  1.00  0.00     0.006 A 
ATOM     17  C   UNL A   1      32.675  22.447  22.823  1.00  0.00     0.010 A 
ATOM     18  C   UNL A   1      34.644  22.546  24.167  1.00  0.00     0.010 A 
ATOM     19  C   UNL A   1      32.398  21.161  23.308  1.00  0.00     0.015 A 
ATOM     20  C   UNL A   1      34.395  21.249  24.641  1.00  0.00     0.015 A 
ATOM     21  C   UNL A   1      33.260  20.567  24.220  1.00  0.00     0.013 A 
ATOM     22  I   UNL A   1      32.850  18.662  24.936  1.00  0.00    -0.044 I 
ENDBRANCH  15  16
ENDBRANCH  12  15
ENDBRANCH   7  12
ENDBRANCH   4   7
ENDBRANCH   2   3
ENDBRANCH   1   2
BRANCH   1  23
ATOM     23  C   UNL A   1      32.179  31.552  26.948  1.00  0.00     0.023 C 
BRANCH  23  24
ATOM     24  C   UNL A   1      33.192  32.457  27.629  1.00  0.00     0.116 C 
BRANCH  24  25
ATOM     25  N   UNL A   1      32.742  33.837  27.772  1.00  0.00    -0.352 N 
ATOM     26  C   UNL A   1      33.216  34.796  28.638  1.00  0.00     0.251 C 
ATOM     27  H   UNL A   1      32.011  34.117  27.175  1.00  0.00     0.163 HD
ATOM     28  O   UNL A   1      32.673  35.893  28.713  1.00  0.00    -0.269 OA
BRANCH  26  29
ATOM     29  C   UNL A   1      34.360  34.456  29.507  1.00  0.00     0.039 A 
ATOM     30  C   UNL A   1      34.121  33.837  30.735  1.00  0.00     0.014 A 
ATOM     31  C   UNL A   1      35.667  34.661  29.057  1.00  0.00     0.014 A 
ATOM     32  C   UNL A   1      35.198  33.346  31.474  1.00  0.00     0.010 A 
ATOM     33  C   UNL A   1      36.727  34.092  29.749  1.00  0.00     0.010 A 
ATOM     34  C   UNL A   1      36.504  33.427  30.964  1.00  0.00    -0.014 A 
BRANCH  34  35
ATOM     35  C   UNL A   1      37.658  32.829  31.682  1.00  0.00     0.031 A 
ATOM     36  C   UNL A   1      38.338  31.612  31.118  1.00  0.00     0.074 A 
ATOM     37  C   UNL A   1      38.034  33.327  32.877  1.00  0.00     0.049 A 
ATOM     38  N   UNL A   1      39.294  30.886  31.636  1.00  0.00    -0.248 NA
ATOM     39  C   UNL A   1      37.853  31.125  29.816  1.00  0.00     0.031 C 
ATOM     40  C   UNL A   1      37.408  34.462  33.561  1.00  0.00     0.029 A 
ATOM     41  N   UNL A   1      39.029  32.932  33.737  1.00  0.00    -0.354 N 
ATOM     42  C   UNL A   1      39.510  29.849  30.735  1.00  0.00     0.074 A 
ATOM     43  C   UNL A   1      38.543  30.006  29.671  1.00  0.00     0.031 C 
ATOM     44  C   UNL A   1      38.048  34.686  34.720  1.00  0.00     0.029 A 
ATOM     45  C   UNL A   1      39.106  33.692  34.880  1.00  0.00     0.049 A 
ATOM     46  H   UNL A   1      39.632  32.177  33.552  1.00  0.00     0.167 HD
ATOM     47  C   UNL A   1      40.447  28.874  30.776  1.00  0.00     0.037 A 
ATOM     48  C   UNL A   1      39.933  33.597  35.940  1.00  0.00     0.037 A 
ATOM     49  C   UNL A   1      41.429  28.747  31.819  1.00  0.00     0.049 A 
ATOM     50  C   UNL A   1      40.987  32.524  35.949  1.00  0.00     0.074 A 
ATOM     51  C   UNL A   1      42.462  27.832  31.923  1.00  0.00     0.029 A 
ATOM     52  N   UNL A   1      41.505  29.566  32.937  1.00  0.00    -0.354 N 
ATOM     53  N   UNL A   1      41.218  31.589  35.057  1.00  0.00    -0.248 NA
ATOM     54  C   UNL A   1      41.898  32.496  37.101  1.00  0.00     0.031 C 
ATOM     55  C   UNL A   1      43.143  28.078  33.120  1.00  0.00     0.029 A 
ATOM     56  C   UNL A   1      42.560  29.172  33.741  1.00  0.00     0.049 A 
ATOM     57  H   UNL A   1      40.897  30.316  33.129  1.00  0.00     0.167 HD
ATOM     58  C   UNL A   1      42.316  30.877  35.528  1.00  0.00     0.074 A 
ATOM     59  C   UNL A   1      42.709  31.496  36.777  1.00  0.00     0.031 C 
ATOM     60  C   UNL A   1      42.941  29.808  34.977  1.00  0.00     0.037 A 
BRANCH  47  61
ATOM     61  C   UNL A   1      40.458  27.879  29.648  1.00  0.00     0.058 A 
ATOM     62  C   UNL A   1      39.564  26.795  29.615  1.00  0.00     0.135 A 
ATOM     63  C   UNL A   1      41.362  28.014  28.583  1.00  0.00     0.135 A 
ATOM     64  F   UNL A   1      38.692  26.609  30.618  1.00  0.00    -0.206 F 
ATOM     65  C   UNL A   1      39.593  25.860  28.588  1.00  0.00     0.059 A 
ATOM     66  C   UNL A   1      41.389  27.106  27.528  1.00  0.00     0.059 A 
ATOM     67  F   UNL A   1      42.238  29.031  28.562  1.00  0.00    -0.206 F 
ATOM     68  C   UNL A   1      40.512  26.021  27.550  1.00  0.00     0.060 A 
BRANCH  68  69
ATOM     69  S   UNL A   1      40.542  24.794  26.227  1.00  0.00     0.124 S 
ATOM     70  O   UNL A   1      41.108  25.567  25.126  1.00  0.00    -0.237 OA
ATOM     71  O   UNL A   1      41.404  23.755  26.781  1.00  0.00    -0.237 OA
ATOM     72  O   UNL A   1      39.138  24.423  26.077  1.00  0.00    -0.744 OA
ENDBRANCH  68  69
ENDBRANCH  47  61
BRANCH  48  73
ATOM     73  C   UNL A   1      39.816  34.565  37.062  1.00  0.00     0.058 A 
ATOM     74  C   UNL A   1      40.573  35.746  37.075  1.00  0.00     0.135 A 
ATOM     75  C   UNL A   1      38.934  34.342  38.131  1.00  0.00     0.135 A 
ATOM     76  F   UNL A   1      41.435  36.000  36.079  1.00  0.00    -0.206 F 
ATOM     77  C   UNL A   1      40.471  36.666  38.113  1.00  0.00     0.059 A 
ATOM     78  C   UNL A   1      38.797  35.259  39.168  1.00  0.00     0.059 A 
ATOM     79  F   UNL A   1      38.174  33.237  38.156  1.00  0.00    -0.206 F 
ATOM     80  C   UNL A   1      39.577  36.414  39.155  1.00  0.00     0.060 A 
BRANCH  80  81
ATOM     81  S   UNL A   1      39.411  37.643  40.470  1.00  0.00     0.124 S 
ATOM     82  O   UNL A   1      38.222  38.369  40.043  1.00  0.00    -0.237 OA
ATOM     83  O   UNL A   1      39.258  36.806  41.656  1.00  0.00    -0.237 OA
ATOM     84  O   UNL A   1      40.667  38.385  40.394  1.00  0.00    -0.744 OA
ENDBRANCH  80  81
ENDBRANCH  48  73
BRANCH  60  85
ATOM     85  C   UNL A   1      44.135  29.256  35.703  1.00  0.00     0.058 A 
ATOM     86  C   UNL A   1      45.423  29.774  35.503  1.00  0.00     0.135 A 
ATOM     87  C   UNL A   1      43.977  28.234  36.654  1.00  0.00     0.135 A 
ATOM     88  F   UNL A   1      45.627  30.748  34.601  1.00  0.00    -0.206 F 
ATOM     89  C   UNL A   1      46.518  29.286  36.207  1.00  0.00     0.059 A 
ATOM     90  C   UNL A   1      45.054  27.747  37.387  1.00  0.00     0.059 A 
ATOM     91  F   UNL A   1      42.763  27.712  36.890  1.00  0.00    -0.206 F 
ATOM     92  C   UNL A   1      46.324  28.273  37.149  1.00  0.00     0.060 A 
BRANCH  92  93
ATOM     93  S   UNL A   1      47.747  27.674  38.083  1.00  0.00     0.124 S 
ATOM     94  O   UNL A   1      48.593  28.861  38.122  1.00  0.00    -0.237 OA
ATOM     95  O   UNL A   1      47.145  27.281  39.354  1.00  0.00    -0.237 OA
ATOM     96  O   UNL A   1      48.248  26.571  37.269  1.00  0.00    -0.744 OA
ENDBRANCH  92  93
ENDBRANCH  60  85
ENDBRANCH  34  35
ENDBRANCH  26  29
ENDBRANCH  24  25
ENDBRANCH  23  24
ENDBRANCH   1  23
TORSDOF 19
ENDMDL
MODEL 3
REMARK VINA RESULT:     -10.2      2.853      8.601
REMARK SMILES CCC(CC)([NH2+]Cc1ccc(I)cc1)C(=O)NCCCCNC(=O)c1ccc(-c2c3nc(c(-c4c(F)cc(S(=O)(=O)[O-])cc4F)c4ccc([nH]4)c(-c4c(F)cc(S(=O)(=O)[O-])cc4F)c4nc(c(-c5c(F)cc(S(=O)(=O)[O-])cc5F)c5ccc2[nH]5)C=C4)C=C3)cc1
REMARK SMILES IDX 19 1 18 2 17 3 15 4 16 5 3 7 2 8 1 9 4 10 5 11 6 12 7 15
REMARK SMILES IDX 8 16 9 17 14 18 10 19 13 20 11 21 12 22 20 23 21 24 22 25
REMARK SMILES IDX 23 26 24 28 25 29 26 30 90 31 27 32 89 33 28 34 29 35 30 36
REMARK SMILES IDX 83 37 31 38 88 39 82 40 84 41 32 42 87 43 81 44 80 45 33 47
REMARK SMILES IDX 67 48 46 49 66 50 47 51 50 52 65 53 85 54 48 55 49 56 64 58
REMARK SMILES IDX 86 59 51 60 34 61 35 62 44 63 36 64 37 65 43 66 45 67 38 68
REMARK SMILES IDX 39 69 40 70 41 71 42 72 68 73 69 74 78 75 70 76 71 77 77 78
REMARK SMILES IDX 79 79 72 80 73 81 74 82 75 83 76 84 52 85 53 86 62 87 54 88
REMARK SMILES IDX 55 89 61 90 63 91 56 92 57 93 58 94 59 95 60 96
REMARK H PARENT 17 6 6 13 6 14 22 27 84 46 50 57
REMARK Flexibility Score: inf
ROOT
ATOM      1  C   UNL A   1      34.679  28.873  26.958  1.00  0.00     0.023 C 
ENDROOT
BRANCH   1   2
ATOM      2  C   UNL A   1      33.487  27.995  26.550  1.00  0.00     0.116 C 
BRANCH   2   3
ATOM      3  N   UNL A   1      33.340  28.019  25.115  1.00  0.00    -0.351 N 
ATOM      4  C   UNL A   1      33.614  27.099  24.154  1.00  0.00     0.281 C 
ATOM      5  O   UNL A   1      33.815  27.613  23.043  1.00  0.00    -0.268 OA
ATOM      6  H   UNL A   1      32.972  28.862  24.766  1.00  0.00     0.163 HD
BRANCH   4   7
ATOM      7  C   UNL A   1      33.565  25.524  24.337  1.00  0.00     0.175 C 
BRANCH   7   8
ATOM      8  C   UNL A   1      34.716  25.213  25.386  1.00  0.00     0.076 C 
ATOM      9  C   UNL A   1      35.691  24.088  25.018  1.00  0.00     0.011 C 
ENDBRANCH   7   8
BRANCH   7  10
ATOM     10  C   UNL A   1      33.887  24.777  23.019  1.00  0.00     0.076 C 
ATOM     11  C   UNL A   1      32.772  24.816  21.960  1.00  0.00     0.011 C 
ENDBRANCH   7  10
BRANCH   7  12
ATOM     12  N   UNL A   1      32.369  24.980  25.036  1.00  0.00    -0.330 N 
ATOM     13  H   UNL A   1      31.689  24.816  24.292  1.00  0.00     0.347 HD
ATOM     14  H   UNL A   1      32.280  25.692  25.760  1.00  0.00     0.347 HD
BRANCH  12  15
ATOM     15  C   UNL A   1      32.278  23.806  25.877  1.00  0.00     0.298 C 
BRANCH  15  16
ATOM     16  C   UNL A   1      32.492  22.404  25.323  1.00  0.00     0.006 A 
ATOM     17  C   UNL A   1      32.015  21.936  24.096  1.00  0.00     0.010 A 
ATOM     18  C   UNL A   1      33.223  21.487  26.104  1.00  0.00     0.010 A 
ATOM     19  C   UNL A   1      32.172  20.602  23.693  1.00  0.00     0.015 A 
ATOM     20  C   UNL A   1      33.412  20.156  25.702  1.00  0.00     0.015 A 
ATOM     21  C   UNL A   1      32.869  19.714  24.501  1.00  0.00     0.013 A 
ATOM     22  I   UNL A   1      33.103  17.741  23.901  1.00  0.00    -0.044 I 
ENDBRANCH  15  16
ENDBRANCH  12  15
ENDBRANCH   7  12
ENDBRANCH   4   7
ENDBRANCH   2   3
ENDBRANCH   1   2
BRANCH   1  23
ATOM     23  C   UNL A   1      34.334  30.300  27.364  1.00  0.00     0.023 C 
BRANCH  23  24
ATOM     24  C   UNL A   1      35.476  31.066  28.010  1.00  0.00     0.116 C 
BRANCH  24  25
ATOM     25  N   UNL A   1      35.361  31.176  29.460  1.00  0.00    -0.352 N 
ATOM     26  C   UNL A   1      36.233  30.709  30.416  1.00  0.00     0.251 C 
ATOM     27  H   UNL A   1      34.562  31.644  29.795  1.00  0.00     0.163 HD
ATOM     28  O   UNL A   1      35.956  30.792  31.608  1.00  0.00    -0.269 OA
BRANCH  26  29
ATOM     29  C   UNL A   1      37.484  30.063  29.972  1.00  0.00     0.039 A 
ATOM     30  C   UNL A   1      37.870  30.173  28.635  1.00  0.00     0.014 A 
ATOM     31  C   UNL A   1      38.318  29.439  30.904  1.00  0.00     0.014 A 
ATOM     32  C   UNL A   1      39.136  29.729  28.250  1.00  0.00     0.010 A 
ATOM     33  C   UNL A   1      39.609  29.082  30.537  1.00  0.00     0.010 A 
ATOM     34  C   UNL A   1      40.032  29.224  29.207  1.00  0.00    -0.014 A 
BRANCH  34  35
ATOM     35  C   UNL A   1      41.418  28.834  28.844  1.00  0.00     0.031 A 
ATOM     36  C   UNL A   1      42.503  29.874  28.819  1.00  0.00     0.074 A 
ATOM     37  C   UNL A   1      41.678  27.570  28.458  1.00  0.00     0.049 A 
ATOM     38  N   UNL A   1      43.749  29.759  28.439  1.00  0.00    -0.248 NA
ATOM     39  C   UNL A   1      42.128  31.234  29.241  1.00  0.00     0.031 C 
ATOM     40  C   UNL A   1      40.694  26.486  28.375  1.00  0.00     0.029 A 
ATOM     41  N   UNL A   1      42.849  26.982  28.048  1.00  0.00    -0.354 N 
ATOM     42  C   UNL A   1      44.298  31.030  28.557  1.00  0.00     0.074 A 
ATOM     43  C   UNL A   1      43.235  31.913  28.984  1.00  0.00     0.031 C 
ATOM     44  C   UNL A   1      41.307  25.364  27.965  1.00  0.00     0.029 A 
ATOM     45  C   UNL A   1      42.718  25.653  27.723  1.00  0.00     0.049 A 
ATOM     46  H   UNL A   1      43.703  27.468  27.993  1.00  0.00     0.167 HD
ATOM     47  C   UNL A   1      45.579  31.421  28.357  1.00  0.00     0.037 A 
ATOM     48  C   UNL A   1      43.630  24.768  27.276  1.00  0.00     0.037 A 
ATOM     49  C   UNL A   1      46.639  30.530  27.970  1.00  0.00     0.049 A 
ATOM     50  C   UNL A   1      45.054  25.217  27.091  1.00  0.00     0.074 A 
ATOM     51  C   UNL A   1      47.983  30.813  27.801  1.00  0.00     0.029 A 
ATOM     52  N   UNL A   1      46.476  29.179  27.696  1.00  0.00    -0.354 N 
ATOM     53  N   UNL A   1      45.570  26.410  27.269  1.00  0.00    -0.248 NA
ATOM     54  C   UNL A   1      46.021  24.200  26.655  1.00  0.00     0.031 C 
ATOM     55  C   UNL A   1      48.627  29.639  27.395  1.00  0.00     0.029 A 
ATOM     56  C   UNL A   1      47.692  28.616  27.350  1.00  0.00     0.049 A 
ATOM     57  H   UNL A   1      45.621  28.694  27.741  1.00  0.00     0.167 HD
ATOM     58  C   UNL A   1      46.927  26.283  26.989  1.00  0.00     0.074 A 
ATOM     59  C   UNL A   1      47.152  24.895  26.642  1.00  0.00     0.031 C 
ATOM     60  C   UNL A   1      47.897  27.229  27.017  1.00  0.00     0.037 A 
BRANCH  47  61
ATOM     61  C   UNL A   1      45.899  32.875  28.573  1.00  0.00     0.058 A 
ATOM     62  C   UNL A   1      45.853  33.801  27.517  1.00  0.00     0.135 A 
ATOM     63  C   UNL A   1      46.244  33.351  29.847  1.00  0.00     0.135 A 
ATOM     64  F   UNL A   1      45.546  33.395  26.275  1.00  0.00    -0.206 F 
ATOM     65  C   UNL A   1      46.176  35.139  27.709  1.00  0.00     0.059 A 
ATOM     66  C   UNL A   1      46.543  34.693  30.068  1.00  0.00     0.059 A 
ATOM     67  F   UNL A   1      46.303  32.510  30.892  1.00  0.00    -0.206 F 
ATOM     68  C   UNL A   1      46.524  35.575  28.989  1.00  0.00     0.060 A 
BRANCH  68  69
ATOM     69  S   UNL A   1      46.949  37.314  29.220  1.00  0.00     0.124 S 
ATOM     70  O   UNL A   1      45.904  37.974  28.442  1.00  0.00    -0.237 OA
ATOM     71  O   UNL A   1      46.854  37.471  30.668  1.00  0.00    -0.237 OA
ATOM     72  O   UNL A   1      48.297  37.410  28.670  1.00  0.00    -0.744 OA
ENDBRANCH  68  69
ENDBRANCH  47  61
BRANCH  48  73
ATOM     73  C   UNL A   1      43.230  23.362  27.006  1.00  0.00     0.058 A 
ATOM     74  C   UNL A   1      43.065  22.901  25.692  1.00  0.00     0.135 A 
ATOM     75  C   UNL A   1      43.024  22.447  28.051  1.00  0.00     0.135 A 
ATOM     76  F   UNL A   1      43.243  23.739  24.660  1.00  0.00    -0.206 F 
ATOM     77  C   UNL A   1      42.697  21.586  25.421  1.00  0.00     0.059 A 
ATOM     78  C   UNL A   1      42.679  21.122  27.804  1.00  0.00     0.059 A 
ATOM     79  F   UNL A   1      43.188  22.834  29.325  1.00  0.00    -0.206 F 
ATOM     80  C   UNL A   1      42.509  20.703  26.485  1.00  0.00     0.060 A 
BRANCH  80  81
ATOM     81  S   UNL A   1      42.088  18.984  26.120  1.00  0.00     0.124 S 
ATOM     82  O   UNL A   1      42.368  18.337  27.395  1.00  0.00    -0.237 OA
ATOM     83  O   UNL A   1      40.679  19.084  25.750  1.00  0.00    -0.237 OA
ATOM     84  O   UNL A   1      42.992  18.644  25.025  1.00  0.00    -0.744 OA
ENDBRANCH  80  81
ENDBRANCH  48  73
BRANCH  60  85
ATOM     85  C   UNL A   1      49.297  26.792  26.692  1.00  0.00     0.058 A 
ATOM     86  C   UNL A   1      50.172  26.326  27.685  1.00  0.00     0.135 A 
ATOM     87  C   UNL A   1      49.749  26.788  25.363  1.00  0.00     0.135 A 
ATOM     88  F   UNL A   1      49.789  26.316  28.972  1.00  0.00    -0.206 F 
ATOM     89  C   UNL A   1      51.454  25.885  27.374  1.00  0.00     0.059 A 
ATOM     90  C   UNL A   1      51.018  26.329  25.025  1.00  0.00     0.059 A 
ATOM     91  F   UNL A   1      48.946  27.215  24.375  1.00  0.00    -0.206 F 
ATOM     92  C   UNL A   1      51.867  25.889  26.040  1.00  0.00     0.060 A 
BRANCH  92  93
ATOM     93  S   UNL A   1      53.519  25.279  25.643  1.00  0.00     0.124 S 
ATOM     94  O   UNL A   1      54.241  25.562  26.879  1.00  0.00    -0.237 OA
ATOM     95  O   UNL A   1      53.273  23.869  25.360  1.00  0.00    -0.237 OA
ATOM     96  O   UNL A   1      53.910  26.084  24.489  1.00  0.00    -0.744 OA
ENDBRANCH  92  93
ENDBRANCH  60  85
ENDBRANCH  34  35
ENDBRANCH  26  29
ENDBRANCH  24  25
ENDBRANCH  23  24
ENDBRANCH   1  23
TORSDOF 19
ENDMDL
