MODEL 1
REMARK VINA RESULT:     -13.0      0.000      0.000
REMARK SMILES COc1cccc(-c2nn(-c3cc4c(cc3C(N)=O)OCO4)cc2C(=O)NCCCCNC(=O)c2ccc(-c3c4nc(c(-c5c(F)cc(S(=O)(=O)[O-])cc5F)c5ccc([nH]5)c(-c5c(F)cc(S(=O)(=O)[O-])cc5F)c5nc(c(-c6c(F)cc(S(=O)(=O)[O-])cc6F)c6ccc3[nH]6)C=C5)C=C4)cc2)c1
REMARK SMILES IDX 30 1 29 2 28 3 27 4 25 5 26 6 24 8 8 9 9 10 10 11 23 12 7 13
REMARK SMILES IDX 3 14 4 15 101 16 5 17 6 18 2 19 1 20 11 21 12 22 16 23 13 24
REMARK SMILES IDX 15 25 14 26 22 27 20 28 21 29 17 30 18 31 19 32 31 35 32 36
REMARK SMILES IDX 33 37 34 39 35 40 36 41 100 42 37 43 99 44 38 45 39 46 40 47
REMARK SMILES IDX 93 48 41 49 98 50 92 51 94 52 42 53 97 54 91 55 90 56 43 58
REMARK SMILES IDX 77 59 56 60 76 61 57 62 60 63 75 64 95 65 58 66 59 67 74 69
REMARK SMILES IDX 96 70 61 71 44 72 45 73 54 74 46 75 47 76 53 77 55 78 48 79
REMARK SMILES IDX 49 80 50 81 51 82 52 83 78 84 79 85 88 86 80 87 81 88 87 89
REMARK SMILES IDX 89 90 82 91 83 92 84 93 85 94 86 95 62 96 63 97 72 98 64 99
REMARK SMILES IDX 65 100 71 101 73 102 66 103 67 104 68 105 69 106 70 107
REMARK H PARENT 27 7 18 33 18 34 32 38 94 57 60 68
REMARK Flexibility Score: inf
ROOT
ATOM      1  C   UNL A   1      39.697  21.000  25.866  1.00  0.00     0.023 C 
ENDROOT
BRANCH   1   2
ATOM      2  C   UNL A   1      38.824  22.222  26.198  1.00  0.00     0.023 C 
BRANCH   2   3
ATOM      3  C   UNL A   1      37.362  22.091  25.763  1.00  0.00     0.116 C 
BRANCH   3   4
ATOM      4  N   UNL A   1      37.208  22.366  24.349  1.00  0.00    -0.352 N 
ATOM      5  C   UNL A   1      36.214  22.952  23.606  1.00  0.00     0.255 C 
ATOM      6  O   UNL A   1      36.429  23.007  22.394  1.00  0.00    -0.269 OA
ATOM      7  H   UNL A   1      37.976  22.070  23.809  1.00  0.00     0.163 HD
BRANCH   5   8
ATOM      8  C   UNL A   1      34.999  23.498  24.201  1.00  0.00     0.086 A 
ATOM      9  C   UNL A   1      33.698  22.881  24.293  1.00  0.00     0.106 A 
ATOM     10  N   UNL A   1      32.781  23.731  24.809  1.00  0.00    -0.167 NA
ATOM     11  N   UNL A   1      33.439  24.909  24.854  1.00  0.00    -0.239 N 
ATOM     12  C   UNL A   1      34.799  24.711  24.824  1.00  0.00     0.129 A 
BRANCH   9  13
ATOM     13  C   UNL A   1      33.333  21.514  23.915  1.00  0.00     0.007 A 
ATOM     14  C   UNL A   1      33.351  19.127  24.334  1.00  0.00     0.119 A 
ATOM     15  C   UNL A   1      32.503  18.923  23.244  1.00  0.00     0.046 A 
ATOM     16  C   UNL A   1      33.783  20.415  24.661  1.00  0.00     0.056 A 
ATOM     17  C   UNL A   1      32.065  20.007  22.489  1.00  0.00     0.005 A 
ATOM     18  C   UNL A   1      32.487  21.295  22.817  1.00  0.00     0.011 A 
BRANCH  14  19
ATOM     19  O   UNL A   1      33.767  17.997  24.989  1.00  0.00    -0.497 OA
ATOM     20  C   UNL A   1      32.718  17.335  25.694  1.00  0.00     0.278 C 
ENDBRANCH  14  19
ENDBRANCH   9  13
BRANCH  11  21
ATOM     21  C   UNL A   1      32.808  26.151  25.112  1.00  0.00     0.081 A 
ATOM     22  C   UNL A   1      33.257  26.901  26.217  1.00  0.00     0.079 A 
ATOM     23  C   UNL A   1      31.815  26.672  24.229  1.00  0.00     0.069 A 
ATOM     24  C   UNL A   1      32.769  28.186  26.349  1.00  0.00     0.167 A 
ATOM     25  C   UNL A   1      31.420  28.014  24.361  1.00  0.00     0.066 A 
ATOM     26  C   UNL A   1      31.902  28.731  25.431  1.00  0.00     0.166 A 
ATOM     27  O   UNL A   1      33.071  29.066  27.342  1.00  0.00    -0.454 OA
ATOM     28  O   UNL A   1      31.556  30.011  25.731  1.00  0.00    -0.454 OA
ATOM     29  C   UNL A   1      32.155  30.140  27.034  1.00  0.00     0.468 C 
BRANCH  23  30
ATOM     30  C   UNL A   1      31.036  25.797  23.289  1.00  0.00     0.251 C 
ATOM     31  N   UNL A   1      29.988  25.077  23.787  1.00  0.00    -0.366 N 
ATOM     32  O   UNL A   1      31.330  25.637  22.108  1.00  0.00    -0.269 OA
ATOM     33  H   UNL A   1      29.724  25.180  24.730  1.00  0.00     0.159 HD
ATOM     34  H   UNL A   1      29.497  24.454  23.203  1.00  0.00     0.159 HD
ENDBRANCH  23  30
ENDBRANCH  11  21
ENDBRANCH   5   8
ENDBRANCH   3   4
ENDBRANCH   2   3
ENDBRANCH   1   2
BRANCH   1  35
ATOM     35  C   UNL A   1      41.014  20.940  26.633  1.00  0.00     0.116 C 
BRANCH  35  36
ATOM     36  N   UNL A   1      42.172  21.175  25.774  1.00  0.00    -0.352 N 
ATOM     37  C   UNL A   1      42.772  22.381  25.465  1.00  0.00     0.251 C 
ATOM     38  H   UNL A   1      42.575  20.376  25.364  1.00  0.00     0.163 HD
ATOM     39  O   UNL A   1      43.472  22.490  24.467  1.00  0.00    -0.269 OA
BRANCH  37  40
ATOM     40  C   UNL A   1      42.559  23.529  26.363  1.00  0.00     0.039 A 
ATOM     41  C   UNL A   1      43.220  23.613  27.592  1.00  0.00     0.014 A 
ATOM     42  C   UNL A   1      41.697  24.541  25.944  1.00  0.00     0.014 A 
ATOM     43  C   UNL A   1      43.073  24.767  28.358  1.00  0.00     0.010 A 
ATOM     44  C   UNL A   1      41.642  25.723  26.643  1.00  0.00     0.010 A 
ATOM     45  C   UNL A   1      42.298  25.829  27.868  1.00  0.00    -0.014 A 
BRANCH  45  46
ATOM     46  C   UNL A   1      42.277  27.116  28.561  1.00  0.00     0.031 A 
ATOM     47  C   UNL A   1      43.405  28.028  28.206  1.00  0.00     0.074 A 
ATOM     48  C   UNL A   1      41.202  27.550  29.254  1.00  0.00     0.049 A 
ATOM     49  N   UNL A   1      44.351  28.470  28.968  1.00  0.00    -0.248 NA
ATOM     50  C   UNL A   1      43.582  28.384  26.786  1.00  0.00     0.031 C 
ATOM     51  C   UNL A   1      39.896  26.892  29.394  1.00  0.00     0.029 A 
ATOM     52  N   UNL A   1      40.999  28.739  29.883  1.00  0.00    -0.354 N 
ATOM     53  C   UNL A   1      45.103  29.345  28.183  1.00  0.00     0.074 A 
ATOM     54  C   UNL A   1      44.713  29.091  26.822  1.00  0.00     0.031 C 
ATOM     55  C   UNL A   1      38.985  27.783  29.842  1.00  0.00     0.029 A 
ATOM     56  C   UNL A   1      39.668  29.016  30.183  1.00  0.00     0.049 A 
ATOM     57  H   UNL A   1      41.734  29.354  30.108  1.00  0.00     0.167 HD
ATOM     58  C   UNL A   1      45.798  30.379  28.738  1.00  0.00     0.037 A 
ATOM     59  C   UNL A   1      39.159  30.186  30.646  1.00  0.00     0.037 A 
ATOM     60  C   UNL A   1      45.944  30.192  30.160  1.00  0.00     0.049 A 
ATOM     61  C   UNL A   1      40.292  30.952  31.224  1.00  0.00     0.074 A 
ATOM     62  C   UNL A   1      46.519  29.227  30.965  1.00  0.00     0.029 A 
ATOM     63  N   UNL A   1      45.109  30.913  30.979  1.00  0.00    -0.354 N 
ATOM     64  N   UNL A   1      40.963  30.575  32.279  1.00  0.00    -0.248 NA
ATOM     65  C   UNL A   1      40.973  31.905  30.364  1.00  0.00     0.031 C 
ATOM     66  C   UNL A   1      45.645  29.115  32.086  1.00  0.00     0.029 A 
ATOM     67  C   UNL A   1      44.632  30.064  31.942  1.00  0.00     0.049 A 
ATOM     68  H   UNL A   1      44.893  31.870  30.890  1.00  0.00     0.167 HD
ATOM     69  C   UNL A   1      42.282  30.890  31.992  1.00  0.00     0.074 A 
ATOM     70  C   UNL A   1      42.212  31.795  30.847  1.00  0.00     0.031 C 
ATOM     71  C   UNL A   1      43.311  30.167  32.527  1.00  0.00     0.037 A 
BRANCH  58  72
ATOM     72  C   UNL A   1      46.008  31.735  28.088  1.00  0.00     0.058 A 
ATOM     73  C   UNL A   1      47.314  32.271  28.025  1.00  0.00     0.135 A 
ATOM     74  C   UNL A   1      44.970  32.648  27.796  1.00  0.00     0.135 A 
ATOM     75  F   UNL A   1      48.384  31.500  28.276  1.00  0.00    -0.206 F 
ATOM     76  C   UNL A   1      47.562  33.625  27.787  1.00  0.00     0.059 A 
ATOM     77  C   UNL A   1      45.199  33.990  27.502  1.00  0.00     0.059 A 
ATOM     78  F   UNL A   1      43.677  32.318  27.872  1.00  0.00    -0.206 F 
ATOM     79  C   UNL A   1      46.492  34.480  27.546  1.00  0.00     0.060 A 
BRANCH  79  80
ATOM     80  S   UNL A   1      46.794  36.244  27.349  1.00  0.00     0.124 S 
ATOM     81  O   UNL A   1      46.514  36.429  25.931  1.00  0.00    -0.237 OA
ATOM     82  O   UNL A   1      45.823  36.821  28.273  1.00  0.00    -0.237 OA
ATOM     83  O   UNL A   1      48.191  36.391  27.744  1.00  0.00    -0.744 OA
ENDBRANCH  79  80
ENDBRANCH  58  72
BRANCH  59  84
ATOM     84  C   UNL A   1      37.844  30.810  30.337  1.00  0.00     0.058 A 
ATOM     85  C   UNL A   1      37.072  31.427  31.338  1.00  0.00     0.135 A 
ATOM     86  C   UNL A   1      37.449  31.065  29.008  1.00  0.00     0.135 A 
ATOM     87  F   UNL A   1      37.387  31.258  32.631  1.00  0.00    -0.206 F 
ATOM     88  C   UNL A   1      36.004  32.282  31.039  1.00  0.00     0.059 A 
ATOM     89  C   UNL A   1      36.384  31.906  28.685  1.00  0.00     0.059 A 
ATOM     90  F   UNL A   1      38.149  30.572  27.974  1.00  0.00    -0.206 F 
ATOM     91  C   UNL A   1      35.681  32.533  29.706  1.00  0.00     0.060 A 
BRANCH  91  92
ATOM     92  S   UNL A   1      34.417  33.767  29.312  1.00  0.00     0.124 S 
ATOM     93  O   UNL A   1      33.584  33.051  28.353  1.00  0.00    -0.237 OA
ATOM     94  O   UNL A   1      33.814  34.019  30.617  1.00  0.00    -0.237 OA
ATOM     95  O   UNL A   1      35.189  34.878  28.760  1.00  0.00    -0.744 OA
ENDBRANCH  91  92
ENDBRANCH  59  84
BRANCH  71  96
ATOM     96  C   UNL A   1      43.012  29.242  33.680  1.00  0.00     0.058 A 
ATOM     97  C   UNL A   1      42.876  29.644  35.021  1.00  0.00     0.135 A 
ATOM     98  C   UNL A   1      42.699  27.908  33.381  1.00  0.00     0.135 A 
ATOM     99  F   UNL A   1      43.056  30.922  35.381  1.00  0.00    -0.206 F 
ATOM    100  C   UNL A   1      42.484  28.752  36.021  1.00  0.00     0.059 A 
ATOM    101  C   UNL A   1      42.275  27.009  34.355  1.00  0.00     0.059 A 
ATOM    102  F   UNL A   1      42.750  27.473  32.110  1.00  0.00    -0.206 F 
ATOM    103  C   UNL A   1      42.182  27.434  35.677  1.00  0.00     0.060 A 
BRANCH 103 104
ATOM    104  S   UNL A   1      41.604  26.299  36.957  1.00  0.00     0.124 S 
ATOM    105  O   UNL A   1      42.743  26.256  37.869  1.00  0.00    -0.237 OA
ATOM    106  O   UNL A   1      40.411  26.970  37.464  1.00  0.00    -0.237 OA
ATOM    107  O   UNL A   1      41.347  25.061  36.224  1.00  0.00    -0.744 OA
ENDBRANCH 103 104
ENDBRANCH  71  96
ENDBRANCH  45  46
ENDBRANCH  37  40
ENDBRANCH  35  36
ENDBRANCH   1  35
TORSDOF 18
ENDMDL
MODEL 2
REMARK VINA RESULT:     -12.9      2.618      9.401
REMARK SMILES COc1cccc(-c2nn(-c3cc4c(cc3C(N)=O)OCO4)cc2C(=O)NCCCCNC(=O)c2ccc(-c3c4nc(c(-c5c(F)cc(S(=O)(=O)[O-])cc5F)c5ccc([nH]5)c(-c5c(F)cc(S(=O)(=O)[O-])cc5F)c5nc(c(-c6c(F)cc(S(=O)(=O)[O-])cc6F)c6ccc3[nH]6)C=C5)C=C4)cc2)c1
REMARK SMILES IDX 30 1 29 2 28 3 27 4 25 5 26 6 24 8 8 9 9 10 10 11 23 12 7 13
REMARK SMILES IDX 3 14 4 15 101 16 5 17 6 18 2 19 1 20 11 21 12 22 16 23 13 24
REMARK SMILES IDX 15 25 14 26 22 27 20 28 21 29 17 30 18 31 19 32 31 35 32 36
REMARK SMILES IDX 33 37 34 39 35 40 36 41 100 42 37 43 99 44 38 45 39 46 40 47
REMARK SMILES IDX 93 48 41 49 98 50 92 51 94 52 42 53 97 54 91 55 90 56 43 58
REMARK SMILES IDX 77 59 56 60 76 61 57 62 60 63 75 64 95 65 58 66 59 67 74 69
REMARK SMILES IDX 96 70 61 71 44 72 45 73 54 74 46 75 47 76 53 77 55 78 48 79
REMARK SMILES IDX 49 80 50 81 51 82 52 83 78 84 79 85 88 86 80 87 81 88 87 89
REMARK SMILES IDX 89 90 82 91 83 92 84 93 85 94 86 95 62 96 63 97 72 98 64 99
REMARK SMILES IDX 65 100 71 101 73 102 66 103 67 104 68 105 69 106 70 107
REMARK H PARENT 27 7 18 33 18 34 32 38 94 57 60 68
REMARK Flexibility Score: inf
ROOT
ATOM      1  C   UNL A   1      32.348  29.232  26.838  1.00  0.00     0.023 C 
ENDROOT
BRANCH   1   2
ATOM      2  C   UNL A   1      32.292  27.998  25.923  1.00  0.00     0.023 C 
BRANCH   2   3
ATOM      3  C   UNL A   1      33.663  27.448  25.518  1.00  0.00     0.116 C 
BRANCH   3   4
ATOM      4  N   UNL A   1      33.899  27.620  24.100  1.00  0.00    -0.352 N 
ATOM      5  C   UNL A   1      33.596  26.863  22.995  1.00  0.00     0.255 C 
ATOM      6  O   UNL A   1      33.973  27.330  21.920  1.00  0.00    -0.269 OA
ATOM      7  H   UNL A   1      34.377  28.452  23.882  1.00  0.00     0.163 HD
BRANCH   5   8
ATOM      8  C   UNL A   1      32.858  25.607  23.076  1.00  0.00     0.086 A 
ATOM      9  C   UNL A   1      31.434  25.418  23.219  1.00  0.00     0.106 A 
ATOM     10  N   UNL A   1      31.120  24.112  23.375  1.00  0.00    -0.167 NA
ATOM     11  N   UNL A   1      32.323  23.519  23.527  1.00  0.00    -0.239 N 
ATOM     12  C   UNL A   1      33.327  24.312  23.025  1.00  0.00     0.129 A 
BRANCH   9  13
ATOM     13  C   UNL A   1      30.394  26.448  23.192  1.00  0.00     0.007 A 
ATOM     14  C   UNL A   1      29.531  28.565  22.385  1.00  0.00     0.119 A 
ATOM     15  C   UNL A   1      28.327  28.335  23.053  1.00  0.00     0.046 A 
ATOM     16  C   UNL A   1      30.572  27.635  22.467  1.00  0.00     0.056 A 
ATOM     17  C   UNL A   1      28.148  27.167  23.788  1.00  0.00     0.005 A 
ATOM     18  C   UNL A   1      29.181  26.233  23.865  1.00  0.00     0.011 A 
BRANCH  14  19
ATOM     19  O   UNL A   1      29.632  29.762  21.727  1.00  0.00    -0.497 OA
ATOM     20  C   UNL A   1      28.371  30.390  21.500  1.00  0.00     0.278 C 
ENDBRANCH  14  19
ENDBRANCH   9  13
BRANCH  11  21
ATOM     21  C   UNL A   1      32.488  22.176  23.949  1.00  0.00     0.081 A 
ATOM     22  C   UNL A   1      32.150  21.153  23.043  1.00  0.00     0.079 A 
ATOM     23  C   UNL A   1      33.067  21.869  25.218  1.00  0.00     0.069 A 
ATOM     24  C   UNL A   1      32.489  19.861  23.393  1.00  0.00     0.167 A 
ATOM     25  C   UNL A   1      33.469  20.549  25.483  1.00  0.00     0.066 A 
ATOM     26  C   UNL A   1      33.154  19.576  24.562  1.00  0.00     0.166 A 
ATOM     27  O   UNL A   1      32.247  18.737  22.663  1.00  0.00    -0.454 OA
ATOM     28  O   UNL A   1      33.412  18.250  24.710  1.00  0.00    -0.454 OA
ATOM     29  C   UNL A   1      32.670  17.718  23.595  1.00  0.00     0.468 C 
BRANCH  23  30
ATOM     30  C   UNL A   1      33.091  22.854  26.352  1.00  0.00     0.251 C 
ATOM     31  N   UNL A   1      34.301  23.307  26.794  1.00  0.00    -0.366 N 
ATOM     32  O   UNL A   1      32.087  23.224  26.952  1.00  0.00    -0.269 OA
ATOM     33  H   UNL A   1      35.128  23.030  26.337  1.00  0.00     0.159 HD
ATOM     34  H   UNL A   1      34.347  23.911  27.571  1.00  0.00     0.159 HD
ENDBRANCH  23  30
ENDBRANCH  11  21
ENDBRANCH   5   8
ENDBRANCH   3   4
ENDBRANCH   2   3
ENDBRANCH   1   2
BRANCH   1  35
ATOM     35  C   UNL A   1      33.755  29.643  27.258  1.00  0.00     0.116 C 
BRANCH  35  36
ATOM     36  N   UNL A   1      33.993  31.074  27.093  1.00  0.00    -0.352 N 
ATOM     37  C   UNL A   1      34.991  31.843  27.660  1.00  0.00     0.251 C 
ATOM     38  H   UNL A   1      33.364  31.551  26.504  1.00  0.00     0.163 HD
ATOM     39  O   UNL A   1      34.866  33.058  27.751  1.00  0.00    -0.269 OA
BRANCH  37  40
ATOM     40  C   UNL A   1      36.211  31.176  28.145  1.00  0.00     0.039 A 
ATOM     41  C   UNL A   1      36.528  29.875  27.743  1.00  0.00     0.014 A 
ATOM     42  C   UNL A   1      37.053  31.885  29.000  1.00  0.00     0.014 A 
ATOM     43  C   UNL A   1      37.744  29.325  28.141  1.00  0.00     0.010 A 
ATOM     44  C   UNL A   1      38.299  31.388  29.297  1.00  0.00     0.010 A 
ATOM     45  C   UNL A   1      38.637  30.095  28.902  1.00  0.00    -0.014 A 
BRANCH  45  46
ATOM     46  C   UNL A   1      39.990  29.614  29.174  1.00  0.00     0.031 A 
ATOM     47  C   UNL A   1      40.285  29.382  30.619  1.00  0.00     0.074 A 
ATOM     48  C   UNL A   1      40.810  29.165  28.199  1.00  0.00     0.049 A 
ATOM     49  N   UNL A   1      41.146  29.987  31.369  1.00  0.00    -0.248 NA
ATOM     50  C   UNL A   1      39.414  28.451  31.360  1.00  0.00     0.031 C 
ATOM     51  C   UNL A   1      40.511  29.020  26.768  1.00  0.00     0.029 A 
ATOM     52  N   UNL A   1      42.053  28.621  28.295  1.00  0.00    -0.354 N 
ATOM     53  C   UNL A   1      41.090  29.353  32.611  1.00  0.00     0.074 A 
ATOM     54  C   UNL A   1      39.881  28.573  32.603  1.00  0.00     0.031 C 
ATOM     55  C   UNL A   1      41.432  28.215  26.192  1.00  0.00     0.029 A 
ATOM     56  C   UNL A   1      42.472  27.931  27.161  1.00  0.00     0.049 A 
ATOM     57  H   UNL A   1      42.612  28.708  29.101  1.00  0.00     0.167 HD
ATOM     58  C   UNL A   1      42.169  29.324  33.445  1.00  0.00     0.037 A 
ATOM     59  C   UNL A   1      43.579  27.153  27.037  1.00  0.00     0.037 A 
ATOM     60  C   UNL A   1      43.147  30.307  33.049  1.00  0.00     0.049 A 
ATOM     61  C   UNL A   1      44.501  27.537  28.136  1.00  0.00     0.074 A 
ATOM     62  C   UNL A   1      43.149  31.681  32.910  1.00  0.00     0.029 A 
ATOM     63  N   UNL A   1      44.245  29.859  32.355  1.00  0.00    -0.354 N 
ATOM     64  N   UNL A   1      45.070  28.707  28.233  1.00  0.00    -0.248 NA
ATOM     65  C   UNL A   1      44.437  26.773  29.370  1.00  0.00     0.031 C 
ATOM     66  C   UNL A   1      43.952  31.934  31.759  1.00  0.00     0.029 A 
ATOM     67  C   UNL A   1      44.453  30.713  31.305  1.00  0.00     0.049 A 
ATOM     68  H   UNL A   1      44.786  29.065  32.575  1.00  0.00     0.167 HD
ATOM     69  C   UNL A   1      45.037  29.007  29.587  1.00  0.00     0.074 A 
ATOM     70  C   UNL A   1      44.729  27.738  30.244  1.00  0.00     0.031 C 
ATOM     71  C   UNL A   1      44.982  30.301  30.021  1.00  0.00     0.037 A 
BRANCH  58  72
ATOM     72  C   UNL A   1      42.528  28.171  34.366  1.00  0.00     0.058 A 
ATOM     73  C   UNL A   1      42.626  28.409  35.756  1.00  0.00     0.135 A 
ATOM     74  C   UNL A   1      43.058  26.937  33.929  1.00  0.00     0.135 A 
ATOM     75  F   UNL A   1      42.152  29.544  36.292  1.00  0.00    -0.206 F 
ATOM     76  C   UNL A   1      43.285  27.535  36.623  1.00  0.00     0.059 A 
ATOM     77  C   UNL A   1      43.670  26.027  34.786  1.00  0.00     0.059 A 
ATOM     78  F   UNL A   1      43.100  26.586  32.640  1.00  0.00    -0.206 F 
ATOM     79  C   UNL A   1      43.821  26.354  36.122  1.00  0.00     0.060 A 
BRANCH  79  80
ATOM     80  S   UNL A   1      44.768  25.278  37.211  1.00  0.00     0.124 S 
ATOM     81  O   UNL A   1      44.523  23.971  36.612  1.00  0.00    -0.237 OA
ATOM     82  O   UNL A   1      46.120  25.808  37.060  1.00  0.00    -0.237 OA
ATOM     83  O   UNL A   1      44.156  25.500  38.517  1.00  0.00    -0.744 OA
ENDBRANCH  79  80
ENDBRANCH  58  72
BRANCH  59  84
ATOM     84  C   UNL A   1      43.748  25.904  26.246  1.00  0.00     0.058 A 
ATOM     85  C   UNL A   1      44.861  25.714  25.406  1.00  0.00     0.135 A 
ATOM     86  C   UNL A   1      42.972  24.758  26.512  1.00  0.00     0.135 A 
ATOM     87  F   UNL A   1      45.669  26.745  25.115  1.00  0.00    -0.206 F 
ATOM     88  C   UNL A   1      45.211  24.455  24.902  1.00  0.00     0.059 A 
ATOM     89  C   UNL A   1      43.296  23.495  26.014  1.00  0.00     0.059 A 
ATOM     90  F   UNL A   1      41.921  24.815  27.345  1.00  0.00    -0.206 F 
ATOM     91  C   UNL A   1      44.432  23.346  25.230  1.00  0.00     0.060 A 
BRANCH  91  92
ATOM     92  S   UNL A   1      44.975  21.696  24.724  1.00  0.00     0.124 S 
ATOM     93  O   UNL A   1      44.656  21.695  23.301  1.00  0.00    -0.237 OA
ATOM     94  O   UNL A   1      46.395  21.720  25.059  1.00  0.00    -0.237 OA
ATOM     95  O   UNL A   1      44.158  20.804  25.545  1.00  0.00    -0.744 OA
ENDBRANCH  91  92
ENDBRANCH  59  84
BRANCH  71  96
ATOM     96  C   UNL A   1      45.286  31.400  29.035  1.00  0.00     0.058 A 
ATOM     97  C   UNL A   1      46.578  31.815  28.665  1.00  0.00     0.135 A 
ATOM     98  C   UNL A   1      44.212  31.950  28.319  1.00  0.00     0.135 A 
ATOM     99  F   UNL A   1      47.666  31.269  29.223  1.00  0.00    -0.206 F 
ATOM    100  C   UNL A   1      46.788  32.761  27.659  1.00  0.00     0.059 A 
ATOM    101  C   UNL A   1      44.399  32.870  27.291  1.00  0.00     0.059 A 
ATOM    102  F   UNL A   1      42.955  31.552  28.581  1.00  0.00    -0.206 F 
ATOM    103  C   UNL A   1      45.690  33.281  26.974  1.00  0.00     0.060 A 
BRANCH 103 104
ATOM    104  S   UNL A   1      45.965  34.447  25.623  1.00  0.00     0.124 S 
ATOM    105  O   UNL A   1      47.393  34.289  25.365  1.00  0.00    -0.237 OA
ATOM    106  O   UNL A   1      45.073  33.945  24.581  1.00  0.00    -0.237 OA
ATOM    107  O   UNL A   1      45.575  35.733  26.197  1.00  0.00    -0.744 OA
ENDBRANCH 103 104
ENDBRANCH  71  96
ENDBRANCH  45  46
ENDBRANCH  37  40
ENDBRANCH  35  36
ENDBRANCH   1  35
TORSDOF 18
ENDMDL
MODEL 3
REMARK VINA RESULT:     -12.9      2.559      9.458
REMARK SMILES COc1cccc(-c2nn(-c3cc4c(cc3C(N)=O)OCO4)cc2C(=O)NCCCCNC(=O)c2ccc(-c3c4nc(c(-c5c(F)cc(S(=O)(=O)[O-])cc5F)c5ccc([nH]5)c(-c5c(F)cc(S(=O)(=O)[O-])cc5F)c5nc(c(-c6c(F)cc(S(=O)(=O)[O-])cc6F)c6ccc3[nH]6)C=C5)C=C4)cc2)c1
REMARK SMILES IDX 30 1 29 2 28 3 27 4 25 5 26 6 24 8 8 9 9 10 10 11 23 12 7 13
REMARK SMILES IDX 3 14 4 15 101 16 5 17 6 18 2 19 1 20 11 21 12 22 16 23 13 24
REMARK SMILES IDX 15 25 14 26 22 27 20 28 21 29 17 30 18 31 19 32 31 35 32 36
REMARK SMILES IDX 33 37 34 39 35 40 36 41 100 42 37 43 99 44 38 45 39 46 40 47
REMARK SMILES IDX 93 48 41 49 98 50 92 51 94 52 42 53 97 54 91 55 90 56 43 58
REMARK SMILES IDX 77 59 56 60 76 61 57 62 60 63 75 64 95 65 58 66 59 67 74 69
REMARK SMILES IDX 96 70 61 71 44 72 45 73 54 74 46 75 47 76 53 77 55 78 48 79
REMARK SMILES IDX 49 80 50 81 51 82 52 83 78 84 79 85 88 86 80 87 81 88 87 89
REMARK SMILES IDX 89 90 82 91 83 92 84 93 85 94 86 95 62 96 63 97 72 98 64 99
REMARK SMILES IDX 65 100 71 101 73 102 66 103 67 104 68 105 69 106 70 107
REMARK H PARENT 27 7 18 33 18 34 32 38 94 57 60 68
REMARK Flexibility Score: inf
ROOT
ATOM      1  C   UNL A   1      33.019  30.097  26.091  1.00  0.00     0.023 C 
ENDROOT
BRANCH   1   2
ATOM      2  C   UNL A   1      31.755  29.244  26.286  1.00  0.00     0.023 C 
BRANCH   2   3
ATOM      3  C   UNL A   1      31.989  27.931  27.039  1.00  0.00     0.116 C 
BRANCH   3   4
ATOM      4  N   UNL A   1      30.833  27.063  26.952  1.00  0.00    -0.352 N 
ATOM      5  C   UNL A   1      30.642  25.792  26.471  1.00  0.00     0.255 C 
ATOM      6  O   UNL A   1      29.490  25.367  26.554  1.00  0.00    -0.269 OA
ATOM      7  H   UNL A   1      30.012  27.470  27.313  1.00  0.00     0.163 HD
BRANCH   5   8
ATOM      8  C   UNL A   1      31.726  24.984  25.922  1.00  0.00     0.086 A 
ATOM      9  C   UNL A   1      32.526  25.246  24.750  1.00  0.00     0.106 A 
ATOM     10  N   UNL A   1      33.364  24.218  24.481  1.00  0.00    -0.167 NA
ATOM     11  N   UNL A   1      32.961  23.257  25.339  1.00  0.00    -0.239 N 
ATOM     12  C   UNL A   1      32.255  23.799  26.386  1.00  0.00     0.129 A 
BRANCH   9  13
ATOM     13  C   UNL A   1      32.510  26.447  23.912  1.00  0.00     0.007 A 
ATOM     14  C   UNL A   1      31.312  28.105  22.612  1.00  0.00     0.119 A 
ATOM     15  C   UNL A   1      32.494  28.823  22.428  1.00  0.00     0.046 A 
ATOM     16  C   UNL A   1      31.318  26.908  23.336  1.00  0.00     0.056 A 
ATOM     17  C   UNL A   1      33.685  28.362  22.983  1.00  0.00     0.005 A 
ATOM     18  C   UNL A   1      33.694  27.174  23.712  1.00  0.00     0.011 A 
BRANCH  14  19
ATOM     19  O   UNL A   1      30.200  28.610  21.991  1.00  0.00    -0.497 OA
ATOM     20  C   UNL A   1      29.059  28.679  22.843  1.00  0.00     0.278 C 
ENDBRANCH  14  19
ENDBRANCH   9  13
BRANCH  11  21
ATOM     21  C   UNL A   1      33.397  21.910  25.269  1.00  0.00     0.081 A 
ATOM     22  C   UNL A   1      32.417  20.899  25.286  1.00  0.00     0.079 A 
ATOM     23  C   UNL A   1      34.777  21.589  25.093  1.00  0.00     0.069 A 
ATOM     24  C   UNL A   1      32.836  19.608  25.031  1.00  0.00     0.167 A 
ATOM     25  C   UNL A   1      35.134  20.274  24.752  1.00  0.00     0.066 A 
ATOM     26  C   UNL A   1      34.148  19.314  24.743  1.00  0.00     0.166 A 
ATOM     27  O   UNL A   1      32.052  18.495  25.007  1.00  0.00    -0.454 OA
ATOM     28  O   UNL A   1      34.350  17.991  24.504  1.00  0.00    -0.454 OA
ATOM     29  C   UNL A   1      33.056  17.466  24.856  1.00  0.00     0.468 C 
BRANCH  23  30
ATOM     30  C   UNL A   1      35.877  22.550  25.443  1.00  0.00     0.251 C 
ATOM     31  N   UNL A   1      36.866  22.769  24.527  1.00  0.00    -0.366 N 
ATOM     32  O   UNL A   1      35.978  23.100  26.535  1.00  0.00    -0.269 OA
ATOM     33  H   UNL A   1      36.819  22.343  23.640  1.00  0.00     0.159 HD
ATOM     34  H   UNL A   1      37.627  23.351  24.753  1.00  0.00     0.159 HD
ENDBRANCH  23  30
ENDBRANCH  11  21
ENDBRANCH   5   8
ENDBRANCH   3   4
ENDBRANCH   2   3
ENDBRANCH   1   2
BRANCH   1  35
ATOM     35  C   UNL A   1      34.017  30.020  27.242  1.00  0.00     0.116 C 
BRANCH  35  36
ATOM     36  N   UNL A   1      33.920  31.166  28.142  1.00  0.00    -0.352 N 
ATOM     37  C   UNL A   1      34.818  31.562  29.115  1.00  0.00     0.251 C 
ATOM     38  H   UNL A   1      33.117  31.726  28.044  1.00  0.00     0.163 HD
ATOM     39  O   UNL A   1      34.460  32.288  30.034  1.00  0.00    -0.269 OA
BRANCH  37  40
ATOM     40  C   UNL A   1      36.214  31.101  29.023  1.00  0.00     0.039 A 
ATOM     41  C   UNL A   1      37.275  32.011  29.049  1.00  0.00     0.014 A 
ATOM     42  C   UNL A   1      36.449  29.730  28.931  1.00  0.00     0.014 A 
ATOM     43  C   UNL A   1      38.579  31.523  29.068  1.00  0.00     0.010 A 
ATOM     44  C   UNL A   1      37.728  29.248  29.065  1.00  0.00     0.010 A 
ATOM     45  C   UNL A   1      38.800  30.138  29.097  1.00  0.00    -0.014 A 
BRANCH  45  46
ATOM     46  C   UNL A   1      40.145  29.604  29.305  1.00  0.00     0.031 A 
ATOM     47  C   UNL A   1      40.529  29.434  30.738  1.00  0.00     0.074 A 
ATOM     48  C   UNL A   1      40.874  29.063  28.304  1.00  0.00     0.049 A 
ATOM     49  N   UNL A   1      41.468  30.034  31.394  1.00  0.00    -0.248 NA
ATOM     50  C   UNL A   1      39.669  28.589  31.586  1.00  0.00     0.031 C 
ATOM     51  C   UNL A   1      40.469  28.858  26.906  1.00  0.00     0.029 A 
ATOM     52  N   UNL A   1      42.094  28.464  28.347  1.00  0.00    -0.354 N 
ATOM     53  C   UNL A   1      41.468  29.470  32.670  1.00  0.00     0.074 A 
ATOM     54  C   UNL A   1      40.227  28.752  32.787  1.00  0.00     0.031 C 
ATOM     55  C   UNL A   1      41.310  27.979  26.316  1.00  0.00     0.029 A 
ATOM     56  C   UNL A   1      42.401  27.694  27.228  1.00  0.00     0.049 A 
ATOM     57  H   UNL A   1      42.710  28.565  29.108  1.00  0.00     0.167 HD
ATOM     58  C   UNL A   1      42.600  29.431  33.430  1.00  0.00     0.037 A 
ATOM     59  C   UNL A   1      43.458  26.856  27.074  1.00  0.00     0.037 A 
ATOM     60  C   UNL A   1      43.593  30.341  32.915  1.00  0.00     0.049 A 
ATOM     61  C   UNL A   1      44.472  27.250  28.086  1.00  0.00     0.074 A 
ATOM     62  C   UNL A   1      43.650  31.705  32.700  1.00  0.00     0.029 A 
ATOM     63  N   UNL A   1      44.617  29.802  32.176  1.00  0.00    -0.354 N 
ATOM     64  N   UNL A   1      45.099  28.394  28.079  1.00  0.00    -0.248 NA
ATOM     65  C   UNL A   1      44.458  26.557  29.363  1.00  0.00     0.031 C 
ATOM     66  C   UNL A   1      44.381  31.855  31.485  1.00  0.00     0.029 A 
ATOM     67  C   UNL A   1      44.792  30.588  31.067  1.00  0.00     0.049 A 
ATOM     68  H   UNL A   1      45.135  28.995  32.403  1.00  0.00     0.167 HD
ATOM     69  C   UNL A   1      45.175  28.766  29.413  1.00  0.00     0.074 A 
ATOM     70  C   UNL A   1      44.855  27.551  30.160  1.00  0.00     0.031 C 
ATOM     71  C   UNL A   1      45.210  30.082  29.776  1.00  0.00     0.037 A 
BRANCH  58  72
ATOM     72  C   UNL A   1      42.968  28.312  34.388  1.00  0.00     0.058 A 
ATOM     73  C   UNL A   1      43.198  28.621  35.748  1.00  0.00     0.135 A 
ATOM     74  C   UNL A   1      43.386  27.024  33.987  1.00  0.00     0.135 A 
ATOM     75  F   UNL A   1      42.838  29.813  36.250  1.00  0.00    -0.206 F 
ATOM     76  C   UNL A   1      43.876  27.759  36.611  1.00  0.00     0.059 A 
ATOM     77  C   UNL A   1      44.015  26.127  34.846  1.00  0.00     0.059 A 
ATOM     78  F   UNL A   1      43.297  26.599  32.723  1.00  0.00    -0.206 F 
ATOM     79  C   UNL A   1      44.298  26.519  36.142  1.00  0.00     0.060 A 
BRANCH  79  80
ATOM     80  S   UNL A   1      45.269  25.448  37.215  1.00  0.00     0.124 S 
ATOM     81  O   UNL A   1      44.979  26.013  38.528  1.00  0.00    -0.237 OA
ATOM     82  O   UNL A   1      44.689  24.138  36.940  1.00  0.00    -0.237 OA
ATOM     83  O   UNL A   1      46.634  25.638  36.732  1.00  0.00    -0.744 OA
ENDBRANCH  79  80
ENDBRANCH  58  72
BRANCH  59  84
ATOM     84  C   UNL A   1      43.513  25.560  26.345  1.00  0.00     0.058 A 
ATOM     85  C   UNL A   1      44.449  25.336  25.319  1.00  0.00     0.135 A 
ATOM     86  C   UNL A   1      42.842  24.419  26.828  1.00  0.00     0.135 A 
ATOM     87  F   UNL A   1      45.151  26.362  24.812  1.00  0.00    -0.206 F 
ATOM     88  C   UNL A   1      44.737  24.054  24.835  1.00  0.00     0.059 A 
ATOM     89  C   UNL A   1      43.106  23.132  26.357  1.00  0.00     0.059 A 
ATOM     90  F   UNL A   1      41.970  24.510  27.845  1.00  0.00    -0.206 F 
ATOM     91  C   UNL A   1      44.074  22.954  25.378  1.00  0.00     0.060 A 
BRANCH  91  92
ATOM     92  S   UNL A   1      44.564  21.284  24.880  1.00  0.00     0.124 S 
ATOM     93  O   UNL A   1      43.492  20.473  25.445  1.00  0.00    -0.237 OA
ATOM     94  O   UNL A   1      44.586  21.389  23.424  1.00  0.00    -0.237 OA
ATOM     95  O   UNL A   1      45.872  21.114  25.509  1.00  0.00    -0.744 OA
ENDBRANCH  91  92
ENDBRANCH  59  84
BRANCH  71  96
ATOM     96  C   UNL A   1      45.496  31.111  28.711  1.00  0.00     0.058 A 
ATOM     97  C   UNL A   1      44.518  31.768  27.943  1.00  0.00     0.135 A 
ATOM     98  C   UNL A   1      46.819  31.559  28.575  1.00  0.00     0.135 A 
ATOM     99  F   UNL A   1      43.219  31.476  28.082  1.00  0.00    -0.206 F 
ATOM    100  C   UNL A   1      44.847  32.794  27.054  1.00  0.00     0.059 A 
ATOM    101  C   UNL A   1      47.165  32.601  27.720  1.00  0.00     0.059 A 
ATOM    102  F   UNL A   1      47.793  31.015  29.324  1.00  0.00    -0.206 F 
ATOM    103  C   UNL A   1      46.176  33.207  26.952  1.00  0.00     0.060 A 
BRANCH 103 104
ATOM    104  S   UNL A   1      46.591  34.583  25.860  1.00  0.00     0.124 S 
ATOM    105  O   UNL A   1      47.988  34.310  25.537  1.00  0.00    -0.237 OA
ATOM    106  O   UNL A   1      45.643  34.417  24.762  1.00  0.00    -0.237 OA
ATOM    107  O   UNL A   1      46.363  35.762  26.694  1.00  0.00    -0.744 OA
ENDBRANCH 103 104
ENDBRANCH  71  96
ENDBRANCH  45  46
ENDBRANCH  37  40
ENDBRANCH  35  36
ENDBRANCH   1  35
TORSDOF 18
ENDMDL
