MODEL 1
REMARK VINA RESULT:     -12.1      0.000      0.000
REMARK SMILES CC[C@@](C)(Nc1cc([N+](=O)[O-])ccc1C)C(=O)NCCCCNC(=O)c1ccc(-c2c3nc(c(-c4c(F)cc(S(=O)(=O)[O-])cc4F)c4ccc([nH]4)c(-c4c(F)cc(S(=O)(=O)[O-])cc4F)c4nc(c(-c5c(F)cc(S(=O)(=O)[O-])cc5F)c5ccc2[nH]5)C=C4)C=C3)cc1
REMARK SMILES IDX 20 1 19 2 18 3 16 4 17 5 3 7 4 8 2 9 1 10 5 11 6 13 7 14
REMARK SMILES IDX 14 15 8 16 13 17 15 18 12 19 9 20 10 21 11 22 21 23 22 24
REMARK SMILES IDX 23 25 24 26 25 28 26 29 27 30 91 31 28 32 90 33 29 34 30 35
REMARK SMILES IDX 31 36 84 37 32 38 89 39 83 40 85 41 33 42 88 43 82 44 81 45
REMARK SMILES IDX 34 47 68 48 47 49 67 50 48 51 51 52 66 53 86 54 49 55 50 56
REMARK SMILES IDX 65 58 87 59 52 60 35 61 36 62 45 63 37 64 38 65 44 66 46 67
REMARK SMILES IDX 39 68 40 69 41 70 42 71 43 72 69 73 70 74 79 75 71 76 72 77
REMARK SMILES IDX 78 78 80 79 73 80 74 81 75 82 76 83 77 84 53 85 54 86 63 87
REMARK SMILES IDX 55 88 56 89 62 90 64 91 57 92 58 93 59 94 60 95 61 96
REMARK H PARENT 18 6 5 12 23 27 85 46 51 57
REMARK Flexibility Score: inf
ROOT
ATOM      1  C   UNL A   1      31.734  30.093  25.760  1.00  0.00     0.023 C 
ENDROOT
BRANCH   1   2
ATOM      2  C   UNL A   1      32.292  28.641  25.729  1.00  0.00     0.116 C 
BRANCH   2   3
ATOM      3  N   UNL A   1      31.406  27.559  26.176  1.00  0.00    -0.354 N 
ATOM      4  C   UNL A   1      30.498  26.685  25.643  1.00  0.00     0.245 C 
ATOM      5  O   UNL A   1      30.133  25.813  26.452  1.00  0.00    -0.272 OA
ATOM      6  H   UNL A   1      31.490  27.421  27.147  1.00  0.00     0.163 HD
BRANCH   4   7
ATOM      7  C   UNL A   1      29.880  26.688  24.182  1.00  0.00     0.113 C 
ATOM      8  C   UNL A   1      28.415  26.248  24.118  1.00  0.00     0.045 C 
BRANCH   7   9
ATOM      9  C   UNL A   1      29.962  28.176  23.657  1.00  0.00     0.035 C 
ATOM     10  C   UNL A   1      30.756  28.405  22.372  1.00  0.00     0.007 C 
ENDBRANCH   7   9
BRANCH   7  11
ATOM     11  N   UNL A   1      30.637  25.892  23.123  1.00  0.00    -0.371 N 
ATOM     12  H   UNL A   1      30.513  26.186  22.192  1.00  0.00     0.161 HD
BRANCH  11  13
ATOM     13  C   UNL A   1      31.477  24.808  23.308  1.00  0.00     0.045 A 
ATOM     14  C   UNL A   1      31.063  23.624  23.914  1.00  0.00     0.111 A 
ATOM     15  C   UNL A   1      32.839  24.863  23.054  1.00  0.00    -0.027 A 
ATOM     16  C   UNL A   1      31.965  22.542  24.048  1.00  0.00     0.271 A 
ATOM     17  C   UNL A   1      33.648  23.730  22.886  1.00  0.00     0.012 A 
ATOM     18  C   UNL A   1      33.568  26.084  23.497  1.00  0.00     0.046 C 
ATOM     19  C   UNL A   1      33.209  22.541  23.414  1.00  0.00     0.086 A 
BRANCH  16  20
ATOM     20  N   UNL A   1      31.684  21.470  25.006  1.00  0.00     0.062 N 
ATOM     21  O   UNL A   1      32.168  20.351  24.783  1.00  0.00    -0.258 OA
ATOM     22  O   UNL A   1      30.939  21.730  25.963  1.00  0.00    -0.258 OA
ENDBRANCH  16  20
ENDBRANCH  11  13
ENDBRANCH   7  11
ENDBRANCH   4   7
ENDBRANCH   2   3
ENDBRANCH   1   2
BRANCH   1  23
ATOM     23  C   UNL A   1      32.261  31.079  26.826  1.00  0.00     0.023 C 
BRANCH  23  24
ATOM     24  C   UNL A   1      33.527  30.664  27.540  1.00  0.00     0.116 C 
BRANCH  24  25
ATOM     25  N   UNL A   1      34.136  31.707  28.369  1.00  0.00    -0.352 N 
ATOM     26  C   UNL A   1      35.253  31.549  29.182  1.00  0.00     0.251 C 
ATOM     27  H   UNL A   1      33.719  32.598  28.347  1.00  0.00     0.163 HD
ATOM     28  O   UNL A   1      35.657  32.398  29.953  1.00  0.00    -0.269 OA
BRANCH  26  29
ATOM     29  C   UNL A   1      35.987  30.277  28.987  1.00  0.00     0.039 A 
ATOM     30  C   UNL A   1      36.295  29.585  30.164  1.00  0.00     0.014 A 
ATOM     31  C   UNL A   1      36.780  30.173  27.846  1.00  0.00     0.014 A 
ATOM     32  C   UNL A   1      37.544  28.987  30.288  1.00  0.00     0.010 A 
ATOM     33  C   UNL A   1      38.052  29.647  28.004  1.00  0.00     0.010 A 
ATOM     34  C   UNL A   1      38.459  29.127  29.248  1.00  0.00    -0.014 A 
BRANCH  34  35
ATOM     35  C   UNL A   1      39.888  28.859  29.396  1.00  0.00     0.031 A 
ATOM     36  C   UNL A   1      40.392  27.500  29.095  1.00  0.00     0.074 A 
ATOM     37  C   UNL A   1      40.772  29.823  29.752  1.00  0.00     0.049 A 
ATOM     38  N   UNL A   1      41.589  27.100  29.360  1.00  0.00    -0.248 NA
ATOM     39  C   UNL A   1      39.546  26.443  28.538  1.00  0.00     0.031 C 
ATOM     40  C   UNL A   1      42.226  29.793  29.590  1.00  0.00     0.029 A 
ATOM     41  N   UNL A   1      40.552  30.934  30.565  1.00  0.00    -0.354 N 
ATOM     42  C   UNL A   1      41.761  25.891  28.741  1.00  0.00     0.074 A 
ATOM     43  C   UNL A   1      40.439  25.465  28.363  1.00  0.00     0.031 C 
ATOM     44  C   UNL A   1      42.787  30.651  30.453  1.00  0.00     0.029 A 
ATOM     45  C   UNL A   1      41.733  31.175  31.298  1.00  0.00     0.049 A 
ATOM     46  H   UNL A   1      39.719  31.458  30.617  1.00  0.00     0.167 HD
ATOM     47  C   UNL A   1      43.024  25.455  28.497  1.00  0.00     0.037 A 
ATOM     48  C   UNL A   1      41.730  31.111  32.664  1.00  0.00     0.037 A 
ATOM     49  C   UNL A   1      43.989  26.120  29.372  1.00  0.00     0.049 A 
ATOM     50  C   UNL A   1      42.521  29.953  33.245  1.00  0.00     0.074 A 
ATOM     51  C   UNL A   1      45.002  27.050  29.229  1.00  0.00     0.029 A 
ATOM     52  N   UNL A   1      43.797  25.983  30.738  1.00  0.00    -0.354 N 
ATOM     53  N   UNL A   1      43.285  29.146  32.559  1.00  0.00    -0.248 NA
ATOM     54  C   UNL A   1      42.432  29.566  34.656  1.00  0.00     0.031 C 
ATOM     55  C   UNL A   1      45.324  27.551  30.535  1.00  0.00     0.029 A 
ATOM     56  C   UNL A   1      44.539  26.891  31.465  1.00  0.00     0.049 A 
ATOM     57  H   UNL A   1      43.198  25.315  31.143  1.00  0.00     0.167 HD
ATOM     58  C   UNL A   1      43.660  28.096  33.359  1.00  0.00     0.074 A 
ATOM     59  C   UNL A   1      43.141  28.425  34.674  1.00  0.00     0.031 C 
ATOM     60  C   UNL A   1      44.302  26.983  32.899  1.00  0.00     0.037 A 
BRANCH  47  61
ATOM     61  C   UNL A   1      43.373  24.499  27.383  1.00  0.00     0.058 A 
ATOM     62  C   UNL A   1      43.539  23.125  27.643  1.00  0.00     0.135 A 
ATOM     63  C   UNL A   1      43.701  24.897  26.064  1.00  0.00     0.135 A 
ATOM     64  F   UNL A   1      43.304  22.622  28.864  1.00  0.00    -0.206 F 
ATOM     65  C   UNL A   1      43.992  22.221  26.674  1.00  0.00     0.059 A 
ATOM     66  C   UNL A   1      44.095  24.007  25.068  1.00  0.00     0.059 A 
ATOM     67  F   UNL A   1      43.736  26.183  25.690  1.00  0.00    -0.206 F 
ATOM     68  C   UNL A   1      44.268  22.673  25.387  1.00  0.00     0.060 A 
BRANCH  68  69
ATOM     69  S   UNL A   1      44.902  21.530  24.147  1.00  0.00     0.124 S 
ATOM     70  O   UNL A   1      44.529  22.203  22.906  1.00  0.00    -0.237 OA
ATOM     71  O   UNL A   1      46.328  21.494  24.450  1.00  0.00    -0.237 OA
ATOM     72  O   UNL A   1      44.178  20.292  24.426  1.00  0.00    -0.744 OA
ENDBRANCH  68  69
ENDBRANCH  47  61
BRANCH  48  73
ATOM     73  C   UNL A   1      40.494  31.701  33.245  1.00  0.00     0.058 A 
ATOM     74  C   UNL A   1      39.452  30.811  33.568  1.00  0.00     0.135 A 
ATOM     75  C   UNL A   1      40.519  32.943  33.893  1.00  0.00     0.135 A 
ATOM     76  F   UNL A   1      39.375  29.615  32.960  1.00  0.00    -0.206 F 
ATOM     77  C   UNL A   1      38.592  31.057  34.629  1.00  0.00     0.059 A 
ATOM     78  C   UNL A   1      39.658  33.216  34.954  1.00  0.00     0.059 A 
ATOM     79  F   UNL A   1      41.488  33.830  33.618  1.00  0.00    -0.206 F 
ATOM     80  C   UNL A   1      38.759  32.230  35.363  1.00  0.00     0.060 A 
BRANCH  80  81
ATOM     81  S   UNL A   1      37.954  32.324  36.979  1.00  0.00     0.124 S 
ATOM     82  O   UNL A   1      38.999  32.919  37.802  1.00  0.00    -0.237 OA
ATOM     83  O   UNL A   1      36.812  33.187  36.679  1.00  0.00    -0.237 OA
ATOM     84  O   UNL A   1      37.630  30.933  37.269  1.00  0.00    -0.744 OA
ENDBRANCH  80  81
ENDBRANCH  48  73
BRANCH  60  85
ATOM     85  C   UNL A   1      44.699  25.859  33.816  1.00  0.00     0.058 A 
ATOM     86  C   UNL A   1      46.047  25.510  34.005  1.00  0.00     0.135 A 
ATOM     87  C   UNL A   1      43.745  25.032  34.444  1.00  0.00     0.135 A 
ATOM     88  F   UNL A   1      47.024  26.230  33.429  1.00  0.00    -0.206 F 
ATOM     89  C   UNL A   1      46.429  24.417  34.783  1.00  0.00     0.059 A 
ATOM     90  C   UNL A   1      44.101  23.909  35.186  1.00  0.00     0.059 A 
ATOM     91  F   UNL A   1      42.435  25.313  34.377  1.00  0.00    -0.206 F 
ATOM     92  C   UNL A   1      45.448  23.617  35.364  1.00  0.00     0.060 A 
BRANCH  92  93
ATOM     93  S   UNL A   1      45.930  22.169  36.326  1.00  0.00     0.124 S 
ATOM     94  O   UNL A   1      47.387  22.181  36.219  1.00  0.00    -0.237 OA
ATOM     95  O   UNL A   1      45.394  22.503  37.642  1.00  0.00    -0.237 OA
ATOM     96  O   UNL A   1      45.268  21.070  35.632  1.00  0.00    -0.744 OA
ENDBRANCH  92  93
ENDBRANCH  60  85
ENDBRANCH  34  35
ENDBRANCH  26  29
ENDBRANCH  24  25
ENDBRANCH  23  24
ENDBRANCH   1  23
TORSDOF 18
ENDMDL
MODEL 2
REMARK VINA RESULT:     -12.1      1.486      2.108
REMARK SMILES CC[C@@](C)(Nc1cc([N+](=O)[O-])ccc1C)C(=O)NCCCCNC(=O)c1ccc(-c2c3nc(c(-c4c(F)cc(S(=O)(=O)[O-])cc4F)c4ccc([nH]4)c(-c4c(F)cc(S(=O)(=O)[O-])cc4F)c4nc(c(-c5c(F)cc(S(=O)(=O)[O-])cc5F)c5ccc2[nH]5)C=C4)C=C3)cc1
REMARK SMILES IDX 20 1 19 2 18 3 16 4 17 5 3 7 4 8 2 9 1 10 5 11 6 13 7 14
REMARK SMILES IDX 14 15 8 16 13 17 15 18 12 19 9 20 10 21 11 22 21 23 22 24
REMARK SMILES IDX 23 25 24 26 25 28 26 29 27 30 91 31 28 32 90 33 29 34 30 35
REMARK SMILES IDX 31 36 84 37 32 38 89 39 83 40 85 41 33 42 88 43 82 44 81 45
REMARK SMILES IDX 34 47 68 48 47 49 67 50 48 51 51 52 66 53 86 54 49 55 50 56
REMARK SMILES IDX 65 58 87 59 52 60 35 61 36 62 45 63 37 64 38 65 44 66 46 67
REMARK SMILES IDX 39 68 40 69 41 70 42 71 43 72 69 73 70 74 79 75 71 76 72 77
REMARK SMILES IDX 78 78 80 79 73 80 74 81 75 82 76 83 77 84 53 85 54 86 63 87
REMARK SMILES IDX 55 88 56 89 62 90 64 91 57 92 58 93 59 94 60 95 61 96
REMARK H PARENT 18 6 5 12 23 27 85 46 51 57
REMARK Flexibility Score: inf
ROOT
ATOM      1  C   UNL A   1      31.652  30.379  25.715  1.00  0.00     0.023 C 
ENDROOT
BRANCH   1   2
ATOM      2  C   UNL A   1      31.012  29.581  24.542  1.00  0.00     0.116 C 
BRANCH   2   3
ATOM      3  N   UNL A   1      31.862  28.624  23.823  1.00  0.00    -0.354 N 
ATOM      4  C   UNL A   1      32.203  27.300  23.885  1.00  0.00     0.245 C 
ATOM      5  O   UNL A   1      32.854  26.921  22.895  1.00  0.00    -0.272 OA
ATOM      6  H   UNL A   1      32.323  29.065  23.073  1.00  0.00     0.163 HD
BRANCH   4   7
ATOM      7  C   UNL A   1      31.888  26.263  25.043  1.00  0.00     0.113 C 
ATOM      8  C   UNL A   1      32.561  26.589  26.380  1.00  0.00     0.045 C 
BRANCH   7   9
ATOM      9  C   UNL A   1      30.324  26.294  25.268  1.00  0.00     0.035 C 
ATOM     10  C   UNL A   1      29.451  26.046  24.039  1.00  0.00     0.007 C 
ENDBRANCH   7   9
BRANCH   7  11
ATOM     11  N   UNL A   1      32.177  24.797  24.738  1.00  0.00    -0.371 N 
ATOM     12  H   UNL A   1      31.876  24.472  23.859  1.00  0.00     0.161 HD
BRANCH  11  13
ATOM     13  C   UNL A   1      32.809  23.866  25.542  1.00  0.00     0.045 A 
ATOM     14  C   UNL A   1      34.093  23.391  25.286  1.00  0.00     0.111 A 
ATOM     15  C   UNL A   1      32.162  23.206  26.577  1.00  0.00    -0.027 A 
ATOM     16  C   UNL A   1      34.694  22.458  26.165  1.00  0.00     0.271 A 
ATOM     17  C   UNL A   1      32.828  22.542  27.617  1.00  0.00     0.012 A 
ATOM     18  C   UNL A   1      30.778  22.719  26.318  1.00  0.00     0.046 C 
ATOM     19  C   UNL A   1      34.124  22.140  27.399  1.00  0.00     0.086 A 
BRANCH  16  20
ATOM     20  N   UNL A   1      35.843  21.667  25.718  1.00  0.00     0.062 N 
ATOM     21  O   UNL A   1      36.971  22.167  25.835  1.00  0.00    -0.258 OA
ATOM     22  O   UNL A   1      35.620  20.560  25.205  1.00  0.00    -0.258 OA
ENDBRANCH  16  20
ENDBRANCH  11  13
ENDBRANCH   7  11
ENDBRANCH   4   7
ENDBRANCH   2   3
ENDBRANCH   1   2
BRANCH   1  23
ATOM     23  C   UNL A   1      33.124  30.107  26.095  1.00  0.00     0.023 C 
BRANCH  23  24
ATOM     24  C   UNL A   1      33.431  30.084  27.574  1.00  0.00     0.116 C 
BRANCH  24  25
ATOM     25  N   UNL A   1      34.051  31.304  28.094  1.00  0.00    -0.352 N 
ATOM     26  C   UNL A   1      35.295  31.385  28.710  1.00  0.00     0.251 C 
ATOM     27  H   UNL A   1      33.542  32.142  27.997  1.00  0.00     0.163 HD
ATOM     28  O   UNL A   1      35.725  32.390  29.242  1.00  0.00    -0.269 OA
BRANCH  26  29
ATOM     29  C   UNL A   1      36.118  30.158  28.605  1.00  0.00     0.039 A 
ATOM     30  C   UNL A   1      36.387  29.520  29.822  1.00  0.00     0.014 A 
ATOM     31  C   UNL A   1      36.994  30.075  27.525  1.00  0.00     0.014 A 
ATOM     32  C   UNL A   1      37.660  29.008  30.049  1.00  0.00     0.010 A 
ATOM     33  C   UNL A   1      38.283  29.638  27.785  1.00  0.00     0.010 A 
ATOM     34  C   UNL A   1      38.634  29.178  29.070  1.00  0.00    -0.014 A 
BRANCH  34  35
ATOM     35  C   UNL A   1      40.064  29.008  29.322  1.00  0.00     0.031 A 
ATOM     36  C   UNL A   1      40.666  27.670  29.125  1.00  0.00     0.074 A 
ATOM     37  C   UNL A   1      40.863  30.041  29.684  1.00  0.00     0.049 A 
ATOM     38  N   UNL A   1      41.864  27.359  29.486  1.00  0.00    -0.248 NA
ATOM     39  C   UNL A   1      39.923  26.537  28.571  1.00  0.00     0.031 C 
ATOM     40  C   UNL A   1      42.324  30.094  29.617  1.00  0.00     0.029 A 
ATOM     41  N   UNL A   1      40.523  31.174  30.423  1.00  0.00    -0.354 N 
ATOM     42  C   UNL A   1      42.148  26.135  28.943  1.00  0.00     0.074 A 
ATOM     43  C   UNL A   1      40.883  25.609  28.503  1.00  0.00     0.031 C 
ATOM     44  C   UNL A   1      42.773  31.026  30.468  1.00  0.00     0.029 A 
ATOM     45  C   UNL A   1      41.636  31.523  31.217  1.00  0.00     0.049 A 
ATOM     46  H   UNL A   1      39.659  31.646  30.394  1.00  0.00     0.167 HD
ATOM     47  C   UNL A   1      43.449  25.768  28.803  1.00  0.00     0.037 A 
ATOM     48  C   UNL A   1      41.545  31.524  32.580  1.00  0.00     0.037 A 
ATOM     49  C   UNL A   1      44.312  26.533  29.703  1.00  0.00     0.049 A 
ATOM     50  C   UNL A   1      42.362  30.446  33.270  1.00  0.00     0.074 A 
ATOM     51  C   UNL A   1      45.275  27.517  29.577  1.00  0.00     0.029 A 
ATOM     52  N   UNL A   1      44.037  26.450  31.059  1.00  0.00    -0.354 N 
ATOM     53  N   UNL A   1      43.218  29.658  32.677  1.00  0.00    -0.248 NA
ATOM     54  C   UNL A   1      42.202  30.123  34.691  1.00  0.00     0.031 C 
ATOM     55  C   UNL A   1      45.478  28.098  30.873  1.00  0.00     0.029 A 
ATOM     56  C   UNL A   1      44.673  27.435  31.784  1.00  0.00     0.049 A 
ATOM     57  H   UNL A   1      43.453  25.765  31.459  1.00  0.00     0.167 HD
ATOM     58  C   UNL A   1      43.600  28.672  33.553  1.00  0.00     0.074 A 
ATOM     59  C   UNL A   1      42.975  29.031  34.813  1.00  0.00     0.031 C 
ATOM     60  C   UNL A   1      44.335  27.581  33.193  1.00  0.00     0.037 A 
BRANCH  47  61
ATOM     61  C   UNL A   1      43.928  24.783  27.765  1.00  0.00     0.058 A 
ATOM     62  C   UNL A   1      43.825  25.081  26.392  1.00  0.00     0.135 A 
ATOM     63  C   UNL A   1      44.363  23.467  28.055  1.00  0.00     0.135 A 
ATOM     64  F   UNL A   1      43.384  26.279  25.979  1.00  0.00    -0.206 F 
ATOM     65  C   UNL A   1      44.130  24.151  25.391  1.00  0.00     0.059 A 
ATOM     66  C   UNL A   1      44.729  22.545  27.077  1.00  0.00     0.059 A 
ATOM     67  F   UNL A   1      44.379  22.975  29.301  1.00  0.00    -0.206 F 
ATOM     68  C   UNL A   1      44.582  22.883  25.745  1.00  0.00     0.060 A 
BRANCH  68  69
ATOM     69  S   UNL A   1      44.926  21.660  24.467  1.00  0.00     0.124 S 
ATOM     70  O   UNL A   1      44.574  22.393  23.255  1.00  0.00    -0.237 OA
ATOM     71  O   UNL A   1      46.347  21.391  24.662  1.00  0.00    -0.237 OA
ATOM     72  O   UNL A   1      44.034  20.554  24.808  1.00  0.00    -0.744 OA
ENDBRANCH  68  69
ENDBRANCH  47  61
BRANCH  48  73
ATOM     73  C   UNL A   1      40.240  32.063  33.050  1.00  0.00     0.058 A 
ATOM     74  C   UNL A   1      39.282  31.127  33.483  1.00  0.00     0.135 A 
ATOM     75  C   UNL A   1      40.123  33.381  33.510  1.00  0.00     0.135 A 
ATOM     76  F   UNL A   1      39.341  29.854  33.055  1.00  0.00    -0.206 F 
ATOM     77  C   UNL A   1      38.370  31.434  34.483  1.00  0.00     0.059 A 
ATOM     78  C   UNL A   1      39.208  33.714  34.506  1.00  0.00     0.059 A 
ATOM     79  F   UNL A   1      41.008  34.313  33.124  1.00  0.00    -0.206 F 
ATOM     80  C   UNL A   1      38.398  32.711  35.041  1.00  0.00     0.060 A 
BRANCH  80  81
ATOM     81  S   UNL A   1      37.539  32.954  36.613  1.00  0.00     0.124 S 
ATOM     82  O   UNL A   1      37.481  31.595  37.138  1.00  0.00    -0.237 OA
ATOM     83  O   UNL A   1      38.456  33.862  37.301  1.00  0.00    -0.237 OA
ATOM     84  O   UNL A   1      36.265  33.535  36.209  1.00  0.00    -0.744 OA
ENDBRANCH  80  81
ENDBRANCH  48  73
BRANCH  60  85
ATOM     85  C   UNL A   1      44.736  26.530  34.190  1.00  0.00     0.058 A 
ATOM     86  C   UNL A   1      46.080  26.342  34.557  1.00  0.00     0.135 A 
ATOM     87  C   UNL A   1      43.809  25.612  34.724  1.00  0.00     0.135 A 
ATOM     88  F   UNL A   1      47.036  27.157  34.081  1.00  0.00    -0.206 F 
ATOM     89  C   UNL A   1      46.479  25.316  35.413  1.00  0.00     0.059 A 
ATOM     90  C   UNL A   1      44.190  24.552  35.543  1.00  0.00     0.059 A 
ATOM     91  F   UNL A   1      42.494  25.738  34.486  1.00  0.00    -0.206 F 
ATOM     92  C   UNL A   1      45.528  24.420  35.896  1.00  0.00     0.060 A 
BRANCH  92  93
ATOM     93  S   UNL A   1      46.044  23.058  36.960  1.00  0.00     0.124 S 
ATOM     94  O   UNL A   1      45.492  23.435  38.259  1.00  0.00    -0.237 OA
ATOM     95  O   UNL A   1      45.399  21.921  36.309  1.00  0.00    -0.237 OA
ATOM     96  O   UNL A   1      47.499  23.096  36.871  1.00  0.00    -0.744 OA
ENDBRANCH  92  93
ENDBRANCH  60  85
ENDBRANCH  34  35
ENDBRANCH  26  29
ENDBRANCH  24  25
ENDBRANCH  23  24
ENDBRANCH   1  23
TORSDOF 18
ENDMDL
MODEL 3
REMARK VINA RESULT:     -12.0      1.567      2.946
REMARK SMILES CC[C@@](C)(Nc1cc([N+](=O)[O-])ccc1C)C(=O)NCCCCNC(=O)c1ccc(-c2c3nc(c(-c4c(F)cc(S(=O)(=O)[O-])cc4F)c4ccc([nH]4)c(-c4c(F)cc(S(=O)(=O)[O-])cc4F)c4nc(c(-c5c(F)cc(S(=O)(=O)[O-])cc5F)c5ccc2[nH]5)C=C4)C=C3)cc1
REMARK SMILES IDX 20 1 19 2 18 3 16 4 17 5 3 7 4 8 2 9 1 10 5 11 6 13 7 14
REMARK SMILES IDX 14 15 8 16 13 17 15 18 12 19 9 20 10 21 11 22 21 23 22 24
REMARK SMILES IDX 23 25 24 26 25 28 26 29 27 30 91 31 28 32 90 33 29 34 30 35
REMARK SMILES IDX 31 36 84 37 32 38 89 39 83 40 85 41 33 42 88 43 82 44 81 45
REMARK SMILES IDX 34 47 68 48 47 49 67 50 48 51 51 52 66 53 86 54 49 55 50 56
REMARK SMILES IDX 65 58 87 59 52 60 35 61 36 62 45 63 37 64 38 65 44 66 46 67
REMARK SMILES IDX 39 68 40 69 41 70 42 71 43 72 69 73 70 74 79 75 71 76 72 77
REMARK SMILES IDX 78 78 80 79 73 80 74 81 75 82 76 83 77 84 53 85 54 86 63 87
REMARK SMILES IDX 55 88 56 89 62 90 64 91 57 92 58 93 59 94 60 95 61 96
REMARK H PARENT 18 6 5 12 23 27 85 46 51 57
REMARK Flexibility Score: inf
ROOT
ATOM      1  C   UNL A   1      32.073  30.711  25.999  1.00  0.00     0.023 C 
ENDROOT
BRANCH   1   2
ATOM      2  C   UNL A   1      31.245  29.434  25.680  1.00  0.00     0.116 C 
BRANCH   2   3
ATOM      3  N   UNL A   1      31.959  28.152  25.621  1.00  0.00    -0.354 N 
ATOM      4  C   UNL A   1      32.546  27.342  24.688  1.00  0.00     0.245 C 
ATOM      5  O   UNL A   1      33.194  26.409  25.195  1.00  0.00    -0.272 OA
ATOM      6  H   UNL A   1      32.037  27.758  26.520  1.00  0.00     0.163 HD
BRANCH   4   7
ATOM      7  C   UNL A   1      32.467  27.455  23.107  1.00  0.00     0.113 C 
ATOM      8  C   UNL A   1      32.938  28.801  22.548  1.00  0.00     0.045 C 
BRANCH   7   9
ATOM      9  C   UNL A   1      33.412  26.331  22.524  1.00  0.00     0.035 C 
ATOM     10  C   UNL A   1      32.897  25.571  21.303  1.00  0.00     0.007 C 
ENDBRANCH   7   9
BRANCH   7  11
ATOM     11  N   UNL A   1      31.114  27.152  22.472  1.00  0.00    -0.371 N 
ATOM     12  H   UNL A   1      31.121  26.507  21.728  1.00  0.00     0.161 HD
BRANCH  11  13
ATOM     13  C   UNL A   1      29.876  27.669  22.811  1.00  0.00     0.045 A 
ATOM     14  C   UNL A   1      29.525  28.998  22.589  1.00  0.00     0.111 A 
ATOM     15  C   UNL A   1      28.940  26.954  23.543  1.00  0.00    -0.027 A 
ATOM     16  C   UNL A   1      28.231  29.458  22.935  1.00  0.00     0.271 A 
ATOM     17  C   UNL A   1      27.578  27.284  23.603  1.00  0.00     0.012 A 
ATOM     18  C   UNL A   1      29.438  26.166  24.706  1.00  0.00     0.046 C 
ATOM     19  C   UNL A   1      27.216  28.576  23.310  1.00  0.00     0.086 A 
BRANCH  16  20
ATOM     20  N   UNL A   1      27.979  30.893  23.079  1.00  0.00     0.062 N 
ATOM     21  O   UNL A   1      27.136  31.253  23.912  1.00  0.00    -0.258 OA
ATOM     22  O   UNL A   1      28.590  31.667  22.324  1.00  0.00    -0.258 OA
ENDBRANCH  16  20
ENDBRANCH  11  13
ENDBRANCH   7  11
ENDBRANCH   4   7
ENDBRANCH   2   3
ENDBRANCH   1   2
BRANCH   1  23
ATOM     23  C   UNL A   1      33.522  30.559  26.510  1.00  0.00     0.023 C 
BRANCH  23  24
ATOM     24  C   UNL A   1      33.685  30.429  28.007  1.00  0.00     0.116 C 
BRANCH  24  25
ATOM     25  N   UNL A   1      34.321  31.575  28.659  1.00  0.00    -0.352 N 
ATOM     26  C   UNL A   1      35.525  31.549  29.355  1.00  0.00     0.251 C 
ATOM     27  H   UNL A   1      33.856  32.441  28.599  1.00  0.00     0.163 HD
ATOM     28  O   UNL A   1      35.963  32.489  29.991  1.00  0.00    -0.269 OA
BRANCH  26  29
ATOM     29  C   UNL A   1      36.301  30.297  29.202  1.00  0.00     0.039 A 
ATOM     30  C   UNL A   1      36.570  29.617  30.397  1.00  0.00     0.014 A 
ATOM     31  C   UNL A   1      37.152  30.210  28.102  1.00  0.00     0.014 A 
ATOM     32  C   UNL A   1      37.827  29.054  30.585  1.00  0.00     0.010 A 
ATOM     33  C   UNL A   1      38.428  29.719  28.324  1.00  0.00     0.010 A 
ATOM     34  C   UNL A   1      38.787  29.214  29.590  1.00  0.00    -0.014 A 
BRANCH  34  35
ATOM     35  C   UNL A   1      40.214  28.985  29.809  1.00  0.00     0.031 A 
ATOM     36  C   UNL A   1      40.789  27.671  29.441  1.00  0.00     0.074 A 
ATOM     37  C   UNL A   1      41.036  29.950  30.292  1.00  0.00     0.049 A 
ATOM     38  N   UNL A   1      41.982  27.294  29.752  1.00  0.00    -0.248 NA
ATOM     39  C   UNL A   1      40.021  26.631  28.755  1.00  0.00     0.031 C 
ATOM     40  C   UNL A   1      42.498  29.982  30.221  1.00  0.00     0.029 A 
ATOM     41  N   UNL A   1      40.723  30.987  31.169  1.00  0.00    -0.354 N 
ATOM     42  C   UNL A   1      42.239  26.143  29.058  1.00  0.00     0.074 A 
ATOM     43  C   UNL A   1      40.961  25.701  28.565  1.00  0.00     0.031 C 
ATOM     44  C   UNL A   1      42.970  30.791  31.179  1.00  0.00     0.029 A 
ATOM     45  C   UNL A   1      41.846  31.212  31.992  1.00  0.00     0.049 A 
ATOM     46  H   UNL A   1      39.869  31.476  31.206  1.00  0.00     0.167 HD
ATOM     47  C   UNL A   1      43.531  25.771  28.864  1.00  0.00     0.037 A 
ATOM     48  C   UNL A   1      41.762  31.044  33.346  1.00  0.00     0.037 A 
ATOM     49  C   UNL A   1      44.413  26.400  29.846  1.00  0.00     0.049 A 
ATOM     50  C   UNL A   1      42.561  29.873  33.889  1.00  0.00     0.074 A 
ATOM     51  C   UNL A   1      45.396  27.373  29.837  1.00  0.00     0.029 A 
ATOM     52  N   UNL A   1      44.143  26.153  31.183  1.00  0.00    -0.354 N 
ATOM     53  N   UNL A   1      43.397  29.148  33.196  1.00  0.00    -0.248 NA
ATOM     54  C   UNL A   1      42.400  29.377  35.260  1.00  0.00     0.031 C 
ATOM     55  C   UNL A   1      45.617  27.783  31.194  1.00  0.00     0.029 A 
ATOM     56  C   UNL A   1      44.803  27.027  32.021  1.00  0.00     0.049 A 
ATOM     57  H   UNL A   1      43.548  25.435  31.498  1.00  0.00     0.167 HD
ATOM     58  C   UNL A   1      43.763  28.053  33.939  1.00  0.00     0.074 A 
ATOM     59  C   UNL A   1      43.152  28.263  35.238  1.00  0.00     0.031 C 
ATOM     60  C   UNL A   1      44.475  27.002  33.440  1.00  0.00     0.037 A 
BRANCH  47  61
ATOM     61  C   UNL A   1      43.985  24.915  27.707  1.00  0.00     0.058 A 
ATOM     62  C   UNL A   1      44.660  23.700  27.935  1.00  0.00     0.135 A 
ATOM     63  C   UNL A   1      43.914  25.309  26.348  1.00  0.00     0.135 A 
ATOM     64  F   UNL A   1      44.835  23.233  29.180  1.00  0.00    -0.206 F 
ATOM     65  C   UNL A   1      45.217  22.938  26.900  1.00  0.00     0.059 A 
ATOM     66  C   UNL A   1      44.408  24.538  25.298  1.00  0.00     0.059 A 
ATOM     67  F   UNL A   1      43.435  26.500  25.971  1.00  0.00    -0.206 F 
ATOM     68  C   UNL A   1      45.085  23.367  25.583  1.00  0.00     0.060 A 
BRANCH  68  69
ATOM     69  S   UNL A   1      45.844  22.424  24.248  1.00  0.00     0.124 S 
ATOM     70  O   UNL A   1      46.766  23.403  23.681  1.00  0.00    -0.237 OA
ATOM     71  O   UNL A   1      46.456  21.307  24.960  1.00  0.00    -0.237 OA
ATOM     72  O   UNL A   1      44.710  22.069  23.397  1.00  0.00    -0.744 OA
ENDBRANCH  68  69
ENDBRANCH  47  61
BRANCH  48  73
ATOM     73  C   UNL A   1      40.471  31.545  33.889  1.00  0.00     0.058 A 
ATOM     74  C   UNL A   1      39.484  30.583  34.180  1.00  0.00     0.135 A 
ATOM     75  C   UNL A   1      40.389  32.784  34.536  1.00  0.00     0.135 A 
ATOM     76  F   UNL A   1      39.510  29.386  33.571  1.00  0.00    -0.206 F 
ATOM     77  C   UNL A   1      38.577  30.767  35.214  1.00  0.00     0.059 A 
ATOM     78  C   UNL A   1      39.479  32.995  35.570  1.00  0.00     0.059 A 
ATOM     79  F   UNL A   1      41.301  33.738  34.291  1.00  0.00    -0.206 F 
ATOM     80  C   UNL A   1      38.638  31.947  35.952  1.00  0.00     0.060 A 
BRANCH  80  81
ATOM     81  S   UNL A   1      37.780  31.982  37.543  1.00  0.00     0.124 S 
ATOM     82  O   UNL A   1      38.835  32.424  38.445  1.00  0.00    -0.237 OA
ATOM     83  O   UNL A   1      36.722  32.955  37.274  1.00  0.00    -0.237 OA
ATOM     84  O   UNL A   1      37.336  30.603  37.709  1.00  0.00    -0.744 OA
ENDBRANCH  80  81
ENDBRANCH  48  73
BRANCH  60  85
ATOM     85  C   UNL A   1      44.859  25.826  34.295  1.00  0.00     0.058 A 
ATOM     86  C   UNL A   1      46.192  25.606  34.683  1.00  0.00     0.135 A 
ATOM     87  C   UNL A   1      43.930  24.829  34.659  1.00  0.00     0.135 A 
ATOM     88  F   UNL A   1      47.149  26.493  34.363  1.00  0.00    -0.206 F 
ATOM     89  C   UNL A   1      46.579  24.476  35.401  1.00  0.00     0.059 A 
ATOM     90  C   UNL A   1      44.301  23.670  35.335  1.00  0.00     0.059 A 
ATOM     91  F   UNL A   1      42.623  24.970  34.390  1.00  0.00    -0.206 F 
ATOM     92  C   UNL A   1      45.628  23.508  35.717  1.00  0.00     0.060 A 
BRANCH  92  93
ATOM     93  S   UNL A   1      46.130  22.017  36.599  1.00  0.00     0.124 S 
ATOM     94  O   UNL A   1      45.723  22.301  37.973  1.00  0.00    -0.237 OA
ATOM     95  O   UNL A   1      45.348  20.995  35.910  1.00  0.00    -0.237 OA
ATOM     96  O   UNL A   1      47.571  21.967  36.378  1.00  0.00    -0.744 OA
ENDBRANCH  92  93
ENDBRANCH  60  85
ENDBRANCH  34  35
ENDBRANCH  26  29
ENDBRANCH  24  25
ENDBRANCH  23  24
ENDBRANCH   1  23
TORSDOF 18
ENDMDL
