MODEL 1
REMARK VINA RESULT:     -10.3      0.000      0.000
REMARK SMILES CC[C@H]1CCC[C@@H]([NH2+][C@@](C)(CC)C(=O)NCCCCNC(=O)c2ccc(-c3c4nc(c(-c5c(F)cc(S(=O)(=O)[O-])cc5F)c5ccc([nH]5)c(-c5c(F)cc(S(=O)(=O)[O-])cc5F)c5nc(c(-c6c(F)cc(S(=O)(=O)[O-])cc6F)c6ccc3[nH]6)C=C5)C=C4)cc2)C1
REMARK SMILES IDX 17 1 16 2 15 3 13 4 14 5 9 7 10 8 8 9 7 12 3 13 4 14 89 15
REMARK SMILES IDX 5 16 6 17 2 18 1 19 11 20 12 21 18 22 19 23 20 24 21 25
REMARK SMILES IDX 22 27 23 28 24 29 88 30 25 31 87 32 26 33 27 34 28 35 81 36
REMARK SMILES IDX 29 37 86 38 80 39 82 40 30 41 85 42 79 43 78 44 31 46 65 47
REMARK SMILES IDX 44 48 64 49 45 50 48 51 63 52 83 53 46 54 47 55 62 57 84 58
REMARK SMILES IDX 49 59 32 60 33 61 42 62 34 63 35 64 41 65 43 66 36 67 37 68
REMARK SMILES IDX 38 69 39 70 40 71 66 72 67 73 76 74 68 75 69 76 75 77 77 78
REMARK SMILES IDX 70 79 71 80 72 81 73 82 74 83 50 84 51 85 60 86 52 87 53 88
REMARK SMILES IDX 59 89 61 90 54 91 55 92 56 93 57 94 58 95
REMARK H PARENT 15 6 8 10 8 11 20 26 82 45 48 56
REMARK Flexibility Score: inf
ROOT
ATOM      1  C   UNL A   1      32.571  28.434  24.841  1.00  0.00     0.023 C 
ENDROOT
BRANCH   1   2
ATOM      2  C   UNL A   1      31.799  27.677  23.764  1.00  0.00     0.116 C 
BRANCH   2   3
ATOM      3  N   UNL A   1      32.669  27.218  22.708  1.00  0.00    -0.351 N 
ATOM      4  C   UNL A   1      33.033  26.000  22.244  1.00  0.00     0.281 C 
ATOM      5  O   UNL A   1      33.686  26.071  21.198  1.00  0.00    -0.268 OA
ATOM      6  H   UNL A   1      33.093  27.958  22.216  1.00  0.00     0.163 HD
BRANCH   4   7
ATOM      7  C   UNL A   1      32.574  24.640  22.876  1.00  0.00     0.172 C 
ATOM      8  C   UNL A   1      32.942  23.576  21.803  1.00  0.00     0.090 C 
BRANCH   7   9
ATOM      9  N   UNL A   1      33.442  24.249  24.027  1.00  0.00    -0.331 N 
ATOM     10  H   UNL A   1      33.134  24.814  24.818  1.00  0.00     0.347 HD
ATOM     11  H   UNL A   1      33.315  23.237  24.048  1.00  0.00     0.347 HD
BRANCH   9  12
ATOM     12  C   UNL A   1      34.899  24.363  23.991  1.00  0.00     0.183 C 
ATOM     13  C   UNL A   1      35.405  23.399  26.366  1.00  0.00    -0.006 C 
ATOM     14  C   UNL A   1      36.176  22.239  25.728  1.00  0.00     0.004 C 
ATOM     15  C   UNL A   1      35.395  24.624  25.431  1.00  0.00     0.068 C 
ATOM     16  C   UNL A   1      35.792  21.950  24.281  1.00  0.00     0.006 C 
ATOM     17  C   UNL A   1      35.717  23.201  23.403  1.00  0.00     0.065 C 
BRANCH  13  18
ATOM     18  C   UNL A   1      34.028  23.056  26.984  1.00  0.00     0.000 C 
ATOM     19  C   UNL A   1      33.793  21.664  27.548  1.00  0.00     0.004 C 
ENDBRANCH  13  18
ENDBRANCH   9  12
ENDBRANCH   7   9
BRANCH   7  20
ATOM     20  C   UNL A   1      31.062  24.496  23.188  1.00  0.00     0.075 C 
ATOM     21  C   UNL A   1      30.649  24.318  24.643  1.00  0.00     0.011 C 
ENDBRANCH   7  20
ENDBRANCH   4   7
ENDBRANCH   2   3
ENDBRANCH   1   2
BRANCH   1  22
ATOM     22  C   UNL A   1      32.577  27.758  26.216  1.00  0.00     0.023 C 
BRANCH  22  23
ATOM     23  C   UNL A   1      33.665  28.234  27.172  1.00  0.00     0.116 C 
BRANCH  23  24
ATOM     24  N   UNL A   1      33.537  29.643  27.512  1.00  0.00    -0.352 N 
ATOM     25  C   UNL A   1      34.454  30.481  28.093  1.00  0.00     0.251 C 
ATOM     26  H   UNL A   1      32.667  30.051  27.295  1.00  0.00     0.163 HD
ATOM     27  O   UNL A   1      34.121  31.612  28.433  1.00  0.00    -0.269 OA
BRANCH  25  28
ATOM     28  C   UNL A   1      35.827  29.998  28.334  1.00  0.00     0.039 A 
ATOM     29  C   UNL A   1      36.752  30.061  27.291  1.00  0.00     0.014 A 
ATOM     30  C   UNL A   1      36.203  29.513  29.589  1.00  0.00     0.014 A 
ATOM     31  C   UNL A   1      38.077  29.694  27.526  1.00  0.00     0.010 A 
ATOM     32  C   UNL A   1      37.539  29.217  29.840  1.00  0.00     0.010 A 
ATOM     33  C   UNL A   1      38.489  29.303  28.810  1.00  0.00    -0.014 A 
BRANCH  33  34
ATOM     34  C   UNL A   1      39.911  28.983  29.095  1.00  0.00     0.031 A 
ATOM     35  C   UNL A   1      40.810  30.025  29.702  1.00  0.00     0.074 A 
ATOM     36  C   UNL A   1      40.402  27.776  28.753  1.00  0.00     0.049 A 
ATOM     37  N   UNL A   1      42.088  29.956  29.970  1.00  0.00    -0.248 NA
ATOM     38  C   UNL A   1      40.199  31.324  30.024  1.00  0.00     0.031 C 
ATOM     39  C   UNL A   1      39.638  26.702  28.113  1.00  0.00     0.029 A 
ATOM     40  N   UNL A   1      41.662  27.249  28.886  1.00  0.00    -0.354 N 
ATOM     41  C   UNL A   1      42.437  31.201  30.480  1.00  0.00     0.074 A 
ATOM     42  C   UNL A   1      41.248  32.025  30.432  1.00  0.00     0.031 C 
ATOM     43  C   UNL A   1      40.439  25.640  27.930  1.00  0.00     0.029 A 
ATOM     44  C   UNL A   1      41.780  25.967  28.402  1.00  0.00     0.049 A 
ATOM     45  H   UNL A   1      42.412  27.744  29.290  1.00  0.00     0.167 HD
ATOM     46  C   UNL A   1      43.631  31.613  30.966  1.00  0.00     0.037 A 
ATOM     47  C   UNL A   1      42.850  25.151  28.340  1.00  0.00     0.037 A 
ATOM     48  C   UNL A   1      44.803  30.779  31.029  1.00  0.00     0.049 A 
ATOM     49  C   UNL A   1      44.168  25.632  28.884  1.00  0.00     0.074 A 
ATOM     50  C   UNL A   1      46.046  31.081  31.556  1.00  0.00     0.029 A 
ATOM     51  N   UNL A   1      44.878  29.479  30.548  1.00  0.00    -0.354 N 
ATOM     52  N   UNL A   1      44.463  26.791  29.425  1.00  0.00    -0.248 NA
ATOM     53  C   UNL A   1      45.297  24.695  28.816  1.00  0.00     0.031 C 
ATOM     54  C   UNL A   1      46.887  29.982  31.351  1.00  0.00     0.029 A 
ATOM     55  C   UNL A   1      46.152  28.973  30.746  1.00  0.00     0.049 A 
ATOM     56  H   UNL A   1      44.135  28.988  30.128  1.00  0.00     0.167 HD
ATOM     57  C   UNL A   1      45.803  26.711  29.788  1.00  0.00     0.074 A 
ATOM     58  C   UNL A   1      46.257  25.386  29.416  1.00  0.00     0.031 C 
ATOM     59  C   UNL A   1      46.586  27.649  30.377  1.00  0.00     0.037 A 
BRANCH  46  60
ATOM     60  C   UNL A   1      43.730  33.026  31.472  1.00  0.00     0.058 A 
ATOM     61  C   UNL A   1      44.041  34.095  30.616  1.00  0.00     0.135 A 
ATOM     62  C   UNL A   1      43.476  33.323  32.821  1.00  0.00     0.135 A 
ATOM     63  F   UNL A   1      44.309  33.868  29.320  1.00  0.00    -0.206 F 
ATOM     64  C   UNL A   1      44.125  35.402  31.083  1.00  0.00     0.059 A 
ATOM     65  C   UNL A   1      43.525  34.628  33.305  1.00  0.00     0.059 A 
ATOM     66  F   UNL A   1      43.175  32.341  33.684  1.00  0.00    -0.206 F 
ATOM     67  C   UNL A   1      43.865  35.659  32.430  1.00  0.00     0.060 A 
BRANCH  67  68
ATOM     68  S   UNL A   1      43.968  37.363  33.016  1.00  0.00     0.124 S 
ATOM     69  O   UNL A   1      42.834  37.425  33.932  1.00  0.00    -0.237 OA
ATOM     70  O   UNL A   1      45.287  37.400  33.639  1.00  0.00    -0.237 OA
ATOM     71  O   UNL A   1      43.832  38.152  31.796  1.00  0.00    -0.744 OA
ENDBRANCH  67  68
ENDBRANCH  46  60
BRANCH  47  72
ATOM     72  C   UNL A   1      42.714  23.789  27.758  1.00  0.00     0.058 A 
ATOM     73  C   UNL A   1      42.478  22.674  28.577  1.00  0.00     0.135 A 
ATOM     74  C   UNL A   1      42.805  23.573  26.374  1.00  0.00     0.135 A 
ATOM     75  F   UNL A   1      42.387  22.826  29.908  1.00  0.00    -0.206 F 
ATOM     76  C   UNL A   1      42.355  21.393  28.049  1.00  0.00     0.059 A 
ATOM     77  C   UNL A   1      42.660  22.305  25.820  1.00  0.00     0.059 A 
ATOM     78  F   UNL A   1      43.013  24.608  25.545  1.00  0.00    -0.206 F 
ATOM     79  C   UNL A   1      42.446  21.219  26.667  1.00  0.00     0.060 A 
BRANCH  79  80
ATOM     80  S   UNL A   1      42.241  19.558  25.988  1.00  0.00     0.124 S 
ATOM     81  O   UNL A   1      40.807  19.524  25.722  1.00  0.00    -0.237 OA
ATOM     82  O   UNL A   1      43.108  19.598  24.814  1.00  0.00    -0.237 OA
ATOM     83  O   UNL A   1      42.703  18.694  27.070  1.00  0.00    -0.744 OA
ENDBRANCH  79  80
ENDBRANCH  47  72
BRANCH  59  84
ATOM     84  C   UNL A   1      48.006  27.267  30.692  1.00  0.00     0.058 A 
ATOM     85  C   UNL A   1      48.349  26.614  31.887  1.00  0.00     0.135 A 
ATOM     86  C   UNL A   1      49.029  27.509  29.760  1.00  0.00     0.135 A 
ATOM     87  F   UNL A   1      47.410  26.365  32.814  1.00  0.00    -0.206 F 
ATOM     88  C   UNL A   1      49.660  26.236  32.156  1.00  0.00     0.059 A 
ATOM     89  C   UNL A   1      50.341  27.113  29.997  1.00  0.00     0.059 A 
ATOM     90  F   UNL A   1      48.753  28.120  28.597  1.00  0.00    -0.206 F 
ATOM     91  C   UNL A   1      50.649  26.487  31.204  1.00  0.00     0.060 A 
BRANCH  91  92
ATOM     92  S   UNL A   1      52.340  25.959  31.551  1.00  0.00     0.124 S 
ATOM     93  O   UNL A   1      52.124  24.626  32.103  1.00  0.00    -0.237 OA
ATOM     94  O   UNL A   1      52.960  26.006  30.230  1.00  0.00    -0.237 OA
ATOM     95  O   UNL A   1      52.822  26.960  32.498  1.00  0.00    -0.744 OA
ENDBRANCH  91  92
ENDBRANCH  59  84
ENDBRANCH  33  34
ENDBRANCH  25  28
ENDBRANCH  23  24
ENDBRANCH  22  23
ENDBRANCH   1  22
TORSDOF 18
ENDMDL
MODEL 2
REMARK VINA RESULT:     -10.1      4.823     10.478
REMARK SMILES CC[C@H]1CCC[C@@H]([NH2+][C@@](C)(CC)C(=O)NCCCCNC(=O)c2ccc(-c3c4nc(c(-c5c(F)cc(S(=O)(=O)[O-])cc5F)c5ccc([nH]5)c(-c5c(F)cc(S(=O)(=O)[O-])cc5F)c5nc(c(-c6c(F)cc(S(=O)(=O)[O-])cc6F)c6ccc3[nH]6)C=C5)C=C4)cc2)C1
REMARK SMILES IDX 17 1 16 2 15 3 13 4 14 5 9 7 10 8 8 9 7 12 3 13 4 14 89 15
REMARK SMILES IDX 5 16 6 17 2 18 1 19 11 20 12 21 18 22 19 23 20 24 21 25
REMARK SMILES IDX 22 27 23 28 24 29 88 30 25 31 87 32 26 33 27 34 28 35 81 36
REMARK SMILES IDX 29 37 86 38 80 39 82 40 30 41 85 42 79 43 78 44 31 46 65 47
REMARK SMILES IDX 44 48 64 49 45 50 48 51 63 52 83 53 46 54 47 55 62 57 84 58
REMARK SMILES IDX 49 59 32 60 33 61 42 62 34 63 35 64 41 65 43 66 36 67 37 68
REMARK SMILES IDX 38 69 39 70 40 71 66 72 67 73 76 74 68 75 69 76 75 77 77 78
REMARK SMILES IDX 70 79 71 80 72 81 73 82 74 83 50 84 51 85 60 86 52 87 53 88
REMARK SMILES IDX 59 89 61 90 54 91 55 92 56 93 57 94 58 95
REMARK H PARENT 15 6 8 10 8 11 20 26 82 45 48 56
REMARK Flexibility Score: inf
ROOT
ATOM      1  C   UNL A   1      36.979  23.474  24.764  1.00  0.00     0.023 C 
ENDROOT
BRANCH   1   2
ATOM      2  C   UNL A   1      35.732  22.600  24.677  1.00  0.00     0.116 C 
BRANCH   2   3
ATOM      3  N   UNL A   1      35.236  22.247  25.985  1.00  0.00    -0.351 N 
ATOM      4  C   UNL A   1      34.003  22.154  26.537  1.00  0.00     0.281 C 
ATOM      5  O   UNL A   1      34.029  21.651  27.664  1.00  0.00    -0.268 OA
ATOM      6  H   UNL A   1      35.957  22.026  26.619  1.00  0.00     0.163 HD
BRANCH   4   7
ATOM      7  C   UNL A   1      32.672  22.514  25.790  1.00  0.00     0.172 C 
ATOM      8  C   UNL A   1      31.614  22.622  26.925  1.00  0.00     0.090 C 
BRANCH   7   9
ATOM      9  N   UNL A   1      32.705  23.906  25.249  1.00  0.00    -0.331 N 
ATOM     10  H   UNL A   1      33.431  23.914  24.533  1.00  0.00     0.347 HD
ATOM     11  H   UNL A   1      31.731  24.049  24.983  1.00  0.00     0.347 HD
BRANCH   9  12
ATOM     12  C   UNL A   1      32.957  25.074  26.091  1.00  0.00     0.183 C 
ATOM     13  C   UNL A   1      33.751  26.716  24.221  1.00  0.00    -0.006 C 
ATOM     14  C   UNL A   1      32.556  27.628  24.517  1.00  0.00     0.004 C 
ATOM     15  C   UNL A   1      34.116  25.879  25.462  1.00  0.00     0.068 C 
ATOM     16  C   UNL A   1      31.384  26.927  25.197  1.00  0.00     0.006 C 
ATOM     17  C   UNL A   1      31.798  26.043  26.376  1.00  0.00     0.065 C 
BRANCH  13  18
ATOM     18  C   UNL A   1      33.694  25.910  22.901  1.00  0.00     0.000 C 
ATOM     19  C   UNL A   1      33.058  26.541  21.673  1.00  0.00     0.004 C 
ENDBRANCH  13  18
ENDBRANCH   9  12
ENDBRANCH   7   9
BRANCH   7  20
ATOM     20  C   UNL A   1      32.155  21.481  24.756  1.00  0.00     0.075 C 
ATOM     21  C   UNL A   1      32.195  21.865  23.284  1.00  0.00     0.011 C 
ENDBRANCH   7  20
ENDBRANCH   4   7
ENDBRANCH   2   3
ENDBRANCH   1   2
BRANCH   1  22
ATOM     22  C   UNL A   1      37.978  23.055  25.848  1.00  0.00     0.023 C 
BRANCH  22  23
ATOM     23  C   UNL A   1      38.814  24.186  26.437  1.00  0.00     0.116 C 
BRANCH  23  24
ATOM     24  N   UNL A   1      40.233  24.046  26.143  1.00  0.00    -0.352 N 
ATOM     25  C   UNL A   1      41.286  24.815  26.571  1.00  0.00     0.251 C 
ATOM     26  H   UNL A   1      40.469  23.293  25.555  1.00  0.00     0.163 HD
ATOM     27  O   UNL A   1      42.407  24.629  26.109  1.00  0.00    -0.269 OA
BRANCH  25  28
ATOM     28  C   UNL A   1      41.049  25.883  27.561  1.00  0.00     0.039 A 
ATOM     29  C   UNL A   1      40.041  25.706  28.510  1.00  0.00     0.014 A 
ATOM     30  C   UNL A   1      41.835  27.038  27.567  1.00  0.00     0.014 A 
ATOM     31  C   UNL A   1      39.862  26.664  29.508  1.00  0.00     0.010 A 
ATOM     32  C   UNL A   1      41.704  27.954  28.606  1.00  0.00     0.010 A 
ATOM     33  C   UNL A   1      40.715  27.777  29.586  1.00  0.00    -0.014 A 
BRANCH  33  34
ATOM     34  C   UNL A   1      40.588  28.764  30.687  1.00  0.00     0.031 A 
ATOM     35  C   UNL A   1      41.461  28.648  31.907  1.00  0.00     0.074 A 
ATOM     36  C   UNL A   1      39.649  29.727  30.611  1.00  0.00     0.049 A 
ATOM     37  N   UNL A   1      41.459  29.375  32.993  1.00  0.00    -0.248 NA
ATOM     38  C   UNL A   1      42.446  27.555  31.918  1.00  0.00     0.031 C 
ATOM     39  C   UNL A   1      38.711  29.909  29.500  1.00  0.00     0.029 A 
ATOM     40  N   UNL A   1      39.318  30.729  31.488  1.00  0.00    -0.354 N 
ATOM     41  C   UNL A   1      42.430  28.823  33.821  1.00  0.00     0.074 A 
ATOM     42  C   UNL A   1      42.961  27.666  33.134  1.00  0.00     0.031 C 
ATOM     43  C   UNL A   1      37.928  30.970  29.753  1.00  0.00     0.029 A 
ATOM     44  C   UNL A   1      38.279  31.522  31.057  1.00  0.00     0.049 A 
ATOM     45  H   UNL A   1      39.782  30.868  32.346  1.00  0.00     0.167 HD
ATOM     46  C   UNL A   1      42.856  29.254  35.031  1.00  0.00     0.037 A 
ATOM     47  C   UNL A   1      37.674  32.568  31.651  1.00  0.00     0.037 A 
ATOM     48  C   UNL A   1      42.335  30.419  35.697  1.00  0.00     0.049 A 
ATOM     49  C   UNL A   1      38.163  33.028  32.998  1.00  0.00     0.074 A 
ATOM     50  C   UNL A   1      42.737  30.975  36.899  1.00  0.00     0.029 A 
ATOM     51  N   UNL A   1      41.297  31.208  35.221  1.00  0.00    -0.354 N 
ATOM     52  N   UNL A   1      39.129  32.534  33.736  1.00  0.00    -0.248 NA
ATOM     53  C   UNL A   1      37.488  34.189  33.590  1.00  0.00     0.031 C 
ATOM     54  C   UNL A   1      41.913  32.071  37.173  1.00  0.00     0.029 A 
ATOM     55  C   UNL A   1      41.031  32.232  36.114  1.00  0.00     0.049 A 
ATOM     56  H   UNL A   1      40.820  31.061  34.372  1.00  0.00     0.167 HD
ATOM     57  C   UNL A   1      39.196  33.341  34.866  1.00  0.00     0.074 A 
ATOM     58  C   UNL A   1      38.181  34.364  34.707  1.00  0.00     0.031 C 
ATOM     59  C   UNL A   1      40.022  33.246  35.937  1.00  0.00     0.037 A 
BRANCH  46  60
ATOM     60  C   UNL A   1      43.941  28.465  35.712  1.00  0.00     0.058 A 
ATOM     61  C   UNL A   1      45.299  28.760  35.517  1.00  0.00     0.135 A 
ATOM     62  C   UNL A   1      43.619  27.426  36.601  1.00  0.00     0.135 A 
ATOM     63  F   UNL A   1      45.666  29.732  34.666  1.00  0.00    -0.206 F 
ATOM     64  C   UNL A   1      46.302  28.035  36.153  1.00  0.00     0.059 A 
ATOM     65  C   UNL A   1      44.605  26.707  37.273  1.00  0.00     0.059 A 
ATOM     66  F   UNL A   1      42.337  27.101  36.825  1.00  0.00    -0.206 F 
ATOM     67  C   UNL A   1      45.944  27.010  37.030  1.00  0.00     0.060 A 
BRANCH  67  68
ATOM     68  S   UNL A   1      47.257  26.087  37.856  1.00  0.00     0.124 S 
ATOM     69  O   UNL A   1      46.488  25.168  38.687  1.00  0.00    -0.237 OA
ATOM     70  O   UNL A   1      47.967  25.482  36.734  1.00  0.00    -0.237 OA
ATOM     71  O   UNL A   1      47.996  27.118  38.579  1.00  0.00    -0.744 OA
ENDBRANCH  67  68
ENDBRANCH  46  60
BRANCH  47  72
ATOM     72  C   UNL A   1      36.553  33.266  30.966  1.00  0.00     0.058 A 
ATOM     73  C   UNL A   1      36.786  34.091  29.855  1.00  0.00     0.135 A 
ATOM     74  C   UNL A   1      35.226  33.114  31.397  1.00  0.00     0.135 A 
ATOM     75  F   UNL A   1      38.038  34.273  29.406  1.00  0.00    -0.206 F 
ATOM     76  C   UNL A   1      35.749  34.755  29.208  1.00  0.00     0.059 A 
ATOM     77  C   UNL A   1      34.169  33.747  30.751  1.00  0.00     0.059 A 
ATOM     78  F   UNL A   1      34.946  32.323  32.445  1.00  0.00    -0.206 F 
ATOM     79  C   UNL A   1      34.442  34.575  29.663  1.00  0.00     0.060 A 
BRANCH  79  80
ATOM     80  S   UNL A   1      33.099  35.407  28.789  1.00  0.00     0.124 S 
ATOM     81  O   UNL A   1      32.501  34.301  28.047  1.00  0.00    -0.237 OA
ATOM     82  O   UNL A   1      32.302  35.941  29.889  1.00  0.00    -0.237 OA
ATOM     83  O   UNL A   1      33.791  36.407  27.983  1.00  0.00    -0.744 OA
ENDBRANCH  79  80
ENDBRANCH  47  72
BRANCH  59  84
ATOM     84  C   UNL A   1      39.893  34.296  37.007  1.00  0.00     0.058 A 
ATOM     85  C   UNL A   1      40.544  35.536  36.909  1.00  0.00     0.135 A 
ATOM     86  C   UNL A   1      39.061  34.078  38.118  1.00  0.00     0.135 A 
ATOM     87  F   UNL A   1      41.355  35.794  35.872  1.00  0.00    -0.206 F 
ATOM     88  C   UNL A   1      40.394  36.513  37.888  1.00  0.00     0.059 A 
ATOM     89  C   UNL A   1      38.874  35.052  39.093  1.00  0.00     0.059 A 
ATOM     90  F   UNL A   1      38.407  32.913  38.254  1.00  0.00    -0.206 F 
ATOM     91  C   UNL A   1      39.554  36.263  38.975  1.00  0.00     0.060 A 
BRANCH  91  92
ATOM     92  S   UNL A   1      39.340  37.553  40.220  1.00  0.00     0.124 S 
ATOM     93  O   UNL A   1      40.673  38.142  40.264  1.00  0.00    -0.237 OA
ATOM     94  O   UNL A   1      38.297  38.387  39.628  1.00  0.00    -0.237 OA
ATOM     95  O   UNL A   1      38.940  36.813  41.413  1.00  0.00    -0.744 OA
ENDBRANCH  91  92
ENDBRANCH  59  84
ENDBRANCH  33  34
ENDBRANCH  25  28
ENDBRANCH  23  24
ENDBRANCH  22  23
ENDBRANCH   1  22
TORSDOF 18
ENDMDL
MODEL 3
REMARK VINA RESULT:     -10.1      3.515      9.364
REMARK SMILES CC[C@H]1CCC[C@@H]([NH2+][C@@](C)(CC)C(=O)NCCCCNC(=O)c2ccc(-c3c4nc(c(-c5c(F)cc(S(=O)(=O)[O-])cc5F)c5ccc([nH]5)c(-c5c(F)cc(S(=O)(=O)[O-])cc5F)c5nc(c(-c6c(F)cc(S(=O)(=O)[O-])cc6F)c6ccc3[nH]6)C=C5)C=C4)cc2)C1
REMARK SMILES IDX 17 1 16 2 15 3 13 4 14 5 9 7 10 8 8 9 7 12 3 13 4 14 89 15
REMARK SMILES IDX 5 16 6 17 2 18 1 19 11 20 12 21 18 22 19 23 20 24 21 25
REMARK SMILES IDX 22 27 23 28 24 29 88 30 25 31 87 32 26 33 27 34 28 35 81 36
REMARK SMILES IDX 29 37 86 38 80 39 82 40 30 41 85 42 79 43 78 44 31 46 65 47
REMARK SMILES IDX 44 48 64 49 45 50 48 51 63 52 83 53 46 54 47 55 62 57 84 58
REMARK SMILES IDX 49 59 32 60 33 61 42 62 34 63 35 64 41 65 43 66 36 67 37 68
REMARK SMILES IDX 38 69 39 70 40 71 66 72 67 73 76 74 68 75 69 76 75 77 77 78
REMARK SMILES IDX 70 79 71 80 72 81 73 82 74 83 50 84 51 85 60 86 52 87 53 88
REMARK SMILES IDX 59 89 61 90 54 91 55 92 56 93 57 94 58 95
REMARK H PARENT 15 6 8 10 8 11 20 26 82 45 48 56
REMARK Flexibility Score: inf
ROOT
ATOM      1  C   UNL A   1      37.423  20.838  24.911  1.00  0.00     0.023 C 
ENDROOT
BRANCH   1   2
ATOM      2  C   UNL A   1      35.959  20.434  25.060  1.00  0.00     0.116 C 
BRANCH   2   3
ATOM      3  N   UNL A   1      35.307  21.173  26.113  1.00  0.00    -0.351 N 
ATOM      4  C   UNL A   1      34.308  22.086  26.151  1.00  0.00     0.281 C 
ATOM      5  O   UNL A   1      33.949  22.345  27.304  1.00  0.00    -0.268 OA
ATOM      6  H   UNL A   1      35.671  20.968  27.005  1.00  0.00     0.163 HD
BRANCH   4   7
ATOM      7  C   UNL A   1      33.586  22.658  24.882  1.00  0.00     0.172 C 
ATOM      8  C   UNL A   1      32.655  21.502  24.417  1.00  0.00     0.090 C 
BRANCH   7   9
ATOM      9  N   UNL A   1      32.611  23.731  25.242  1.00  0.00    -0.331 N 
ATOM     10  H   UNL A   1      32.728  23.896  26.241  1.00  0.00     0.347 HD
ATOM     11  H   UNL A   1      32.854  24.465  24.576  1.00  0.00     0.347 HD
BRANCH   9  12
ATOM     12  C   UNL A   1      31.172  23.596  25.021  1.00  0.00     0.183 C 
ATOM     13  C   UNL A   1      30.438  25.939  25.912  1.00  0.00    -0.006 C 
ATOM     14  C   UNL A   1      29.914  26.303  24.519  1.00  0.00     0.004 C 
ATOM     15  C   UNL A   1      30.441  24.412  26.111  1.00  0.00     0.068 C 
ATOM     16  C   UNL A   1      30.539  25.500  23.383  1.00  0.00     0.006 C 
ATOM     17  C   UNL A   1      30.594  23.994  23.653  1.00  0.00     0.065 C 
BRANCH  13  18
ATOM     18  C   UNL A   1      31.740  26.644  26.365  1.00  0.00     0.000 C 
ATOM     19  C   UNL A   1      31.651  27.825  27.320  1.00  0.00     0.004 C 
ENDBRANCH  13  18
ENDBRANCH   9  12
ENDBRANCH   7   9
BRANCH   7  20
ATOM     20  C   UNL A   1      34.491  23.047  23.685  1.00  0.00     0.075 C 
ATOM     21  C   UNL A   1      34.318  24.434  23.082  1.00  0.00     0.011 C 
ENDBRANCH   7  20
ENDBRANCH   4   7
ENDBRANCH   2   3
ENDBRANCH   1   2
BRANCH   1  22
ATOM     22  C   UNL A   1      38.428  19.734  25.251  1.00  0.00     0.023 C 
BRANCH  22  23
ATOM     23  C   UNL A   1      39.676  20.194  25.996  1.00  0.00     0.116 C 
BRANCH  23  24
ATOM     24  N   UNL A   1      40.682  19.149  26.105  1.00  0.00    -0.352 N 
ATOM     25  C   UNL A   1      42.040  19.266  26.268  1.00  0.00     0.251 C 
ATOM     26  H   UNL A   1      40.340  18.227  26.055  1.00  0.00     0.163 HD
ATOM     27  O   UNL A   1      42.753  18.269  26.203  1.00  0.00    -0.269 OA
BRANCH  25  28
ATOM     28  C   UNL A   1      42.631  20.599  26.488  1.00  0.00     0.039 A 
ATOM     29  C   UNL A   1      43.084  21.323  25.383  1.00  0.00     0.014 A 
ATOM     30  C   UNL A   1      42.712  21.141  27.773  1.00  0.00     0.014 A 
ATOM     31  C   UNL A   1      43.562  22.621  25.562  1.00  0.00     0.010 A 
ATOM     32  C   UNL A   1      43.120  22.461  27.939  1.00  0.00     0.010 A 
ATOM     33  C   UNL A   1      43.551  23.213  26.835  1.00  0.00    -0.014 A 
BRANCH  33  34
ATOM     34  C   UNL A   1      43.984  24.620  27.030  1.00  0.00     0.031 A 
ATOM     35  C   UNL A   1      45.427  24.997  26.835  1.00  0.00     0.074 A 
ATOM     36  C   UNL A   1      43.089  25.540  27.438  1.00  0.00     0.049 A 
ATOM     37  N   UNL A   1      46.007  26.155  27.013  1.00  0.00    -0.248 NA
ATOM     38  C   UNL A   1      46.343  23.926  26.410  1.00  0.00     0.031 C 
ATOM     39  C   UNL A   1      41.672  25.282  27.708  1.00  0.00     0.029 A 
ATOM     40  N   UNL A   1      43.236  26.878  27.707  1.00  0.00    -0.354 N 
ATOM     41  C   UNL A   1      47.354  25.951  26.734  1.00  0.00     0.074 A 
ATOM     42  C   UNL A   1      47.514  24.546  26.430  1.00  0.00     0.031 C 
ATOM     43  C   UNL A   1      41.079  26.427  28.082  1.00  0.00     0.029 A 
ATOM     44  C   UNL A   1      42.076  27.492  28.116  1.00  0.00     0.049 A 
ATOM     45  H   UNL A   1      44.094  27.353  27.615  1.00  0.00     0.167 HD
ATOM     46  C   UNL A   1      48.360  26.856  26.711  1.00  0.00     0.037 A 
ATOM     47  C   UNL A   1      41.844  28.766  28.485  1.00  0.00     0.037 A 
ATOM     48  C   UNL A   1      48.187  28.257  26.995  1.00  0.00     0.049 A 
ATOM     49  C   UNL A   1      42.979  29.754  28.454  1.00  0.00     0.074 A 
ATOM     50  C   UNL A   1      49.130  29.268  26.943  1.00  0.00     0.029 A 
ATOM     51  N   UNL A   1      46.992  28.845  27.387  1.00  0.00    -0.354 N 
ATOM     52  N   UNL A   1      44.233  29.557  28.122  1.00  0.00    -0.248 NA
ATOM     53  C   UNL A   1      42.669  31.136  28.839  1.00  0.00     0.031 C 
ATOM     54  C   UNL A   1      48.518  30.458  27.348  1.00  0.00     0.029 A 
ATOM     55  C   UNL A   1      47.179  30.201  27.600  1.00  0.00     0.049 A 
ATOM     56  H   UNL A   1      46.138  28.369  27.496  1.00  0.00     0.167 HD
ATOM     57  C   UNL A   1      44.855  30.796  28.232  1.00  0.00     0.074 A 
ATOM     58  C   UNL A   1      43.834  31.739  28.648  1.00  0.00     0.031 C 
ATOM     59  C   UNL A   1      46.151  31.126  28.007  1.00  0.00     0.037 A 
BRANCH  46  60
ATOM     60  C   UNL A   1      49.738  26.361  26.363  1.00  0.00     0.058 A 
ATOM     61  C   UNL A   1      50.212  26.369  25.042  1.00  0.00     0.135 A 
ATOM     62  C   UNL A   1      50.610  25.909  27.367  1.00  0.00     0.135 A 
ATOM     63  F   UNL A   1      49.416  26.775  24.040  1.00  0.00    -0.206 F 
ATOM     64  C   UNL A   1      51.488  25.919  24.722  1.00  0.00     0.059 A 
ATOM     65  C   UNL A   1      51.903  25.482  27.075  1.00  0.00     0.059 A 
ATOM     66  F   UNL A   1      50.210  25.879  28.648  1.00  0.00    -0.206 F 
ATOM     67  C   UNL A   1      52.328  25.477  25.747  1.00  0.00     0.060 A 
BRANCH  67  68
ATOM     68  S   UNL A   1      53.985  24.907  25.315  1.00  0.00     0.124 S 
ATOM     69  O   UNL A   1      54.327  25.808  24.220  1.00  0.00    -0.237 OA
ATOM     70  O   UNL A   1      54.720  25.114  26.559  1.00  0.00    -0.237 OA
ATOM     71  O   UNL A   1      53.777  23.512  24.938  1.00  0.00    -0.744 OA
ENDBRANCH  67  68
ENDBRANCH  46  60
BRANCH  47  72
ATOM     72  C   UNL A   1      40.476  29.185  28.895  1.00  0.00     0.058 A 
ATOM     73  C   UNL A   1      39.481  29.436  27.938  1.00  0.00     0.135 A 
ATOM     74  C   UNL A   1      40.133  29.333  30.247  1.00  0.00     0.135 A 
ATOM     75  F   UNL A   1      39.760  29.313  26.631  1.00  0.00    -0.206 F 
ATOM     76  C   UNL A   1      38.200  29.835  28.305  1.00  0.00     0.059 A 
ATOM     77  C   UNL A   1      38.851  29.706  30.641  1.00  0.00     0.059 A 
ATOM     78  F   UNL A   1      41.044  29.090  31.203  1.00  0.00    -0.206 F 
ATOM     79  C   UNL A   1      37.894  29.965  29.661  1.00  0.00     0.060 A 
BRANCH  79  80
ATOM     80  S   UNL A   1      36.216  30.441  30.128  1.00  0.00     0.124 S 
ATOM     81  O   UNL A   1      35.458  30.046  28.946  1.00  0.00    -0.237 OA
ATOM     82  O   UNL A   1      35.993  29.639  31.327  1.00  0.00    -0.237 OA
ATOM     83  O   UNL A   1      36.325  31.879  30.357  1.00  0.00    -0.744 OA
ENDBRANCH  79  80
ENDBRANCH  47  72
BRANCH  59  84
ATOM     84  C   UNL A   1      46.537  32.571  28.168  1.00  0.00     0.058 A 
ATOM     85  C   UNL A   1      46.329  33.510  27.146  1.00  0.00     0.135 A 
ATOM     86  C   UNL A   1      47.071  33.031  29.383  1.00  0.00     0.135 A 
ATOM     87  F   UNL A   1      45.828  33.122  25.963  1.00  0.00    -0.206 F 
ATOM     88  C   UNL A   1      46.660  34.851  27.315  1.00  0.00     0.059 A 
ATOM     89  C   UNL A   1      47.381  34.371  29.584  1.00  0.00     0.059 A 
ATOM     90  F   UNL A   1      47.279  32.175  30.397  1.00  0.00    -0.206 F 
ATOM     91  C   UNL A   1      47.183  35.273  28.539  1.00  0.00     0.060 A 
BRANCH  91  92
ATOM     92  S   UNL A   1      47.574  37.022  28.757  1.00  0.00     0.124 S 
ATOM     93  O   UNL A   1      48.008  37.394  27.416  1.00  0.00    -0.237 OA
ATOM     94  O   UNL A   1      46.294  37.576  29.187  1.00  0.00    -0.237 OA
ATOM     95  O   UNL A   1      48.620  37.012  29.776  1.00  0.00    -0.744 OA
ENDBRANCH  91  92
ENDBRANCH  59  84
ENDBRANCH  33  34
ENDBRANCH  25  28
ENDBRANCH  23  24
ENDBRANCH  22  23
ENDBRANCH   1  22
TORSDOF 18
ENDMDL
