MODEL 1
REMARK VINA RESULT:     -11.2      0.000      0.000
REMARK SMILES COc1cc2c(cc1OC)C1=C(C#N)C[N@@H+](CC(=O)NCCCCNC(=O)c3ccc(-c4c5nc(c(-c6c(F)cc(S(=O)(=O)[O-])cc6F)c6ccc([nH]6)c(-c6c(F)cc(S(=O)(=O)[O-])cc6F)c6nc(c(-c7c(F)cc(S(=O)(=O)[O-])cc7F)c7ccc4[nH]7)C=C6)C=C5)cc3)CN1CC2
REMARK SMILES IDX 23 1 22 2 21 3 20 4 18 5 19 6 17 8 16 9 3 10 4 11 8 12 5 13
REMARK SMILES IDX 7 14 6 15 97 16 11 17 96 18 12 19 95 20 15 21 94 22 2 24
REMARK SMILES IDX 1 25 9 26 10 27 13 28 14 29 24 30 25 31 26 32 27 34 28 35
REMARK SMILES IDX 29 36 93 37 30 38 92 39 31 40 32 41 33 42 86 43 34 44 91 45
REMARK SMILES IDX 85 46 87 47 35 48 90 49 84 50 83 51 36 53 70 54 49 55 69 56
REMARK SMILES IDX 50 57 53 58 68 59 88 60 51 61 52 62 67 64 89 65 54 66 37 67
REMARK SMILES IDX 38 68 47 69 39 70 40 71 46 72 48 73 41 74 42 75 43 76 44 77
REMARK SMILES IDX 45 78 71 79 72 80 81 81 73 82 74 83 80 84 82 85 75 86 76 87
REMARK SMILES IDX 77 88 78 89 79 90 55 91 56 92 65 93 57 94 58 95 64 96 66 97
REMARK SMILES IDX 59 98 60 99 61 100 62 101 63 102
REMARK H PARENT 20 7 16 23 25 33 87 52 53 63
REMARK Flexibility Score: inf
ROOT
ATOM      1  C   UNL A   1      38.849  24.473  27.400  1.00  0.00     0.023 C 
ENDROOT
BRANCH   1   2
ATOM      2  C   UNL A   1      38.403  23.549  26.275  1.00  0.00     0.023 C 
BRANCH   2   3
ATOM      3  C   UNL A   1      36.928  23.565  25.917  1.00  0.00     0.116 C 
BRANCH   3   4
ATOM      4  N   UNL A   1      36.770  23.610  24.471  1.00  0.00    -0.351 N 
ATOM      5  C   UNL A   1      36.011  22.810  23.657  1.00  0.00     0.275 C 
ATOM      6  O   UNL A   1      36.132  22.953  22.437  1.00  0.00    -0.269 OA
ATOM      7  H   UNL A   1      37.281  24.315  24.012  1.00  0.00     0.163 HD
BRANCH   5   8
ATOM      8  C   UNL A   1      34.966  21.851  24.251  1.00  0.00     0.365 C 
BRANCH   8   9
ATOM      9  N   UNL A   1      33.551  22.077  23.905  1.00  0.00    -0.306 N 
ATOM     10  C   UNL A   1      31.403  28.942  24.805  1.00  0.00     0.161 A 
ATOM     11  C   UNL A   1      31.897  28.116  25.822  1.00  0.00     0.055 A 
ATOM     12  C   UNL A   1      31.140  28.393  23.548  1.00  0.00     0.161 A 
ATOM     13  C   UNL A   1      32.196  26.765  25.574  1.00  0.00    -0.033 A 
ATOM     14  C   UNL A   1      31.443  27.040  23.315  1.00  0.00     0.061 A 
ATOM     15  C   UNL A   1      32.055  26.225  24.281  1.00  0.00     0.006 A 
ATOM     16  C   UNL A   1      32.648  25.865  26.700  1.00  0.00     0.058 C 
ATOM     17  C   UNL A   1      32.483  24.804  24.036  1.00  0.00     0.068 C 
ATOM     18  C   UNL A   1      32.106  24.447  26.485  1.00  0.00     0.127 C 
ATOM     19  C   UNL A   1      32.932  24.315  22.854  1.00  0.00     0.108 C 
ATOM     20  N   UNL A   1      32.479  23.963  25.155  1.00  0.00    -0.323 N 
ATOM     21  C   UNL A   1      33.298  22.856  22.690  1.00  0.00     0.314 C 
ATOM     22  C   UNL A   1      32.696  22.530  24.998  1.00  0.00     0.390 C 
ATOM     23  H   UNL A   1      33.270  21.120  23.691  1.00  0.00     0.350 HD
BRANCH  10  24
ATOM     24  O   UNL A   1      31.048  30.236  25.078  1.00  0.00    -0.493 OA
ATOM     25  C   UNL A   1      31.777  30.810  26.165  1.00  0.00     0.278 C 
ENDBRANCH  10  24
BRANCH  12  26
ATOM     26  O   UNL A   1      30.579  29.009  22.458  1.00  0.00    -0.493 OA
ATOM     27  C   UNL A   1      29.160  29.044  22.380  1.00  0.00     0.278 C 
ENDBRANCH  12  26
BRANCH  19  28
ATOM     28  C   UNL A   1      33.093  25.216  21.640  1.00  0.00     0.103 C 
ATOM     29  N   UNL A   1      33.227  25.963  20.633  1.00  0.00    -0.192 NA
ENDBRANCH  19  28
ENDBRANCH   8   9
ENDBRANCH   5   8
ENDBRANCH   3   4
ENDBRANCH   2   3
ENDBRANCH   1   2
BRANCH   1  30
ATOM     30  C   UNL A   1      39.551  25.714  26.884  1.00  0.00     0.116 C 
BRANCH  30  31
ATOM     31  N   UNL A   1      40.592  25.481  25.880  1.00  0.00    -0.352 N 
ATOM     32  C   UNL A   1      41.934  25.807  25.969  1.00  0.00     0.251 C 
ATOM     33  H   UNL A   1      40.303  25.044  25.047  1.00  0.00     0.163 HD
ATOM     34  O   UNL A   1      42.729  25.544  25.075  1.00  0.00    -0.269 OA
BRANCH  32  35
ATOM     35  C   UNL A   1      42.375  26.586  27.147  1.00  0.00     0.039 A 
ATOM     36  C   UNL A   1      42.271  26.025  28.413  1.00  0.00     0.014 A 
ATOM     37  C   UNL A   1      42.638  27.950  26.992  1.00  0.00     0.014 A 
ATOM     38  C   UNL A   1      42.107  26.871  29.498  1.00  0.00     0.010 A 
ATOM     39  C   UNL A   1      42.631  28.781  28.116  1.00  0.00     0.010 A 
ATOM     40  C   UNL A   1      42.257  28.265  29.366  1.00  0.00    -0.014 A 
BRANCH  40  41
ATOM     41  C   UNL A   1      41.925  29.139  30.530  1.00  0.00     0.031 A 
ATOM     42  C   UNL A   1      40.650  29.954  30.560  1.00  0.00     0.074 A 
ATOM     43  C   UNL A   1      42.714  29.098  31.624  1.00  0.00     0.049 A 
ATOM     44  N   UNL A   1      40.211  30.751  31.502  1.00  0.00    -0.248 NA
ATOM     45  C   UNL A   1      39.759  29.884  29.388  1.00  0.00     0.031 C 
ATOM     46  C   UNL A   1      43.967  28.345  31.732  1.00  0.00     0.029 A 
ATOM     47  N   UNL A   1      42.553  29.644  32.871  1.00  0.00    -0.354 N 
ATOM     48  C   UNL A   1      39.038  31.320  31.013  1.00  0.00     0.074 A 
ATOM     49  C   UNL A   1      38.828  30.778  29.690  1.00  0.00     0.031 C 
ATOM     50  C   UNL A   1      44.393  28.377  33.002  1.00  0.00     0.029 A 
ATOM     51  C   UNL A   1      43.506  29.236  33.775  1.00  0.00     0.049 A 
ATOM     52  H   UNL A   1      41.826  30.268  33.098  1.00  0.00     0.167 HD
ATOM     53  C   UNL A   1      38.212  32.208  31.615  1.00  0.00     0.037 A 
ATOM     54  C   UNL A   1      43.665  29.530  35.079  1.00  0.00     0.037 A 
ATOM     55  C   UNL A   1      38.370  32.677  32.967  1.00  0.00     0.049 A 
ATOM     56  C   UNL A   1      42.719  30.492  35.731  1.00  0.00     0.074 A 
ATOM     57  C   UNL A   1      37.560  33.547  33.676  1.00  0.00     0.029 A 
ATOM     58  N   UNL A   1      39.392  32.296  33.823  1.00  0.00    -0.354 N 
ATOM     59  N   UNL A   1      41.650  31.058  35.227  1.00  0.00    -0.248 NA
ATOM     60  C   UNL A   1      43.023  30.888  37.112  1.00  0.00     0.031 C 
ATOM     61  C   UNL A   1      38.103  33.709  34.955  1.00  0.00     0.029 A 
ATOM     62  C   UNL A   1      39.238  32.920  35.048  1.00  0.00     0.049 A 
ATOM     63  H   UNL A   1      40.118  31.673  33.593  1.00  0.00     0.167 HD
ATOM     64  C   UNL A   1      41.172  31.905  36.219  1.00  0.00     0.074 A 
ATOM     65  C   UNL A   1      42.039  31.741  37.367  1.00  0.00     0.031 C 
ATOM     66  C   UNL A   1      40.123  32.759  36.171  1.00  0.00     0.037 A 
BRANCH  53  67
ATOM     67  C   UNL A   1      37.049  32.749  30.831  1.00  0.00     0.058 A 
ATOM     68  C   UNL A   1      35.734  32.325  31.071  1.00  0.00     0.135 A 
ATOM     69  C   UNL A   1      37.248  33.781  29.897  1.00  0.00     0.135 A 
ATOM     70  F   UNL A   1      35.492  31.330  31.939  1.00  0.00    -0.206 F 
ATOM     71  C   UNL A   1      34.654  32.909  30.417  1.00  0.00     0.059 A 
ATOM     72  C   UNL A   1      36.181  34.390  29.242  1.00  0.00     0.059 A 
ATOM     73  F   UNL A   1      38.488  34.219  29.630  1.00  0.00    -0.206 F 
ATOM     74  C   UNL A   1      34.887  33.945  29.509  1.00  0.00     0.060 A 
BRANCH  74  75
ATOM     75  S   UNL A   1      33.467  34.714  28.701  1.00  0.00     0.124 S 
ATOM     76  O   UNL A   1      33.110  33.695  27.718  1.00  0.00    -0.237 OA
ATOM     77  O   UNL A   1      32.531  34.879  29.809  1.00  0.00    -0.237 OA
ATOM     78  O   UNL A   1      34.014  35.951  28.153  1.00  0.00    -0.744 OA
ENDBRANCH  74  75
ENDBRANCH  53  67
BRANCH  54  79
ATOM     79  C   UNL A   1      44.796  28.936  35.835  1.00  0.00     0.058 A 
ATOM     80  C   UNL A   1      46.042  29.576  35.893  1.00  0.00     0.135 A 
ATOM     81  C   UNL A   1      44.640  27.735  36.544  1.00  0.00     0.135 A 
ATOM     82  F   UNL A   1      46.239  30.722  35.225  1.00  0.00    -0.206 F 
ATOM     83  C   UNL A   1      47.095  29.047  36.631  1.00  0.00     0.059 A 
ATOM     84  C   UNL A   1      45.670  27.200  37.308  1.00  0.00     0.059 A 
ATOM     85  F   UNL A   1      43.461  27.094  36.530  1.00  0.00    -0.206 F 
ATOM     86  C   UNL A   1      46.898  27.860  37.339  1.00  0.00     0.060 A 
BRANCH  86  87
ATOM     87  S   UNL A   1      48.241  27.212  38.357  1.00  0.00     0.124 S 
ATOM     88  O   UNL A   1      47.747  25.878  38.676  1.00  0.00    -0.237 OA
ATOM     89  O   UNL A   1      49.380  27.269  37.445  1.00  0.00    -0.237 OA
ATOM     90  O   UNL A   1      48.295  28.154  39.471  1.00  0.00    -0.744 OA
ENDBRANCH  86  87
ENDBRANCH  54  79
BRANCH  66  91
ATOM     91  C   UNL A   1      39.878  33.609  37.380  1.00  0.00     0.058 A 
ATOM     92  C   UNL A   1      38.909  33.245  38.327  1.00  0.00     0.135 A 
ATOM     93  C   UNL A   1      40.649  34.754  37.627  1.00  0.00     0.135 A 
ATOM     94  F   UNL A   1      38.143  32.161  38.126  1.00  0.00    -0.206 F 
ATOM     95  C   UNL A   1      38.707  33.994  39.479  1.00  0.00     0.059 A 
ATOM     96  C   UNL A   1      40.475  35.510  38.781  1.00  0.00     0.059 A 
ATOM     97  F   UNL A   1      41.592  35.136  36.750  1.00  0.00    -0.206 F 
ATOM     98  C   UNL A   1      39.497  35.124  39.699  1.00  0.00     0.060 A 
BRANCH  98  99
ATOM     99  S   UNL A   1      39.256  36.062  41.221  1.00  0.00     0.124 S 
ATOM    100  O   UNL A   1      40.633  36.291  41.646  1.00  0.00    -0.237 OA
ATOM    101  O   UNL A   1      38.533  37.241  40.754  1.00  0.00    -0.237 OA
ATOM    102  O   UNL A   1      38.482  35.152  42.062  1.00  0.00    -0.744 OA
ENDBRANCH  98  99
ENDBRANCH  66  91
ENDBRANCH  40  41
ENDBRANCH  32  35
ENDBRANCH  30  31
ENDBRANCH   1  30
TORSDOF 18
ENDMDL
MODEL 2
REMARK VINA RESULT:     -11.1      9.595     15.089
REMARK SMILES COc1cc2c(cc1OC)C1=C(C#N)C[N@@H+](CC(=O)NCCCCNC(=O)c3ccc(-c4c5nc(c(-c6c(F)cc(S(=O)(=O)[O-])cc6F)c6ccc([nH]6)c(-c6c(F)cc(S(=O)(=O)[O-])cc6F)c6nc(c(-c7c(F)cc(S(=O)(=O)[O-])cc7F)c7ccc4[nH]7)C=C6)C=C5)cc3)CN1CC2
REMARK SMILES IDX 23 1 22 2 21 3 20 4 18 5 19 6 17 8 16 9 3 10 4 11 8 12 5 13
REMARK SMILES IDX 7 14 6 15 97 16 11 17 96 18 12 19 95 20 15 21 94 22 2 24
REMARK SMILES IDX 1 25 9 26 10 27 13 28 14 29 24 30 25 31 26 32 27 34 28 35
REMARK SMILES IDX 29 36 93 37 30 38 92 39 31 40 32 41 33 42 86 43 34 44 91 45
REMARK SMILES IDX 85 46 87 47 35 48 90 49 84 50 83 51 36 53 70 54 49 55 69 56
REMARK SMILES IDX 50 57 53 58 68 59 88 60 51 61 52 62 67 64 89 65 54 66 37 67
REMARK SMILES IDX 38 68 47 69 39 70 40 71 46 72 48 73 41 74 42 75 43 76 44 77
REMARK SMILES IDX 45 78 71 79 72 80 81 81 73 82 74 83 80 84 82 85 75 86 76 87
REMARK SMILES IDX 77 88 78 89 79 90 55 91 56 92 65 93 57 94 58 95 64 96 66 97
REMARK SMILES IDX 59 98 60 99 61 100 62 101 63 102
REMARK H PARENT 20 7 16 23 25 33 87 52 53 63
REMARK Flexibility Score: inf
ROOT
ATOM      1  C   UNL A   1      43.703  36.266  27.012  1.00  0.00     0.023 C 
ENDROOT
BRANCH   1   2
ATOM      2  C   UNL A   1      42.544  37.248  26.910  1.00  0.00     0.023 C 
BRANCH   2   3
ATOM      3  C   UNL A   1      42.890  38.726  26.952  1.00  0.00     0.116 C 
BRANCH   3   4
ATOM      4  N   UNL A   1      41.684  39.522  26.791  1.00  0.00    -0.351 N 
ATOM      5  C   UNL A   1      41.486  40.657  26.048  1.00  0.00     0.275 C 
ATOM      6  O   UNL A   1      40.404  41.239  26.164  1.00  0.00    -0.269 OA
ATOM      7  H   UNL A   1      40.896  39.199  27.285  1.00  0.00     0.163 HD
BRANCH   5   8
ATOM      8  C   UNL A   1      42.538  41.119  25.025  1.00  0.00     0.365 C 
BRANCH   8   9
ATOM      9  N   UNL A   1      42.568  42.548  24.667  1.00  0.00    -0.306 N 
ATOM     10  C   UNL A   1      47.373  44.141  19.478  1.00  0.00     0.161 A 
ATOM     11  C   UNL A   1      47.691  43.581  20.721  1.00  0.00     0.055 A 
ATOM     12  C   UNL A   1      46.070  44.587  19.244  1.00  0.00     0.161 A 
ATOM     13  C   UNL A   1      46.703  43.398  21.705  1.00  0.00    -0.033 A 
ATOM     14  C   UNL A   1      45.093  44.399  20.237  1.00  0.00     0.061 A 
ATOM     15  C   UNL A   1      45.359  43.727  21.442  1.00  0.00     0.006 A 
ATOM     16  C   UNL A   1      47.075  42.871  23.071  1.00  0.00     0.058 C 
ATOM     17  C   UNL A   1      44.318  43.420  22.483  1.00  0.00     0.068 C 
ATOM     18  C   UNL A   1      46.192  43.522  24.141  1.00  0.00     0.127 C 
ATOM     19  C   UNL A   1      43.015  43.149  22.231  1.00  0.00     0.108 C 
ATOM     20  N   UNL A   1      44.779  43.342  23.803  1.00  0.00    -0.323 N 
ATOM     21  C   UNL A   1      42.029  42.896  23.349  1.00  0.00     0.314 C 
ATOM     22  C   UNL A   1      43.833  43.236  24.907  1.00  0.00     0.390 C 
ATOM     23  H   UNL A   1      41.902  42.912  25.350  1.00  0.00     0.350 HD
BRANCH  10  24
ATOM     24  O   UNL A   1      48.357  44.380  18.556  1.00  0.00    -0.493 OA
ATOM     25  C   UNL A   1      49.354  45.298  19.011  1.00  0.00     0.278 C 
ENDBRANCH  10  24
BRANCH  12  26
ATOM     26  O   UNL A   1      45.586  45.236  18.137  1.00  0.00    -0.493 OA
ATOM     27  C   UNL A   1      44.254  45.730  18.193  1.00  0.00     0.278 C 
ENDBRANCH  12  26
BRANCH  19  28
ATOM     28  C   UNL A   1      42.488  43.079  20.806  1.00  0.00     0.103 C 
ATOM     29  N   UNL A   1      42.052  43.021  19.624  1.00  0.00    -0.192 NA
ENDBRANCH  19  28
ENDBRANCH   8   9
ENDBRANCH   5   8
ENDBRANCH   3   4
ENDBRANCH   2   3
ENDBRANCH   1   2
BRANCH   1  30
ATOM     30  C   UNL A   1      44.310  36.232  28.401  1.00  0.00     0.116 C 
BRANCH  30  31
ATOM     31  N   UNL A   1      45.477  37.093  28.603  1.00  0.00    -0.352 N 
ATOM     32  C   UNL A   1      46.807  36.711  28.648  1.00  0.00     0.251 C 
ATOM     33  H   UNL A   1      45.294  38.054  28.721  1.00  0.00     0.163 HD
ATOM     34  O   UNL A   1      47.713  37.522  28.800  1.00  0.00    -0.269 OA
BRANCH  32  35
ATOM     35  C   UNL A   1      47.106  35.263  28.613  1.00  0.00     0.039 A 
ATOM     36  C   UNL A   1      47.274  34.631  27.387  1.00  0.00     0.014 A 
ATOM     37  C   UNL A   1      46.959  34.516  29.784  1.00  0.00     0.014 A 
ATOM     38  C   UNL A   1      46.969  33.283  27.293  1.00  0.00     0.010 A 
ATOM     39  C   UNL A   1      46.811  33.128  29.698  1.00  0.00     0.010 A 
ATOM     40  C   UNL A   1      46.706  32.512  28.442  1.00  0.00    -0.014 A 
BRANCH  40  41
ATOM     41  C   UNL A   1      46.240  31.104  28.273  1.00  0.00     0.031 A 
ATOM     42  C   UNL A   1      44.767  30.757  28.298  1.00  0.00     0.074 A 
ATOM     43  C   UNL A   1      47.142  30.149  27.966  1.00  0.00     0.049 A 
ATOM     44  N   UNL A   1      44.199  29.586  28.153  1.00  0.00    -0.248 NA
ATOM     45  C   UNL A   1      43.805  31.850  28.525  1.00  0.00     0.031 C 
ATOM     46  C   UNL A   1      48.593  30.350  27.900  1.00  0.00     0.029 A 
ATOM     47  N   UNL A   1      46.977  28.841  27.590  1.00  0.00    -0.354 N 
ATOM     48  C   UNL A   1      42.834  29.790  28.335  1.00  0.00     0.074 A 
ATOM     49  C   UNL A   1      42.652  31.200  28.599  1.00  0.00     0.031 C 
ATOM     50  C   UNL A   1      49.168  29.251  27.393  1.00  0.00     0.029 A 
ATOM     51  C   UNL A   1      48.146  28.231  27.198  1.00  0.00     0.049 A 
ATOM     52  H   UNL A   1      46.106  28.382  27.600  1.00  0.00     0.167 HD
ATOM     53  C   UNL A   1      41.827  28.887  28.281  1.00  0.00     0.037 A 
ATOM     54  C   UNL A   1      48.380  26.985  26.746  1.00  0.00     0.037 A 
ATOM     55  C   UNL A   1      41.997  27.501  27.926  1.00  0.00     0.049 A 
ATOM     56  C   UNL A   1      47.243  26.012  26.666  1.00  0.00     0.074 A 
ATOM     57  C   UNL A   1      41.029  26.519  27.806  1.00  0.00     0.029 A 
ATOM     58  N   UNL A   1      43.209  26.909  27.609  1.00  0.00    -0.354 N 
ATOM     59  N   UNL A   1      45.970  26.219  26.898  1.00  0.00    -0.248 NA
ATOM     60  C   UNL A   1      47.578  24.629  26.305  1.00  0.00     0.031 C 
ATOM     61  C   UNL A   1      41.658  25.327  27.437  1.00  0.00     0.029 A 
ATOM     62  C   UNL A   1      43.014  25.573  27.304  1.00  0.00     0.049 A 
ATOM     63  H   UNL A   1      44.079  27.370  27.601  1.00  0.00     0.167 HD
ATOM     64  C   UNL A   1      45.356  24.983  26.745  1.00  0.00     0.074 A 
ATOM     65  C   UNL A   1      46.388  24.045  26.353  1.00  0.00     0.031 C 
ATOM     66  C   UNL A   1      44.058  24.652  26.936  1.00  0.00     0.037 A 
BRANCH  53  67
ATOM     67  C   UNL A   1      40.435  29.347  28.612  1.00  0.00     0.058 A 
ATOM     68  C   UNL A   1      39.461  29.529  27.620  1.00  0.00     0.135 A 
ATOM     69  C   UNL A   1      40.046  29.506  29.953  1.00  0.00     0.135 A 
ATOM     70  F   UNL A   1      39.785  29.407  26.323  1.00  0.00    -0.206 F 
ATOM     71  C   UNL A   1      38.147  29.850  27.945  1.00  0.00     0.059 A 
ATOM     72  C   UNL A   1      38.734  29.811  30.302  1.00  0.00     0.059 A 
ATOM     73  F   UNL A   1      40.942  29.345  30.939  1.00  0.00    -0.206 F 
ATOM     74  C   UNL A   1      37.791  29.982  29.289  1.00  0.00     0.060 A 
BRANCH  74  75
ATOM     75  S   UNL A   1      36.071  30.360  29.689  1.00  0.00     0.124 S 
ATOM     76  O   UNL A   1      35.375  29.758  28.556  1.00  0.00    -0.237 OA
ATOM     77  O   UNL A   1      35.896  29.684  30.971  1.00  0.00    -0.237 OA
ATOM     78  O   UNL A   1      36.045  31.818  29.741  1.00  0.00    -0.744 OA
ENDBRANCH  74  75
ENDBRANCH  53  67
BRANCH  54  79
ATOM     79  C   UNL A   1      49.761  26.583  26.379  1.00  0.00     0.058 A 
ATOM     80  C   UNL A   1      50.663  26.128  27.351  1.00  0.00     0.135 A 
ATOM     81  C   UNL A   1      50.191  26.609  25.043  1.00  0.00     0.135 A 
ATOM     82  F   UNL A   1      50.298  26.093  28.641  1.00  0.00    -0.206 F 
ATOM     83  C   UNL A   1      51.946  25.712  27.011  1.00  0.00     0.059 A 
ATOM     84  C   UNL A   1      51.459  26.175  24.676  1.00  0.00     0.059 A 
ATOM     85  F   UNL A   1      49.356  27.022  24.076  1.00  0.00    -0.206 F 
ATOM     86  C   UNL A   1      52.333  25.735  25.670  1.00  0.00     0.060 A 
BRANCH  86  87
ATOM     87  S   UNL A   1      53.972  25.125  25.219  1.00  0.00     0.124 S 
ATOM     88  O   UNL A   1      53.658  23.791  24.721  1.00  0.00    -0.237 OA
ATOM     89  O   UNL A   1      54.402  26.096  24.217  1.00  0.00    -0.237 OA
ATOM     90  O   UNL A   1      54.702  25.177  26.483  1.00  0.00    -0.744 OA
ENDBRANCH  86  87
ENDBRANCH  54  79
BRANCH  66  91
ATOM     91  C   UNL A   1      43.686  23.211  26.762  1.00  0.00     0.058 A 
ATOM     92  C   UNL A   1      43.404  22.404  27.874  1.00  0.00     0.135 A 
ATOM     93  C   UNL A   1      43.553  22.650  25.483  1.00  0.00     0.135 A 
ATOM     94  F   UNL A   1      43.528  22.899  29.115  1.00  0.00    -0.206 F 
ATOM     95  C   UNL A   1      43.008  21.082  27.725  1.00  0.00     0.059 A 
ATOM     96  C   UNL A   1      43.142  21.333  25.310  1.00  0.00     0.059 A 
ATOM     97  F   UNL A   1      43.807  23.388  24.390  1.00  0.00    -0.206 F 
ATOM     98  C   UNL A   1      42.877  20.555  26.438  1.00  0.00     0.060 A 
BRANCH  98  99
ATOM     99  S   UNL A   1      42.316  18.849  26.257  1.00  0.00     0.124 S 
ATOM    100  O   UNL A   1      40.938  19.038  25.817  1.00  0.00    -0.237 OA
ATOM    101  O   UNL A   1      43.235  18.321  25.254  1.00  0.00    -0.237 OA
ATOM    102  O   UNL A   1      42.478  18.295  27.599  1.00  0.00    -0.744 OA
ENDBRANCH  98  99
ENDBRANCH  66  91
ENDBRANCH  40  41
ENDBRANCH  32  35
ENDBRANCH  30  31
ENDBRANCH   1  30
TORSDOF 18
ENDMDL
MODEL 3
REMARK VINA RESULT:     -11.1      4.017     10.629
REMARK SMILES COc1cc2c(cc1OC)C1=C(C#N)C[N@@H+](CC(=O)NCCCCNC(=O)c3ccc(-c4c5nc(c(-c6c(F)cc(S(=O)(=O)[O-])cc6F)c6ccc([nH]6)c(-c6c(F)cc(S(=O)(=O)[O-])cc6F)c6nc(c(-c7c(F)cc(S(=O)(=O)[O-])cc7F)c7ccc4[nH]7)C=C6)C=C5)cc3)CN1CC2
REMARK SMILES IDX 23 1 22 2 21 3 20 4 18 5 19 6 17 8 16 9 3 10 4 11 8 12 5 13
REMARK SMILES IDX 7 14 6 15 97 16 11 17 96 18 12 19 95 20 15 21 94 22 2 24
REMARK SMILES IDX 1 25 9 26 10 27 13 28 14 29 24 30 25 31 26 32 27 34 28 35
REMARK SMILES IDX 29 36 93 37 30 38 92 39 31 40 32 41 33 42 86 43 34 44 91 45
REMARK SMILES IDX 85 46 87 47 35 48 90 49 84 50 83 51 36 53 70 54 49 55 69 56
REMARK SMILES IDX 50 57 53 58 68 59 88 60 51 61 52 62 67 64 89 65 54 66 37 67
REMARK SMILES IDX 38 68 47 69 39 70 40 71 46 72 48 73 41 74 42 75 43 76 44 77
REMARK SMILES IDX 45 78 71 79 72 80 81 81 73 82 74 83 80 84 82 85 75 86 76 87
REMARK SMILES IDX 77 88 78 89 79 90 55 91 56 92 65 93 57 94 58 95 64 96 66 97
REMARK SMILES IDX 59 98 60 99 61 100 62 101 63 102
REMARK H PARENT 20 7 16 23 25 33 87 52 53 63
REMARK Flexibility Score: inf
ROOT
ATOM      1  C   UNL A   1      41.614  22.599  27.726  1.00  0.00     0.023 C 
ENDROOT
BRANCH   1   2
ATOM      2  C   UNL A   1      42.196  21.267  27.274  1.00  0.00     0.023 C 
BRANCH   2   3
ATOM      3  C   UNL A   1      42.651  21.171  25.829  1.00  0.00     0.116 C 
BRANCH   3   4
ATOM      4  N   UNL A   1      44.075  20.883  25.777  1.00  0.00    -0.351 N 
ATOM      5  C   UNL A   1      45.133  21.751  25.685  1.00  0.00     0.275 C 
ATOM      6  O   UNL A   1      46.259  21.271  25.525  1.00  0.00    -0.269 OA
ATOM      7  H   UNL A   1      44.315  19.929  25.812  1.00  0.00     0.163 HD
BRANCH   5   8
ATOM      8  C   UNL A   1      44.929  23.262  25.889  1.00  0.00     0.365 C 
BRANCH   8   9
ATOM      9  N   UNL A   1      46.067  24.047  26.398  1.00  0.00    -0.306 N 
ATOM     10  C   UNL A   1      44.114  30.237  29.625  1.00  0.00     0.161 A 
ATOM     11  C   UNL A   1      43.850  29.911  28.289  1.00  0.00     0.055 A 
ATOM     12  C   UNL A   1      44.948  29.408  30.377  1.00  0.00     0.161 A 
ATOM     13  C   UNL A   1      44.355  28.727  27.721  1.00  0.00    -0.033 A 
ATOM     14  C   UNL A   1      45.447  28.229  29.796  1.00  0.00     0.061 A 
ATOM     15  C   UNL A   1      45.095  27.818  28.500  1.00  0.00     0.006 A 
ATOM     16  C   UNL A   1      44.134  28.430  26.257  1.00  0.00     0.058 C 
ATOM     17  C   UNL A   1      45.528  26.517  27.882  1.00  0.00     0.068 C 
ATOM     18  C   UNL A   1      45.352  27.698  25.682  1.00  0.00     0.127 C 
ATOM     19  C   UNL A   1      45.730  25.359  28.557  1.00  0.00     0.108 C 
ATOM     20  N   UNL A   1      45.653  26.514  26.488  1.00  0.00    -0.323 N 
ATOM     21  C   UNL A   1      46.211  24.108  27.855  1.00  0.00     0.314 C 
ATOM     22  C   UNL A   1      46.242  25.369  25.804  1.00  0.00     0.390 C 
ATOM     23  H   UNL A   1      46.839  23.470  26.061  1.00  0.00     0.350 HD
BRANCH  10  24
ATOM     24  O   UNL A   1      43.677  31.427  30.144  1.00  0.00    -0.493 OA
ATOM     25  C   UNL A   1      44.704  32.415  30.248  1.00  0.00     0.278 C 
ENDBRANCH  10  24
BRANCH  12  26
ATOM     26  O   UNL A   1      45.393  29.599  31.661  1.00  0.00    -0.493 OA
ATOM     27  C   UNL A   1      46.644  29.024  32.016  1.00  0.00     0.278 C 
ENDBRANCH  12  26
BRANCH  19  28
ATOM     28  C   UNL A   1      45.473  25.265  30.053  1.00  0.00     0.103 C 
ATOM     29  N   UNL A   1      45.259  25.186  31.293  1.00  0.00    -0.192 NA
ENDBRANCH  19  28
ENDBRANCH   8   9
ENDBRANCH   5   8
ENDBRANCH   3   4
ENDBRANCH   2   3
ENDBRANCH   1   2
BRANCH   1  30
ATOM     30  C   UNL A   1      40.339  22.953  26.988  1.00  0.00     0.116 C 
BRANCH  30  31
ATOM     31  N   UNL A   1      40.432  24.094  26.076  1.00  0.00    -0.352 N 
ATOM     32  C   UNL A   1      40.662  25.419  26.406  1.00  0.00     0.251 C 
ATOM     33  H   UNL A   1      40.316  23.897  25.118  1.00  0.00     0.163 HD
ATOM     34  O   UNL A   1      40.745  26.298  25.557  1.00  0.00    -0.269 OA
BRANCH  32  35
ATOM     35  C   UNL A   1      40.703  25.771  27.843  1.00  0.00     0.039 A 
ATOM     36  C   UNL A   1      39.515  25.850  28.559  1.00  0.00     0.014 A 
ATOM     37  C   UNL A   1      41.893  26.264  28.382  1.00  0.00     0.014 A 
ATOM     38  C   UNL A   1      39.459  26.702  29.650  1.00  0.00     0.010 A 
ATOM     39  C   UNL A   1      41.855  26.992  29.575  1.00  0.00     0.010 A 
ATOM     40  C   UNL A   1      40.621  27.309  30.163  1.00  0.00    -0.014 A 
BRANCH  40  41
ATOM     41  C   UNL A   1      40.484  28.330  31.244  1.00  0.00     0.031 A 
ATOM     42  C   UNL A   1      41.493  28.420  32.368  1.00  0.00     0.074 A 
ATOM     43  C   UNL A   1      39.517  29.265  31.142  1.00  0.00     0.049 A 
ATOM     44  N   UNL A   1      41.524  29.258  33.375  1.00  0.00    -0.248 NA
ATOM     45  C   UNL A   1      42.601  27.448  32.382  1.00  0.00     0.031 C 
ATOM     46  C   UNL A   1      38.485  29.300  30.101  1.00  0.00     0.029 A 
ATOM     47  N   UNL A   1      39.278  30.398  31.876  1.00  0.00    -0.354 N 
ATOM     48  C   UNL A   1      42.603  28.876  34.166  1.00  0.00     0.074 A 
ATOM     49  C   UNL A   1      43.209  27.730  33.526  1.00  0.00     0.031 C 
ATOM     50  C   UNL A   1      37.807  30.452  30.190  1.00  0.00     0.029 A 
ATOM     51  C   UNL A   1      38.282  31.190  31.354  1.00  0.00     0.049 A 
ATOM     52  H   UNL A   1      39.772  30.623  32.697  1.00  0.00     0.167 HD
ATOM     53  C   UNL A   1      43.050  29.431  35.317  1.00  0.00     0.037 A 
ATOM     54  C   UNL A   1      37.788  32.371  31.769  1.00  0.00     0.037 A 
ATOM     55  C   UNL A   1      42.504  30.627  35.906  1.00  0.00     0.049 A 
ATOM     56  C   UNL A   1      38.321  32.982  33.029  1.00  0.00     0.074 A 
ATOM     57  C   UNL A   1      42.918  31.288  37.050  1.00  0.00     0.029 A 
ATOM     58  N   UNL A   1      41.447  31.355  35.385  1.00  0.00    -0.354 N 
ATOM     59  N   UNL A   1      39.306  32.567  33.788  1.00  0.00    -0.248 NA
ATOM     60  C   UNL A   1      37.649  34.195  33.514  1.00  0.00     0.031 C 
ATOM     61  C   UNL A   1      42.097  32.405  37.233  1.00  0.00     0.029 A 
ATOM     62  C   UNL A   1      41.188  32.451  36.188  1.00  0.00     0.049 A 
ATOM     63  H   UNL A   1      40.954  31.127  34.563  1.00  0.00     0.167 HD
ATOM     64  C   UNL A   1      39.350  33.450  34.859  1.00  0.00     0.074 A 
ATOM     65  C   UNL A   1      38.325  34.448  34.626  1.00  0.00     0.031 C 
ATOM     66  C   UNL A   1      40.151  33.421  35.949  1.00  0.00     0.037 A 
BRANCH  53  67
ATOM     67  C   UNL A   1      44.188  28.766  36.039  1.00  0.00     0.058 A 
ATOM     68  C   UNL A   1      45.507  29.227  35.922  1.00  0.00     0.135 A 
ATOM     69  C   UNL A   1      43.935  27.717  36.939  1.00  0.00     0.135 A 
ATOM     70  F   UNL A   1      45.806  30.213  35.061  1.00  0.00    -0.206 F 
ATOM     71  C   UNL A   1      46.537  28.674  36.676  1.00  0.00     0.059 A 
ATOM     72  C   UNL A   1      44.947  27.160  37.716  1.00  0.00     0.059 A 
ATOM     73  F   UNL A   1      42.689  27.239  37.085  1.00  0.00    -0.206 F 
ATOM     74  C   UNL A   1      46.246  27.645  37.575  1.00  0.00     0.060 A 
BRANCH  74  75
ATOM     75  S   UNL A   1      47.592  26.970  38.572  1.00  0.00     0.124 S 
ATOM     76  O   UNL A   1      47.765  25.653  37.964  1.00  0.00    -0.237 OA
ATOM     77  O   UNL A   1      48.668  27.925  38.329  1.00  0.00    -0.237 OA
ATOM     78  O   UNL A   1      47.047  26.970  39.926  1.00  0.00    -0.744 OA
ENDBRANCH  74  75
ENDBRANCH  53  67
BRANCH  54  79
ATOM     79  C   UNL A   1      36.698  33.024  31.001  1.00  0.00     0.058 A 
ATOM     80  C   UNL A   1      35.356  32.864  31.374  1.00  0.00     0.135 A 
ATOM     81  C   UNL A   1      36.983  33.851  29.903  1.00  0.00     0.135 A 
ATOM     82  F   UNL A   1      35.037  32.077  32.411  1.00  0.00    -0.206 F 
ATOM     83  C   UNL A   1      34.332  33.503  30.684  1.00  0.00     0.059 A 
ATOM     84  C   UNL A   1      35.978  34.519  29.215  1.00  0.00     0.059 A 
ATOM     85  F   UNL A   1      38.254  34.046  29.520  1.00  0.00    -0.206 F 
ATOM     86  C   UNL A   1      34.653  34.333  29.608  1.00  0.00     0.060 A 
BRANCH  86  87
ATOM     87  S   UNL A   1      33.330  35.222  28.760  1.00  0.00     0.124 S 
ATOM     88  O   UNL A   1      34.085  36.208  27.997  1.00  0.00    -0.237 OA
ATOM     89  O   UNL A   1      32.693  34.164  27.981  1.00  0.00    -0.237 OA
ATOM     90  O   UNL A   1      32.527  35.747  29.860  1.00  0.00    -0.744 OA
ENDBRANCH  86  87
ENDBRANCH  54  79
BRANCH  66  91
ATOM     91  C   UNL A   1      39.929  34.475  36.990  1.00  0.00     0.058 A 
ATOM     92  C   UNL A   1      39.029  34.262  38.045  1.00  0.00     0.135 A 
ATOM     93  C   UNL A   1      40.656  35.674  36.971  1.00  0.00     0.135 A 
ATOM     94  F   UNL A   1      38.306  33.132  38.098  1.00  0.00    -0.206 F 
ATOM     95  C   UNL A   1      38.851  35.208  39.046  1.00  0.00     0.059 A 
ATOM     96  C   UNL A   1      40.507  36.629  37.971  1.00  0.00     0.059 A 
ATOM     97  F   UNL A   1      41.533  35.917  35.983  1.00  0.00    -0.206 F 
ATOM     98  C   UNL A   1      39.597  36.388  39.002  1.00  0.00     0.060 A 
BRANCH  98  99
ATOM     99  S   UNL A   1      39.391  37.589  40.334  1.00  0.00     0.124 S 
ATOM    100  O   UNL A   1      40.638  38.341  40.245  1.00  0.00    -0.237 OA
ATOM    101  O   UNL A   1      38.188  38.307  39.926  1.00  0.00    -0.237 OA
ATOM    102  O   UNL A   1      39.243  36.754  41.523  1.00  0.00    -0.744 OA
ENDBRANCH  98  99
ENDBRANCH  66  91
ENDBRANCH  40  41
ENDBRANCH  32  35
ENDBRANCH  30  31
ENDBRANCH   1  30
TORSDOF 18
ENDMDL
