MODEL 1
REMARK VINA RESULT:     -13.5      0.000      0.000
REMARK SMILES O=C(NCCCCNC(=O)[C@H]1CCCC[C@H]1C(=O)N1CCN(S(=O)(=O)c2ccc(F)cc2)CC1)c1ccc(-c2c3nc(c(-c4c(F)cc(S(=O)(=O)[O-])cc4F)c4ccc([nH]4)c(-c4c(F)cc(S(=O)(=O)[O-])cc4F)c4nc(c(-c5c(F)cc(S(=O)(=O)[O-])cc5F)c5ccc2[nH]5)C=C4)C=C3)cc1
REMARK SMILES IDX 5 1 4 2 3 3 1 4 2 5 35 7 36 8 100 9 37 10 99 11 38 12 39 13
REMARK SMILES IDX 40 14 93 15 41 16 98 17 92 18 94 19 42 20 97 21 91 22 90 23
REMARK SMILES IDX 43 25 77 26 56 27 76 28 57 29 60 30 75 31 95 32 58 33 59 34
REMARK SMILES IDX 74 36 96 37 61 38 44 39 45 40 54 41 46 42 47 43 53 44 55 45
REMARK SMILES IDX 48 46 49 47 50 48 51 49 52 50 78 51 79 52 88 53 80 54 81 55
REMARK SMILES IDX 87 56 89 57 82 58 83 59 84 60 85 61 86 62 62 63 63 64 72 65
REMARK SMILES IDX 64 66 65 67 71 68 73 69 66 70 67 71 68 72 69 73 70 74 6 75
REMARK SMILES IDX 7 76 8 77 9 78 10 80 11 81 12 82 16 83 13 84 15 85 14 86
REMARK SMILES IDX 17 87 18 88 19 89 20 90 34 91 21 92 33 93 22 94 23 95 24 96
REMARK SMILES IDX 25 97 26 98 27 99 32 100 28 101 31 102 29 103 30 104
REMARK H PARENT 3 6 94 24 60 35 8 79
REMARK Flexibility Score: inf
ROOT
ATOM      1  C   UNL A   1      34.268  30.531  27.552  1.00  0.00     0.023 C 
ENDROOT
BRANCH   1   2
ATOM      2  C   UNL A   1      35.602  30.786  28.239  1.00  0.00     0.116 C 
BRANCH   2   3
ATOM      3  N   UNL A   1      35.526  30.679  29.691  1.00  0.00    -0.352 N 
ATOM      4  O   UNL A   1      36.174  30.046  31.758  1.00  0.00    -0.269 OA
ATOM      5  C   UNL A   1      36.456  30.183  30.573  1.00  0.00     0.251 C 
ATOM      6  H   UNL A   1      34.691  31.008  30.096  1.00  0.00     0.163 HD
BRANCH   5   7
ATOM      7  C   UNL A   1      37.783  29.794  30.062  1.00  0.00     0.039 A 
ATOM      8  C   UNL A   1      38.775  29.382  30.954  1.00  0.00     0.014 A 
ATOM      9  C   UNL A   1      38.049  29.889  28.694  1.00  0.00     0.014 A 
ATOM     10  C   UNL A   1      40.074  29.221  30.501  1.00  0.00     0.010 A 
ATOM     11  C   UNL A   1      39.338  29.626  28.226  1.00  0.00     0.010 A 
ATOM     12  C   UNL A   1      40.366  29.315  29.129  1.00  0.00    -0.014 A 
BRANCH  12  13
ATOM     13  C   UNL A   1      41.733  28.976  28.667  1.00  0.00     0.031 A 
ATOM     14  C   UNL A   1      42.833  29.998  28.650  1.00  0.00     0.074 A 
ATOM     15  C   UNL A   1      41.969  27.703  28.293  1.00  0.00     0.049 A 
ATOM     16  N   UNL A   1      44.076  29.851  28.270  1.00  0.00    -0.248 NA
ATOM     17  C   UNL A   1      42.507  31.357  29.113  1.00  0.00     0.031 C 
ATOM     18  C   UNL A   1      40.960  26.637  28.266  1.00  0.00     0.029 A 
ATOM     19  N   UNL A   1      43.117  27.077  27.890  1.00  0.00    -0.354 N 
ATOM     20  C   UNL A   1      44.676  31.095  28.427  1.00  0.00     0.074 A 
ATOM     21  C   UNL A   1      43.659  31.993  28.928  1.00  0.00     0.031 C 
ATOM     22  C   UNL A   1      41.545  25.483  27.921  1.00  0.00     0.029 A 
ATOM     23  C   UNL A   1      42.948  25.739  27.624  1.00  0.00     0.049 A 
ATOM     24  H   UNL A   1      43.981  27.541  27.799  1.00  0.00     0.167 HD
ATOM     25  C   UNL A   1      45.961  31.443  28.178  1.00  0.00     0.037 A 
ATOM     26  C   UNL A   1      43.816  24.821  27.162  1.00  0.00     0.037 A 
ATOM     27  C   UNL A   1      46.966  30.524  27.704  1.00  0.00     0.049 A 
ATOM     28  C   UNL A   1      45.223  25.246  26.871  1.00  0.00     0.074 A 
ATOM     29  C   UNL A   1      48.306  30.771  27.459  1.00  0.00     0.029 A 
ATOM     30  N   UNL A   1      46.746  29.187  27.403  1.00  0.00    -0.354 N 
ATOM     31  N   UNL A   1      45.775  26.423  27.040  1.00  0.00    -0.248 NA
ATOM     32  C   UNL A   1      46.122  24.229  26.312  1.00  0.00     0.031 C 
ATOM     33  C   UNL A   1      48.886  29.596  26.971  1.00  0.00     0.029 A 
ATOM     34  C   UNL A   1      47.918  28.605  26.951  1.00  0.00     0.049 A 
ATOM     35  H   UNL A   1      45.883  28.722  27.498  1.00  0.00     0.167 HD
ATOM     36  C   UNL A   1      47.085  26.292  26.604  1.00  0.00     0.074 A 
ATOM     37  C   UNL A   1      47.252  24.912  26.192  1.00  0.00     0.031 C 
ATOM     38  C   UNL A   1      48.059  27.232  26.537  1.00  0.00     0.037 A 
BRANCH  25  39
ATOM     39  C   UNL A   1      46.382  32.868  28.403  1.00  0.00     0.058 A 
ATOM     40  C   UNL A   1      46.775  33.297  29.682  1.00  0.00     0.135 A 
ATOM     41  C   UNL A   1      46.266  33.837  27.396  1.00  0.00     0.135 A 
ATOM     42  F   UNL A   1      46.909  32.410  30.681  1.00  0.00    -0.206 F 
ATOM     43  C   UNL A   1      47.003  34.640  29.962  1.00  0.00     0.059 A 
ATOM     44  C   UNL A   1      46.507  35.185  27.648  1.00  0.00     0.059 A 
ATOM     45  F   UNL A   1      45.913  33.477  26.151  1.00  0.00    -0.206 F 
ATOM     46  C   UNL A   1      46.854  35.579  28.941  1.00  0.00     0.060 A 
BRANCH  46  47
ATOM     47  S   UNL A   1      47.126  37.323  29.328  1.00  0.00     0.124 S 
ATOM     48  O   UNL A   1      47.055  37.940  28.009  1.00  0.00    -0.237 OA
ATOM     49  O   UNL A   1      46.014  37.612  30.229  1.00  0.00    -0.237 OA
ATOM     50  O   UNL A   1      48.446  37.328  29.956  1.00  0.00    -0.744 OA
ENDBRANCH  46  47
ENDBRANCH  25  39
BRANCH  26  51
ATOM     51  C   UNL A   1      43.353  23.432  26.915  1.00  0.00     0.058 A 
ATOM     52  C   UNL A   1      43.157  22.537  27.979  1.00  0.00     0.135 A 
ATOM     53  C   UNL A   1      43.142  22.956  25.614  1.00  0.00     0.135 A 
ATOM     54  F   UNL A   1      43.360  22.939  29.244  1.00  0.00    -0.206 F 
ATOM     55  C   UNL A   1      42.795  21.214  27.762  1.00  0.00     0.059 A 
ATOM     56  C   UNL A   1      42.750  21.644  25.372  1.00  0.00     0.059 A 
ATOM     57  F   UNL A   1      43.310  23.778  24.565  1.00  0.00    -0.206 F 
ATOM     58  C   UNL A   1      42.597  20.776  26.453  1.00  0.00     0.060 A 
BRANCH  58  59
ATOM     59  S   UNL A   1      42.117  19.055  26.190  1.00  0.00     0.124 S 
ATOM     60  O   UNL A   1      43.033  18.658  25.127  1.00  0.00    -0.237 OA
ATOM     61  O   UNL A   1      42.367  18.463  27.500  1.00  0.00    -0.237 OA
ATOM     62  O   UNL A   1      40.712  19.154  25.808  1.00  0.00    -0.744 OA
ENDBRANCH  58  59
ENDBRANCH  26  51
BRANCH  38  63
ATOM     63  C   UNL A   1      49.390  26.803  25.994  1.00  0.00     0.058 A 
ATOM     64  C   UNL A   1      50.342  26.198  26.828  1.00  0.00     0.135 A 
ATOM     65  C   UNL A   1      49.742  27.051  24.659  1.00  0.00     0.135 A 
ATOM     66  F   UNL A   1      50.051  25.941  28.113  1.00  0.00    -0.206 F 
ATOM     67  C   UNL A   1      51.609  25.873  26.361  1.00  0.00     0.059 A 
ATOM     68  C   UNL A   1      50.996  26.712  24.164  1.00  0.00     0.059 A 
ATOM     69  F   UNL A   1      48.857  27.613  23.820  1.00  0.00    -0.206 F 
ATOM     70  C   UNL A   1      51.929  26.138  25.029  1.00  0.00     0.060 A 
BRANCH  70  71
ATOM     71  S   UNL A   1      53.576  25.700  24.436  1.00  0.00     0.124 S 
ATOM     72  O   UNL A   1      54.417  26.636  25.173  1.00  0.00    -0.237 OA
ATOM     73  O   UNL A   1      53.684  24.299  24.832  1.00  0.00    -0.237 OA
ATOM     74  O   UNL A   1      53.491  25.932  22.996  1.00  0.00    -0.744 OA
ENDBRANCH  70  71
ENDBRANCH  38  63
ENDBRANCH  12  13
ENDBRANCH   5   7
ENDBRANCH   2   3
ENDBRANCH   1   2
BRANCH   1  75
ATOM     75  C   UNL A   1      33.974  29.068  27.232  1.00  0.00     0.023 C 
BRANCH  75  76
ATOM     76  C   UNL A   1      34.382  28.601  25.831  1.00  0.00     0.116 C 
BRANCH  76  77
ATOM     77  N   UNL A   1      33.800  29.408  24.772  1.00  0.00    -0.356 N 
ATOM     78  C   UNL A   1      32.700  29.062  24.051  1.00  0.00     0.223 C 
ATOM     79  H   UNL A   1      34.232  30.268  24.562  1.00  0.00     0.163 HD
ATOM     80  O   UNL A   1      32.889  28.878  22.844  1.00  0.00    -0.275 OA
BRANCH  78  81
ATOM     81  C   UNL A   1      31.277  28.976  24.635  1.00  0.00     0.091 C 
ATOM     82  C   UNL A   1      30.218  29.732  23.801  1.00  0.00     0.014 C 
ATOM     83  C   UNL A   1      30.681  27.619  25.088  1.00  0.00     0.091 C 
ATOM     84  C   UNL A   1      29.508  28.898  22.721  1.00  0.00     0.001 C 
ATOM     85  C   UNL A   1      30.158  26.783  23.914  1.00  0.00     0.014 C 
ATOM     86  C   UNL A   1      29.038  27.538  23.208  1.00  0.00     0.001 C 
BRANCH  83  87
ATOM     87  C   UNL A   1      31.264  26.684  26.171  1.00  0.00     0.226 C 
ATOM     88  O   UNL A   1      31.043  26.923  27.362  1.00  0.00    -0.275 OA
ATOM     89  N   UNL A   1      31.738  25.456  25.780  1.00  0.00    -0.340 N 
ATOM     90  C   UNL A   1      31.328  24.227  26.467  1.00  0.00     0.136 C 
ATOM     91  C   UNL A   1      32.992  25.314  25.079  1.00  0.00     0.136 C 
ATOM     92  C   UNL A   1      31.250  23.047  25.466  1.00  0.00     0.124 C 
ATOM     93  C   UNL A   1      32.822  24.258  23.995  1.00  0.00     0.124 C 
ATOM     94  N   UNL A   1      32.490  22.925  24.595  1.00  0.00    -0.194 NA
BRANCH  94  95
ATOM     95  S   UNL A   1      33.753  22.030  25.330  1.00  0.00     0.243 S 
ATOM     96  O   UNL A   1      35.021  22.587  24.895  1.00  0.00    -0.207 OA
ATOM     97  O   UNL A   1      33.444  21.940  26.736  1.00  0.00    -0.207 OA
BRANCH  95  98
ATOM     98  C   UNL A   1      33.630  20.397  24.626  1.00  0.00     0.082 A 
ATOM     99  C   UNL A   1      34.638  19.453  24.883  1.00  0.00     0.025 A 
ATOM    100  C   UNL A   1      32.488  20.030  23.905  1.00  0.00     0.025 A 
ATOM    101  C   UNL A   1      34.543  18.172  24.342  1.00  0.00     0.040 A 
ATOM    102  C   UNL A   1      32.381  18.731  23.403  1.00  0.00     0.040 A 
ATOM    103  C   UNL A   1      33.415  17.821  23.611  1.00  0.00     0.123 A 
ATOM    104  F   UNL A   1      33.315  16.581  23.117  1.00  0.00    -0.207 F 
ENDBRANCH  95  98
ENDBRANCH  94  95
ENDBRANCH  83  87
ENDBRANCH  78  81
ENDBRANCH  76  77
ENDBRANCH  75  76
ENDBRANCH   1  75
TORSDOF 17
ENDMDL
MODEL 2
REMARK VINA RESULT:     -13.2      2.745      8.431
REMARK SMILES O=C(NCCCCNC(=O)[C@H]1CCCC[C@H]1C(=O)N1CCN(S(=O)(=O)c2ccc(F)cc2)CC1)c1ccc(-c2c3nc(c(-c4c(F)cc(S(=O)(=O)[O-])cc4F)c4ccc([nH]4)c(-c4c(F)cc(S(=O)(=O)[O-])cc4F)c4nc(c(-c5c(F)cc(S(=O)(=O)[O-])cc5F)c5ccc2[nH]5)C=C4)C=C3)cc1
REMARK SMILES IDX 5 1 4 2 3 3 1 4 2 5 35 7 36 8 100 9 37 10 99 11 38 12 39 13
REMARK SMILES IDX 40 14 93 15 41 16 98 17 92 18 94 19 42 20 97 21 91 22 90 23
REMARK SMILES IDX 43 25 77 26 56 27 76 28 57 29 60 30 75 31 95 32 58 33 59 34
REMARK SMILES IDX 74 36 96 37 61 38 44 39 45 40 54 41 46 42 47 43 53 44 55 45
REMARK SMILES IDX 48 46 49 47 50 48 51 49 52 50 78 51 79 52 88 53 80 54 81 55
REMARK SMILES IDX 87 56 89 57 82 58 83 59 84 60 85 61 86 62 62 63 63 64 72 65
REMARK SMILES IDX 64 66 65 67 71 68 73 69 66 70 67 71 68 72 69 73 70 74 6 75
REMARK SMILES IDX 7 76 8 77 9 78 10 80 11 81 12 82 16 83 13 84 15 85 14 86
REMARK SMILES IDX 17 87 18 88 19 89 20 90 34 91 21 92 33 93 22 94 23 95 24 96
REMARK SMILES IDX 25 97 26 98 27 99 32 100 28 101 31 102 29 103 30 104
REMARK H PARENT 3 6 94 24 60 35 8 79
REMARK Flexibility Score: inf
ROOT
ATOM      1  C   UNL A   1      34.133  28.171  25.699  1.00  0.00     0.023 C 
ENDROOT
BRANCH   1   2
ATOM      2  C   UNL A   1      33.776  28.333  27.169  1.00  0.00     0.116 C 
BRANCH   2   3
ATOM      3  N   UNL A   1      33.588  29.725  27.561  1.00  0.00    -0.352 N 
ATOM      4  O   UNL A   1      34.112  31.690  28.539  1.00  0.00    -0.269 OA
ATOM      5  C   UNL A   1      34.479  30.585  28.157  1.00  0.00     0.251 C 
ATOM      6  H   UNL A   1      32.698  30.101  27.370  1.00  0.00     0.163 HD
BRANCH   5   7
ATOM      7  C   UNL A   1      35.872  30.142  28.353  1.00  0.00     0.039 A 
ATOM      8  C   UNL A   1      36.273  29.648  29.596  1.00  0.00     0.014 A 
ATOM      9  C   UNL A   1      36.788  30.268  27.307  1.00  0.00     0.014 A 
ATOM     10  C   UNL A   1      37.619  29.431  29.841  1.00  0.00     0.010 A 
ATOM     11  C   UNL A   1      38.130  29.951  27.527  1.00  0.00     0.010 A 
ATOM     12  C   UNL A   1      38.560  29.555  28.803  1.00  0.00    -0.014 A 
BRANCH  12  13
ATOM     13  C   UNL A   1      39.964  29.158  29.064  1.00  0.00     0.031 A 
ATOM     14  C   UNL A   1      40.483  27.803  28.677  1.00  0.00     0.074 A 
ATOM     15  C   UNL A   1      40.776  30.072  29.630  1.00  0.00     0.049 A 
ATOM     16  N   UNL A   1      41.684  27.313  28.844  1.00  0.00    -0.248 NA
ATOM     17  C   UNL A   1      39.544  26.875  28.025  1.00  0.00     0.031 C 
ATOM     18  C   UNL A   1      40.362  31.416  30.050  1.00  0.00     0.029 A 
ATOM     19  N   UNL A   1      42.111  30.032  29.930  1.00  0.00    -0.354 N 
ATOM     20  C   UNL A   1      41.644  26.018  28.339  1.00  0.00     0.074 A 
ATOM     21  C   UNL A   1      40.296  25.791  27.867  1.00  0.00     0.031 C 
ATOM     22  C   UNL A   1      41.429  32.087  30.502  1.00  0.00     0.029 A 
ATOM     23  C   UNL A   1      42.584  31.200  30.480  1.00  0.00     0.049 A 
ATOM     24  H   UNL A   1      42.678  29.243  29.769  1.00  0.00     0.167 HD
ATOM     25  C   UNL A   1      42.650  25.113  28.275  1.00  0.00     0.037 A 
ATOM     26  C   UNL A   1      43.806  31.517  30.946  1.00  0.00     0.037 A 
ATOM     27  C   UNL A   1      43.994  25.370  28.727  1.00  0.00     0.049 A 
ATOM     28  C   UNL A   1      44.889  30.483  30.884  1.00  0.00     0.074 A 
ATOM     29  C   UNL A   1      45.094  24.531  28.668  1.00  0.00     0.029 A 
ATOM     30  N   UNL A   1      44.425  26.550  29.319  1.00  0.00    -0.354 N 
ATOM     31  N   UNL A   1      44.835  29.270  30.389  1.00  0.00    -0.248 NA
ATOM     32  C   UNL A   1      46.190  30.848  31.457  1.00  0.00     0.031 C 
ATOM     33  C   UNL A   1      46.177  25.186  29.263  1.00  0.00     0.029 A 
ATOM     34  C   UNL A   1      45.764  26.449  29.654  1.00  0.00     0.049 A 
ATOM     35  H   UNL A   1      43.860  27.340  29.478  1.00  0.00     0.167 HD
ATOM     36  C   UNL A   1      46.094  28.723  30.595  1.00  0.00     0.074 A 
ATOM     37  C   UNL A   1      46.896  29.749  31.231  1.00  0.00     0.031 C 
ATOM     38  C   UNL A   1      46.541  27.480  30.296  1.00  0.00     0.037 A 
BRANCH  25  39
ATOM     39  C   UNL A   1      42.364  23.754  27.701  1.00  0.00     0.058 A 
ATOM     40  C   UNL A   1      42.257  22.636  28.545  1.00  0.00     0.135 A 
ATOM     41  C   UNL A   1      42.331  23.533  26.316  1.00  0.00     0.135 A 
ATOM     42  F   UNL A   1      42.275  22.792  29.879  1.00  0.00    -0.206 F 
ATOM     43  C   UNL A   1      42.165  21.345  28.036  1.00  0.00     0.059 A 
ATOM     44  C   UNL A   1      42.221  22.251  25.784  1.00  0.00     0.059 A 
ATOM     45  F   UNL A   1      42.408  24.569  25.466  1.00  0.00    -0.206 F 
ATOM     46  C   UNL A   1      42.160  21.161  26.653  1.00  0.00     0.060 A 
BRANCH  46  47
ATOM     47  S   UNL A   1      42.069  19.476  26.009  1.00  0.00     0.124 S 
ATOM     48  O   UNL A   1      42.547  18.693  27.142  1.00  0.00    -0.237 OA
ATOM     49  O   UNL A   1      40.649  19.345  25.697  1.00  0.00    -0.237 OA
ATOM     50  O   UNL A   1      42.956  19.510  24.847  1.00  0.00    -0.744 OA
ENDBRANCH  46  47
ENDBRANCH  25  39
BRANCH  26  51
ATOM     51  C   UNL A   1      44.039  32.857  31.541  1.00  0.00     0.058 A 
ATOM     52  C   UNL A   1      44.484  33.930  30.751  1.00  0.00     0.135 A 
ATOM     53  C   UNL A   1      43.869  33.083  32.914  1.00  0.00     0.135 A 
ATOM     54  F   UNL A   1      44.677  33.762  29.433  1.00  0.00    -0.206 F 
ATOM     55  C   UNL A   1      44.777  35.169  31.304  1.00  0.00     0.059 A 
ATOM     56  C   UNL A   1      44.127  34.324  33.487  1.00  0.00     0.059 A 
ATOM     57  F   UNL A   1      43.439  32.089  33.708  1.00  0.00    -0.206 F 
ATOM     58  C   UNL A   1      44.599  35.356  32.675  1.00  0.00     0.060 A 
BRANCH  58  59
ATOM     59  S   UNL A   1      44.975  36.977  33.374  1.00  0.00     0.124 S 
ATOM     60  O   UNL A   1      46.432  36.999  33.286  1.00  0.00    -0.237 OA
ATOM     61  O   UNL A   1      44.270  37.876  32.465  1.00  0.00    -0.237 OA
ATOM     62  O   UNL A   1      44.425  36.896  34.723  1.00  0.00    -0.744 OA
ENDBRANCH  58  59
ENDBRANCH  26  51
BRANCH  38  63
ATOM     63  C   UNL A   1      47.960  27.156  30.658  1.00  0.00     0.058 A 
ATOM     64  C   UNL A   1      48.261  26.523  31.873  1.00  0.00     0.135 A 
ATOM     65  C   UNL A   1      49.025  27.532  29.826  1.00  0.00     0.135 A 
ATOM     66  F   UNL A   1      47.276  26.144  32.703  1.00  0.00    -0.206 F 
ATOM     67  C   UNL A   1      49.575  26.292  32.262  1.00  0.00     0.059 A 
ATOM     68  C   UNL A   1      50.347  27.290  30.185  1.00  0.00     0.059 A 
ATOM     69  F   UNL A   1      48.784  28.125  28.646  1.00  0.00    -0.206 F 
ATOM     70  C   UNL A   1      50.611  26.683  31.413  1.00  0.00     0.060 A 
BRANCH  70  71
ATOM     71  S   UNL A   1      52.311  26.369  31.928  1.00  0.00     0.124 S 
ATOM     72  O   UNL A   1      52.115  25.571  33.133  1.00  0.00    -0.237 OA
ATOM     73  O   UNL A   1      52.856  25.657  30.776  1.00  0.00    -0.237 OA
ATOM     74  O   UNL A   1      52.854  27.707  32.143  1.00  0.00    -0.744 OA
ENDBRANCH  70  71
ENDBRANCH  38  63
ENDBRANCH  12  13
ENDBRANCH   5   7
ENDBRANCH   2   3
ENDBRANCH   1   2
BRANCH   1  75
ATOM     75  C   UNL A   1      33.299  29.009  24.734  1.00  0.00     0.023 C 
BRANCH  75  76
ATOM     76  C   UNL A   1      33.694  28.909  23.257  1.00  0.00     0.116 C 
BRANCH  76  77
ATOM     77  N   UNL A   1      32.554  28.716  22.377  1.00  0.00    -0.356 N 
ATOM     78  C   UNL A   1      31.476  27.938  22.666  1.00  0.00     0.223 C 
ATOM     79  H   UNL A   1      32.562  29.182  21.510  1.00  0.00     0.163 HD
ATOM     80  O   UNL A   1      31.313  26.957  21.933  1.00  0.00    -0.275 OA
BRANCH  78  81
ATOM     81  C   UNL A   1      30.449  28.262  23.767  1.00  0.00     0.091 C 
ATOM     82  C   UNL A   1      29.192  28.995  23.245  1.00  0.00     0.014 C 
ATOM     83  C   UNL A   1      30.010  27.185  24.791  1.00  0.00     0.091 C 
ATOM     84  C   UNL A   1      28.022  28.087  22.829  1.00  0.00     0.001 C 
ATOM     85  C   UNL A   1      28.967  26.218  24.220  1.00  0.00     0.014 C 
ATOM     86  C   UNL A   1      27.710  26.991  23.835  1.00  0.00     0.001 C 
BRANCH  83  87
ATOM     87  C   UNL A   1      30.934  26.430  25.772  1.00  0.00     0.226 C 
ATOM     88  O   UNL A   1      30.975  26.776  26.956  1.00  0.00    -0.275 OA
ATOM     89  N   UNL A   1      31.440  25.215  25.380  1.00  0.00    -0.340 N 
ATOM     90  C   UNL A   1      31.348  24.036  26.247  1.00  0.00     0.136 C 
ATOM     91  C   UNL A   1      32.502  25.112  24.406  1.00  0.00     0.136 C 
ATOM     92  C   UNL A   1      31.171  22.752  25.398  1.00  0.00     0.124 C 
ATOM     93  C   UNL A   1      32.202  23.934  23.489  1.00  0.00     0.124 C 
ATOM     94  N   UNL A   1      32.176  22.650  24.262  1.00  0.00    -0.194 NA
BRANCH  94  95
ATOM     95  S   UNL A   1      33.670  21.958  24.735  1.00  0.00     0.243 S 
ATOM     96  O   UNL A   1      34.716  22.509  23.892  1.00  0.00    -0.207 OA
ATOM     97  O   UNL A   1      33.756  22.078  26.170  1.00  0.00    -0.207 OA
BRANCH  95  98
ATOM     98  C   UNL A   1      33.528  20.229  24.328  1.00  0.00     0.082 A 
ATOM     99  C   UNL A   1      32.473  19.792  23.511  1.00  0.00     0.025 A 
ATOM    100  C   UNL A   1      34.518  19.330  24.740  1.00  0.00     0.025 A 
ATOM    101  C   UNL A   1      32.361  18.442  23.182  1.00  0.00     0.040 A 
ATOM    102  C   UNL A   1      34.423  17.985  24.370  1.00  0.00     0.040 A 
ATOM    103  C   UNL A   1      33.339  17.553  23.610  1.00  0.00     0.123 A 
ATOM    104  F   UNL A   1      33.243  16.262  23.269  1.00  0.00    -0.207 F 
ENDBRANCH  95  98
ENDBRANCH  94  95
ENDBRANCH  83  87
ENDBRANCH  78  81
ENDBRANCH  76  77
ENDBRANCH  75  76
ENDBRANCH   1  75
TORSDOF 17
ENDMDL
MODEL 3
REMARK VINA RESULT:     -13.2      0.634      7.906
REMARK SMILES O=C(NCCCCNC(=O)[C@H]1CCCC[C@H]1C(=O)N1CCN(S(=O)(=O)c2ccc(F)cc2)CC1)c1ccc(-c2c3nc(c(-c4c(F)cc(S(=O)(=O)[O-])cc4F)c4ccc([nH]4)c(-c4c(F)cc(S(=O)(=O)[O-])cc4F)c4nc(c(-c5c(F)cc(S(=O)(=O)[O-])cc5F)c5ccc2[nH]5)C=C4)C=C3)cc1
REMARK SMILES IDX 5 1 4 2 3 3 1 4 2 5 35 7 36 8 100 9 37 10 99 11 38 12 39 13
REMARK SMILES IDX 40 14 93 15 41 16 98 17 92 18 94 19 42 20 97 21 91 22 90 23
REMARK SMILES IDX 43 25 77 26 56 27 76 28 57 29 60 30 75 31 95 32 58 33 59 34
REMARK SMILES IDX 74 36 96 37 61 38 44 39 45 40 54 41 46 42 47 43 53 44 55 45
REMARK SMILES IDX 48 46 49 47 50 48 51 49 52 50 78 51 79 52 88 53 80 54 81 55
REMARK SMILES IDX 87 56 89 57 82 58 83 59 84 60 85 61 86 62 62 63 63 64 72 65
REMARK SMILES IDX 64 66 65 67 71 68 73 69 66 70 67 71 68 72 69 73 70 74 6 75
REMARK SMILES IDX 7 76 8 77 9 78 10 80 11 81 12 82 16 83 13 84 15 85 14 86
REMARK SMILES IDX 17 87 18 88 19 89 20 90 34 91 21 92 33 93 22 94 23 95 24 96
REMARK SMILES IDX 25 97 26 98 27 99 32 100 28 101 31 102 29 103 30 104
REMARK H PARENT 3 6 94 24 60 35 8 79
REMARK Flexibility Score: inf
ROOT
ATOM      1  C   UNL A   1      34.015  29.025  27.523  1.00  0.00     0.023 C 
ENDROOT
BRANCH   1   2
ATOM      2  C   UNL A   1      35.439  29.420  27.885  1.00  0.00     0.116 C 
BRANCH   2   3
ATOM      3  N   UNL A   1      35.519  30.195  29.117  1.00  0.00    -0.352 N 
ATOM      4  O   UNL A   1      36.464  30.990  31.007  1.00  0.00    -0.269 OA
ATOM      5  C   UNL A   1      36.604  30.417  29.932  1.00  0.00     0.251 C 
ATOM      6  H   UNL A   1      34.679  30.620  29.405  1.00  0.00     0.163 HD
BRANCH   5   7
ATOM      7  C   UNL A   1      37.927  29.929  29.503  1.00  0.00     0.039 A 
ATOM      8  C   UNL A   1      38.839  29.470  30.455  1.00  0.00     0.014 A 
ATOM      9  C   UNL A   1      38.273  29.978  28.151  1.00  0.00     0.014 A 
ATOM     10  C   UNL A   1      40.146  29.212  30.078  1.00  0.00     0.010 A 
ATOM     11  C   UNL A   1      39.564  29.619  27.759  1.00  0.00     0.010 A 
ATOM     12  C   UNL A   1      40.518  29.258  28.723  1.00  0.00    -0.014 A 
BRANCH  12  13
ATOM     13  C   UNL A   1      41.881  28.818  28.344  1.00  0.00     0.031 A 
ATOM     14  C   UNL A   1      42.163  27.404  27.924  1.00  0.00     0.074 A 
ATOM     15  C   UNL A   1      42.861  29.744  28.352  1.00  0.00     0.049 A 
ATOM     16  N   UNL A   1      43.304  26.872  27.568  1.00  0.00    -0.248 NA
ATOM     17  C   UNL A   1      41.032  26.462  27.901  1.00  0.00     0.031 C 
ATOM     18  C   UNL A   1      42.687  31.145  28.753  1.00  0.00     0.029 A 
ATOM     19  N   UNL A   1      44.181  29.666  27.997  1.00  0.00    -0.354 N 
ATOM     20  C   UNL A   1      43.037  25.535  27.298  1.00  0.00     0.074 A 
ATOM     21  C   UNL A   1      41.626  25.329  27.540  1.00  0.00     0.031 C 
ATOM     22  C   UNL A   1      43.839  31.803  28.571  1.00  0.00     0.029 A 
ATOM     23  C   UNL A   1      44.852  30.860  28.119  1.00  0.00     0.049 A 
ATOM     24  H   UNL A   1      44.608  28.836  27.685  1.00  0.00     0.167 HD
ATOM     25  C   UNL A   1      43.899  24.577  26.880  1.00  0.00     0.037 A 
ATOM     26  C   UNL A   1      46.148  31.161  27.919  1.00  0.00     0.037 A 
ATOM     27  C   UNL A   1      45.297  24.810  26.618  1.00  0.00     0.049 A 
ATOM     28  C   UNL A   1      47.079  30.070  27.482  1.00  0.00     0.074 A 
ATOM     29  C   UNL A   1      46.243  23.913  26.153  1.00  0.00     0.029 A 
ATOM     30  N   UNL A   1      45.950  26.022  26.796  1.00  0.00    -0.354 N 
ATOM     31  N   UNL A   1      46.805  28.816  27.218  1.00  0.00    -0.248 NA
ATOM     32  C   UNL A   1      48.496  30.426  27.334  1.00  0.00     0.031 C 
ATOM     33  C   UNL A   1      47.476  24.569  26.091  1.00  0.00     0.029 A 
ATOM     34  C   UNL A   1      47.290  25.887  26.476  1.00  0.00     0.049 A 
ATOM     35  H   UNL A   1      45.523  26.853  27.104  1.00  0.00     0.167 HD
ATOM     36  C   UNL A   1      48.014  28.229  26.876  1.00  0.00     0.074 A 
ATOM     37  C   UNL A   1      49.017  29.273  26.937  1.00  0.00     0.031 C 
ATOM     38  C   UNL A   1      48.273  26.939  26.553  1.00  0.00     0.037 A 
BRANCH  25  39
ATOM     39  C   UNL A   1      43.381  23.180  26.672  1.00  0.00     0.058 A 
ATOM     40  C   UNL A   1      43.124  22.349  27.775  1.00  0.00     0.135 A 
ATOM     41  C   UNL A   1      43.271  22.621  25.391  1.00  0.00     0.135 A 
ATOM     42  F   UNL A   1      43.208  22.836  29.023  1.00  0.00    -0.206 F 
ATOM     43  C   UNL A   1      42.812  21.003  27.615  1.00  0.00     0.059 A 
ATOM     44  C   UNL A   1      42.942  21.280  25.206  1.00  0.00     0.059 A 
ATOM     45  F   UNL A   1      43.486  23.378  24.303  1.00  0.00    -0.206 F 
ATOM     46  C   UNL A   1      42.735  20.474  26.326  1.00  0.00     0.060 A 
BRANCH  46  47
ATOM     47  S   UNL A   1      42.357  18.718  26.136  1.00  0.00     0.124 S 
ATOM     48  O   UNL A   1      40.949  18.752  25.758  1.00  0.00    -0.237 OA
ATOM     49  O   UNL A   1      43.290  18.316  25.088  1.00  0.00    -0.237 OA
ATOM     50  O   UNL A   1      42.641  18.167  27.460  1.00  0.00    -0.744 OA
ENDBRANCH  46  47
ENDBRANCH  25  39
BRANCH  26  51
ATOM     51  C   UNL A   1      46.629  32.542  28.172  1.00  0.00     0.058 A 
ATOM     52  C   UNL A   1      47.077  32.928  29.446  1.00  0.00     0.135 A 
ATOM     53  C   UNL A   1      46.607  33.515  27.164  1.00  0.00     0.135 A 
ATOM     54  F   UNL A   1      47.104  32.038  30.450  1.00  0.00    -0.206 F 
ATOM     55  C   UNL A   1      47.460  34.234  29.718  1.00  0.00     0.059 A 
ATOM     56  C   UNL A   1      47.014  34.824  27.404  1.00  0.00     0.059 A 
ATOM     57  F   UNL A   1      46.192  33.191  25.929  1.00  0.00    -0.206 F 
ATOM     58  C   UNL A   1      47.423  35.177  28.690  1.00  0.00     0.060 A 
BRANCH  58  59
ATOM     59  S   UNL A   1      47.935  36.868  29.060  1.00  0.00     0.124 S 
ATOM     60  O   UNL A   1      47.092  37.632  28.147  1.00  0.00    -0.237 OA
ATOM     61  O   UNL A   1      47.607  36.986  30.478  1.00  0.00    -0.237 OA
ATOM     62  O   UNL A   1      49.360  36.862  28.748  1.00  0.00    -0.744 OA
ENDBRANCH  58  59
ENDBRANCH  26  51
BRANCH  38  63
ATOM     63  C   UNL A   1      49.698  26.581  26.247  1.00  0.00     0.058 A 
ATOM     64  C   UNL A   1      50.208  26.725  24.949  1.00  0.00     0.135 A 
ATOM     65  C   UNL A   1      50.536  26.037  27.232  1.00  0.00     0.135 A 
ATOM     66  F   UNL A   1      49.444  27.241  23.973  1.00  0.00    -0.206 F 
ATOM     67  C   UNL A   1      51.499  26.319  24.631  1.00  0.00     0.059 A 
ATOM     68  C   UNL A   1      51.838  25.646  26.941  1.00  0.00     0.059 A 
ATOM     69  F   UNL A   1      50.096  25.897  28.493  1.00  0.00    -0.206 F 
ATOM     70  C   UNL A   1      52.305  25.777  25.633  1.00  0.00     0.060 A 
BRANCH  70  71
ATOM     71  S   UNL A   1      53.981  25.264  25.205  1.00  0.00     0.124 S 
ATOM     72  O   UNL A   1      54.727  25.660  26.394  1.00  0.00    -0.237 OA
ATOM     73  O   UNL A   1      53.822  23.827  25.004  1.00  0.00    -0.237 OA
ATOM     74  O   UNL A   1      54.272  26.030  23.996  1.00  0.00    -0.744 OA
ENDBRANCH  70  71
ENDBRANCH  38  63
ENDBRANCH  12  13
ENDBRANCH   5   7
ENDBRANCH   2   3
ENDBRANCH   1   2
BRANCH   1  75
ATOM     75  C   UNL A   1      33.480  29.642  26.234  1.00  0.00     0.023 C 
BRANCH  75  76
ATOM     76  C   UNL A   1      34.053  29.066  24.935  1.00  0.00     0.116 C 
BRANCH  76  77
ATOM     77  N   UNL A   1      33.204  29.311  23.782  1.00  0.00    -0.356 N 
ATOM     78  C   UNL A   1      32.096  28.586  23.468  1.00  0.00     0.223 C 
ATOM     79  H   UNL A   1      33.446  30.056  23.185  1.00  0.00     0.163 HD
ATOM     80  O   UNL A   1      32.154  27.955  22.407  1.00  0.00    -0.275 OA
BRANCH  78  81
ATOM     81  C   UNL A   1      30.801  28.586  24.301  1.00  0.00     0.091 C 
ATOM     82  C   UNL A   1      29.598  29.232  23.576  1.00  0.00     0.014 C 
ATOM     83  C   UNL A   1      30.318  27.303  25.024  1.00  0.00     0.091 C 
ATOM     84  C   UNL A   1      28.724  28.269  22.757  1.00  0.00     0.001 C 
ATOM     85  C   UNL A   1      29.611  26.324  24.081  1.00  0.00     0.014 C 
ATOM     86  C   UNL A   1      28.370  26.987  23.492  1.00  0.00     0.001 C 
BRANCH  83  87
ATOM     87  C   UNL A   1      31.098  26.514  26.099  1.00  0.00     0.226 C 
ATOM     88  O   UNL A   1      31.042  26.877  27.278  1.00  0.00    -0.275 OA
ATOM     89  N   UNL A   1      31.571  25.268  25.773  1.00  0.00    -0.340 N 
ATOM     90  C   UNL A   1      31.328  24.109  26.638  1.00  0.00     0.136 C 
ATOM     91  C   UNL A   1      32.715  25.091  24.909  1.00  0.00     0.136 C 
ATOM     92  C   UNL A   1      31.164  22.823  25.790  1.00  0.00     0.124 C 
ATOM     93  C   UNL A   1      32.442  23.917  23.979  1.00  0.00     0.124 C 
ATOM     94  N   UNL A   1      32.267  22.648  24.759  1.00  0.00    -0.194 NA
BRANCH  94  95
ATOM     95  S   UNL A   1      33.668  21.883  25.386  1.00  0.00     0.243 S 
ATOM     96  O   UNL A   1      34.835  22.573  24.867  1.00  0.00    -0.207 OA
ATOM     97  O   UNL A   1      33.476  21.750  26.809  1.00  0.00    -0.207 OA
BRANCH  95  98
ATOM     98  C   UNL A   1      33.662  20.252  24.667  1.00  0.00     0.082 A 
ATOM     99  C   UNL A   1      34.748  19.390  24.893  1.00  0.00     0.025 A 
ATOM    100  C   UNL A   1      32.538  19.801  23.966  1.00  0.00     0.025 A 
ATOM    101  C   UNL A   1      34.745  18.110  24.341  1.00  0.00     0.040 A 
ATOM    102  C   UNL A   1      32.526  18.501  23.453  1.00  0.00     0.040 A 
ATOM    103  C   UNL A   1      33.633  17.676  23.630  1.00  0.00     0.123 A 
ATOM    104  F   UNL A   1      33.623  16.437  23.124  1.00  0.00    -0.207 F 
ENDBRANCH  95  98
ENDBRANCH  94  95
ENDBRANCH  83  87
ENDBRANCH  78  81
ENDBRANCH  76  77
ENDBRANCH  75  76
ENDBRANCH   1  75
TORSDOF 17
ENDMDL
