MODEL 1
REMARK VINA RESULT:     -11.5      0.000      0.000
REMARK SMILES CC[C@H](C(=O)NCCCCNC(=O)c1ccc(-c2c3nc(c(-c4c(F)cc(S(=O)(=O)[O-])cc4F)c4ccc([nH]4)c(-c4c(F)cc(S(=O)(=O)[O-])cc4F)c4nc(c(-c5c(F)cc(S(=O)(=O)[O-])cc5F)c5ccc2[nH]5)C=C4)C=C3)cc1)C1=CCCc2c(C)ccc(C)c21
REMARK SMILES IDX 9 1 8 2 7 3 6 4 4 5 5 6 3 8 2 9 1 10 80 11 81 12 91 13 82 14
REMARK SMILES IDX 84 15 89 16 83 17 85 18 88 19 90 20 86 21 87 22 10 23 11 24
REMARK SMILES IDX 12 25 13 27 14 28 15 29 79 30 16 31 78 32 17 33 18 34 19 35
REMARK SMILES IDX 72 36 20 37 77 38 71 39 73 40 21 41 76 42 70 43 69 44 22 46
REMARK SMILES IDX 56 47 35 48 55 49 36 50 39 51 54 52 74 53 37 54 38 55 53 57
REMARK SMILES IDX 75 58 40 59 23 60 24 61 33 62 25 63 26 64 32 65 34 66 27 67
REMARK SMILES IDX 28 68 29 69 30 70 31 71 57 72 58 73 67 74 59 75 60 76 66 77
REMARK SMILES IDX 68 78 61 79 62 80 63 81 64 82 65 83 41 84 42 85 51 86 43 87
REMARK SMILES IDX 44 88 50 89 52 90 45 91 46 92 47 93 48 94 49 95
REMARK H PARENT 6 7 11 26 73 45 39 56
REMARK Flexibility Score: inf
ROOT
ATOM      1  C   UNL A   1      32.957  27.991  25.633  1.00  0.00     0.023 C 
ENDROOT
BRANCH   1   2
ATOM      2  C   UNL A   1      31.566  27.369  25.506  1.00  0.00     0.023 C 
BRANCH   2   3
ATOM      3  C   UNL A   1      31.203  26.729  24.160  1.00  0.00     0.116 C 
BRANCH   3   4
ATOM      4  N   UNL A   1      32.290  26.676  23.202  1.00  0.00    -0.356 N 
ATOM      5  C   UNL A   1      33.165  25.693  22.834  1.00  0.00     0.227 C 
ATOM      6  O   UNL A   1      34.023  26.061  22.017  1.00  0.00    -0.274 OA
ATOM      7  H   UNL A   1      32.425  27.522  22.717  1.00  0.00     0.163 HD
BRANCH   5   8
ATOM      8  C   UNL A   1      33.166  24.202  23.331  1.00  0.00     0.108 C 
BRANCH   8   9
ATOM      9  C   UNL A   1      33.391  23.140  22.229  1.00  0.00     0.015 C 
ATOM     10  C   UNL A   1      32.279  22.120  22.005  1.00  0.00     0.005 C 
ENDBRANCH   8   9
BRANCH   8  11
ATOM     11  C   UNL A   1      33.843  23.888  24.687  1.00  0.00    -0.032 C 
ATOM     12  C   UNL A   1      33.235  24.137  25.864  1.00  0.00    -0.022 C 
ATOM     13  C   UNL A   1      34.628  22.619  24.789  1.00  0.00    -0.016 A 
ATOM     14  C   UNL A   1      32.407  22.995  26.453  1.00  0.00     0.032 C 
ATOM     15  C   UNL A   1      33.870  21.460  25.073  1.00  0.00    -0.037 A 
ATOM     16  C   UNL A   1      36.030  22.525  24.821  1.00  0.00    -0.043 A 
ATOM     17  C   UNL A   1      32.477  21.673  25.644  1.00  0.00     0.040 C 
ATOM     18  C   UNL A   1      34.444  20.187  24.953  1.00  0.00    -0.047 A 
ATOM     19  C   UNL A   1      36.620  21.250  24.893  1.00  0.00     0.004 A 
ATOM     20  C   UNL A   1      36.920  23.723  25.002  1.00  0.00     0.045 C 
ATOM     21  C   UNL A   1      33.614  18.938  24.942  1.00  0.00     0.044 C 
ATOM     22  C   UNL A   1      35.836  20.095  24.886  1.00  0.00     0.004 A 
ENDBRANCH   8  11
ENDBRANCH   5   8
ENDBRANCH   3   4
ENDBRANCH   2   3
ENDBRANCH   1   2
BRANCH   1  23
ATOM     23  C   UNL A   1      33.478  28.239  27.046  1.00  0.00     0.116 C 
BRANCH  23  24
ATOM     24  N   UNL A   1      33.392  29.624  27.483  1.00  0.00    -0.352 N 
ATOM     25  C   UNL A   1      34.340  30.449  28.047  1.00  0.00     0.251 C 
ATOM     26  H   UNL A   1      32.509  30.041  27.353  1.00  0.00     0.163 HD
ATOM     27  O   UNL A   1      34.009  31.585  28.383  1.00  0.00    -0.269 OA
BRANCH  25  28
ATOM     28  C   UNL A   1      35.732  29.990  28.298  1.00  0.00     0.039 A 
ATOM     29  C   UNL A   1      36.661  30.066  27.252  1.00  0.00     0.014 A 
ATOM     30  C   UNL A   1      36.135  29.466  29.527  1.00  0.00     0.014 A 
ATOM     31  C   UNL A   1      37.995  29.694  27.462  1.00  0.00     0.010 A 
ATOM     32  C   UNL A   1      37.482  29.177  29.761  1.00  0.00     0.010 A 
ATOM     33  C   UNL A   1      38.430  29.282  28.733  1.00  0.00    -0.014 A 
BRANCH  33  34
ATOM     34  C   UNL A   1      39.859  28.948  28.995  1.00  0.00     0.031 A 
ATOM     35  C   UNL A   1      40.786  29.977  29.592  1.00  0.00     0.074 A 
ATOM     36  C   UNL A   1      40.347  27.741  28.644  1.00  0.00     0.049 A 
ATOM     37  N   UNL A   1      42.071  29.897  29.831  1.00  0.00    -0.248 NA
ATOM     38  C   UNL A   1      40.197  31.280  29.938  1.00  0.00     0.031 C 
ATOM     39  C   UNL A   1      39.579  26.669  28.004  1.00  0.00     0.029 A 
ATOM     40  N   UNL A   1      41.609  27.212  28.765  1.00  0.00    -0.354 N 
ATOM     41  C   UNL A   1      42.446  31.138  30.333  1.00  0.00     0.074 A 
ATOM     42  C   UNL A   1      41.263  31.971  30.313  1.00  0.00     0.031 C 
ATOM     43  C   UNL A   1      40.378  25.606  27.815  1.00  0.00     0.029 A 
ATOM     44  C   UNL A   1      41.722  25.927  28.288  1.00  0.00     0.049 A 
ATOM     45  H   UNL A   1      42.364  27.708  29.158  1.00  0.00     0.167 HD
ATOM     46  C   UNL A   1      43.654  31.543  30.796  1.00  0.00     0.037 A 
ATOM     47  C   UNL A   1      42.784  25.098  28.236  1.00  0.00     0.037 A 
ATOM     48  C   UNL A   1      44.823  30.704  30.854  1.00  0.00     0.049 A 
ATOM     49  C   UNL A   1      44.108  25.560  28.783  1.00  0.00     0.074 A 
ATOM     50  C   UNL A   1      46.075  31.005  31.362  1.00  0.00     0.029 A 
ATOM     51  N   UNL A   1      44.884  29.396  30.395  1.00  0.00    -0.354 N 
ATOM     52  N   UNL A   1      44.427  26.719  29.307  1.00  0.00    -0.248 NA
ATOM     53  C   UNL A   1      45.217  24.594  28.739  1.00  0.00     0.031 C 
ATOM     54  C   UNL A   1      46.903  29.891  31.182  1.00  0.00     0.029 A 
ATOM     55  C   UNL A   1      46.155  28.881  30.599  1.00  0.00     0.049 A 
ATOM     56  H   UNL A   1      44.136  28.906  29.984  1.00  0.00     0.167 HD
ATOM     57  C   UNL A   1      45.763  26.613  29.680  1.00  0.00     0.074 A 
ATOM     58  C   UNL A   1      46.188  25.272  29.335  1.00  0.00     0.031 C 
ATOM     59  C   UNL A   1      46.565  27.543  30.255  1.00  0.00     0.037 A 
BRANCH  46  60
ATOM     60  C   UNL A   1      43.767  32.959  31.293  1.00  0.00     0.058 A 
ATOM     61  C   UNL A   1      44.126  34.012  30.435  1.00  0.00     0.135 A 
ATOM     62  C   UNL A   1      43.495  33.273  32.634  1.00  0.00     0.135 A 
ATOM     63  F   UNL A   1      44.412  33.766  29.146  1.00  0.00    -0.206 F 
ATOM     64  C   UNL A   1      44.246  35.318  30.896  1.00  0.00     0.059 A 
ATOM     65  C   UNL A   1      43.581  34.579  33.111  1.00  0.00     0.059 A 
ATOM     66  F   UNL A   1      43.145  32.307  33.497  1.00  0.00    -0.206 F 
ATOM     67  C   UNL A   1      43.976  35.591  32.239  1.00  0.00     0.060 A 
BRANCH  67  68
ATOM     68  S   UNL A   1      44.143  37.291  32.822  1.00  0.00     0.124 S 
ATOM     69  O   UNL A   1      43.040  37.381  33.773  1.00  0.00    -0.237 OA
ATOM     70  O   UNL A   1      45.482  37.294  33.402  1.00  0.00    -0.237 OA
ATOM     71  O   UNL A   1      43.989  38.083  31.605  1.00  0.00    -0.744 OA
ENDBRANCH  67  68
ENDBRANCH  46  60
BRANCH  47  72
ATOM     72  C   UNL A   1      42.634  23.728  27.677  1.00  0.00     0.058 A 
ATOM     73  C   UNL A   1      42.436  22.625  28.521  1.00  0.00     0.135 A 
ATOM     74  C   UNL A   1      42.689  23.492  26.294  1.00  0.00     0.135 A 
ATOM     75  F   UNL A   1      42.385  22.799  29.850  1.00  0.00    -0.206 F 
ATOM     76  C   UNL A   1      42.316  21.334  28.018  1.00  0.00     0.059 A 
ATOM     77  C   UNL A   1      42.547  22.212  25.766  1.00  0.00     0.059 A 
ATOM     78  F   UNL A   1      42.862  24.515  25.444  1.00  0.00    -0.206 F 
ATOM     79  C   UNL A   1      42.372  21.138  26.638  1.00  0.00     0.060 A 
BRANCH  79  80
ATOM     80  S   UNL A   1      42.171  19.463  25.991  1.00  0.00     0.124 S 
ATOM     81  O   UNL A   1      42.992  19.512  24.787  1.00  0.00    -0.237 OA
ATOM     82  O   UNL A   1      42.690  18.646  27.084  1.00  0.00    -0.237 OA
ATOM     83  O   UNL A   1      40.731  19.360  25.772  1.00  0.00    -0.744 OA
ENDBRANCH  79  80
ENDBRANCH  47  72
BRANCH  59  84
ATOM     84  C   UNL A   1      47.975  27.129  30.578  1.00  0.00     0.058 A 
ATOM     85  C   UNL A   1      48.298  26.489  31.784  1.00  0.00     0.135 A 
ATOM     86  C   UNL A   1      49.012  27.361  29.660  1.00  0.00     0.135 A 
ATOM     87  F   UNL A   1      47.345  26.247  32.698  1.00  0.00    -0.206 F 
ATOM     88  C   UNL A   1      49.608  26.128  32.088  1.00  0.00     0.059 A 
ATOM     89  C   UNL A   1      50.325  26.983  29.931  1.00  0.00     0.059 A 
ATOM     90  F   UNL A   1      48.756  27.958  28.486  1.00  0.00    -0.206 F 
ATOM     91  C   UNL A   1      50.615  26.383  31.155  1.00  0.00     0.060 A 
BRANCH  91  92
ATOM     92  S   UNL A   1      52.310  25.908  31.555  1.00  0.00     0.124 S 
ATOM     93  O   UNL A   1      52.956  26.002  30.250  1.00  0.00    -0.237 OA
ATOM     94  O   UNL A   1      52.701  26.924  32.528  1.00  0.00    -0.237 OA
ATOM     95  O   UNL A   1      52.167  24.558  32.090  1.00  0.00    -0.744 OA
ENDBRANCH  91  92
ENDBRANCH  59  84
ENDBRANCH  33  34
ENDBRANCH  25  28
ENDBRANCH  23  24
ENDBRANCH   1  23
TORSDOF 16
ENDMDL
MODEL 2
REMARK VINA RESULT:     -11.4      4.883     10.657
REMARK SMILES CC[C@H](C(=O)NCCCCNC(=O)c1ccc(-c2c3nc(c(-c4c(F)cc(S(=O)(=O)[O-])cc4F)c4ccc([nH]4)c(-c4c(F)cc(S(=O)(=O)[O-])cc4F)c4nc(c(-c5c(F)cc(S(=O)(=O)[O-])cc5F)c5ccc2[nH]5)C=C4)C=C3)cc1)C1=CCCc2c(C)ccc(C)c21
REMARK SMILES IDX 9 1 8 2 7 3 6 4 4 5 5 6 3 8 2 9 1 10 80 11 81 12 91 13 82 14
REMARK SMILES IDX 84 15 89 16 83 17 85 18 88 19 90 20 86 21 87 22 10 23 11 24
REMARK SMILES IDX 12 25 13 27 14 28 15 29 79 30 16 31 78 32 17 33 18 34 19 35
REMARK SMILES IDX 72 36 20 37 77 38 71 39 73 40 21 41 76 42 70 43 69 44 22 46
REMARK SMILES IDX 56 47 35 48 55 49 36 50 39 51 54 52 74 53 37 54 38 55 53 57
REMARK SMILES IDX 75 58 40 59 23 60 24 61 33 62 25 63 26 64 32 65 34 66 27 67
REMARK SMILES IDX 28 68 29 69 30 70 31 71 57 72 58 73 67 74 59 75 60 76 66 77
REMARK SMILES IDX 68 78 61 79 62 80 63 81 64 82 65 83 41 84 42 85 51 86 43 87
REMARK SMILES IDX 44 88 50 89 52 90 45 91 46 92 47 93 48 94 49 95
REMARK H PARENT 6 7 11 26 73 45 39 56
REMARK Flexibility Score: inf
ROOT
ATOM      1  C   UNL A   1      37.439  23.454  25.385  1.00  0.00     0.023 C 
ENDROOT
BRANCH   1   2
ATOM      2  C   UNL A   1      35.952  23.342  25.727  1.00  0.00     0.023 C 
BRANCH   2   3
ATOM      3  C   UNL A   1      35.029  24.457  25.220  1.00  0.00     0.116 C 
BRANCH   3   4
ATOM      4  N   UNL A   1      34.513  24.252  23.881  1.00  0.00    -0.356 N 
ATOM      5  C   UNL A   1      33.740  25.013  23.050  1.00  0.00     0.227 C 
ATOM      6  O   UNL A   1      33.435  24.450  21.987  1.00  0.00    -0.274 OA
ATOM      7  H   UNL A   1      34.773  23.387  23.490  1.00  0.00     0.163 HD
BRANCH   5   8
ATOM      8  C   UNL A   1      33.238  26.478  23.315  1.00  0.00     0.108 C 
BRANCH   8   9
ATOM      9  C   UNL A   1      33.551  27.496  22.193  1.00  0.00     0.015 C 
ATOM     10  C   UNL A   1      34.324  28.752  22.586  1.00  0.00     0.005 C 
ENDBRANCH   8   9
BRANCH   8  11
ATOM     11  C   UNL A   1      31.858  26.663  23.995  1.00  0.00    -0.032 C 
ATOM     12  C   UNL A   1      31.389  25.788  24.907  1.00  0.00    -0.022 C 
ATOM     13  C   UNL A   1      31.461  28.052  24.382  1.00  0.00    -0.016 A 
ATOM     14  C   UNL A   1      31.717  26.093  26.368  1.00  0.00     0.032 C 
ATOM     15  C   UNL A   1      31.963  28.499  25.626  1.00  0.00    -0.037 A 
ATOM     16  C   UNL A   1      30.501  28.840  23.726  1.00  0.00    -0.043 A 
ATOM     17  C   UNL A   1      32.465  27.434  26.588  1.00  0.00     0.040 C 
ATOM     18  C   UNL A   1      31.867  29.850  25.987  1.00  0.00    -0.047 A 
ATOM     19  C   UNL A   1      30.257  30.142  24.201  1.00  0.00     0.004 A 
ATOM     20  C   UNL A   1      29.571  28.286  22.683  1.00  0.00     0.045 C 
ATOM     21  C   UNL A   1      32.644  30.424  27.135  1.00  0.00     0.044 C 
ATOM     22  C   UNL A   1      30.984  30.663  25.273  1.00  0.00     0.004 A 
ENDBRANCH   8  11
ENDBRANCH   5   8
ENDBRANCH   3   4
ENDBRANCH   2   3
ENDBRANCH   1   2
BRANCH   1  23
ATOM     23  C   UNL A   1      38.349  24.066  26.447  1.00  0.00     0.116 C 
BRANCH  23  24
ATOM     24  N   UNL A   1      39.770  23.946  26.160  1.00  0.00    -0.352 N 
ATOM     25  C   UNL A   1      40.849  24.653  26.646  1.00  0.00     0.251 C 
ATOM     26  H   UNL A   1      40.000  23.243  25.510  1.00  0.00     0.163 HD
ATOM     27  O   UNL A   1      41.969  24.396  26.207  1.00  0.00    -0.269 OA
BRANCH  25  28
ATOM     28  C   UNL A   1      40.688  25.739  27.649  1.00  0.00     0.039 A 
ATOM     29  C   UNL A   1      39.675  25.620  28.609  1.00  0.00     0.014 A 
ATOM     30  C   UNL A   1      41.494  26.879  27.651  1.00  0.00     0.014 A 
ATOM     31  C   UNL A   1      39.525  26.595  29.604  1.00  0.00     0.010 A 
ATOM     32  C   UNL A   1      41.401  27.805  28.692  1.00  0.00     0.010 A 
ATOM     33  C   UNL A   1      40.413  27.680  29.680  1.00  0.00    -0.014 A 
BRANCH  33  34
ATOM     34  C   UNL A   1      40.315  28.692  30.771  1.00  0.00     0.031 A 
ATOM     35  C   UNL A   1      41.192  28.584  31.993  1.00  0.00     0.074 A 
ATOM     36  C   UNL A   1      39.396  29.676  30.699  1.00  0.00     0.049 A 
ATOM     37  N   UNL A   1      41.205  29.325  33.073  1.00  0.00    -0.248 NA
ATOM     38  C   UNL A   1      42.162  27.478  32.018  1.00  0.00     0.031 C 
ATOM     39  C   UNL A   1      38.441  29.868  29.604  1.00  0.00     0.029 A 
ATOM     40  N   UNL A   1      39.105  30.699  31.570  1.00  0.00    -0.354 N 
ATOM     41  C   UNL A   1      42.165  28.765  33.909  1.00  0.00     0.074 A 
ATOM     42  C   UNL A   1      42.673  27.590  33.236  1.00  0.00     0.031 C 
ATOM     43  C   UNL A   1      37.692  30.954  29.856  1.00  0.00     0.029 A 
ATOM     44  C   UNL A   1      38.087  31.519  31.143  1.00  0.00     0.049 A 
ATOM     45  H   UNL A   1      39.581  30.831  32.421  1.00  0.00     0.167 HD
ATOM     46  C   UNL A   1      42.605  29.202  35.115  1.00  0.00     0.037 A 
ATOM     47  C   UNL A   1      37.532  32.604  31.720  1.00  0.00     0.037 A 
ATOM     48  C   UNL A   1      42.130  30.393  35.770  1.00  0.00     0.049 A 
ATOM     49  C   UNL A   1      38.058  33.087  33.045  1.00  0.00     0.074 A 
ATOM     50  C   UNL A   1      42.558  30.949  36.964  1.00  0.00     0.029 A 
ATOM     51  N   UNL A   1      41.124  31.216  35.286  1.00  0.00    -0.354 N 
ATOM     52  N   UNL A   1      39.007  32.576  33.793  1.00  0.00    -0.248 NA
ATOM     53  C   UNL A   1      37.443  34.301  33.601  1.00  0.00     0.031 C 
ATOM     54  C   UNL A   1      41.789  32.091  37.218  1.00  0.00     0.029 A 
ATOM     55  C   UNL A   1      40.911  32.269  36.161  1.00  0.00     0.049 A 
ATOM     56  H   UNL A   1      40.632  31.073  34.445  1.00  0.00     0.167 HD
ATOM     57  C   UNL A   1      39.120  33.420  34.893  1.00  0.00     0.074 A 
ATOM     58  C   UNL A   1      38.155  34.483  34.704  1.00  0.00     0.031 C 
ATOM     59  C   UNL A   1      39.948  33.324  35.962  1.00  0.00     0.037 A 
BRANCH  46  60
ATOM     60  C   UNL A   1      43.672  28.390  35.799  1.00  0.00     0.058 A 
ATOM     61  C   UNL A   1      43.349  27.321  36.652  1.00  0.00     0.135 A 
ATOM     62  C   UNL A   1      45.032  28.666  35.585  1.00  0.00     0.135 A 
ATOM     63  F   UNL A   1      42.064  27.022  36.902  1.00  0.00    -0.206 F 
ATOM     64  C   UNL A   1      44.332  26.579  37.296  1.00  0.00     0.059 A 
ATOM     65  C   UNL A   1      46.035  27.918  36.198  1.00  0.00     0.059 A 
ATOM     66  F   UNL A   1      45.399  29.674  34.779  1.00  0.00    -0.206 F 
ATOM     67  C   UNL A   1      45.675  26.889  37.066  1.00  0.00     0.060 A 
BRANCH  67  68
ATOM     68  S   UNL A   1      46.939  25.921  37.916  1.00  0.00     0.124 S 
ATOM     69  O   UNL A   1      48.161  26.575  37.457  1.00  0.00    -0.237 OA
ATOM     70  O   UNL A   1      46.600  26.126  39.320  1.00  0.00    -0.237 OA
ATOM     71  O   UNL A   1      46.725  24.568  37.413  1.00  0.00    -0.744 OA
ENDBRANCH  67  68
ENDBRANCH  46  60
BRANCH  47  72
ATOM     72  C   UNL A   1      36.436  33.336  31.031  1.00  0.00     0.058 A 
ATOM     73  C   UNL A   1      35.119  33.277  31.511  1.00  0.00     0.135 A 
ATOM     74  C   UNL A   1      36.679  34.106  29.883  1.00  0.00     0.135 A 
ATOM     75  F   UNL A   1      34.835  32.548  32.601  1.00  0.00    -0.206 F 
ATOM     76  C   UNL A   1      34.077  33.937  30.868  1.00  0.00     0.059 A 
ATOM     77  C   UNL A   1      35.657  34.795  29.236  1.00  0.00     0.059 A 
ATOM     78  F   UNL A   1      37.923  34.207  29.392  1.00  0.00    -0.206 F 
ATOM     79  C   UNL A   1      34.357  34.695  29.730  1.00  0.00     0.060 A 
BRANCH  79  80
ATOM     80  S   UNL A   1      33.005  35.585  28.927  1.00  0.00     0.124 S 
ATOM     81  O   UNL A   1      32.378  34.524  28.148  1.00  0.00    -0.237 OA
ATOM     82  O   UNL A   1      32.240  36.077  30.069  1.00  0.00    -0.237 OA
ATOM     83  O   UNL A   1      33.695  36.614  28.155  1.00  0.00    -0.744 OA
ENDBRANCH  79  80
ENDBRANCH  47  72
BRANCH  59  84
ATOM     84  C   UNL A   1      39.869  34.415  36.994  1.00  0.00     0.058 A 
ATOM     85  C   UNL A   1      40.594  35.610  36.861  1.00  0.00     0.135 A 
ATOM     86  C   UNL A   1      39.044  34.271  38.120  1.00  0.00     0.135 A 
ATOM     87  F   UNL A   1      41.402  35.798  35.805  1.00  0.00    -0.206 F 
ATOM     88  C   UNL A   1      40.534  36.608  37.830  1.00  0.00     0.059 A 
ATOM     89  C   UNL A   1      38.947  35.267  39.087  1.00  0.00     0.059 A 
ATOM     90  F   UNL A   1      38.319  33.154  38.289  1.00  0.00    -0.206 F 
ATOM     91  C   UNL A   1      39.710  36.425  38.942  1.00  0.00     0.060 A 
BRANCH  91  92
ATOM     92  S   UNL A   1      39.635  37.726  40.192  1.00  0.00     0.124 S 
ATOM     93  O   UNL A   1      41.009  38.217  40.187  1.00  0.00    -0.237 OA
ATOM     94  O   UNL A   1      38.636  38.636  39.638  1.00  0.00    -0.237 OA
ATOM     95  O   UNL A   1      39.225  37.014  41.398  1.00  0.00    -0.744 OA
ENDBRANCH  91  92
ENDBRANCH  59  84
ENDBRANCH  33  34
ENDBRANCH  25  28
ENDBRANCH  23  24
ENDBRANCH   1  23
TORSDOF 16
ENDMDL
MODEL 3
REMARK VINA RESULT:     -11.3      0.991      2.445
REMARK SMILES CC[C@H](C(=O)NCCCCNC(=O)c1ccc(-c2c3nc(c(-c4c(F)cc(S(=O)(=O)[O-])cc4F)c4ccc([nH]4)c(-c4c(F)cc(S(=O)(=O)[O-])cc4F)c4nc(c(-c5c(F)cc(S(=O)(=O)[O-])cc5F)c5ccc2[nH]5)C=C4)C=C3)cc1)C1=CCCc2c(C)ccc(C)c21
REMARK SMILES IDX 9 1 8 2 7 3 6 4 4 5 5 6 3 8 2 9 1 10 80 11 81 12 91 13 82 14
REMARK SMILES IDX 84 15 89 16 83 17 85 18 88 19 90 20 86 21 87 22 10 23 11 24
REMARK SMILES IDX 12 25 13 27 14 28 15 29 79 30 16 31 78 32 17 33 18 34 19 35
REMARK SMILES IDX 72 36 20 37 77 38 71 39 73 40 21 41 76 42 70 43 69 44 22 46
REMARK SMILES IDX 56 47 35 48 55 49 36 50 39 51 54 52 74 53 37 54 38 55 53 57
REMARK SMILES IDX 75 58 40 59 23 60 24 61 33 62 25 63 26 64 32 65 34 66 27 67
REMARK SMILES IDX 28 68 29 69 30 70 31 71 57 72 58 73 67 74 59 75 60 76 66 77
REMARK SMILES IDX 68 78 61 79 62 80 63 81 64 82 65 83 41 84 42 85 51 86 43 87
REMARK SMILES IDX 44 88 50 89 52 90 45 91 46 92 47 93 48 94 49 95
REMARK H PARENT 6 7 11 26 73 45 39 56
REMARK Flexibility Score: inf
ROOT
ATOM      1  C   UNL A   1      32.026  27.648  27.165  1.00  0.00     0.023 C 
ENDROOT
BRANCH   1   2
ATOM      2  C   UNL A   1      31.295  27.689  25.822  1.00  0.00     0.023 C 
BRANCH   2   3
ATOM      3  C   UNL A   1      30.938  26.346  25.174  1.00  0.00     0.116 C 
BRANCH   3   4
ATOM      4  N   UNL A   1      30.636  25.283  26.113  1.00  0.00    -0.356 N 
ATOM      5  C   UNL A   1      31.321  24.174  26.522  1.00  0.00     0.227 C 
ATOM      6  O   UNL A   1      30.685  23.446  27.300  1.00  0.00    -0.274 OA
ATOM      7  H   UNL A   1      29.757  25.381  26.545  1.00  0.00     0.163 HD
BRANCH   5   8
ATOM      8  C   UNL A   1      32.784  23.770  26.114  1.00  0.00     0.108 C 
BRANCH   8   9
ATOM      9  C   UNL A   1      33.688  23.301  27.278  1.00  0.00     0.015 C 
ATOM     10  C   UNL A   1      33.206  22.109  28.101  1.00  0.00     0.005 C 
ENDBRANCH   8   9
BRANCH   8  11
ATOM     11  C   UNL A   1      32.983  23.000  24.785  1.00  0.00    -0.032 C 
ATOM     12  C   UNL A   1      33.018  23.630  23.593  1.00  0.00    -0.022 C 
ATOM     13  C   UNL A   1      33.961  21.869  24.782  1.00  0.00    -0.016 A 
ATOM     14  C   UNL A   1      34.397  24.065  23.098  1.00  0.00     0.032 C 
ATOM     15  C   UNL A   1      35.312  22.240  24.592  1.00  0.00    -0.037 A 
ATOM     16  C   UNL A   1      33.631  20.504  24.754  1.00  0.00    -0.043 A 
ATOM     17  C   UNL A   1      35.571  23.620  24.009  1.00  0.00     0.040 C 
ATOM     18  C   UNL A   1      36.341  21.313  24.810  1.00  0.00    -0.047 A 
ATOM     19  C   UNL A   1      34.672  19.558  24.781  1.00  0.00     0.004 A 
ATOM     20  C   UNL A   1      32.239  20.010  24.477  1.00  0.00     0.045 C 
ATOM     21  C   UNL A   1      37.777  21.731  24.922  1.00  0.00     0.044 C 
ATOM     22  C   UNL A   1      36.006  19.960  24.881  1.00  0.00     0.004 A 
ENDBRANCH   8  11
ENDBRANCH   5   8
ENDBRANCH   3   4
ENDBRANCH   2   3
ENDBRANCH   1   2
BRANCH   1  23
ATOM     23  C   UNL A   1      33.392  28.326  27.231  1.00  0.00     0.116 C 
BRANCH  23  24
ATOM     24  N   UNL A   1      33.344  29.740  27.570  1.00  0.00    -0.352 N 
ATOM     25  C   UNL A   1      34.318  30.580  28.062  1.00  0.00     0.251 C 
ATOM     26  H   UNL A   1      32.469  30.168  27.422  1.00  0.00     0.163 HD
ATOM     27  O   UNL A   1      34.018  31.744  28.321  1.00  0.00    -0.269 OA
BRANCH  25  28
ATOM     28  C   UNL A   1      35.703  30.107  28.327  1.00  0.00     0.039 A 
ATOM     29  C   UNL A   1      36.632  30.133  27.278  1.00  0.00     0.014 A 
ATOM     30  C   UNL A   1      36.099  29.617  29.573  1.00  0.00     0.014 A 
ATOM     31  C   UNL A   1      37.960  29.746  27.501  1.00  0.00     0.010 A 
ATOM     32  C   UNL A   1      37.441  29.314  29.815  1.00  0.00     0.010 A 
ATOM     33  C   UNL A   1      38.389  29.370  28.783  1.00  0.00    -0.014 A 
BRANCH  33  34
ATOM     34  C   UNL A   1      39.813  29.021  29.056  1.00  0.00     0.031 A 
ATOM     35  C   UNL A   1      40.748  30.043  29.654  1.00  0.00     0.074 A 
ATOM     36  C   UNL A   1      40.289  27.807  28.713  1.00  0.00     0.049 A 
ATOM     37  N   UNL A   1      42.031  29.949  29.901  1.00  0.00    -0.248 NA
ATOM     38  C   UNL A   1      40.171  31.354  29.991  1.00  0.00     0.031 C 
ATOM     39  C   UNL A   1      39.514  26.741  28.073  1.00  0.00     0.029 A 
ATOM     40  N   UNL A   1      41.546  27.265  28.844  1.00  0.00    -0.354 N 
ATOM     41  C   UNL A   1      42.415  31.188  30.400  1.00  0.00     0.074 A 
ATOM     42  C   UNL A   1      41.242  32.034  30.369  1.00  0.00     0.031 C 
ATOM     43  C   UNL A   1      40.302  25.668  27.894  1.00  0.00     0.029 A 
ATOM     44  C   UNL A   1      41.647  25.976  28.374  1.00  0.00     0.049 A 
ATOM     45  H   UNL A   1      42.303  27.754  29.239  1.00  0.00     0.167 HD
ATOM     46  C   UNL A   1      43.625  31.582  30.869  1.00  0.00     0.037 A 
ATOM     47  C   UNL A   1      42.700  25.136  28.331  1.00  0.00     0.037 A 
ATOM     48  C   UNL A   1      44.785  30.730  30.937  1.00  0.00     0.049 A 
ATOM     49  C   UNL A   1      44.026  25.586  28.884  1.00  0.00     0.074 A 
ATOM     50  C   UNL A   1      46.037  31.020  31.452  1.00  0.00     0.029 A 
ATOM     51  N   UNL A   1      44.835  29.420  30.484  1.00  0.00    -0.354 N 
ATOM     52  N   UNL A   1      44.354  26.744  29.405  1.00  0.00    -0.248 NA
ATOM     53  C   UNL A   1      45.124  24.608  28.852  1.00  0.00     0.031 C 
ATOM     54  C   UNL A   1      46.854  29.896  31.281  1.00  0.00     0.029 A 
ATOM     55  C   UNL A   1      46.098  28.892  30.698  1.00  0.00     0.049 A 
ATOM     56  H   UNL A   1      44.083  28.937  30.071  1.00  0.00     0.167 HD
ATOM     57  C   UNL A   1      45.687  26.625  29.786  1.00  0.00     0.074 A 
ATOM     58  C   UNL A   1      46.099  25.278  29.450  1.00  0.00     0.031 C 
ATOM     59  C   UNL A   1      46.496  27.548  30.362  1.00  0.00     0.037 A 
BRANCH  46  60
ATOM     60  C   UNL A   1      43.752  32.999  31.360  1.00  0.00     0.058 A 
ATOM     61  C   UNL A   1      43.527  33.333  32.706  1.00  0.00     0.135 A 
ATOM     62  C   UNL A   1      44.122  34.032  30.484  1.00  0.00     0.135 A 
ATOM     63  F   UNL A   1      43.156  32.386  33.584  1.00  0.00    -0.206 F 
ATOM     64  C   UNL A   1      43.628  34.644  33.158  1.00  0.00     0.059 A 
ATOM     65  C   UNL A   1      44.257  35.347  30.921  1.00  0.00     0.059 A 
ATOM     66  F   UNL A   1      44.351  33.770  29.188  1.00  0.00    -0.206 F 
ATOM     67  C   UNL A   1      43.990  35.646  32.256  1.00  0.00     0.060 A 
BRANCH  67  68
ATOM     68  S   UNL A   1      44.111  37.344  32.858  1.00  0.00     0.124 S 
ATOM     69  O   UNL A   1      45.442  37.345  33.456  1.00  0.00    -0.237 OA
ATOM     70  O   UNL A   1      43.965  38.122  31.633  1.00  0.00    -0.237 OA
ATOM     71  O   UNL A   1      43.000  37.448  33.800  1.00  0.00    -0.744 OA
ENDBRANCH  67  68
ENDBRANCH  46  60
BRANCH  47  72
ATOM     72  C   UNL A   1      42.539  23.765  27.777  1.00  0.00     0.058 A 
ATOM     73  C   UNL A   1      42.528  23.546  26.392  1.00  0.00     0.135 A 
ATOM     74  C   UNL A   1      42.391  22.650  28.616  1.00  0.00     0.135 A 
ATOM     75  F   UNL A   1      42.658  24.582  25.549  1.00  0.00    -0.206 F 
ATOM     76  C   UNL A   1      42.357  22.275  25.855  1.00  0.00     0.059 A 
ATOM     77  C   UNL A   1      42.242  21.365  28.103  1.00  0.00     0.059 A 
ATOM     78  F   UNL A   1      42.410  22.804  29.949  1.00  0.00    -0.206 F 
ATOM     79  C   UNL A   1      42.215  21.189  26.720  1.00  0.00     0.060 A 
BRANCH  79  80
ATOM     80  S   UNL A   1      42.037  19.535  26.014  1.00  0.00     0.124 S 
ATOM     81  O   UNL A   1      42.541  18.699  27.096  1.00  0.00    -0.237 OA
ATOM     82  O   UNL A   1      40.600  19.461  25.765  1.00  0.00    -0.237 OA
ATOM     83  O   UNL A   1      42.870  19.592  24.816  1.00  0.00    -0.744 OA
ENDBRANCH  79  80
ENDBRANCH  47  72
BRANCH  59  84
ATOM     84  C   UNL A   1      47.899  27.121  30.695  1.00  0.00     0.058 A 
ATOM     85  C   UNL A   1      48.963  27.321  29.802  1.00  0.00     0.135 A 
ATOM     86  C   UNL A   1      48.185  26.519  31.931  1.00  0.00     0.135 A 
ATOM     87  F   UNL A   1      48.744  27.888  28.605  1.00  0.00    -0.206 F 
ATOM     88  C   UNL A   1      50.256  26.904  30.107  1.00  0.00     0.059 A 
ATOM     89  C   UNL A   1      49.475  26.119  32.268  1.00  0.00     0.059 A 
ATOM     90  F   UNL A   1      47.207  26.315  32.827  1.00  0.00    -0.206 F 
ATOM     91  C   UNL A   1      50.501  26.301  31.341  1.00  0.00     0.060 A 
BRANCH  91  92
ATOM     92  S   UNL A   1      52.181  25.766  31.730  1.00  0.00     0.124 S 
ATOM     93  O   UNL A   1      52.541  26.688  32.802  1.00  0.00    -0.237 OA
ATOM     94  O   UNL A   1      51.985  24.376  32.130  1.00  0.00    -0.237 OA
ATOM     95  O   UNL A   1      52.897  25.954  30.472  1.00  0.00    -0.744 OA
ENDBRANCH  91  92
ENDBRANCH  59  84
ENDBRANCH  33  34
ENDBRANCH  25  28
ENDBRANCH  23  24
ENDBRANCH   1  23
TORSDOF 16
ENDMDL
