MODEL 1
REMARK VINA RESULT:     -13.3      0.000      0.000
REMARK SMILES O=C(NCCCCNC(=O)c1ccc(-n2cc(CSc3nc4ccccc4c(=O)n3-c3ccccc3)nn2)cc1)c1ccc(-c2c3nc(c(-c4c(F)cc(S(=O)(=O)[O-])cc4F)c4ccc([nH]4)c(-c4c(F)cc(S(=O)(=O)[O-])cc4F)c4nc(c(-c5c(F)cc(S(=O)(=O)[O-])cc5F)c5ccc2[nH]5)C=C4)C=C3)cc1
REMARK SMILES IDX 6 1 5 2 4 3 3 4 1 5 2 6 41 8 42 9 106 10 43 11 105 12 44 13
REMARK SMILES IDX 45 14 46 15 99 16 47 17 104 18 98 19 100 20 48 21 103 22
REMARK SMILES IDX 97 23 96 24 49 26 83 27 62 28 82 29 63 30 66 31 81 32 101 33
REMARK SMILES IDX 64 34 65 35 80 37 102 38 67 39 50 40 51 41 60 42 52 43 53 44
REMARK SMILES IDX 59 45 61 46 54 47 55 48 56 49 57 50 58 51 84 52 85 53 94 54
REMARK SMILES IDX 86 55 87 56 93 57 95 58 88 59 89 60 90 61 91 62 92 63 68 64
REMARK SMILES IDX 69 65 78 66 70 67 71 68 77 69 79 70 72 71 73 72 74 73 75 74
REMARK SMILES IDX 76 75 7 76 8 77 9 78 10 80 11 81 12 82 40 83 13 84 39 85
REMARK SMILES IDX 14 86 15 87 16 88 38 89 17 90 37 91 18 92 19 93 20 94 21 95
REMARK SMILES IDX 30 96 22 97 28 98 23 99 27 100 29 101 24 102 26 103 25 104
REMARK SMILES IDX 31 105 32 106 36 107 33 108 35 109 34 110
REMARK H PARENT 3 7 100 25 66 36 8 79
REMARK Flexibility Score: inf
ROOT
ATOM      1  C   UNL A   1      41.360  19.127  26.222  1.00  0.00     0.023 C 
ENDROOT
BRANCH   1   2
ATOM      2  C   UNL A   1      42.721  19.515  25.636  1.00  0.00     0.023 C 
BRANCH   2   3
ATOM      3  C   UNL A   1      43.209  20.922  25.972  1.00  0.00     0.116 C 
BRANCH   3   4
ATOM      4  N   UNL A   1      43.771  21.662  24.862  1.00  0.00    -0.352 N 
ATOM      5  O   UNL A   1      44.833  23.163  23.642  1.00  0.00    -0.269 OA
ATOM      6  C   UNL A   1      44.226  22.941  24.694  1.00  0.00     0.251 C 
ATOM      7  H   UNL A   1      43.842  21.122  24.042  1.00  0.00     0.163 HD
BRANCH   6   8
ATOM      8  C   UNL A   1      43.974  24.069  25.630  1.00  0.00     0.039 A 
ATOM      9  C   UNL A   1      44.579  24.253  26.875  1.00  0.00     0.014 A 
ATOM     10  C   UNL A   1      43.016  25.009  25.203  1.00  0.00     0.014 A 
ATOM     11  C   UNL A   1      44.172  25.292  27.710  1.00  0.00     0.010 A 
ATOM     12  C   UNL A   1      42.615  26.054  26.026  1.00  0.00     0.010 A 
ATOM     13  C   UNL A   1      43.169  26.172  27.296  1.00  0.00    -0.014 A 
BRANCH  13  14
ATOM     14  C   UNL A   1      42.831  27.307  28.156  1.00  0.00     0.031 A 
ATOM     15  C   UNL A   1      43.864  28.386  28.191  1.00  0.00     0.074 A 
ATOM     16  C   UNL A   1      41.620  27.468  28.726  1.00  0.00     0.049 A 
ATOM     17  N   UNL A   1      44.534  28.828  29.206  1.00  0.00    -0.248 NA
ATOM     18  C   UNL A   1      44.285  28.970  26.905  1.00  0.00     0.031 C 
ATOM     19  C   UNL A   1      40.419  26.655  28.525  1.00  0.00     0.029 A 
ATOM     20  N   UNL A   1      41.172  28.476  29.531  1.00  0.00    -0.354 N 
ATOM     21  C   UNL A   1      45.312  29.885  28.726  1.00  0.00     0.074 A 
ATOM     22  C   UNL A   1      45.238  29.819  27.290  1.00  0.00     0.031 C 
ATOM     23  C   UNL A   1      39.341  27.326  28.993  1.00  0.00     0.029 A 
ATOM     24  C   UNL A   1      39.786  28.552  29.636  1.00  0.00     0.049 A 
ATOM     25  H   UNL A   1      41.777  29.096  29.996  1.00  0.00     0.167 HD
ATOM     26  C   UNL A   1      45.788  30.863  29.546  1.00  0.00     0.037 A 
ATOM     27  C   UNL A   1      39.060  29.582  30.148  1.00  0.00     0.037 A 
ATOM     28  C   UNL A   1      45.732  30.464  30.927  1.00  0.00     0.049 A 
ATOM     29  C   UNL A   1      39.974  30.386  31.000  1.00  0.00     0.074 A 
ATOM     30  C   UNL A   1      46.296  29.447  31.672  1.00  0.00     0.029 A 
ATOM     31  N   UNL A   1      44.717  30.973  31.699  1.00  0.00    -0.354 N 
ATOM     32  N   UNL A   1      40.498  29.958  32.115  1.00  0.00    -0.248 NA
ATOM     33  C   UNL A   1      40.659  31.510  30.381  1.00  0.00     0.031 C 
ATOM     34  C   UNL A   1      45.290  29.079  32.612  1.00  0.00     0.029 A 
ATOM     35  C   UNL A   1      44.200  29.931  32.422  1.00  0.00     0.049 A 
ATOM     36  H   UNL A   1      44.417  31.911  31.726  1.00  0.00     0.167 HD
ATOM     37  C   UNL A   1      41.792  30.454  32.112  1.00  0.00     0.074 A 
ATOM     38  C   UNL A   1      41.807  31.472  31.064  1.00  0.00     0.031 C 
ATOM     39  C   UNL A   1      42.802  29.805  32.762  1.00  0.00     0.037 A 
BRANCH  26  40
ATOM     40  C   UNL A   1      45.975  32.309  29.145  1.00  0.00     0.058 A 
ATOM     41  C   UNL A   1      44.880  33.030  28.622  1.00  0.00     0.135 A 
ATOM     42  C   UNL A   1      47.238  32.915  28.971  1.00  0.00     0.135 A 
ATOM     43  F   UNL A   1      43.631  32.548  28.728  1.00  0.00    -0.206 F 
ATOM     44  C   UNL A   1      45.037  34.219  27.908  1.00  0.00     0.059 A 
ATOM     45  C   UNL A   1      47.412  34.127  28.311  1.00  0.00     0.059 A 
ATOM     46  F   UNL A   1      48.375  32.317  29.344  1.00  0.00    -0.206 F 
ATOM     47  C   UNL A   1      46.313  34.749  27.742  1.00  0.00     0.060 A 
BRANCH  47  48
ATOM     48  S   UNL A   1      46.534  36.218  26.724  1.00  0.00     0.124 S 
ATOM     49  O   UNL A   1      47.724  36.810  27.324  1.00  0.00    -0.237 OA
ATOM     50  O   UNL A   1      46.706  35.643  25.394  1.00  0.00    -0.237 OA
ATOM     51  O   UNL A   1      45.290  36.957  26.926  1.00  0.00    -0.744 OA
ENDBRANCH  47  48
ENDBRANCH  26  40
BRANCH  27  52
ATOM     52  C   UNL A   1      37.749  30.111  29.674  1.00  0.00     0.058 A 
ATOM     53  C   UNL A   1      36.766  30.558  30.577  1.00  0.00     0.135 A 
ATOM     54  C   UNL A   1      37.547  30.461  28.323  1.00  0.00     0.135 A 
ATOM     55  F   UNL A   1      36.886  30.295  31.888  1.00  0.00    -0.206 F 
ATOM     56  C   UNL A   1      35.676  31.341  30.174  1.00  0.00     0.059 A 
ATOM     57  C   UNL A   1      36.465  31.230  27.895  1.00  0.00     0.059 A 
ATOM     58  F   UNL A   1      38.450  30.144  27.383  1.00  0.00    -0.206 F 
ATOM     59  C   UNL A   1      35.546  31.690  28.830  1.00  0.00     0.060 A 
BRANCH  59  60
ATOM     60  S   UNL A   1      34.248  32.847  28.325  1.00  0.00     0.124 S 
ATOM     61  O   UNL A   1      34.977  33.754  27.446  1.00  0.00    -0.237 OA
ATOM     62  O   UNL A   1      33.285  31.965  27.674  1.00  0.00    -0.237 OA
ATOM     63  O   UNL A   1      33.801  33.427  29.588  1.00  0.00    -0.744 OA
ENDBRANCH  59  60
ENDBRANCH  27  52
BRANCH  39  64
ATOM     64  C   UNL A   1      42.443  28.715  33.739  1.00  0.00     0.058 A 
ATOM     65  C   UNL A   1      42.557  27.338  33.477  1.00  0.00     0.135 A 
ATOM     66  C   UNL A   1      42.124  29.094  35.052  1.00  0.00     0.135 A 
ATOM     67  F   UNL A   1      42.959  26.895  32.277  1.00  0.00    -0.206 F 
ATOM     68  C   UNL A   1      42.326  26.382  34.466  1.00  0.00     0.059 A 
ATOM     69  C   UNL A   1      41.922  28.159  36.062  1.00  0.00     0.059 A 
ATOM     70  F   UNL A   1      42.062  30.395  35.381  1.00  0.00    -0.206 F 
ATOM     71  C   UNL A   1      42.013  26.803  35.759  1.00  0.00     0.060 A 
BRANCH  71  72
ATOM     72  S   UNL A   1      41.798  25.568  37.059  1.00  0.00     0.124 S 
ATOM     73  O   UNL A   1      40.586  26.033  37.726  1.00  0.00    -0.237 OA
ATOM     74  O   UNL A   1      41.668  24.327  36.301  1.00  0.00    -0.237 OA
ATOM     75  O   UNL A   1      43.025  25.682  37.845  1.00  0.00    -0.744 OA
ENDBRANCH  71  72
ENDBRANCH  39  64
ENDBRANCH  13  14
ENDBRANCH   6   8
ENDBRANCH   3   4
ENDBRANCH   2   3
ENDBRANCH   1   2
BRANCH   1  76
ATOM     76  C   UNL A   1      40.259  20.178  26.112  1.00  0.00     0.116 C 
BRANCH  76  77
ATOM     77  N   UNL A   1      40.509  21.354  26.928  1.00  0.00    -0.352 N 
ATOM     78  C   UNL A   1      39.816  22.542  26.986  1.00  0.00     0.251 C 
ATOM     79  H   UNL A   1      41.287  21.292  27.526  1.00  0.00     0.163 HD
ATOM     80  O   UNL A   1      40.217  23.459  27.683  1.00  0.00    -0.269 OA
BRANCH  78  81
ATOM     81  C   UNL A   1      38.577  22.712  26.198  1.00  0.00     0.039 A 
ATOM     82  C   UNL A   1      37.880  23.920  26.293  1.00  0.00     0.016 A 
ATOM     83  C   UNL A   1      38.076  21.669  25.417  1.00  0.00     0.016 A 
ATOM     84  C   UNL A   1      36.697  24.104  25.572  1.00  0.00     0.029 A 
ATOM     85  C   UNL A   1      36.889  21.844  24.701  1.00  0.00     0.029 A 
ATOM     86  C   UNL A   1      36.187  23.059  24.790  1.00  0.00     0.066 A 
BRANCH  86  87
ATOM     87  N   UNL A   1      34.925  23.208  24.164  1.00  0.00    -0.220 N 
ATOM     88  C   UNL A   1      34.393  24.350  23.621  1.00  0.00     0.141 A 
ATOM     89  N   UNL A   1      34.066  22.181  23.957  1.00  0.00    -0.062 NA
ATOM     90  C   UNL A   1      33.265  23.940  22.945  1.00  0.00     0.093 A 
ATOM     91  N   UNL A   1      33.050  22.621  23.220  1.00  0.00    -0.134 NA
BRANCH  90  92
ATOM     92  C   UNL A   1      32.302  24.763  22.187  1.00  0.00     0.138 C 
BRANCH  92  93
ATOM     93  S   UNL A   1      32.621  26.490  21.809  1.00  0.00    -0.081 SA
BRANCH  93  94
ATOM     94  C   UNL A   1      31.541  27.565  22.663  1.00  0.00     0.176 A 
ATOM     95  N   UNL A   1      30.868  28.321  21.843  1.00  0.00    -0.223 NA
ATOM     96  N   UNL A   1      31.345  27.621  24.037  1.00  0.00    -0.255 N 
ATOM     97  C   UNL A   1      30.006  29.285  22.373  1.00  0.00     0.079 A 
ATOM     98  C   UNL A   1      31.045  28.902  24.527  1.00  0.00     0.266 A 
ATOM     99  C   UNL A   1      29.026  29.888  21.581  1.00  0.00     0.029 A 
ATOM    100  C   UNL A   1      30.172  29.725  23.677  1.00  0.00     0.066 A 
ATOM    101  O   UNL A   1      31.434  29.385  25.589  1.00  0.00    -0.268 OA
ATOM    102  C   UNL A   1      28.276  30.960  22.078  1.00  0.00     0.002 A 
ATOM    103  C   UNL A   1      29.470  30.830  24.171  1.00  0.00     0.016 A 
ATOM    104  C   UNL A   1      28.524  31.455  23.359  1.00  0.00     0.001 A 
BRANCH  96 105
ATOM    105  C   UNL A   1      31.401  26.520  24.987  1.00  0.00     0.051 A 
ATOM    106  C   UNL A   1      32.572  26.296  25.743  1.00  0.00     0.027 A 
ATOM    107  C   UNL A   1      30.333  25.662  25.278  1.00  0.00     0.027 A 
ATOM    108  C   UNL A   1      32.729  25.186  26.580  1.00  0.00     0.002 A 
ATOM    109  C   UNL A   1      30.499  24.510  26.062  1.00  0.00     0.002 A 
ATOM    110  C   UNL A   1      31.709  24.257  26.692  1.00  0.00     0.000 A 
ENDBRANCH  96 105
ENDBRANCH  93  94
ENDBRANCH  92  93
ENDBRANCH  90  92
ENDBRANCH  86  87
ENDBRANCH  78  81
ENDBRANCH  76  77
ENDBRANCH   1  76
TORSDOF 19
ENDMDL
MODEL 2
REMARK VINA RESULT:     -12.7      5.489     12.675
REMARK SMILES O=C(NCCCCNC(=O)c1ccc(-n2cc(CSc3nc4ccccc4c(=O)n3-c3ccccc3)nn2)cc1)c1ccc(-c2c3nc(c(-c4c(F)cc(S(=O)(=O)[O-])cc4F)c4ccc([nH]4)c(-c4c(F)cc(S(=O)(=O)[O-])cc4F)c4nc(c(-c5c(F)cc(S(=O)(=O)[O-])cc5F)c5ccc2[nH]5)C=C4)C=C3)cc1
REMARK SMILES IDX 6 1 5 2 4 3 3 4 1 5 2 6 41 8 42 9 106 10 43 11 105 12 44 13
REMARK SMILES IDX 45 14 46 15 99 16 47 17 104 18 98 19 100 20 48 21 103 22
REMARK SMILES IDX 97 23 96 24 49 26 83 27 62 28 82 29 63 30 66 31 81 32 101 33
REMARK SMILES IDX 64 34 65 35 80 37 102 38 67 39 50 40 51 41 60 42 52 43 53 44
REMARK SMILES IDX 59 45 61 46 54 47 55 48 56 49 57 50 58 51 84 52 85 53 94 54
REMARK SMILES IDX 86 55 87 56 93 57 95 58 88 59 89 60 90 61 91 62 92 63 68 64
REMARK SMILES IDX 69 65 78 66 70 67 71 68 77 69 79 70 72 71 73 72 74 73 75 74
REMARK SMILES IDX 76 75 7 76 8 77 9 78 10 80 11 81 12 82 40 83 13 84 39 85
REMARK SMILES IDX 14 86 15 87 16 88 38 89 17 90 37 91 18 92 19 93 20 94 21 95
REMARK SMILES IDX 30 96 22 97 28 98 23 99 27 100 29 101 24 102 26 103 25 104
REMARK SMILES IDX 31 105 32 106 36 107 33 108 35 109 34 110
REMARK H PARENT 3 7 100 25 66 36 8 79
REMARK Flexibility Score: inf
ROOT
ATOM      1  C   UNL A   1      43.971  40.656  30.893  1.00  0.00     0.023 C 
ENDROOT
BRANCH   1   2
ATOM      2  C   UNL A   1      42.968  40.806  32.041  1.00  0.00     0.023 C 
BRANCH   2   3
ATOM      3  C   UNL A   1      43.554  41.257  33.377  1.00  0.00     0.116 C 
BRANCH   3   4
ATOM      4  N   UNL A   1      44.804  40.627  33.747  1.00  0.00    -0.352 N 
ATOM      5  O   UNL A   1      46.438  39.169  34.023  1.00  0.00    -0.269 OA
ATOM      6  C   UNL A   1      45.222  39.332  33.884  1.00  0.00     0.251 C 
ATOM      7  H   UNL A   1      45.514  41.279  33.946  1.00  0.00     0.163 HD
BRANCH   6   8
ATOM      8  C   UNL A   1      44.325  38.147  33.956  1.00  0.00     0.039 A 
ATOM      9  C   UNL A   1      43.877  37.390  32.871  1.00  0.00     0.014 A 
ATOM     10  C   UNL A   1      43.890  37.794  35.248  1.00  0.00     0.014 A 
ATOM     11  C   UNL A   1      42.946  36.370  33.061  1.00  0.00     0.010 A 
ATOM     12  C   UNL A   1      42.971  36.770  35.444  1.00  0.00     0.010 A 
ATOM     13  C   UNL A   1      42.471  36.082  34.343  1.00  0.00    -0.014 A 
BRANCH  13  14
ATOM     14  C   UNL A   1      41.568  34.946  34.520  1.00  0.00     0.031 A 
ATOM     15  C   UNL A   1      42.003  33.695  33.827  1.00  0.00     0.074 A 
ATOM     16  C   UNL A   1      40.528  34.953  35.378  1.00  0.00     0.049 A 
ATOM     17  N   UNL A   1      41.389  33.030  32.903  1.00  0.00    -0.248 NA
ATOM     18  C   UNL A   1      43.352  33.184  34.127  1.00  0.00     0.031 C 
ATOM     19  C   UNL A   1      40.173  35.994  36.346  1.00  0.00     0.029 A 
ATOM     20  N   UNL A   1      39.624  33.968  35.649  1.00  0.00    -0.354 N 
ATOM     21  C   UNL A   1      42.176  31.904  32.649  1.00  0.00     0.074 A 
ATOM     22  C   UNL A   1      43.435  32.135  33.308  1.00  0.00     0.031 C 
ATOM     23  C   UNL A   1      39.292  35.490  37.241  1.00  0.00     0.029 A 
ATOM     24  C   UNL A   1      38.925  34.141  36.840  1.00  0.00     0.049 A 
ATOM     25  H   UNL A   1      39.478  33.199  35.052  1.00  0.00     0.167 HD
ATOM     26  C   UNL A   1      41.661  30.772  32.092  1.00  0.00     0.037 A 
ATOM     27  C   UNL A   1      38.163  33.216  37.483  1.00  0.00     0.037 A 
ATOM     28  C   UNL A   1      40.388  31.025  31.471  1.00  0.00     0.049 A 
ATOM     29  C   UNL A   1      37.807  32.169  36.490  1.00  0.00     0.074 A 
ATOM     30  C   UNL A   1      39.949  31.833  30.441  1.00  0.00     0.029 A 
ATOM     31  N   UNL A   1      39.258  30.634  32.147  1.00  0.00    -0.354 N 
ATOM     32  N   UNL A   1      37.027  32.370  35.465  1.00  0.00    -0.248 NA
ATOM     33  C   UNL A   1      38.680  31.009  36.391  1.00  0.00     0.031 C 
ATOM     34  C   UNL A   1      38.659  32.280  30.849  1.00  0.00     0.029 A 
ATOM     35  C   UNL A   1      38.367  31.672  32.071  1.00  0.00     0.049 A 
ATOM     36  H   UNL A   1      39.117  29.772  32.600  1.00  0.00     0.167 HD
ATOM     37  C   UNL A   1      37.603  31.644  34.434  1.00  0.00     0.074 A 
ATOM     38  C   UNL A   1      38.566  30.760  35.084  1.00  0.00     0.031 C 
ATOM     39  C   UNL A   1      37.448  32.020  33.130  1.00  0.00     0.037 A 
BRANCH  26  40
ATOM     40  C   UNL A   1      42.125  29.368  32.408  1.00  0.00     0.058 A 
ATOM     41  C   UNL A   1      42.098  28.914  33.744  1.00  0.00     0.135 A 
ATOM     42  C   UNL A   1      42.867  28.569  31.511  1.00  0.00     0.135 A 
ATOM     43  F   UNL A   1      41.424  29.595  34.685  1.00  0.00    -0.206 F 
ATOM     44  C   UNL A   1      42.823  27.800  34.172  1.00  0.00     0.059 A 
ATOM     45  C   UNL A   1      43.552  27.425  31.905  1.00  0.00     0.059 A 
ATOM     46  F   UNL A   1      43.048  28.912  30.230  1.00  0.00    -0.206 F 
ATOM     47  C   UNL A   1      43.563  27.073  33.245  1.00  0.00     0.060 A 
BRANCH  47  48
ATOM     48  S   UNL A   1      44.591  25.707  33.811  1.00  0.00     0.124 S 
ATOM     49  O   UNL A   1      45.350  26.340  34.884  1.00  0.00    -0.237 OA
ATOM     50  O   UNL A   1      43.593  24.727  34.225  1.00  0.00    -0.237 OA
ATOM     51  O   UNL A   1      45.358  25.348  32.621  1.00  0.00    -0.744 OA
ENDBRANCH  47  48
ENDBRANCH  26  40
BRANCH  27  52
ATOM     52  C   UNL A   1      38.025  32.995  38.951  1.00  0.00     0.058 A 
ATOM     53  C   UNL A   1      39.137  33.058  39.813  1.00  0.00     0.135 A 
ATOM     54  C   UNL A   1      36.761  33.004  39.577  1.00  0.00     0.135 A 
ATOM     55  F   UNL A   1      40.380  33.079  39.308  1.00  0.00    -0.206 F 
ATOM     56  C   UNL A   1      39.004  33.171  41.203  1.00  0.00     0.059 A 
ATOM     57  C   UNL A   1      36.603  33.105  40.959  1.00  0.00     0.059 A 
ATOM     58  F   UNL A   1      35.631  33.011  38.854  1.00  0.00    -0.206 F 
ATOM     59  C   UNL A   1      37.728  33.215  41.766  1.00  0.00     0.060 A 
BRANCH  59  60
ATOM     60  S   UNL A   1      37.539  33.541  43.536  1.00  0.00     0.124 S 
ATOM     61  O   UNL A   1      36.265  34.250  43.579  1.00  0.00    -0.237 OA
ATOM     62  O   UNL A   1      37.539  32.196  44.100  1.00  0.00    -0.237 OA
ATOM     63  O   UNL A   1      38.713  34.347  43.860  1.00  0.00    -0.744 OA
ENDBRANCH  59  60
ENDBRANCH  27  52
BRANCH  39  64
ATOM     64  C   UNL A   1      36.397  33.047  32.798  1.00  0.00     0.058 A 
ATOM     65  C   UNL A   1      36.515  34.423  33.060  1.00  0.00     0.135 A 
ATOM     66  C   UNL A   1      35.295  32.631  32.037  1.00  0.00     0.135 A 
ATOM     67  F   UNL A   1      37.590  34.917  33.691  1.00  0.00    -0.206 F 
ATOM     68  C   UNL A   1      35.559  35.338  32.616  1.00  0.00     0.059 A 
ATOM     69  C   UNL A   1      34.347  33.529  31.556  1.00  0.00     0.059 A 
ATOM     70  F   UNL A   1      35.159  31.337  31.700  1.00  0.00    -0.206 F 
ATOM     71  C   UNL A   1      34.479  34.881  31.860  1.00  0.00     0.060 A 
BRANCH  71  72
ATOM     72  S   UNL A   1      33.289  36.075  31.213  1.00  0.00     0.124 S 
ATOM     73  O   UNL A   1      33.478  35.945  29.772  1.00  0.00    -0.237 OA
ATOM     74  O   UNL A   1      32.020  35.573  31.734  1.00  0.00    -0.237 OA
ATOM     75  O   UNL A   1      33.729  37.343  31.788  1.00  0.00    -0.744 OA
ENDBRANCH  71  72
ENDBRANCH  39  64
ENDBRANCH  13  14
ENDBRANCH   6   8
ENDBRANCH   3   4
ENDBRANCH   2   3
ENDBRANCH   1   2
BRANCH   1  76
ATOM     76  C   UNL A   1      43.714  39.507  29.924  1.00  0.00     0.116 C 
BRANCH  76  77
ATOM     77  N   UNL A   1      42.753  39.841  28.885  1.00  0.00    -0.352 N 
ATOM     78  C   UNL A   1      42.316  39.085  27.820  1.00  0.00     0.251 C 
ATOM     79  H   UNL A   1      42.358  40.739  28.953  1.00  0.00     0.163 HD
ATOM     80  O   UNL A   1      41.554  39.559  26.996  1.00  0.00    -0.269 OA
BRANCH  78  81
ATOM     81  C   UNL A   1      42.775  37.687  27.673  1.00  0.00     0.039 A 
ATOM     82  C   UNL A   1      43.939  37.436  26.939  1.00  0.00     0.016 A 
ATOM     83  C   UNL A   1      42.035  36.630  28.205  1.00  0.00     0.016 A 
ATOM     84  C   UNL A   1      44.388  36.123  26.770  1.00  0.00     0.029 A 
ATOM     85  C   UNL A   1      42.475  35.316  28.031  1.00  0.00     0.029 A 
ATOM     86  C   UNL A   1      43.647  35.058  27.298  1.00  0.00     0.066 A 
BRANCH  86  87
ATOM     87  N   UNL A   1      44.040  33.727  27.014  1.00  0.00    -0.220 N 
ATOM     88  C   UNL A   1      43.741  32.598  27.734  1.00  0.00     0.141 A 
ATOM     89  N   UNL A   1      44.742  33.373  25.911  1.00  0.00    -0.062 NA
ATOM     90  C   UNL A   1      44.148  31.545  26.944  1.00  0.00     0.093 A 
ATOM     91  N   UNL A   1      44.817  32.046  25.865  1.00  0.00    -0.134 NA
BRANCH  90  92
ATOM     92  C   UNL A   1      44.076  30.099  27.236  1.00  0.00     0.138 C 
BRANCH  92  93
ATOM     93  S   UNL A   1      42.817  29.046  26.504  1.00  0.00    -0.081 SA
BRANCH  93  94
ATOM     94  C   UNL A   1      42.583  27.570  27.407  1.00  0.00     0.176 A 
ATOM     95  N   UNL A   1      43.715  26.975  27.657  1.00  0.00    -0.223 NA
ATOM     96  N   UNL A   1      41.375  27.065  27.870  1.00  0.00    -0.255 N 
ATOM     97  C   UNL A   1      43.695  25.743  28.316  1.00  0.00     0.079 A 
ATOM     98  C   UNL A   1      41.309  25.663  27.908  1.00  0.00     0.266 A 
ATOM     99  C   UNL A   1      44.850  25.221  28.901  1.00  0.00     0.029 A 
ATOM    100  C   UNL A   1      42.542  24.975  28.320  1.00  0.00     0.066 A 
ATOM    101  O   UNL A   1      40.327  24.973  27.639  1.00  0.00    -0.268 OA
ATOM    102  C   UNL A   1      44.855  23.920  29.419  1.00  0.00     0.002 A 
ATOM    103  C   UNL A   1      42.543  23.655  28.783  1.00  0.00     0.016 A 
ATOM    104  C   UNL A   1      43.712  23.124  29.326  1.00  0.00     0.001 A 
BRANCH  96 105
ATOM    105  C   UNL A   1      40.214  27.818  28.321  1.00  0.00     0.051 A 
ATOM    106  C   UNL A   1      39.667  27.576  29.600  1.00  0.00     0.027 A 
ATOM    107  C   UNL A   1      39.601  28.848  27.597  1.00  0.00     0.027 A 
ATOM    108  C   UNL A   1      38.483  28.178  30.040  1.00  0.00     0.002 A 
ATOM    109  C   UNL A   1      38.378  29.411  27.999  1.00  0.00     0.002 A 
ATOM    110  C   UNL A   1      37.804  29.054  29.210  1.00  0.00     0.000 A 
ENDBRANCH  96 105
ENDBRANCH  93  94
ENDBRANCH  92  93
ENDBRANCH  90  92
ENDBRANCH  86  87
ENDBRANCH  78  81
ENDBRANCH  76  77
ENDBRANCH   1  76
TORSDOF 19
ENDMDL
MODEL 3
REMARK VINA RESULT:     -12.7      5.568     11.203
REMARK SMILES O=C(NCCCCNC(=O)c1ccc(-n2cc(CSc3nc4ccccc4c(=O)n3-c3ccccc3)nn2)cc1)c1ccc(-c2c3nc(c(-c4c(F)cc(S(=O)(=O)[O-])cc4F)c4ccc([nH]4)c(-c4c(F)cc(S(=O)(=O)[O-])cc4F)c4nc(c(-c5c(F)cc(S(=O)(=O)[O-])cc5F)c5ccc2[nH]5)C=C4)C=C3)cc1
REMARK SMILES IDX 6 1 5 2 4 3 3 4 1 5 2 6 41 8 42 9 106 10 43 11 105 12 44 13
REMARK SMILES IDX 45 14 46 15 99 16 47 17 104 18 98 19 100 20 48 21 103 22
REMARK SMILES IDX 97 23 96 24 49 26 83 27 62 28 82 29 63 30 66 31 81 32 101 33
REMARK SMILES IDX 64 34 65 35 80 37 102 38 67 39 50 40 51 41 60 42 52 43 53 44
REMARK SMILES IDX 59 45 61 46 54 47 55 48 56 49 57 50 58 51 84 52 85 53 94 54
REMARK SMILES IDX 86 55 87 56 93 57 95 58 88 59 89 60 90 61 91 62 92 63 68 64
REMARK SMILES IDX 69 65 78 66 70 67 71 68 77 69 79 70 72 71 73 72 74 73 75 74
REMARK SMILES IDX 76 75 7 76 8 77 9 78 10 80 11 81 12 82 40 83 13 84 39 85
REMARK SMILES IDX 14 86 15 87 16 88 38 89 17 90 37 91 18 92 19 93 20 94 21 95
REMARK SMILES IDX 30 96 22 97 28 98 23 99 27 100 29 101 24 102 26 103 25 104
REMARK SMILES IDX 31 105 32 106 36 107 33 108 35 109 34 110
REMARK H PARENT 3 7 100 25 66 36 8 79
REMARK Flexibility Score: inf
ROOT
ATOM      1  C   UNL A   1      49.245  22.030  34.630  1.00  0.00     0.023 C 
ENDROOT
BRANCH   1   2
ATOM      2  C   UNL A   1      50.726  21.913  34.999  1.00  0.00     0.023 C 
BRANCH   2   3
ATOM      3  C   UNL A   1      51.713  22.398  33.940  1.00  0.00     0.116 C 
BRANCH   3   4
ATOM      4  N   UNL A   1      52.297  23.699  34.190  1.00  0.00    -0.352 N 
ATOM      5  O   UNL A   1      52.616  25.875  34.369  1.00  0.00    -0.269 OA
ATOM      6  C   UNL A   1      52.012  24.973  33.782  1.00  0.00     0.251 C 
ATOM      7  H   UNL A   1      53.076  23.657  34.790  1.00  0.00     0.163 HD
BRANCH   6   8
ATOM      8  C   UNL A   1      51.109  25.329  32.654  1.00  0.00     0.039 A 
ATOM      9  C   UNL A   1      49.757  24.997  32.550  1.00  0.00     0.014 A 
ATOM     10  C   UNL A   1      51.709  26.047  31.601  1.00  0.00     0.014 A 
ATOM     11  C   UNL A   1      49.047  25.291  31.386  1.00  0.00     0.010 A 
ATOM     12  C   UNL A   1      51.003  26.353  30.444  1.00  0.00     0.010 A 
ATOM     13  C   UNL A   1      49.680  25.941  30.324  1.00  0.00    -0.014 A 
BRANCH  13  14
ATOM     14  C   UNL A   1      48.883  26.319  29.157  1.00  0.00     0.031 A 
ATOM     15  C   UNL A   1      47.745  27.240  29.455  1.00  0.00     0.074 A 
ATOM     16  C   UNL A   1      49.239  26.022  27.891  1.00  0.00     0.049 A 
ATOM     17  N   UNL A   1      46.480  27.044  29.272  1.00  0.00    -0.248 NA
ATOM     18  C   UNL A   1      48.053  28.500  30.153  1.00  0.00     0.031 C 
ATOM     19  C   UNL A   1      50.483  25.399  27.432  1.00  0.00     0.029 A 
ATOM     20  N   UNL A   1      48.602  26.321  26.721  1.00  0.00    -0.354 N 
ATOM     21  C   UNL A   1      45.846  28.233  29.640  1.00  0.00     0.074 A 
ATOM     22  C   UNL A   1      46.838  29.025  30.319  1.00  0.00     0.031 C 
ATOM     23  C   UNL A   1      50.609  25.582  26.097  1.00  0.00     0.029 A 
ATOM     24  C   UNL A   1      49.404  26.219  25.588  1.00  0.00     0.049 A 
ATOM     25  H   UNL A   1      47.656  26.589  26.682  1.00  0.00     0.167 HD
ATOM     26  C   UNL A   1      44.610  28.568  29.176  1.00  0.00     0.037 A 
ATOM     27  C   UNL A   1      49.125  26.689  24.343  1.00  0.00     0.037 A 
ATOM     28  C   UNL A   1      43.927  27.426  28.627  1.00  0.00     0.049 A 
ATOM     29  C   UNL A   1      47.655  26.897  24.269  1.00  0.00     0.074 A 
ATOM     30  C   UNL A   1      43.504  26.211  29.126  1.00  0.00     0.029 A 
ATOM     31  N   UNL A   1      43.885  27.304  27.260  1.00  0.00    -0.354 N 
ATOM     32  N   UNL A   1      46.779  25.932  24.302  1.00  0.00    -0.248 NA
ATOM     33  C   UNL A   1      47.143  28.217  24.606  1.00  0.00     0.031 C 
ATOM     34  C   UNL A   1      43.709  25.285  28.062  1.00  0.00     0.029 A 
ATOM     35  C   UNL A   1      44.188  26.001  26.964  1.00  0.00     0.049 A 
ATOM     36  H   UNL A   1      43.676  28.018  26.615  1.00  0.00     0.167 HD
ATOM     37  C   UNL A   1      45.736  26.428  25.069  1.00  0.00     0.074 A 
ATOM     38  C   UNL A   1      45.977  27.866  25.155  1.00  0.00     0.031 C 
ATOM     39  C   UNL A   1      44.931  25.596  25.793  1.00  0.00     0.037 A 
BRANCH  26  40
ATOM     40  C   UNL A   1      44.150  29.980  28.891  1.00  0.00     0.058 A 
ATOM     41  C   UNL A   1      44.928  30.806  28.051  1.00  0.00     0.135 A 
ATOM     42  C   UNL A   1      43.152  30.643  29.638  1.00  0.00     0.135 A 
ATOM     43  F   UNL A   1      45.907  30.283  27.295  1.00  0.00    -0.206 F 
ATOM     44  C   UNL A   1      44.782  32.194  28.021  1.00  0.00     0.059 A 
ATOM     45  C   UNL A   1      42.954  32.019  29.582  1.00  0.00     0.059 A 
ATOM     46  F   UNL A   1      42.388  30.007  30.533  1.00  0.00    -0.206 F 
ATOM     47  C   UNL A   1      43.803  32.792  28.807  1.00  0.00     0.060 A 
BRANCH  47  48
ATOM     48  S   UNL A   1      43.688  34.589  28.861  1.00  0.00     0.124 S 
ATOM     49  O   UNL A   1      44.386  34.887  30.106  1.00  0.00    -0.237 OA
ATOM     50  O   UNL A   1      44.377  34.974  27.634  1.00  0.00    -0.237 OA
ATOM     51  O   UNL A   1      42.249  34.833  28.868  1.00  0.00    -0.744 OA
ENDBRANCH  47  48
ENDBRANCH  26  40
BRANCH  27  52
ATOM     52  C   UNL A   1      50.061  27.298  23.356  1.00  0.00     0.058 A 
ATOM     53  C   UNL A   1      49.920  27.077  21.973  1.00  0.00     0.135 A 
ATOM     54  C   UNL A   1      50.937  28.341  23.725  1.00  0.00     0.135 A 
ATOM     55  F   UNL A   1      49.089  26.122  21.525  1.00  0.00    -0.206 F 
ATOM     56  C   UNL A   1      50.567  27.869  21.015  1.00  0.00     0.059 A 
ATOM     57  C   UNL A   1      51.600  29.136  22.791  1.00  0.00     0.059 A 
ATOM     58  F   UNL A   1      51.102  28.684  25.011  1.00  0.00    -0.206 F 
ATOM     59  C   UNL A   1      51.391  28.912  21.436  1.00  0.00     0.060 A 
BRANCH  59  60
ATOM     60  S   UNL A   1      52.088  30.053  20.215  1.00  0.00     0.124 S 
ATOM     61  O   UNL A   1      51.523  31.330  20.638  1.00  0.00    -0.237 OA
ATOM     62  O   UNL A   1      53.523  29.890  20.425  1.00  0.00    -0.237 OA
ATOM     63  O   UNL A   1      51.586  29.538  18.945  1.00  0.00    -0.744 OA
ENDBRANCH  59  60
ENDBRANCH  27  52
BRANCH  39  64
ATOM     64  C   UNL A   1      44.988  24.117  25.511  1.00  0.00     0.058 A 
ATOM     65  C   UNL A   1      45.957  23.242  26.033  1.00  0.00     0.135 A 
ATOM     66  C   UNL A   1      43.916  23.543  24.812  1.00  0.00     0.135 A 
ATOM     67  F   UNL A   1      46.958  23.698  26.801  1.00  0.00    -0.206 F 
ATOM     68  C   UNL A   1      45.883  21.863  25.834  1.00  0.00     0.059 A 
ATOM     69  C   UNL A   1      43.803  22.168  24.631  1.00  0.00     0.059 A 
ATOM     70  F   UNL A   1      42.925  24.319  24.343  1.00  0.00    -0.206 F 
ATOM     71  C   UNL A   1      44.798  21.334  25.134  1.00  0.00     0.060 A 
BRANCH  71  72
ATOM     72  S   UNL A   1      44.657  19.543  24.951  1.00  0.00     0.124 S 
ATOM     73  O   UNL A   1      43.521  19.236  25.815  1.00  0.00    -0.237 OA
ATOM     74  O   UNL A   1      44.423  19.388  23.518  1.00  0.00    -0.237 OA
ATOM     75  O   UNL A   1      45.948  19.048  25.420  1.00  0.00    -0.744 OA
ENDBRANCH  71  72
ENDBRANCH  39  64
ENDBRANCH  13  14
ENDBRANCH   6   8
ENDBRANCH   3   4
ENDBRANCH   2   3
ENDBRANCH   1   2
BRANCH   1  76
ATOM     76  C   UNL A   1      48.322  22.568  35.719  1.00  0.00     0.116 C 
BRANCH  76  77
ATOM     77  N   UNL A   1      47.457  21.548  36.289  1.00  0.00    -0.352 N 
ATOM     78  C   UNL A   1      46.105  21.590  36.545  1.00  0.00     0.251 C 
ATOM     79  H   UNL A   1      47.903  20.705  36.527  1.00  0.00     0.163 HD
ATOM     80  O   UNL A   1      45.551  20.659  37.102  1.00  0.00    -0.269 OA
BRANCH  78  81
ATOM     81  C   UNL A   1      45.316  22.775  36.143  1.00  0.00     0.039 A 
ATOM     82  C   UNL A   1      45.091  23.783  37.086  1.00  0.00     0.016 A 
ATOM     83  C   UNL A   1      44.757  22.865  34.868  1.00  0.00     0.016 A 
ATOM     84  C   UNL A   1      44.336  24.908  36.740  1.00  0.00     0.029 A 
ATOM     85  C   UNL A   1      43.994  23.982  34.520  1.00  0.00     0.029 A 
ATOM     86  C   UNL A   1      43.769  25.001  35.462  1.00  0.00     0.066 A 
BRANCH  86  87
ATOM     87  N   UNL A   1      42.902  26.080  35.162  1.00  0.00    -0.220 N 
ATOM     88  C   UNL A   1      42.886  26.845  34.023  1.00  0.00     0.141 A 
ATOM     89  N   UNL A   1      41.890  26.476  35.972  1.00  0.00    -0.062 NA
ATOM     90  C   UNL A   1      41.737  27.600  34.108  1.00  0.00     0.093 A 
ATOM     91  N   UNL A   1      41.180  27.405  35.338  1.00  0.00    -0.134 NA
BRANCH  90  92
ATOM     92  C   UNL A   1      41.230  28.607  33.155  1.00  0.00     0.138 C 
BRANCH  92  93
ATOM     93  S   UNL A   1      39.571  28.513  32.470  1.00  0.00    -0.081 SA
BRANCH  93  94
ATOM     94  C   UNL A   1      39.285  29.740  31.261  1.00  0.00     0.176 A 
ATOM     95  N   UNL A   1      39.422  30.940  31.751  1.00  0.00    -0.223 NA
ATOM     96  N   UNL A   1      38.992  29.529  29.919  1.00  0.00    -0.255 N 
ATOM     97  C   UNL A   1      39.161  32.037  30.926  1.00  0.00     0.079 A 
ATOM     98  C   UNL A   1      38.151  30.499  29.350  1.00  0.00     0.266 A 
ATOM     99  C   UNL A   1      39.598  33.317  31.270  1.00  0.00     0.029 A 
ATOM    100  C   UNL A   1      38.381  31.883  29.791  1.00  0.00     0.066 A 
ATOM    101  O   UNL A   1      37.262  30.298  28.525  1.00  0.00    -0.268 OA
ATOM    102  C   UNL A   1      39.197  34.428  30.519  1.00  0.00     0.002 A 
ATOM    103  C   UNL A   1      37.926  32.987  29.061  1.00  0.00     0.016 A 
ATOM    104  C   UNL A   1      38.331  34.267  29.437  1.00  0.00     0.001 A 
BRANCH  96 105
ATOM    105  C   UNL A   1      39.466  28.448  29.068  1.00  0.00     0.051 A 
ATOM    106  C   UNL A   1      40.254  28.735  27.932  1.00  0.00     0.027 A 
ATOM    107  C   UNL A   1      39.254  27.086  29.316  1.00  0.00     0.027 A 
ATOM    108  C   UNL A   1      40.635  27.753  27.011  1.00  0.00     0.002 A 
ATOM    109  C   UNL A   1      39.574  26.101  28.367  1.00  0.00     0.002 A 
ATOM    110  C   UNL A   1      40.241  26.440  27.200  1.00  0.00     0.000 A 
ENDBRANCH  96 105
ENDBRANCH  93  94
ENDBRANCH  92  93
ENDBRANCH  90  92
ENDBRANCH  86  87
ENDBRANCH  78  81
ENDBRANCH  76  77
ENDBRANCH   1  76
TORSDOF 19
ENDMDL
