MODEL 1
REMARK VINA RESULT:     -12.1      0.000      0.000
REMARK SMILES O=C(NCCCCNC(=O)c1ccc(-c2c3nc(c(-c4c(F)cc(S(=O)(=O)[O-])cc4F)c4ccc([nH]4)c(-c4c(F)cc(S(=O)(=O)[O-])cc4F)c4nc(c(-c5c(F)cc(S(=O)(=O)[O-])cc5F)c5ccc2[nH]5)C=C4)C=C3)cc1)C1=Cc2c(ccc(Cl)c2Cl)O[C@H]1C(F)(F)F
REMARK SMILES IDX 6 1 5 2 4 3 3 4 1 5 2 6 77 8 78 9 88 10 79 11 87 12 80 13
REMARK SMILES IDX 85 14 81 15 83 16 86 17 82 18 84 19 89 20 90 21 91 22 92 23
REMARK SMILES IDX 7 24 8 25 9 26 10 28 11 29 12 30 76 31 13 32 75 33 14 34
REMARK SMILES IDX 15 35 16 36 69 37 17 38 74 39 68 40 70 41 18 42 73 43 67 44
REMARK SMILES IDX 66 45 19 47 53 48 32 49 52 50 33 51 36 52 51 53 71 54 34 55
REMARK SMILES IDX 35 56 50 58 72 59 37 60 20 61 21 62 30 63 22 64 23 65 29 66
REMARK SMILES IDX 31 67 24 68 25 69 26 70 27 71 28 72 54 73 55 74 64 75 56 76
REMARK SMILES IDX 57 77 63 78 65 79 58 80 59 81 60 82 61 83 62 84 38 85 39 86
REMARK SMILES IDX 48 87 40 88 41 89 47 90 49 91 42 92 43 93 44 94 45 95 46 96
REMARK H PARENT 3 7 8 27 70 46 36 57
REMARK Flexibility Score: inf
ROOT
ATOM      1  C   UNL A   1      32.097  28.569  26.341  1.00  0.00     0.023 C 
ENDROOT
BRANCH   1   2
ATOM      2  C   UNL A   1      32.368  28.588  24.839  1.00  0.00     0.023 C 
BRANCH   2   3
ATOM      3  C   UNL A   1      33.722  28.051  24.397  1.00  0.00     0.116 C 
BRANCH   3   4
ATOM      4  N   UNL A   1      33.701  27.123  23.280  1.00  0.00    -0.352 N 
ATOM      5  O   UNL A   1      33.633  25.096  22.277  1.00  0.00    -0.270 OA
ATOM      6  C   UNL A   1      33.568  25.757  23.308  1.00  0.00     0.251 C 
ATOM      7  H   UNL A   1      33.795  27.525  22.386  1.00  0.00     0.163 HD
BRANCH   6   8
ATOM      8  C   UNL A   1      33.387  25.055  24.611  1.00  0.00     0.067 C 
ATOM      9  C   UNL A   1      34.522  24.683  25.221  1.00  0.00     0.027 C 
ATOM     10  C   UNL A   1      32.113  24.264  24.736  1.00  0.00     0.314 C 
ATOM     11  C   UNL A   1      34.719  23.224  25.285  1.00  0.00     0.037 A 
ATOM     12  O   UNL A   1      32.317  22.848  25.015  1.00  0.00    -0.475 OA
ATOM     13  C   UNL A   1      33.606  22.388  25.108  1.00  0.00     0.129 A 
ATOM     14  C   UNL A   1      36.017  22.673  25.296  1.00  0.00     0.070 A 
ATOM     15  C   UNL A   1      33.781  21.021  24.908  1.00  0.00     0.049 A 
ATOM     16  C   UNL A   1      36.185  21.303  25.060  1.00  0.00     0.060 A 
ATOM     17  Cl  UNL A   1      37.394  23.713  25.506  1.00  0.00    -0.082 Cl
ATOM     18  C   UNL A   1      35.069  20.485  24.854  1.00  0.00     0.026 A 
ATOM     19  Cl  UNL A   1      37.743  20.566  24.948  1.00  0.00    -0.083 Cl
BRANCH  10  20
ATOM     20  C   UNL A   1      31.167  24.884  25.785  1.00  0.00     0.429 C 
ATOM     21  F   UNL A   1      30.290  23.993  26.307  1.00  0.00    -0.167 F 
ATOM     22  F   UNL A   1      31.868  25.402  26.824  1.00  0.00    -0.167 F 
ATOM     23  F   UNL A   1      30.426  25.895  25.267  1.00  0.00    -0.167 F 
ENDBRANCH  10  20
ENDBRANCH   6   8
ENDBRANCH   3   4
ENDBRANCH   2   3
ENDBRANCH   1   2
BRANCH   1  24
ATOM     24  C   UNL A   1      33.289  28.842  27.258  1.00  0.00     0.116 C 
BRANCH  24  25
ATOM     25  N   UNL A   1      33.410  30.221  27.710  1.00  0.00    -0.352 N 
ATOM     26  C   UNL A   1      34.514  30.881  28.217  1.00  0.00     0.251 C 
ATOM     27  H   UNL A   1      32.589  30.761  27.643  1.00  0.00     0.163 HD
ATOM     28  O   UNL A   1      34.417  32.042  28.579  1.00  0.00    -0.269 OA
BRANCH  26  29
ATOM     29  C   UNL A   1      35.791  30.144  28.384  1.00  0.00     0.039 A 
ATOM     30  C   UNL A   1      36.673  30.079  27.302  1.00  0.00     0.014 A 
ATOM     31  C   UNL A   1      36.157  29.601  29.618  1.00  0.00     0.014 A 
ATOM     32  C   UNL A   1      37.969  29.588  27.492  1.00  0.00     0.010 A 
ATOM     33  C   UNL A   1      37.470  29.183  29.824  1.00  0.00     0.010 A 
ATOM     34  C   UNL A   1      38.399  29.201  28.772  1.00  0.00    -0.014 A 
BRANCH  34  35
ATOM     35  C   UNL A   1      39.824  28.875  29.047  1.00  0.00     0.031 A 
ATOM     36  C   UNL A   1      40.755  29.925  29.588  1.00  0.00     0.074 A 
ATOM     37  C   UNL A   1      40.305  27.659  28.713  1.00  0.00     0.049 A 
ATOM     38  N   UNL A   1      42.048  29.862  29.780  1.00  0.00    -0.248 NA
ATOM     39  C   UNL A   1      40.159  31.226  29.932  1.00  0.00     0.031 C 
ATOM     40  C   UNL A   1      39.522  26.570  28.122  1.00  0.00     0.029 A 
ATOM     41  N   UNL A   1      41.573  27.138  28.805  1.00  0.00    -0.354 N 
ATOM     42  C   UNL A   1      42.425  31.117  30.243  1.00  0.00     0.074 A 
ATOM     43  C   UNL A   1      41.230  31.933  30.265  1.00  0.00     0.031 C 
ATOM     44  C   UNL A   1      40.320  25.509  27.923  1.00  0.00     0.029 A 
ATOM     45  C   UNL A   1      41.678  25.849  28.334  1.00  0.00     0.049 A 
ATOM     46  H   UNL A   1      42.335  27.640  29.173  1.00  0.00     0.167 HD
ATOM     47  C   UNL A   1      43.650  31.545  30.630  1.00  0.00     0.037 A 
ATOM     48  C   UNL A   1      42.747  25.034  28.237  1.00  0.00     0.037 A 
ATOM     49  C   UNL A   1      44.831  30.723  30.641  1.00  0.00     0.049 A 
ATOM     50  C   UNL A   1      44.091  25.523  28.704  1.00  0.00     0.074 A 
ATOM     51  C   UNL A   1      46.106  31.051  31.069  1.00  0.00     0.029 A 
ATOM     52  N   UNL A   1      44.884  29.406  30.208  1.00  0.00    -0.354 N 
ATOM     53  N   UNL A   1      44.415  26.696  29.191  1.00  0.00    -0.248 NA
ATOM     54  C   UNL A   1      45.212  24.576  28.615  1.00  0.00     0.031 C 
ATOM     55  C   UNL A   1      46.934  29.942  30.874  1.00  0.00     0.029 A 
ATOM     56  C   UNL A   1      46.168  28.910  30.354  1.00  0.00     0.049 A 
ATOM     57  H   UNL A   1      44.120  28.899  29.850  1.00  0.00     0.167 HD
ATOM     58  C   UNL A   1      45.770  26.620  29.492  1.00  0.00     0.074 A 
ATOM     59  C   UNL A   1      46.204  25.285  29.139  1.00  0.00     0.031 C 
ATOM     60  C   UNL A   1      46.581  27.572  30.016  1.00  0.00     0.037 A 
BRANCH  47  61
ATOM     61  C   UNL A   1      43.771  32.971  31.089  1.00  0.00     0.058 A 
ATOM     62  C   UNL A   1      44.038  34.011  30.184  1.00  0.00     0.135 A 
ATOM     63  C   UNL A   1      43.592  33.307  32.440  1.00  0.00     0.135 A 
ATOM     64  F   UNL A   1      44.232  33.741  28.883  1.00  0.00    -0.206 F 
ATOM     65  C   UNL A   1      44.153  35.330  30.608  1.00  0.00     0.059 A 
ATOM     66  C   UNL A   1      43.679  34.624  32.882  1.00  0.00     0.059 A 
ATOM     67  F   UNL A   1      43.334  32.350  33.346  1.00  0.00    -0.206 F 
ATOM     68  C   UNL A   1      43.976  35.626  31.960  1.00  0.00     0.060 A 
BRANCH  68  69
ATOM     69  S   UNL A   1      44.132  37.344  32.496  1.00  0.00     0.124 S 
ATOM     70  O   UNL A   1      43.142  37.403  33.567  1.00  0.00    -0.237 OA
ATOM     71  O   UNL A   1      45.526  37.417  32.919  1.00  0.00    -0.237 OA
ATOM     72  O   UNL A   1      43.804  38.105  31.294  1.00  0.00    -0.744 OA
ENDBRANCH  68  69
ENDBRANCH  47  61
BRANCH  48  73
ATOM     73  C   UNL A   1      42.588  23.659  27.696  1.00  0.00     0.058 A 
ATOM     74  C   UNL A   1      42.645  23.420  26.315  1.00  0.00     0.135 A 
ATOM     75  C   UNL A   1      42.381  22.559  28.542  1.00  0.00     0.135 A 
ATOM     76  F   UNL A   1      42.836  24.441  25.465  1.00  0.00    -0.206 F 
ATOM     77  C   UNL A   1      42.486  22.142  25.788  1.00  0.00     0.059 A 
ATOM     78  C   UNL A   1      42.240  21.269  28.041  1.00  0.00     0.059 A 
ATOM     79  F   UNL A   1      42.337  22.733  29.872  1.00  0.00    -0.206 F 
ATOM     80  C   UNL A   1      42.284  21.072  26.661  1.00  0.00     0.060 A 
BRANCH  80  81
ATOM     81  S   UNL A   1      42.123  19.409  25.974  1.00  0.00     0.124 S 
ATOM     82  O   UNL A   1      42.963  19.501  24.785  1.00  0.00    -0.237 OA
ATOM     83  O   UNL A   1      42.638  18.576  27.056  1.00  0.00    -0.237 OA
ATOM     84  O   UNL A   1      40.689  19.286  25.729  1.00  0.00    -0.744 OA
ENDBRANCH  80  81
ENDBRANCH  48  73
BRANCH  60  85
ATOM     85  C   UNL A   1      48.010  27.195  30.281  1.00  0.00     0.058 A 
ATOM     86  C   UNL A   1      49.022  27.439  29.340  1.00  0.00     0.135 A 
ATOM     87  C   UNL A   1      48.378  26.638  31.516  1.00  0.00     0.135 A 
ATOM     88  F   UNL A   1      48.719  27.963  28.142  1.00  0.00    -0.206 F 
ATOM     89  C   UNL A   1      50.352  27.131  29.611  1.00  0.00     0.059 A 
ATOM     90  C   UNL A   1      49.704  26.340  31.815  1.00  0.00     0.059 A 
ATOM     91  F   UNL A   1      47.447  26.392  32.451  1.00  0.00    -0.206 F 
ATOM     92  C   UNL A   1      50.683  26.583  30.852  1.00  0.00     0.060 A 
BRANCH  92  93
ATOM     93  S   UNL A   1      52.417  26.230  31.210  1.00  0.00     0.124 S 
ATOM     94  O   UNL A   1      52.331  24.899  31.798  1.00  0.00    -0.237 OA
ATOM     95  O   UNL A   1      53.034  26.302  29.889  1.00  0.00    -0.237 OA
ATOM     96  O   UNL A   1      52.797  27.300  32.129  1.00  0.00    -0.744 OA
ENDBRANCH  92  93
ENDBRANCH  60  85
ENDBRANCH  34  35
ENDBRANCH  26  29
ENDBRANCH  24  25
ENDBRANCH   1  24
TORSDOF 15
ENDMDL
MODEL 2
REMARK VINA RESULT:     -11.8      3.261      9.401
REMARK SMILES O=C(NCCCCNC(=O)c1ccc(-c2c3nc(c(-c4c(F)cc(S(=O)(=O)[O-])cc4F)c4ccc([nH]4)c(-c4c(F)cc(S(=O)(=O)[O-])cc4F)c4nc(c(-c5c(F)cc(S(=O)(=O)[O-])cc5F)c5ccc2[nH]5)C=C4)C=C3)cc1)C1=Cc2c(ccc(Cl)c2Cl)O[C@H]1C(F)(F)F
REMARK SMILES IDX 6 1 5 2 4 3 3 4 1 5 2 6 77 8 78 9 88 10 79 11 87 12 80 13
REMARK SMILES IDX 85 14 81 15 83 16 86 17 82 18 84 19 89 20 90 21 91 22 92 23
REMARK SMILES IDX 7 24 8 25 9 26 10 28 11 29 12 30 76 31 13 32 75 33 14 34
REMARK SMILES IDX 15 35 16 36 69 37 17 38 74 39 68 40 70 41 18 42 73 43 67 44
REMARK SMILES IDX 66 45 19 47 53 48 32 49 52 50 33 51 36 52 51 53 71 54 34 55
REMARK SMILES IDX 35 56 50 58 72 59 37 60 20 61 21 62 30 63 22 64 23 65 29 66
REMARK SMILES IDX 31 67 24 68 25 69 26 70 27 71 28 72 54 73 55 74 64 75 56 76
REMARK SMILES IDX 57 77 63 78 65 79 58 80 59 81 60 82 61 83 62 84 38 85 39 86
REMARK SMILES IDX 48 87 40 88 41 89 47 90 49 91 42 92 43 93 44 94 45 95 46 96
REMARK H PARENT 3 7 8 27 70 46 36 57
REMARK Flexibility Score: inf
ROOT
ATOM      1  C   UNL A   1      36.010  23.270  26.127  1.00  0.00     0.023 C 
ENDROOT
BRANCH   1   2
ATOM      2  C   UNL A   1      35.160  22.002  26.097  1.00  0.00     0.023 C 
BRANCH   2   3
ATOM      3  C   UNL A   1      33.784  22.134  25.460  1.00  0.00     0.116 C 
BRANCH   3   4
ATOM      4  N   UNL A   1      32.790  22.848  26.243  1.00  0.00    -0.352 N 
ATOM      5  O   UNL A   1      31.574  24.637  26.904  1.00  0.00    -0.270 OA
ATOM      6  C   UNL A   1      32.385  24.154  26.122  1.00  0.00     0.251 C 
ATOM      7  H   UNL A   1      32.349  22.327  26.953  1.00  0.00     0.163 HD
BRANCH   6   8
ATOM      8  C   UNL A   1      32.970  25.017  25.055  1.00  0.00     0.067 C 
ATOM      9  C   UNL A   1      33.564  26.137  25.491  1.00  0.00     0.027 C 
ATOM     10  C   UNL A   1      32.272  24.944  23.725  1.00  0.00     0.314 C 
ATOM     11  C   UNL A   1      32.866  27.377  25.105  1.00  0.00     0.037 A 
ATOM     12  O   UNL A   1      31.768  26.225  23.247  1.00  0.00    -0.475 OA
ATOM     13  C   UNL A   1      31.952  27.327  24.041  1.00  0.00     0.129 A 
ATOM     14  C   UNL A   1      32.938  28.526  25.918  1.00  0.00     0.070 A 
ATOM     15  C   UNL A   1      31.090  28.397  23.809  1.00  0.00     0.049 A 
ATOM     16  C   UNL A   1      32.045  29.582  25.698  1.00  0.00     0.060 A 
ATOM     17  Cl  UNL A   1      34.065  28.578  27.241  1.00  0.00    -0.082 Cl
ATOM     18  C   UNL A   1      31.117  29.508  24.653  1.00  0.00     0.026 A 
ATOM     19  Cl  UNL A   1      31.990  30.978  26.714  1.00  0.00    -0.083 Cl
BRANCH  10  20
ATOM     20  C   UNL A   1      33.170  24.290  22.653  1.00  0.00     0.429 C 
ATOM     21  F   UNL A   1      32.815  23.016  22.363  1.00  0.00    -0.167 F 
ATOM     22  F   UNL A   1      33.124  24.988  21.491  1.00  0.00    -0.167 F 
ATOM     23  F   UNL A   1      34.471  24.249  23.036  1.00  0.00    -0.167 F 
ENDBRANCH  10  20
ENDBRANCH   6   8
ENDBRANCH   3   4
ENDBRANCH   2   3
ENDBRANCH   1   2
BRANCH   1  24
ATOM     24  C   UNL A   1      37.131  23.371  25.093  1.00  0.00     0.116 C 
BRANCH  24  25
ATOM     25  N   UNL A   1      38.316  22.581  25.397  1.00  0.00    -0.352 N 
ATOM     26  C   UNL A   1      39.420  22.917  26.159  1.00  0.00     0.251 C 
ATOM     27  H   UNL A   1      38.334  21.679  25.003  1.00  0.00     0.163 HD
ATOM     28  O   UNL A   1      40.343  22.129  26.276  1.00  0.00    -0.269 OA
BRANCH  26  29
ATOM     29  C   UNL A   1      39.500  24.267  26.771  1.00  0.00     0.039 A 
ATOM     30  C   UNL A   1      38.923  24.468  28.028  1.00  0.00     0.014 A 
ATOM     31  C   UNL A   1      40.212  25.299  26.154  1.00  0.00     0.014 A 
ATOM     32  C   UNL A   1      39.172  25.657  28.722  1.00  0.00     0.010 A 
ATOM     33  C   UNL A   1      40.520  26.449  26.877  1.00  0.00     0.010 A 
ATOM     34  C   UNL A   1      40.030  26.627  28.180  1.00  0.00    -0.014 A 
BRANCH  34  35
ATOM     35  C   UNL A   1      40.480  27.800  28.978  1.00  0.00     0.031 A 
ATOM     36  C   UNL A   1      41.797  27.769  29.703  1.00  0.00     0.074 A 
ATOM     37  C   UNL A   1      39.653  28.855  29.134  1.00  0.00     0.049 A 
ATOM     38  N   UNL A   1      42.302  28.642  30.536  1.00  0.00    -0.248 NA
ATOM     39  C   UNL A   1      42.646  26.587  29.484  1.00  0.00     0.031 C 
ATOM     40  C   UNL A   1      38.321  28.985  28.535  1.00  0.00     0.029 A 
ATOM     41  N   UNL A   1      39.801  30.014  29.857  1.00  0.00    -0.354 N 
ATOM     42  C   UNL A   1      43.512  28.109  30.959  1.00  0.00     0.074 A 
ATOM     43  C   UNL A   1      43.648  26.817  30.320  1.00  0.00     0.031 C 
ATOM     44  C   UNL A   1      37.785  30.161  28.900  1.00  0.00     0.029 A 
ATOM     45  C   UNL A   1      38.713  30.854  29.787  1.00  0.00     0.049 A 
ATOM     46  H   UNL A   1      40.610  30.224  30.376  1.00  0.00     0.167 HD
ATOM     47  C   UNL A   1      44.435  28.652  31.789  1.00  0.00     0.037 A 
ATOM     48  C   UNL A   1      38.483  32.045  30.375  1.00  0.00     0.037 A 
ATOM     49  C   UNL A   1      44.315  29.951  32.396  1.00  0.00     0.049 A 
ATOM     50  C   UNL A   1      39.538  32.641  31.267  1.00  0.00     0.074 A 
ATOM     51  C   UNL A   1      45.224  30.611  33.207  1.00  0.00     0.029 A 
ATOM     52  N   UNL A   1      43.223  30.793  32.256  1.00  0.00    -0.354 N 
ATOM     53  N   UNL A   1      40.701  32.144  31.610  1.00  0.00    -0.248 NA
ATOM     54  C   UNL A   1      39.252  33.961  31.846  1.00  0.00     0.031 C 
ATOM     55  C   UNL A   1      44.671  31.841  33.575  1.00  0.00     0.029 A 
ATOM     56  C   UNL A   1      43.431  31.963  32.968  1.00  0.00     0.049 A 
ATOM     57  H   UNL A   1      42.417  30.590  31.728  1.00  0.00     0.167 HD
ATOM     58  C   UNL A   1      41.298  33.102  32.422  1.00  0.00     0.074 A 
ATOM     59  C   UNL A   1      40.371  34.210  32.514  1.00  0.00     0.031 C 
ATOM     60  C   UNL A   1      42.506  33.065  33.035  1.00  0.00     0.037 A 
BRANCH  47  61
ATOM     61  C   UNL A   1      45.666  27.840  32.079  1.00  0.00     0.058 A 
ATOM     62  C   UNL A   1      46.854  28.028  31.355  1.00  0.00     0.135 A 
ATOM     63  C   UNL A   1      45.669  26.885  33.108  1.00  0.00     0.135 A 
ATOM     64  F   UNL A   1      46.900  28.919  30.352  1.00  0.00    -0.206 F 
ATOM     65  C   UNL A   1      47.993  27.275  31.620  1.00  0.00     0.059 A 
ATOM     66  C   UNL A   1      46.805  26.137  33.406  1.00  0.00     0.059 A 
ATOM     67  F   UNL A   1      44.559  26.667  33.831  1.00  0.00    -0.206 F 
ATOM     68  C   UNL A   1      47.957  26.329  32.645  1.00  0.00     0.060 A 
BRANCH  68  69
ATOM     69  S   UNL A   1      49.442  25.357  32.977  1.00  0.00     0.124 S 
ATOM     70  O   UNL A   1      49.809  24.922  31.633  1.00  0.00    -0.237 OA
ATOM     71  O   UNL A   1      50.331  26.339  33.588  1.00  0.00    -0.237 OA
ATOM     72  O   UNL A   1      48.966  24.305  33.870  1.00  0.00    -0.744 OA
ENDBRANCH  68  69
ENDBRANCH  47  61
BRANCH  48  73
ATOM     73  C   UNL A   1      37.210  32.768  30.120  1.00  0.00     0.058 A 
ATOM     74  C   UNL A   1      36.076  32.523  30.908  1.00  0.00     0.135 A 
ATOM     75  C   UNL A   1      37.100  33.718  29.094  1.00  0.00     0.135 A 
ATOM     76  F   UNL A   1      36.130  31.619  31.899  1.00  0.00    -0.206 F 
ATOM     77  C   UNL A   1      34.871  33.179  30.678  1.00  0.00     0.059 A 
ATOM     78  C   UNL A   1      35.913  34.403  28.857  1.00  0.00     0.059 A 
ATOM     79  F   UNL A   1      38.162  34.001  28.324  1.00  0.00    -0.206 F 
ATOM     80  C   UNL A   1      34.800  34.119  29.649  1.00  0.00     0.060 A 
BRANCH  80  81
ATOM     81  S   UNL A   1      33.246  35.002  29.384  1.00  0.00     0.124 S 
ATOM     82  O   UNL A   1      32.671  34.990  30.724  1.00  0.00    -0.237 OA
ATOM     83  O   UNL A   1      33.707  36.299  28.897  1.00  0.00    -0.237 OA
ATOM     84  O   UNL A   1      32.561  34.179  28.392  1.00  0.00    -0.744 OA
ENDBRANCH  80  81
ENDBRANCH  48  73
BRANCH  60  85
ATOM     85  C   UNL A   1      42.919  34.274  33.825  1.00  0.00     0.058 A 
ATOM     86  C   UNL A   1      42.710  34.354  35.209  1.00  0.00     0.135 A 
ATOM     87  C   UNL A   1      43.585  35.338  33.196  1.00  0.00     0.135 A 
ATOM     88  F   UNL A   1      42.071  33.366  35.855  1.00  0.00    -0.206 F 
ATOM     89  C   UNL A   1      43.137  35.456  35.944  1.00  0.00     0.059 A 
ATOM     90  C   UNL A   1      44.038  36.440  33.914  1.00  0.00     0.059 A 
ATOM     91  F   UNL A   1      43.814  35.305  31.874  1.00  0.00    -0.206 F 
ATOM     92  C   UNL A   1      43.802  36.494  35.287  1.00  0.00     0.060 A 
BRANCH  92  93
ATOM     93  S   UNL A   1      44.393  37.898  36.256  1.00  0.00     0.124 S 
ATOM     94  O   UNL A   1      44.203  39.001  35.322  1.00  0.00    -0.237 OA
ATOM     95  O   UNL A   1      43.499  37.883  37.411  1.00  0.00    -0.237 OA
ATOM     96  O   UNL A   1      45.782  37.549  36.544  1.00  0.00    -0.744 OA
ENDBRANCH  92  93
ENDBRANCH  60  85
ENDBRANCH  34  35
ENDBRANCH  26  29
ENDBRANCH  24  25
ENDBRANCH   1  24
TORSDOF 15
ENDMDL
MODEL 3
REMARK VINA RESULT:     -11.3      2.390      3.133
REMARK SMILES O=C(NCCCCNC(=O)c1ccc(-c2c3nc(c(-c4c(F)cc(S(=O)(=O)[O-])cc4F)c4ccc([nH]4)c(-c4c(F)cc(S(=O)(=O)[O-])cc4F)c4nc(c(-c5c(F)cc(S(=O)(=O)[O-])cc5F)c5ccc2[nH]5)C=C4)C=C3)cc1)C1=Cc2c(ccc(Cl)c2Cl)O[C@H]1C(F)(F)F
REMARK SMILES IDX 6 1 5 2 4 3 3 4 1 5 2 6 77 8 78 9 88 10 79 11 87 12 80 13
REMARK SMILES IDX 85 14 81 15 83 16 86 17 82 18 84 19 89 20 90 21 91 22 92 23
REMARK SMILES IDX 7 24 8 25 9 26 10 28 11 29 12 30 76 31 13 32 75 33 14 34
REMARK SMILES IDX 15 35 16 36 69 37 17 38 74 39 68 40 70 41 18 42 73 43 67 44
REMARK SMILES IDX 66 45 19 47 53 48 32 49 52 50 33 51 36 52 51 53 71 54 34 55
REMARK SMILES IDX 35 56 50 58 72 59 37 60 20 61 21 62 30 63 22 64 23 65 29 66
REMARK SMILES IDX 31 67 24 68 25 69 26 70 27 71 28 72 54 73 55 74 64 75 56 76
REMARK SMILES IDX 57 77 63 78 65 79 58 80 59 81 60 82 61 83 62 84 38 85 39 86
REMARK SMILES IDX 48 87 40 88 41 89 47 90 49 91 42 92 43 93 44 94 45 95 46 96
REMARK H PARENT 3 7 8 27 70 46 36 57
REMARK Flexibility Score: inf
ROOT
ATOM      1  C   UNL A   1      34.384  29.529  27.262  1.00  0.00     0.023 C 
ENDROOT
BRANCH   1   2
ATOM      2  C   UNL A   1      32.874  29.695  27.119  1.00  0.00     0.023 C 
BRANCH   2   3
ATOM      3  C   UNL A   1      32.364  29.991  25.716  1.00  0.00     0.116 C 
BRANCH   3   4
ATOM      4  N   UNL A   1      33.290  29.711  24.632  1.00  0.00    -0.352 N 
ATOM      5  O   UNL A   1      34.371  28.424  23.118  1.00  0.00    -0.270 OA
ATOM      6  C   UNL A   1      33.502  28.523  23.977  1.00  0.00     0.251 C 
ATOM      7  H   UNL A   1      33.837  30.471  24.328  1.00  0.00     0.163 HD
BRANCH   6   8
ATOM      8  C   UNL A   1      32.700  27.320  24.343  1.00  0.00     0.067 C 
ATOM      9  C   UNL A   1      33.377  26.360  24.991  1.00  0.00     0.027 C 
ATOM     10  C   UNL A   1      31.560  27.009  23.413  1.00  0.00     0.314 C 
ATOM     11  C   UNL A   1      33.548  25.118  24.215  1.00  0.00     0.037 A 
ATOM     12  O   UNL A   1      31.627  25.684  22.810  1.00  0.00    -0.475 OA
ATOM     13  C   UNL A   1      32.700  24.888  23.121  1.00  0.00     0.129 A 
ATOM     14  C   UNL A   1      34.673  24.292  24.419  1.00  0.00     0.070 A 
ATOM     15  C   UNL A   1      32.985  23.869  22.216  1.00  0.00     0.049 A 
ATOM     16  C   UNL A   1      34.970  23.292  23.485  1.00  0.00     0.060 A 
ATOM     17  Cl  UNL A   1      35.727  24.587  25.769  1.00  0.00    -0.082 Cl
ATOM     18  C   UNL A   1      34.133  23.093  22.381  1.00  0.00     0.026 A 
ATOM     19  Cl  UNL A   1      36.386  22.310  23.598  1.00  0.00    -0.083 Cl
BRANCH  10  20
ATOM     20  C   UNL A   1      30.196  27.211  24.108  1.00  0.00     0.429 C 
ATOM     21  F   UNL A   1      29.267  26.299  23.737  1.00  0.00    -0.167 F 
ATOM     22  F   UNL A   1      30.321  27.122  25.455  1.00  0.00    -0.167 F 
ATOM     23  F   UNL A   1      29.666  28.431  23.841  1.00  0.00    -0.167 F 
ENDBRANCH  10  20
ENDBRANCH   6   8
ENDBRANCH   3   4
ENDBRANCH   2   3
ENDBRANCH   1   2
BRANCH   1  24
ATOM     24  C   UNL A   1      35.174  30.763  27.699  1.00  0.00     0.116 C 
BRANCH  24  25
ATOM     25  N   UNL A   1      35.147  31.031  29.130  1.00  0.00    -0.352 N 
ATOM     26  C   UNL A   1      36.083  30.714  30.097  1.00  0.00     0.251 C 
ATOM     27  H   UNL A   1      34.348  31.507  29.455  1.00  0.00     0.163 HD
ATOM     28  O   UNL A   1      35.870  30.992  31.265  1.00  0.00    -0.269 OA
BRANCH  26  29
ATOM     29  C   UNL A   1      37.307  29.970  29.710  1.00  0.00     0.039 A 
ATOM     30  C   UNL A   1      37.775  30.087  28.398  1.00  0.00     0.014 A 
ATOM     31  C   UNL A   1      38.036  29.239  30.651  1.00  0.00     0.014 A 
ATOM     32  C   UNL A   1      39.037  29.582  28.065  1.00  0.00     0.010 A 
ATOM     33  C   UNL A   1      39.322  28.803  30.338  1.00  0.00     0.010 A 
ATOM     34  C   UNL A   1      39.848  28.998  29.051  1.00  0.00    -0.014 A 
BRANCH  34  35
ATOM     35  C   UNL A   1      41.268  28.644  28.779  1.00  0.00     0.031 A 
ATOM     36  C   UNL A   1      42.334  29.704  28.793  1.00  0.00     0.074 A 
ATOM     37  C   UNL A   1      41.581  27.382  28.417  1.00  0.00     0.049 A 
ATOM     38  N   UNL A   1      43.598  29.608  28.468  1.00  0.00    -0.248 NA
ATOM     39  C   UNL A   1      41.919  31.056  29.199  1.00  0.00     0.031 C 
ATOM     40  C   UNL A   1      40.631  26.271  28.304  1.00  0.00     0.029 A 
ATOM     41  N   UNL A   1      42.783  26.821  28.060  1.00  0.00    -0.354 N 
ATOM     42  C   UNL A   1      44.124  30.886  28.607  1.00  0.00     0.074 A 
ATOM     43  C   UNL A   1      43.033  31.749  29.007  1.00  0.00     0.031 C 
ATOM     44  C   UNL A   1      41.288  25.164  27.924  1.00  0.00     0.029 A 
ATOM     45  C   UNL A   1      42.697  25.488  27.730  1.00  0.00     0.049 A 
ATOM     46  H   UNL A   1      43.628  27.326  28.043  1.00  0.00     0.167 HD
ATOM     47  C   UNL A   1      45.402  31.301  28.433  1.00  0.00     0.037 A 
ATOM     48  C   UNL A   1      43.643  24.624  27.310  1.00  0.00     0.037 A 
ATOM     49  C   UNL A   1      46.493  30.437  28.069  1.00  0.00     0.049 A 
ATOM     50  C   UNL A   1      45.061  25.102  27.157  1.00  0.00     0.074 A 
ATOM     51  C   UNL A   1      47.833  30.755  27.924  1.00  0.00     0.029 A 
ATOM     52  N   UNL A   1      46.374  29.082  27.796  1.00  0.00    -0.354 N 
ATOM     53  N   UNL A   1      45.548  26.305  27.347  1.00  0.00    -0.248 NA
ATOM     54  C   UNL A   1      46.058  24.107  26.739  1.00  0.00     0.031 C 
ATOM     55  C   UNL A   1      48.520  29.598  27.542  1.00  0.00     0.029 A 
ATOM     56  C   UNL A   1      47.613  28.551  27.480  1.00  0.00     0.049 A 
ATOM     57  H   UNL A   1      45.532  28.573  27.824  1.00  0.00     0.167 HD
ATOM     58  C   UNL A   1      46.912  26.205  27.098  1.00  0.00     0.074 A 
ATOM     59  C   UNL A   1      47.175  24.823  26.751  1.00  0.00     0.031 C 
ATOM     60  C   UNL A   1      47.862  27.170  27.155  1.00  0.00     0.037 A 
BRANCH  47  61
ATOM     61  C   UNL A   1      45.690  32.760  28.649  1.00  0.00     0.058 A 
ATOM     62  C   UNL A   1      45.623  33.684  27.594  1.00  0.00     0.135 A 
ATOM     63  C   UNL A   1      46.011  33.246  29.927  1.00  0.00     0.135 A 
ATOM     64  F   UNL A   1      45.334  33.269  26.351  1.00  0.00    -0.206 F 
ATOM     65  C   UNL A   1      45.893  35.034  27.793  1.00  0.00     0.059 A 
ATOM     66  C   UNL A   1      46.261  34.596  30.153  1.00  0.00     0.059 A 
ATOM     67  F   UNL A   1      46.088  32.404  30.970  1.00  0.00    -0.206 F 
ATOM     68  C   UNL A   1      46.216  35.479  29.075  1.00  0.00     0.060 A 
BRANCH  68  69
ATOM     69  S   UNL A   1      46.566  37.234  29.317  1.00  0.00     0.124 S 
ATOM     70  O   UNL A   1      47.671  37.180  30.269  1.00  0.00    -0.237 OA
ATOM     71  O   UNL A   1      46.914  37.674  27.970  1.00  0.00    -0.237 OA
ATOM     72  O   UNL A   1      45.310  37.762  29.841  1.00  0.00    -0.744 OA
ENDBRANCH  68  69
ENDBRANCH  47  61
BRANCH  48  73
ATOM     73  C   UNL A   1      43.287  23.209  27.028  1.00  0.00     0.058 A 
ATOM     74  C   UNL A   1      43.217  22.736  25.710  1.00  0.00     0.135 A 
ATOM     75  C   UNL A   1      43.014  22.303  28.064  1.00  0.00     0.135 A 
ATOM     76  F   UNL A   1      43.464  23.567  24.685  1.00  0.00    -0.206 F 
ATOM     77  C   UNL A   1      42.873  21.418  25.424  1.00  0.00     0.059 A 
ATOM     78  C   UNL A   1      42.689  20.975  27.805  1.00  0.00     0.059 A 
ATOM     79  F   UNL A   1      43.085  22.703  29.343  1.00  0.00    -0.206 F 
ATOM     80  C   UNL A   1      42.610  20.545  26.481  1.00  0.00     0.060 A 
BRANCH  80  81
ATOM     81  S   UNL A   1      42.209  18.824  26.106  1.00  0.00     0.124 S 
ATOM     82  O   UNL A   1      42.496  18.172  27.379  1.00  0.00    -0.237 OA
ATOM     83  O   UNL A   1      40.800  18.908  25.735  1.00  0.00    -0.237 OA
ATOM     84  O   UNL A   1      43.118  18.501  25.010  1.00  0.00    -0.744 OA
ENDBRANCH  80  81
ENDBRANCH  48  73
BRANCH  60  85
ATOM     85  C   UNL A   1      49.281  26.764  26.877  1.00  0.00     0.058 A 
ATOM     86  C   UNL A   1      50.137  26.337  27.902  1.00  0.00     0.135 A 
ATOM     87  C   UNL A   1      49.768  26.747  25.560  1.00  0.00     0.135 A 
ATOM     88  F   UNL A   1      49.720  26.343  29.178  1.00  0.00    -0.206 F 
ATOM     89  C   UNL A   1      51.436  25.917  27.632  1.00  0.00     0.059 A 
ATOM     90  C   UNL A   1      51.056  26.313  25.266  1.00  0.00     0.059 A 
ATOM     91  F   UNL A   1      48.984  27.141  24.545  1.00  0.00    -0.206 F 
ATOM     92  C   UNL A   1      51.886  25.907  26.310  1.00  0.00     0.060 A 
BRANCH  92  93
ATOM     93  S   UNL A   1      53.557  25.317  25.966  1.00  0.00     0.124 S 
ATOM     94  O   UNL A   1      54.194  25.457  27.270  1.00  0.00    -0.237 OA
ATOM     95  O   UNL A   1      53.322  23.947  25.518  1.00  0.00    -0.237 OA
ATOM     96  O   UNL A   1      54.033  26.233  24.932  1.00  0.00    -0.744 OA
ENDBRANCH  92  93
ENDBRANCH  60  85
ENDBRANCH  34  35
ENDBRANCH  26  29
ENDBRANCH  24  25
ENDBRANCH   1  24
TORSDOF 15
ENDMDL
