MODEL 1
REMARK VINA RESULT:      -9.9      0.000      0.000
REMARK SMILES Cc1ccc(C(=O)NCCCCNC(=O)c2ccc(-c3c4nc(c(-c5c(F)cc(S(=O)(=O)[O-])cc5F)c5ccc([nH]5)c(-c5c(F)cc(S(=O)(=O)[O-])cc5F)c5nc(c(-c6c(F)cc(S(=O)(=O)[O-])cc6F)c6ccc3[nH]6)C=C5)C=C4)cc2)cc1-c1ccc(/C=C(\C#N)C(=O)N2CC[NH+](Cc3ccccc3)CC2)o1
REMARK SMILES IDX 9 1 8 2 6 3 7 4 5 6 1 7 2 8 3 9 83 10 4 11 82 12 84 13 85 14
REMARK SMILES IDX 107 15 86 16 87 17 88 18 89 19 90 20 91 21 92 22 93 23 94 24
REMARK SMILES IDX 95 25 106 26 96 27 105 28 97 29 98 31 99 32 100 33 104 34
REMARK SMILES IDX 101 35 103 36 102 37 10 38 11 39 12 40 13 41 14 42 15 44
REMARK SMILES IDX 16 45 17 46 81 47 18 48 80 49 19 50 20 51 21 52 74 53 22 54
REMARK SMILES IDX 79 55 73 56 75 57 23 58 78 59 72 60 71 61 24 63 58 64 37 65
REMARK SMILES IDX 57 66 38 67 41 68 56 69 76 70 39 71 40 72 55 74 77 75 42 76
REMARK SMILES IDX 25 77 26 78 35 79 27 80 28 81 34 82 36 83 29 84 30 85 31 86
REMARK SMILES IDX 32 87 33 88 59 89 60 90 69 91 61 92 62 93 68 94 70 95 63 96
REMARK SMILES IDX 64 97 65 98 66 99 67 100 43 101 44 102 53 103 45 104 46 105
REMARK SMILES IDX 52 106 54 107 47 108 48 109 49 110 50 111 51 112
REMARK H PARENT 8 5 97 30 13 43 75 62 41 73
REMARK Flexibility Score: inf
ROOT
ATOM      1  C   UNL A   1      42.600  23.696  28.968  1.00  0.00     0.116 C 
ENDROOT
BRANCH   1   2
ATOM      2  N   UNL A   1      44.014  24.020  29.104  1.00  0.00    -0.352 N 
ATOM      3  C   UNL A   1      44.844  24.319  30.157  1.00  0.00     0.251 C 
ATOM      4  O   UNL A   1      46.042  24.456  29.890  1.00  0.00    -0.269 OA
ATOM      5  H   UNL A   1      44.484  24.027  28.240  1.00  0.00     0.163 HD
BRANCH   3   6
ATOM      6  C   UNL A   1      44.416  24.520  31.574  1.00  0.00     0.040 A 
ATOM      7  C   UNL A   1      43.516  24.683  35.831  1.00  0.00     0.045 C 
ATOM      8  C   UNL A   1      43.760  24.690  34.347  1.00  0.00    -0.040 A 
ATOM      9  C   UNL A   1      43.570  23.499  33.631  1.00  0.00     0.005 A 
ATOM     10  C   UNL A   1      44.264  25.802  33.658  1.00  0.00     0.021 A 
ATOM     11  C   UNL A   1      43.891  23.418  32.268  1.00  0.00     0.014 A 
ATOM     12  C   UNL A   1      44.588  25.696  32.292  1.00  0.00     0.026 A 
BRANCH  10  13
ATOM     13  C   UNL A   1      44.714  27.031  34.284  1.00  0.00     0.135 A 
ATOM     14  C   UNL A   1      45.968  27.381  34.707  1.00  0.00     0.051 A 
ATOM     15  O   UNL A   1      43.909  28.131  34.205  1.00  0.00    -0.457 OA
ATOM     16  C   UNL A   1      45.961  28.787  34.748  1.00  0.00     0.051 A 
ATOM     17  C   UNL A   1      44.655  29.251  34.561  1.00  0.00     0.129 A 
BRANCH  17  18
ATOM     18  C   UNL A   1      44.084  30.577  34.691  1.00  0.00     0.072 C 
ATOM     19  C   UNL A   1      43.926  31.191  35.887  1.00  0.00     0.121 C 
BRANCH  19  20
ATOM     20  C   UNL A   1      44.320  30.414  37.133  1.00  0.00     0.105 C 
ATOM     21  N   UNL A   1      44.645  29.769  38.167  1.00  0.00    -0.192 NA
ENDBRANCH  19  20
BRANCH  19  22
ATOM     22  C   UNL A   1      43.042  32.366  36.104  1.00  0.00     0.265 C 
ATOM     23  O   UNL A   1      43.522  33.466  36.371  1.00  0.00    -0.268 OA
ATOM     24  N   UNL A   1      41.706  32.196  35.737  1.00  0.00    -0.327 N 
ATOM     25  C   UNL A   1      41.011  33.382  35.237  1.00  0.00     0.181 C 
ATOM     26  C   UNL A   1      40.882  31.072  36.234  1.00  0.00     0.181 C 
ATOM     27  C   UNL A   1      39.623  33.131  34.617  1.00  0.00     0.284 C 
ATOM     28  C   UNL A   1      39.620  30.829  35.395  1.00  0.00     0.284 C 
ATOM     29  N   UNL A   1      38.829  32.032  35.156  1.00  0.00    -0.328 N 
ATOM     30  H   UNL A   1      38.209  31.780  34.386  1.00  0.00     0.348 HD
BRANCH  29  31
ATOM     31  C   UNL A   1      37.763  32.348  36.107  1.00  0.00     0.299 C 
BRANCH  31  32
ATOM     32  C   UNL A   1      38.076  32.983  37.448  1.00  0.00     0.006 A 
ATOM     33  C   UNL A   1      37.722  32.300  38.624  1.00  0.00     0.009 A 
ATOM     34  C   UNL A   1      38.627  34.259  37.595  1.00  0.00     0.009 A 
ATOM     35  C   UNL A   1      37.987  32.844  39.887  1.00  0.00     0.001 A 
ATOM     36  C   UNL A   1      38.948  34.783  38.849  1.00  0.00     0.001 A 
ATOM     37  C   UNL A   1      38.628  34.074  39.998  1.00  0.00     0.000 A 
ENDBRANCH  31  32
ENDBRANCH  29  31
ENDBRANCH  19  22
ENDBRANCH  17  18
ENDBRANCH  10  13
ENDBRANCH   3   6
ENDBRANCH   1   2
BRANCH   1  38
ATOM     38  C   UNL A   1      42.321  22.181  29.001  1.00  0.00     0.023 C 
BRANCH  38  39
ATOM     39  C   UNL A   1      42.442  21.455  27.648  1.00  0.00     0.023 C 
BRANCH  39  40
ATOM     40  C   UNL A   1      42.313  22.361  26.432  1.00  0.00     0.116 C 
BRANCH  40  41
ATOM     41  N   UNL A   1      41.021  22.364  25.763  1.00  0.00    -0.352 N 
ATOM     42  C   UNL A   1      39.876  22.722  26.491  1.00  0.00     0.251 C 
ATOM     43  H   UNL A   1      40.952  22.119  24.812  1.00  0.00     0.163 HD
ATOM     44  O   UNL A   1      39.058  21.956  26.914  1.00  0.00    -0.269 OA
BRANCH  42  45
ATOM     45  C   UNL A   1      39.816  24.181  26.787  1.00  0.00     0.039 A 
ATOM     46  C   UNL A   1      40.402  25.114  25.934  1.00  0.00     0.014 A 
ATOM     47  C   UNL A   1      39.355  24.552  28.049  1.00  0.00     0.014 A 
ATOM     48  C   UNL A   1      40.665  26.403  26.411  1.00  0.00     0.010 A 
ATOM     49  C   UNL A   1      39.704  25.788  28.550  1.00  0.00     0.010 A 
ATOM     50  C   UNL A   1      40.387  26.709  27.743  1.00  0.00    -0.014 A 
BRANCH  50  51
ATOM     51  C   UNL A   1      40.794  27.928  28.438  1.00  0.00     0.031 A 
ATOM     52  C   UNL A   1      39.876  29.093  28.488  1.00  0.00     0.074 A 
ATOM     53  C   UNL A   1      41.868  27.883  29.259  1.00  0.00     0.049 A 
ATOM     54  N   UNL A   1      40.166  30.226  29.034  1.00  0.00    -0.248 NA
ATOM     55  C   UNL A   1      38.551  29.091  27.861  1.00  0.00     0.031 C 
ATOM     56  C   UNL A   1      42.121  28.723  30.427  1.00  0.00     0.029 A 
ATOM     57  N   UNL A   1      43.069  27.198  29.058  1.00  0.00    -0.354 N 
ATOM     58  C   UNL A   1      38.994  30.936  29.145  1.00  0.00     0.074 A 
ATOM     59  C   UNL A   1      38.065  30.266  28.274  1.00  0.00     0.031 C 
ATOM     60  C   UNL A   1      43.434  28.703  30.705  1.00  0.00     0.029 A 
ATOM     61  C   UNL A   1      44.087  28.004  29.615  1.00  0.00     0.049 A 
ATOM     62  H   UNL A   1      43.185  26.326  28.615  1.00  0.00     0.167 HD
ATOM     63  C   UNL A   1      38.899  31.907  30.095  1.00  0.00     0.037 A 
ATOM     64  C   UNL A   1      45.062  28.556  28.830  1.00  0.00     0.037 A 
ATOM     65  C   UNL A   1      40.222  32.298  30.581  1.00  0.00     0.049 A 
ATOM     66  C   UNL A   1      45.099  30.067  28.839  1.00  0.00     0.074 A 
ATOM     67  C   UNL A   1      40.895  32.123  31.775  1.00  0.00     0.029 A 
ATOM     68  N   UNL A   1      41.155  32.785  29.669  1.00  0.00    -0.354 N 
ATOM     69  N   UNL A   1      44.137  30.820  29.300  1.00  0.00    -0.248 NA
ATOM     70  C   UNL A   1      46.212  30.852  28.313  1.00  0.00     0.031 C 
ATOM     71  C   UNL A   1      42.275  32.377  31.532  1.00  0.00     0.029 A 
ATOM     72  C   UNL A   1      42.424  32.764  30.208  1.00  0.00     0.049 A 
ATOM     73  H   UNL A   1      40.939  33.101  28.762  1.00  0.00     0.167 HD
ATOM     74  C   UNL A   1      44.445  32.139  29.093  1.00  0.00     0.074 A 
ATOM     75  C   UNL A   1      45.773  32.107  28.508  1.00  0.00     0.031 C 
ATOM     76  C   UNL A   1      43.576  33.147  29.401  1.00  0.00     0.037 A 
BRANCH  63  77
ATOM     77  C   UNL A   1      37.597  32.366  30.729  1.00  0.00     0.058 A 
ATOM     78  C   UNL A   1      36.893  33.470  30.199  1.00  0.00     0.135 A 
ATOM     79  C   UNL A   1      37.073  31.865  31.944  1.00  0.00     0.135 A 
ATOM     80  F   UNL A   1      37.296  34.063  29.066  1.00  0.00    -0.206 F 
ATOM     81  C   UNL A   1      35.772  34.031  30.826  1.00  0.00     0.059 A 
ATOM     82  C   UNL A   1      35.926  32.373  32.556  1.00  0.00     0.059 A 
ATOM     83  F   UNL A   1      37.686  30.906  32.647  1.00  0.00    -0.206 F 
ATOM     84  C   UNL A   1      35.295  33.477  32.007  1.00  0.00     0.060 A 
BRANCH  84  85
ATOM     85  S   UNL A   1      33.874  34.208  32.843  1.00  0.00     0.124 S 
ATOM     86  O   UNL A   1      34.516  34.978  33.904  1.00  0.00    -0.237 OA
ATOM     87  O   UNL A   1      33.246  34.986  31.781  1.00  0.00    -0.237 OA
ATOM     88  O   UNL A   1      33.111  33.045  33.290  1.00  0.00    -0.744 OA
ENDBRANCH  84  85
ENDBRANCH  63  77
BRANCH  64  89
ATOM     89  C   UNL A   1      45.437  27.681  27.684  1.00  0.00     0.058 A 
ATOM     90  C   UNL A   1      44.842  27.974  26.441  1.00  0.00     0.135 A 
ATOM     91  C   UNL A   1      46.662  26.999  27.676  1.00  0.00     0.135 A 
ATOM     92  F   UNL A   1      43.657  28.604  26.397  1.00  0.00    -0.206 F 
ATOM     93  C   UNL A   1      45.530  27.797  25.248  1.00  0.00     0.059 A 
ATOM     94  C   UNL A   1      47.365  26.798  26.486  1.00  0.00     0.059 A 
ATOM     95  F   UNL A   1      47.267  26.679  28.830  1.00  0.00    -0.206 F 
ATOM     96  C   UNL A   1      46.827  27.291  25.296  1.00  0.00     0.060 A 
BRANCH  96  97
ATOM     97  S   UNL A   1      47.860  27.500  23.825  1.00  0.00     0.124 S 
ATOM     98  O   UNL A   1      48.042  26.122  23.378  1.00  0.00    -0.237 OA
ATOM     99  O   UNL A   1      47.001  28.327  22.975  1.00  0.00    -0.237 OA
ATOM    100  O   UNL A   1      49.052  28.162  24.339  1.00  0.00    -0.744 OA
ENDBRANCH  96  97
ENDBRANCH  64  89
BRANCH  76 101
ATOM    101  C   UNL A   1      43.767  34.597  29.022  1.00  0.00     0.058 A 
ATOM    102  C   UNL A   1      43.676  35.082  27.705  1.00  0.00     0.135 A 
ATOM    103  C   UNL A   1      43.927  35.581  30.025  1.00  0.00     0.135 A 
ATOM    104  F   UNL A   1      43.399  34.265  26.679  1.00  0.00    -0.206 F 
ATOM    105  C   UNL A   1      43.826  36.436  27.393  1.00  0.00     0.059 A 
ATOM    106  C   UNL A   1      44.026  36.943  29.741  1.00  0.00     0.059 A 
ATOM    107  F   UNL A   1      43.989  35.248  31.323  1.00  0.00    -0.206 F 
ATOM    108  C   UNL A   1      44.009  37.359  28.417  1.00  0.00     0.060 A 
BRANCH 108 109
ATOM    109  S   UNL A   1      44.171  39.113  28.031  1.00  0.00     0.124 S 
ATOM    110  O   UNL A   1      45.602  39.323  28.227  1.00  0.00    -0.237 OA
ATOM    111  O   UNL A   1      43.709  39.188  26.648  1.00  0.00    -0.237 OA
ATOM    112  O   UNL A   1      43.297  39.750  29.011  1.00  0.00    -0.744 OA
ENDBRANCH 108 109
ENDBRANCH  76 101
ENDBRANCH  50  51
ENDBRANCH  42  45
ENDBRANCH  40  41
ENDBRANCH  39  40
ENDBRANCH  38  39
ENDBRANCH   1  38
TORSDOF 20
ENDMDL
MODEL 2
REMARK VINA RESULT:      -9.7      5.276     11.089
REMARK SMILES Cc1ccc(C(=O)NCCCCNC(=O)c2ccc(-c3c4nc(c(-c5c(F)cc(S(=O)(=O)[O-])cc5F)c5ccc([nH]5)c(-c5c(F)cc(S(=O)(=O)[O-])cc5F)c5nc(c(-c6c(F)cc(S(=O)(=O)[O-])cc6F)c6ccc3[nH]6)C=C5)C=C4)cc2)cc1-c1ccc(/C=C(\C#N)C(=O)N2CC[NH+](Cc3ccccc3)CC2)o1
REMARK SMILES IDX 9 1 8 2 6 3 7 4 5 6 1 7 2 8 3 9 83 10 4 11 82 12 84 13 85 14
REMARK SMILES IDX 107 15 86 16 87 17 88 18 89 19 90 20 91 21 92 22 93 23 94 24
REMARK SMILES IDX 95 25 106 26 96 27 105 28 97 29 98 31 99 32 100 33 104 34
REMARK SMILES IDX 101 35 103 36 102 37 10 38 11 39 12 40 13 41 14 42 15 44
REMARK SMILES IDX 16 45 17 46 81 47 18 48 80 49 19 50 20 51 21 52 74 53 22 54
REMARK SMILES IDX 79 55 73 56 75 57 23 58 78 59 72 60 71 61 24 63 58 64 37 65
REMARK SMILES IDX 57 66 38 67 41 68 56 69 76 70 39 71 40 72 55 74 77 75 42 76
REMARK SMILES IDX 25 77 26 78 35 79 27 80 28 81 34 82 36 83 29 84 30 85 31 86
REMARK SMILES IDX 32 87 33 88 59 89 60 90 69 91 61 92 62 93 68 94 70 95 63 96
REMARK SMILES IDX 64 97 65 98 66 99 67 100 43 101 44 102 53 103 45 104 46 105
REMARK SMILES IDX 52 106 54 107 47 108 48 109 49 110 50 111 51 112
REMARK H PARENT 8 5 97 30 13 43 75 62 41 73
REMARK Flexibility Score: inf
ROOT
ATOM      1  C   UNL A   1      42.833  29.399  28.946  1.00  0.00     0.116 C 
ENDROOT
BRANCH   1   2
ATOM      2  N   UNL A   1      43.463  30.578  29.528  1.00  0.00    -0.352 N 
ATOM      3  C   UNL A   1      43.007  31.725  30.131  1.00  0.00     0.251 C 
ATOM      4  O   UNL A   1      43.867  32.482  30.592  1.00  0.00    -0.269 OA
ATOM      5  H   UNL A   1      44.445  30.545  29.473  1.00  0.00     0.163 HD
BRANCH   3   6
ATOM      6  C   UNL A   1      41.576  32.137  30.247  1.00  0.00     0.040 A 
ATOM      7  C   UNL A   1      37.500  33.664  30.137  1.00  0.00     0.045 C 
ATOM      8  C   UNL A   1      38.886  33.094  30.255  1.00  0.00    -0.040 A 
ATOM      9  C   UNL A   1      39.970  33.980  30.355  1.00  0.00     0.005 A 
ATOM     10  C   UNL A   1      39.162  31.722  30.169  1.00  0.00     0.021 A 
ATOM     11  C   UNL A   1      41.290  33.507  30.354  1.00  0.00     0.014 A 
ATOM     12  C   UNL A   1      40.495  31.271  30.160  1.00  0.00     0.026 A 
BRANCH  10  13
ATOM     13  C   UNL A   1      38.183  30.699  29.851  1.00  0.00     0.135 A 
ATOM     14  C   UNL A   1      37.711  29.677  30.630  1.00  0.00     0.051 A 
ATOM     15  O   UNL A   1      37.375  30.890  28.766  1.00  0.00    -0.457 OA
ATOM     16  C   UNL A   1      36.473  29.327  30.063  1.00  0.00     0.051 A 
ATOM     17  C   UNL A   1      36.319  29.985  28.839  1.00  0.00     0.129 A 
BRANCH  17  18
ATOM     18  C   UNL A   1      35.328  29.838  27.792  1.00  0.00     0.072 C 
ATOM     19  C   UNL A   1      34.319  30.723  27.609  1.00  0.00     0.121 C 
BRANCH  19  20
ATOM     20  C   UNL A   1      34.213  31.878  28.592  1.00  0.00     0.105 C 
ATOM     21  N   UNL A   1      34.124  32.836  29.407  1.00  0.00    -0.192 NA
ENDBRANCH  19  20
BRANCH  19  22
ATOM     22  C   UNL A   1      33.103  30.437  26.804  1.00  0.00     0.265 C 
ATOM     23  O   UNL A   1      32.240  31.299  26.651  1.00  0.00    -0.268 OA
ATOM     24  N   UNL A   1      33.136  29.262  26.051  1.00  0.00    -0.327 N 
ATOM     25  C   UNL A   1      32.411  29.281  24.782  1.00  0.00     0.181 C 
ATOM     26  C   UNL A   1      33.451  27.944  26.647  1.00  0.00     0.181 C 
ATOM     27  C   UNL A   1      32.650  28.072  23.857  1.00  0.00     0.284 C 
ATOM     28  C   UNL A   1      33.854  26.891  25.606  1.00  0.00     0.284 C 
ATOM     29  N   UNL A   1      32.927  26.784  24.484  1.00  0.00    -0.328 N 
ATOM     30  H   UNL A   1      33.449  26.275  23.770  1.00  0.00     0.348 HD
BRANCH  29  31
ATOM     31  C   UNL A   1      31.835  25.816  24.589  1.00  0.00     0.299 C 
BRANCH  31  32
ATOM     32  C   UNL A   1      32.086  24.333  24.397  1.00  0.00     0.006 A 
ATOM     33  C   UNL A   1      32.883  23.910  23.320  1.00  0.00     0.009 A 
ATOM     34  C   UNL A   1      31.499  23.336  25.183  1.00  0.00     0.009 A 
ATOM     35  C   UNL A   1      33.143  22.552  23.098  1.00  0.00     0.001 A 
ATOM     36  C   UNL A   1      31.800  21.984  25.004  1.00  0.00     0.001 A 
ATOM     37  C   UNL A   1      32.624  21.591  23.960  1.00  0.00     0.000 A 
ENDBRANCH  31  32
ENDBRANCH  29  31
ENDBRANCH  19  22
ENDBRANCH  17  18
ENDBRANCH  10  13
ENDBRANCH   3   6
ENDBRANCH   1   2
BRANCH   1  38
ATOM     38  C   UNL A   1      43.291  29.119  27.503  1.00  0.00     0.023 C 
BRANCH  38  39
ATOM     39  C   UNL A   1      43.456  27.633  27.135  1.00  0.00     0.023 C 
BRANCH  39  40
ATOM     40  C   UNL A   1      44.886  27.218  26.814  1.00  0.00     0.116 C 
BRANCH  40  41
ATOM     41  N   UNL A   1      45.082  25.833  26.414  1.00  0.00    -0.352 N 
ATOM     42  C   UNL A   1      46.105  25.086  27.021  1.00  0.00     0.251 C 
ATOM     43  H   UNL A   1      44.506  25.426  25.729  1.00  0.00     0.163 HD
ATOM     44  O   UNL A   1      47.160  24.824  26.518  1.00  0.00    -0.269 OA
BRANCH  42  45
ATOM     45  C   UNL A   1      45.790  24.719  28.429  1.00  0.00     0.039 A 
ATOM     46  C   UNL A   1      44.601  24.070  28.757  1.00  0.00     0.014 A 
ATOM     47  C   UNL A   1      46.617  25.245  29.420  1.00  0.00     0.014 A 
ATOM     48  C   UNL A   1      44.161  24.082  30.085  1.00  0.00     0.010 A 
ATOM     49  C   UNL A   1      46.136  25.344  30.708  1.00  0.00     0.010 A 
ATOM     50  C   UNL A   1      44.892  24.788  31.040  1.00  0.00    -0.014 A 
BRANCH  50  51
ATOM     51  C   UNL A   1      44.457  25.068  32.407  1.00  0.00     0.031 A 
ATOM     52  C   UNL A   1      44.074  26.449  32.794  1.00  0.00     0.074 A 
ATOM     53  C   UNL A   1      44.140  24.031  33.215  1.00  0.00     0.049 A 
ATOM     54  N   UNL A   1      43.724  26.801  33.985  1.00  0.00    -0.248 NA
ATOM     55  C   UNL A   1      44.110  27.577  31.859  1.00  0.00     0.031 C 
ATOM     56  C   UNL A   1      43.199  24.040  34.333  1.00  0.00     0.029 A 
ATOM     57  N   UNL A   1      44.790  22.798  33.319  1.00  0.00    -0.354 N 
ATOM     58  C   UNL A   1      43.169  28.055  33.892  1.00  0.00     0.074 A 
ATOM     59  C   UNL A   1      43.569  28.548  32.602  1.00  0.00     0.031 C 
ATOM     60  C   UNL A   1      43.476  23.010  35.147  1.00  0.00     0.029 A 
ATOM     61  C   UNL A   1      44.716  22.421  34.679  1.00  0.00     0.049 A 
ATOM     62  H   UNL A   1      45.216  22.293  32.590  1.00  0.00     0.167 HD
ATOM     63  C   UNL A   1      42.291  28.460  34.851  1.00  0.00     0.037 A 
ATOM     64  C   UNL A   1      45.844  22.309  35.445  1.00  0.00     0.037 A 
ATOM     65  C   UNL A   1      42.393  27.622  36.045  1.00  0.00     0.049 A 
ATOM     66  C   UNL A   1      45.894  23.242  36.634  1.00  0.00     0.074 A 
ATOM     67  C   UNL A   1      41.569  26.678  36.628  1.00  0.00     0.029 A 
ATOM     68  N   UNL A   1      43.618  27.537  36.701  1.00  0.00    -0.354 N 
ATOM     69  N   UNL A   1      45.106  24.270  36.791  1.00  0.00    -0.248 NA
ATOM     70  C   UNL A   1      46.849  23.103  37.730  1.00  0.00     0.031 C 
ATOM     71  C   UNL A   1      42.358  25.928  37.547  1.00  0.00     0.029 A 
ATOM     72  C   UNL A   1      43.638  26.459  37.562  1.00  0.00     0.049 A 
ATOM     73  H   UNL A   1      44.369  28.160  36.569  1.00  0.00     0.167 HD
ATOM     74  C   UNL A   1      45.458  24.950  37.928  1.00  0.00     0.074 A 
ATOM     75  C   UNL A   1      46.529  24.157  38.501  1.00  0.00     0.031 C 
ATOM     76  C   UNL A   1      44.854  26.120  38.292  1.00  0.00     0.037 A 
BRANCH  63  77
ATOM     77  C   UNL A   1      41.197  29.493  34.636  1.00  0.00     0.058 A 
ATOM     78  C   UNL A   1      41.027  30.556  35.549  1.00  0.00     0.135 A 
ATOM     79  C   UNL A   1      40.192  29.406  33.644  1.00  0.00     0.135 A 
ATOM     80  F   UNL A   1      41.890  30.741  36.558  1.00  0.00    -0.206 F 
ATOM     81  C   UNL A   1      39.948  31.449  35.488  1.00  0.00     0.059 A 
ATOM     82  C   UNL A   1      39.140  30.317  33.530  1.00  0.00     0.059 A 
ATOM     83  F   UNL A   1      40.128  28.390  32.776  1.00  0.00    -0.206 F 
ATOM     84  C   UNL A   1      39.007  31.321  34.474  1.00  0.00     0.060 A 
BRANCH  84  85
ATOM     85  S   UNL A   1      37.595  32.442  34.400  1.00  0.00     0.124 S 
ATOM     86  O   UNL A   1      36.708  31.743  33.477  1.00  0.00    -0.237 OA
ATOM     87  O   UNL A   1      37.157  32.493  35.791  1.00  0.00    -0.237 OA
ATOM     88  O   UNL A   1      38.176  33.681  33.891  1.00  0.00    -0.744 OA
ENDBRANCH  84  85
ENDBRANCH  63  77
BRANCH  64  89
ATOM     89  C   UNL A   1      47.018  21.825  34.666  1.00  0.00     0.058 A 
ATOM     90  C   UNL A   1      48.068  22.741  34.465  1.00  0.00     0.135 A 
ATOM     91  C   UNL A   1      47.327  20.457  34.614  1.00  0.00     0.135 A 
ATOM     92  F   UNL A   1      47.819  24.061  34.481  1.00  0.00    -0.206 F 
ATOM     93  C   UNL A   1      49.394  22.329  34.434  1.00  0.00     0.059 A 
ATOM     94  C   UNL A   1      48.653  20.021  34.569  1.00  0.00     0.059 A 
ATOM     95  F   UNL A   1      46.363  19.539  34.783  1.00  0.00    -0.206 F 
ATOM     96  C   UNL A   1      49.674  20.973  34.578  1.00  0.00     0.060 A 
BRANCH  96  97
ATOM     97  S   UNL A   1      51.372  20.510  34.998  1.00  0.00     0.124 S 
ATOM     98  O   UNL A   1      51.231  19.098  35.340  1.00  0.00    -0.237 OA
ATOM     99  O   UNL A   1      52.074  20.785  33.743  1.00  0.00    -0.237 OA
ATOM    100  O   UNL A   1      51.702  21.400  36.105  1.00  0.00    -0.744 OA
ENDBRANCH  96  97
ENDBRANCH  64  89
BRANCH  76 101
ATOM    101  C   UNL A   1      45.320  27.018  39.415  1.00  0.00     0.058 A 
ATOM    102  C   UNL A   1      44.956  26.843  40.762  1.00  0.00     0.135 A 
ATOM    103  C   UNL A   1      46.271  28.034  39.167  1.00  0.00     0.135 A 
ATOM    104  F   UNL A   1      44.159  25.834  41.143  1.00  0.00    -0.206 F 
ATOM    105  C   UNL A   1      45.430  27.674  41.780  1.00  0.00     0.059 A 
ATOM    106  C   UNL A   1      46.798  28.841  40.175  1.00  0.00     0.059 A 
ATOM    107  F   UNL A   1      46.727  28.275  37.928  1.00  0.00    -0.206 F 
ATOM    108  C   UNL A   1      46.345  28.676  41.477  1.00  0.00     0.060 A 
BRANCH 108 109
ATOM    109  S   UNL A   1      46.990  29.734  42.787  1.00  0.00     0.124 S 
ATOM    110  O   UNL A   1      46.190  30.941  42.606  1.00  0.00    -0.237 OA
ATOM    111  O   UNL A   1      46.705  28.967  43.997  1.00  0.00    -0.237 OA
ATOM    112  O   UNL A   1      48.404  29.855  42.450  1.00  0.00    -0.744 OA
ENDBRANCH 108 109
ENDBRANCH  76 101
ENDBRANCH  50  51
ENDBRANCH  42  45
ENDBRANCH  40  41
ENDBRANCH  39  40
ENDBRANCH  38  39
ENDBRANCH   1  38
TORSDOF 20
ENDMDL
MODEL 3
REMARK VINA RESULT:      -9.5      6.239     14.538
REMARK SMILES Cc1ccc(C(=O)NCCCCNC(=O)c2ccc(-c3c4nc(c(-c5c(F)cc(S(=O)(=O)[O-])cc5F)c5ccc([nH]5)c(-c5c(F)cc(S(=O)(=O)[O-])cc5F)c5nc(c(-c6c(F)cc(S(=O)(=O)[O-])cc6F)c6ccc3[nH]6)C=C5)C=C4)cc2)cc1-c1ccc(/C=C(\C#N)C(=O)N2CC[NH+](Cc3ccccc3)CC2)o1
REMARK SMILES IDX 9 1 8 2 6 3 7 4 5 6 1 7 2 8 3 9 83 10 4 11 82 12 84 13 85 14
REMARK SMILES IDX 107 15 86 16 87 17 88 18 89 19 90 20 91 21 92 22 93 23 94 24
REMARK SMILES IDX 95 25 106 26 96 27 105 28 97 29 98 31 99 32 100 33 104 34
REMARK SMILES IDX 101 35 103 36 102 37 10 38 11 39 12 40 13 41 14 42 15 44
REMARK SMILES IDX 16 45 17 46 81 47 18 48 80 49 19 50 20 51 21 52 74 53 22 54
REMARK SMILES IDX 79 55 73 56 75 57 23 58 78 59 72 60 71 61 24 63 58 64 37 65
REMARK SMILES IDX 57 66 38 67 41 68 56 69 76 70 39 71 40 72 55 74 77 75 42 76
REMARK SMILES IDX 25 77 26 78 35 79 27 80 28 81 34 82 36 83 29 84 30 85 31 86
REMARK SMILES IDX 32 87 33 88 59 89 60 90 69 91 61 92 62 93 68 94 70 95 63 96
REMARK SMILES IDX 64 97 65 98 66 99 67 100 43 101 44 102 53 103 45 104 46 105
REMARK SMILES IDX 52 106 54 107 47 108 48 109 49 110 50 111 51 112
REMARK H PARENT 8 5 97 30 13 43 75 62 41 73
REMARK Flexibility Score: inf
ROOT
ATOM      1  C   UNL A   1      34.771  34.075  31.361  1.00  0.00     0.116 C 
ENDROOT
BRANCH   1   2
ATOM      2  N   UNL A   1      36.074  34.412  30.800  1.00  0.00    -0.352 N 
ATOM      3  C   UNL A   1      36.846  33.922  29.775  1.00  0.00     0.251 C 
ATOM      4  O   UNL A   1      37.888  34.538  29.530  1.00  0.00    -0.269 OA
ATOM      5  H   UNL A   1      36.501  35.166  31.267  1.00  0.00     0.163 HD
BRANCH   3   6
ATOM      6  C   UNL A   1      36.544  32.704  28.963  1.00  0.00     0.040 A 
ATOM      7  C   UNL A   1      35.766  28.863  27.068  1.00  0.00     0.045 C 
ATOM      8  C   UNL A   1      36.026  30.230  27.638  1.00  0.00    -0.040 A 
ATOM      9  C   UNL A   1      37.259  30.471  28.264  1.00  0.00     0.005 A 
ATOM     10  C   UNL A   1      35.061  31.246  27.667  1.00  0.00     0.021 A 
ATOM     11  C   UNL A   1      37.512  31.689  28.912  1.00  0.00     0.014 A 
ATOM     12  C   UNL A   1      35.334  32.457  28.331  1.00  0.00     0.026 A 
BRANCH  10  13
ATOM     13  C   UNL A   1      33.678  31.087  27.260  1.00  0.00     0.135 A 
ATOM     14  C   UNL A   1      32.616  31.931  27.444  1.00  0.00     0.051 A 
ATOM     15  O   UNL A   1      33.384  30.144  26.317  1.00  0.00    -0.457 OA
ATOM     16  C   UNL A   1      31.683  31.568  26.457  1.00  0.00     0.051 A 
ATOM     17  C   UNL A   1      32.098  30.383  25.840  1.00  0.00     0.129 A 
BRANCH  17  18
ATOM     18  C   UNL A   1      31.423  29.506  24.904  1.00  0.00     0.072 C 
ATOM     19  C   UNL A   1      30.947  28.287  25.256  1.00  0.00     0.121 C 
BRANCH  19  20
ATOM     20  C   UNL A   1      31.195  27.823  26.682  1.00  0.00     0.105 C 
ATOM     21  N   UNL A   1      31.399  27.439  27.866  1.00  0.00    -0.192 NA
ENDBRANCH  19  20
BRANCH  19  22
ATOM     22  C   UNL A   1      30.579  27.229  24.280  1.00  0.00     0.265 C 
ATOM     23  O   UNL A   1      29.430  27.150  23.850  1.00  0.00    -0.268 OA
ATOM     24  N   UNL A   1      31.645  26.531  23.711  1.00  0.00    -0.327 N 
ATOM     25  C   UNL A   1      31.463  26.069  22.336  1.00  0.00     0.181 C 
ATOM     26  C   UNL A   1      32.690  25.872  24.527  1.00  0.00     0.181 C 
ATOM     27  C   UNL A   1      32.722  25.513  21.644  1.00  0.00     0.284 C 
ATOM     28  C   UNL A   1      33.963  25.548  23.733  1.00  0.00     0.284 C 
ATOM     29  N   UNL A   1      33.715  24.844  22.480  1.00  0.00    -0.328 N 
ATOM     30  H   UNL A   1      34.582  24.946  21.954  1.00  0.00     0.348 HD
BRANCH  29  31
ATOM     31  C   UNL A   1      33.727  23.381  22.504  1.00  0.00     0.299 C 
BRANCH  31  32
ATOM     32  C   UNL A   1      34.644  22.624  23.443  1.00  0.00     0.006 A 
ATOM     33  C   UNL A   1      36.035  22.782  23.313  1.00  0.00     0.009 A 
ATOM     34  C   UNL A   1      34.196  21.699  24.391  1.00  0.00     0.009 A 
ATOM     35  C   UNL A   1      36.925  22.104  24.154  1.00  0.00     0.001 A 
ATOM     36  C   UNL A   1      35.074  21.063  25.272  1.00  0.00     0.001 A 
ATOM     37  C   UNL A   1      36.441  21.266  25.154  1.00  0.00     0.000 A 
ENDBRANCH  31  32
ENDBRANCH  29  31
ENDBRANCH  19  22
ENDBRANCH  17  18
ENDBRANCH  10  13
ENDBRANCH   3   6
ENDBRANCH   1   2
BRANCH   1  38
ATOM     38  C   UNL A   1      34.801  32.812  32.241  1.00  0.00     0.023 C 
BRANCH  38  39
ATOM     39  C   UNL A   1      36.116  32.565  33.003  1.00  0.00     0.023 C 
BRANCH  39  40
ATOM     40  C   UNL A   1      36.635  31.136  32.917  1.00  0.00     0.116 C 
BRANCH  40  41
ATOM     41  N   UNL A   1      37.700  30.892  31.956  1.00  0.00    -0.352 N 
ATOM     42  C   UNL A   1      38.993  31.364  32.235  1.00  0.00     0.251 C 
ATOM     43  H   UNL A   1      37.516  30.403  31.122  1.00  0.00     0.163 HD
ATOM     44  O   UNL A   1      39.495  32.333  31.744  1.00  0.00    -0.269 OA
BRANCH  42  45
ATOM     45  C   UNL A   1      39.670  30.582  33.306  1.00  0.00     0.039 A 
ATOM     46  C   UNL A   1      39.389  30.809  34.652  1.00  0.00     0.014 A 
ATOM     47  C   UNL A   1      40.746  29.784  32.923  1.00  0.00     0.014 A 
ATOM     48  C   UNL A   1      40.289  30.353  35.622  1.00  0.00     0.010 A 
ATOM     49  C   UNL A   1      41.681  29.423  33.869  1.00  0.00     0.010 A 
ATOM     50  C   UNL A   1      41.471  29.732  35.220  1.00  0.00    -0.014 A 
BRANCH  50  51
ATOM     51  C   UNL A   1      42.593  29.394  36.093  1.00  0.00     0.031 A 
ATOM     52  C   UNL A   1      42.720  28.019  36.638  1.00  0.00     0.074 A 
ATOM     53  C   UNL A   1      43.641  30.245  36.165  1.00  0.00     0.049 A 
ATOM     54  N   UNL A   1      43.646  27.641  37.453  1.00  0.00    -0.248 NA
ATOM     55  C   UNL A   1      41.756  26.954  36.343  1.00  0.00     0.031 C 
ATOM     56  C   UNL A   1      45.030  29.909  36.472  1.00  0.00     0.029 A 
ATOM     57  N   UNL A   1      43.609  31.642  36.191  1.00  0.00    -0.354 N 
ATOM     58  C   UNL A   1      43.613  26.267  37.497  1.00  0.00     0.074 A 
ATOM     59  C   UNL A   1      42.344  25.903  36.925  1.00  0.00     0.031 C 
ATOM     60  C   UNL A   1      45.667  31.014  36.887  1.00  0.00     0.029 A 
ATOM     61  C   UNL A   1      44.663  32.050  37.038  1.00  0.00     0.049 A 
ATOM     62  H   UNL A   1      42.978  32.226  35.713  1.00  0.00     0.167 HD
ATOM     63  C   UNL A   1      44.740  25.592  37.856  1.00  0.00     0.037 A 
ATOM     64  C   UNL A   1      44.413  32.704  38.214  1.00  0.00     0.037 A 
ATOM     65  C   UNL A   1      45.694  26.478  38.522  1.00  0.00     0.049 A 
ATOM     66  C   UNL A   1      44.893  31.982  39.452  1.00  0.00     0.074 A 
ATOM     67  C   UNL A   1      46.921  27.006  38.169  1.00  0.00     0.029 A 
ATOM     68  N   UNL A   1      45.296  27.143  39.680  1.00  0.00    -0.354 N 
ATOM     69  N   UNL A   1      45.252  30.727  39.474  1.00  0.00    -0.248 NA
ATOM     70  C   UNL A   1      44.989  32.609  40.768  1.00  0.00     0.031 C 
ATOM     71  C   UNL A   1      47.190  28.093  39.048  1.00  0.00     0.029 A 
ATOM     72  C   UNL A   1      46.156  28.182  39.968  1.00  0.00     0.049 A 
ATOM     73  H   UNL A   1      44.508  26.904  40.220  1.00  0.00     0.167 HD
ATOM     74  C   UNL A   1      45.560  30.359  40.758  1.00  0.00     0.074 A 
ATOM     75  C   UNL A   1      45.417  31.583  41.524  1.00  0.00     0.031 C 
ATOM     76  C   UNL A   1      45.886  29.075  41.089  1.00  0.00     0.037 A 
BRANCH  63  77
ATOM     77  C   UNL A   1      45.065  24.172  37.427  1.00  0.00     0.058 A 
ATOM     78  C   UNL A   1      45.533  23.229  38.369  1.00  0.00     0.135 A 
ATOM     79  C   UNL A   1      45.087  23.720  36.086  1.00  0.00     0.135 A 
ATOM     80  F   UNL A   1      45.594  23.533  39.674  1.00  0.00    -0.206 F 
ATOM     81  C   UNL A   1      45.990  21.953  38.009  1.00  0.00     0.059 A 
ATOM     82  C   UNL A   1      45.485  22.435  35.712  1.00  0.00     0.059 A 
ATOM     83  F   UNL A   1      44.797  24.522  35.056  1.00  0.00    -0.206 F 
ATOM     84  C   UNL A   1      45.965  21.565  36.676  1.00  0.00     0.060 A 
BRANCH  84  85
ATOM     85  S   UNL A   1      46.580  19.939  36.193  1.00  0.00     0.124 S 
ATOM     86  O   UNL A   1      45.406  19.100  36.410  1.00  0.00    -0.237 OA
ATOM     87  O   UNL A   1      46.968  20.147  34.802  1.00  0.00    -0.237 OA
ATOM     88  O   UNL A   1      47.689  19.711  37.116  1.00  0.00    -0.744 OA
ENDBRANCH  84  85
ENDBRANCH  63  77
BRANCH  64  89
ATOM     89  C   UNL A   1      43.221  33.594  38.131  1.00  0.00     0.058 A 
ATOM     90  C   UNL A   1      43.360  34.772  37.371  1.00  0.00     0.135 A 
ATOM     91  C   UNL A   1      41.928  33.076  38.301  1.00  0.00     0.135 A 
ATOM     92  F   UNL A   1      44.574  35.320  37.200  1.00  0.00    -0.206 F 
ATOM     93  C   UNL A   1      42.302  35.287  36.633  1.00  0.00     0.059 A 
ATOM     94  C   UNL A   1      40.848  33.588  37.579  1.00  0.00     0.059 A 
ATOM     95  F   UNL A   1      41.734  31.965  39.028  1.00  0.00    -0.206 F 
ATOM     96  C   UNL A   1      41.075  34.630  36.678  1.00  0.00     0.060 A 
BRANCH  96  97
ATOM     97  S   UNL A   1      39.871  35.021  35.385  1.00  0.00     0.124 S 
ATOM     98  O   UNL A   1      38.743  34.168  35.747  1.00  0.00    -0.237 OA
ATOM     99  O   UNL A   1      39.666  36.455  35.595  1.00  0.00    -0.237 OA
ATOM    100  O   UNL A   1      40.566  34.663  34.155  1.00  0.00    -0.744 OA
ENDBRANCH  96  97
ENDBRANCH  64  89
BRANCH  76 101
ATOM    101  C   UNL A   1      46.043  28.560  42.501  1.00  0.00     0.058 A 
ATOM    102  C   UNL A   1      47.282  28.246  43.088  1.00  0.00     0.135 A 
ATOM    103  C   UNL A   1      44.924  28.487  43.362  1.00  0.00     0.135 A 
ATOM    104  F   UNL A   1      48.431  28.397  42.413  1.00  0.00    -0.206 F 
ATOM    105  C   UNL A   1      47.395  27.802  44.407  1.00  0.00     0.059 A 
ATOM    106  C   UNL A   1      45.020  28.097  44.697  1.00  0.00     0.059 A 
ATOM    107  F   UNL A   1      43.693  28.798  42.931  1.00  0.00    -0.206 F 
ATOM    108  C   UNL A   1      46.257  27.723  45.203  1.00  0.00     0.060 A 
BRANCH 108 109
ATOM    109  S   UNL A   1      46.393  27.183  46.918  1.00  0.00     0.124 S 
ATOM    110  O   UNL A   1      44.992  26.972  47.269  1.00  0.00    -0.237 OA
ATOM    111  O   UNL A   1      47.204  25.972  46.817  1.00  0.00    -0.237 OA
ATOM    112  O   UNL A   1      47.047  28.312  47.571  1.00  0.00    -0.744 OA
ENDBRANCH 108 109
ENDBRANCH  76 101
ENDBRANCH  50  51
ENDBRANCH  42  45
ENDBRANCH  40  41
ENDBRANCH  39  40
ENDBRANCH  38  39
ENDBRANCH   1  38
TORSDOF 20
ENDMDL
