MODEL 1
REMARK VINA RESULT:     -12.3      0.000      0.000
REMARK SMILES C[C@H]1CCCC[C@H]1[N@H+]1[C@@H](C(=O)NCCCCNC(=O)c2ccc(-c3c4nc(c(-c5c(F)cc(S(=O)(=O)[O-])cc5F)c5ccc([nH]5)c(-c5c(F)cc(S(=O)(=O)[O-])cc5F)c5nc(c(-c6c(F)cc(S(=O)(=O)[O-])cc6F)c6ccc3[nH]6)C=C5)C=C4)cc2)CC[C@@H]2CCCC[C@@H]21
REMARK SMILES IDX 15 1 14 2 13 3 12 4 10 5 11 6 9 8 8 9 93 10 86 12 88 13
REMARK SMILES IDX 92 14 87 15 89 16 91 17 90 18 7 19 1 20 2 21 3 22 4 23 6 24
REMARK SMILES IDX 5 25 16 26 17 27 18 28 19 30 20 31 21 32 85 33 22 34 84 35
REMARK SMILES IDX 23 36 24 37 25 38 78 39 26 40 83 41 77 42 79 43 27 44 82 45
REMARK SMILES IDX 76 46 75 47 28 49 62 50 41 51 61 52 42 53 45 54 60 55 80 56
REMARK SMILES IDX 43 57 44 58 59 60 81 61 46 62 29 63 30 64 39 65 31 66 32 67
REMARK SMILES IDX 38 68 40 69 33 70 34 71 35 72 36 73 37 74 63 75 64 76 73 77
REMARK SMILES IDX 65 78 66 79 72 80 74 81 67 82 68 83 69 84 70 85 71 86 47 87
REMARK SMILES IDX 48 88 57 89 49 90 50 91 56 92 58 93 51 94 52 95 53 96 54 97
REMARK SMILES IDX 55 98
REMARK H PARENT 12 7 8 11 17 29 79 48 45 59
REMARK Flexibility Score: inf
ROOT
ATOM      1  C   UNL A   1      33.726  28.051  25.723  1.00  0.00     0.023 C 
ENDROOT
BRANCH   1   2
ATOM      2  C   UNL A   1      33.560  29.235  24.773  1.00  0.00     0.023 C 
BRANCH   2   3
ATOM      3  C   UNL A   1      32.908  28.900  23.435  1.00  0.00     0.116 C 
BRANCH   3   4
ATOM      4  N   UNL A   1      33.620  27.896  22.652  1.00  0.00    -0.351 N 
ATOM      5  C   UNL A   1      33.288  26.586  22.383  1.00  0.00     0.278 C 
ATOM      6  O   UNL A   1      33.867  26.019  21.452  1.00  0.00    -0.268 OA
ATOM      7  H   UNL A   1      34.466  28.202  22.255  1.00  0.00     0.163 HD
BRANCH   5   8
ATOM      8  C   UNL A   1      32.157  25.916  23.148  1.00  0.00     0.274 C 
ATOM      9  N   UNL A   1      32.281  24.522  23.670  1.00  0.00    -0.319 N 
ATOM     10  C   UNL A   1      30.959  24.046  24.203  1.00  0.00     0.188 C 
ATOM     11  H   UNL A   1      32.970  24.674  24.406  1.00  0.00     0.349 HD
ATOM     12  C   UNL A   1      30.778  26.225  22.560  1.00  0.00     0.076 C 
ATOM     13  C   UNL A   1      30.105  25.204  24.796  1.00  0.00     0.048 C 
ATOM     14  C   UNL A   1      30.979  22.912  25.261  1.00  0.00     0.065 C 
ATOM     15  C   UNL A   1      29.757  26.239  23.707  1.00  0.00     0.016 C 
ATOM     16  C   UNL A   1      30.761  25.805  26.071  1.00  0.00     0.010 C 
ATOM     17  C   UNL A   1      30.986  23.389  26.715  1.00  0.00     0.006 C 
ATOM     18  C   UNL A   1      31.591  24.776  26.850  1.00  0.00     0.001 C 
BRANCH   9  19
ATOM     19  C   UNL A   1      33.141  23.475  23.049  1.00  0.00     0.187 C 
ATOM     20  C   UNL A   1      35.488  23.848  24.205  1.00  0.00     0.014 C 
ATOM     21  C   UNL A   1      34.402  22.881  23.742  1.00  0.00     0.044 C 
ATOM     22  C   UNL A   1      34.005  21.912  24.846  1.00  0.00     0.009 C 
ATOM     23  C   UNL A   1      33.290  20.695  24.272  1.00  0.00     0.001 C 
ATOM     24  C   UNL A   1      32.422  22.282  22.366  1.00  0.00     0.065 C 
ATOM     25  C   UNL A   1      32.316  20.952  23.121  1.00  0.00     0.006 C 
ENDBRANCH   9  19
ENDBRANCH   5   8
ENDBRANCH   3   4
ENDBRANCH   2   3
ENDBRANCH   1   2
BRANCH   1  26
ATOM     26  C   UNL A   1      33.392  28.340  27.184  1.00  0.00     0.116 C 
BRANCH  26  27
ATOM     27  N   UNL A   1      33.346  29.762  27.489  1.00  0.00    -0.352 N 
ATOM     28  C   UNL A   1      34.313  30.577  28.025  1.00  0.00     0.251 C 
ATOM     29  H   UNL A   1      32.494  30.208  27.279  1.00  0.00     0.163 HD
ATOM     30  O   UNL A   1      34.030  31.735  28.331  1.00  0.00    -0.269 OA
BRANCH  28  31
ATOM     31  C   UNL A   1      35.679  30.060  28.264  1.00  0.00     0.039 A 
ATOM     32  C   UNL A   1      36.597  30.068  27.210  1.00  0.00     0.014 A 
ATOM     33  C   UNL A   1      36.060  29.573  29.517  1.00  0.00     0.014 A 
ATOM     34  C   UNL A   1      37.915  29.658  27.433  1.00  0.00     0.010 A 
ATOM     35  C   UNL A   1      37.391  29.239  29.757  1.00  0.00     0.010 A 
ATOM     36  C   UNL A   1      38.334  29.281  28.719  1.00  0.00    -0.014 A 
BRANCH  36  37
ATOM     37  C   UNL A   1      39.755  28.940  28.999  1.00  0.00     0.031 A 
ATOM     38  C   UNL A   1      40.685  29.975  29.575  1.00  0.00     0.074 A 
ATOM     39  C   UNL A   1      40.222  27.716  28.679  1.00  0.00     0.049 A 
ATOM     40  N   UNL A   1      41.968  29.890  29.814  1.00  0.00    -0.248 NA
ATOM     41  C   UNL A   1      40.101  31.285  29.907  1.00  0.00     0.031 C 
ATOM     42  C   UNL A   1      39.433  26.639  28.076  1.00  0.00     0.029 A 
ATOM     43  N   UNL A   1      41.477  27.172  28.804  1.00  0.00    -0.354 N 
ATOM     44  C   UNL A   1      42.345  31.130  30.316  1.00  0.00     0.074 A 
ATOM     45  C   UNL A   1      41.167  31.970  30.295  1.00  0.00     0.031 C 
ATOM     46  C   UNL A   1      40.214  25.560  27.904  1.00  0.00     0.029 A 
ATOM     47  C   UNL A   1      41.571  25.880  28.339  1.00  0.00     0.049 A 
ATOM     48  H   UNL A   1      42.239  27.661  29.191  1.00  0.00     0.167 HD
ATOM     49  C   UNL A   1      43.555  31.525  30.778  1.00  0.00     0.037 A 
ATOM     50  C   UNL A   1      42.630  25.051  28.257  1.00  0.00     0.037 A 
ATOM     51  C   UNL A   1      44.721  30.679  30.815  1.00  0.00     0.049 A 
ATOM     52  C   UNL A   1      43.971  25.526  28.753  1.00  0.00     0.074 A 
ATOM     53  C   UNL A   1      45.982  30.975  31.302  1.00  0.00     0.029 A 
ATOM     54  N   UNL A   1      44.771  29.373  30.349  1.00  0.00    -0.354 N 
ATOM     55  N   UNL A   1      44.294  26.684  29.279  1.00  0.00    -0.248 NA
ATOM     56  C   UNL A   1      45.092  24.581  28.651  1.00  0.00     0.031 C 
ATOM     57  C   UNL A   1      46.808  29.867  31.086  1.00  0.00     0.029 A 
ATOM     58  C   UNL A   1      46.046  28.858  30.519  1.00  0.00     0.049 A 
ATOM     59  H   UNL A   1      44.012  28.885  29.955  1.00  0.00     0.167 HD
ATOM     60  C   UNL A   1      45.644  26.592  29.602  1.00  0.00     0.074 A 
ATOM     61  C   UNL A   1      46.073  25.261  29.226  1.00  0.00     0.031 C 
ATOM     62  C   UNL A   1      46.456  27.525  30.158  1.00  0.00     0.037 A 
BRANCH  49  63
ATOM     63  C   UNL A   1      43.688  32.930  31.301  1.00  0.00     0.058 A 
ATOM     64  C   UNL A   1      43.469  33.233  32.655  1.00  0.00     0.135 A 
ATOM     65  C   UNL A   1      44.109  33.972  30.458  1.00  0.00     0.135 A 
ATOM     66  F   UNL A   1      43.049  32.280  33.502  1.00  0.00    -0.206 F 
ATOM     67  C   UNL A   1      43.648  34.519  33.151  1.00  0.00     0.059 A 
ATOM     68  C   UNL A   1      44.323  35.260  30.940  1.00  0.00     0.059 A 
ATOM     69  F   UNL A   1      44.330  33.739  29.155  1.00  0.00    -0.206 F 
ATOM     70  C   UNL A   1      44.082  35.526  32.287  1.00  0.00     0.060 A 
BRANCH  70  71
ATOM     71  S   UNL A   1      44.346  37.181  32.959  1.00  0.00     0.124 S 
ATOM     72  O   UNL A   1      43.275  37.268  33.946  1.00  0.00    -0.237 OA
ATOM     73  O   UNL A   1      45.699  37.083  33.498  1.00  0.00    -0.237 OA
ATOM     74  O   UNL A   1      44.198  38.049  31.796  1.00  0.00    -0.744 OA
ENDBRANCH  70  71
ENDBRANCH  49  63
BRANCH  50  75
ATOM     75  C   UNL A   1      42.477  23.684  27.685  1.00  0.00     0.058 A 
ATOM     76  C   UNL A   1      42.326  22.564  28.518  1.00  0.00     0.135 A 
ATOM     77  C   UNL A   1      42.510  23.464  26.300  1.00  0.00     0.135 A 
ATOM     78  F   UNL A   1      42.292  22.718  29.851  1.00  0.00    -0.206 F 
ATOM     79  C   UNL A   1      42.253  21.274  28.001  1.00  0.00     0.059 A 
ATOM     80  C   UNL A   1      42.406  22.188  25.758  1.00  0.00     0.059 A 
ATOM     81  F   UNL A   1      42.633  24.502  25.457  1.00  0.00    -0.206 F 
ATOM     82  C   UNL A   1      42.298  21.096  26.617  1.00  0.00     0.060 A 
BRANCH  82  83
ATOM     83  S   UNL A   1      42.196  19.419  25.955  1.00  0.00     0.124 S 
ATOM     84  O   UNL A   1      43.038  19.521  24.769  1.00  0.00    -0.237 OA
ATOM     85  O   UNL A   1      42.733  18.622  27.054  1.00  0.00    -0.237 OA
ATOM     86  O   UNL A   1      40.768  19.245  25.703  1.00  0.00    -0.744 OA
ENDBRANCH  82  83
ENDBRANCH  50  75
BRANCH  62  87
ATOM     87  C   UNL A   1      47.879  27.128  30.446  1.00  0.00     0.058 A 
ATOM     88  C   UNL A   1      48.921  27.399  29.547  1.00  0.00     0.135 A 
ATOM     89  C   UNL A   1      48.209  26.512  31.665  1.00  0.00     0.135 A 
ATOM     90  F   UNL A   1      48.660  27.979  28.365  1.00  0.00    -0.206 F 
ATOM     91  C   UNL A   1      50.237  27.050  29.833  1.00  0.00     0.059 A 
ATOM     92  C   UNL A   1      49.522  26.184  31.987  1.00  0.00     0.059 A 
ATOM     93  F   UNL A   1      47.252  26.240  32.567  1.00  0.00    -0.206 F 
ATOM     94  C   UNL A   1      50.528  26.447  31.059  1.00  0.00     0.060 A 
BRANCH  94  95
ATOM     95  S   UNL A   1      52.246  26.033  31.432  1.00  0.00     0.124 S 
ATOM     96  O   UNL A   1      52.111  24.695  31.996  1.00  0.00    -0.237 OA
ATOM     97  O   UNL A   1      52.875  26.107  30.117  1.00  0.00    -0.237 OA
ATOM     98  O   UNL A   1      52.649  27.074  32.372  1.00  0.00    -0.744 OA
ENDBRANCH  94  95
ENDBRANCH  62  87
ENDBRANCH  36  37
ENDBRANCH  28  31
ENDBRANCH  26  27
ENDBRANCH   1  26
TORSDOF 15
ENDMDL
MODEL 2
REMARK VINA RESULT:     -12.0      4.791     10.361
REMARK SMILES C[C@H]1CCCC[C@H]1[N@H+]1[C@@H](C(=O)NCCCCNC(=O)c2ccc(-c3c4nc(c(-c5c(F)cc(S(=O)(=O)[O-])cc5F)c5ccc([nH]5)c(-c5c(F)cc(S(=O)(=O)[O-])cc5F)c5nc(c(-c6c(F)cc(S(=O)(=O)[O-])cc6F)c6ccc3[nH]6)C=C5)C=C4)cc2)CC[C@@H]2CCCC[C@@H]21
REMARK SMILES IDX 15 1 14 2 13 3 12 4 10 5 11 6 9 8 8 9 93 10 86 12 88 13
REMARK SMILES IDX 92 14 87 15 89 16 91 17 90 18 7 19 1 20 2 21 3 22 4 23 6 24
REMARK SMILES IDX 5 25 16 26 17 27 18 28 19 30 20 31 21 32 85 33 22 34 84 35
REMARK SMILES IDX 23 36 24 37 25 38 78 39 26 40 83 41 77 42 79 43 27 44 82 45
REMARK SMILES IDX 76 46 75 47 28 49 62 50 41 51 61 52 42 53 45 54 60 55 80 56
REMARK SMILES IDX 43 57 44 58 59 60 81 61 46 62 29 63 30 64 39 65 31 66 32 67
REMARK SMILES IDX 38 68 40 69 33 70 34 71 35 72 36 73 37 74 63 75 64 76 73 77
REMARK SMILES IDX 65 78 66 79 72 80 74 81 67 82 68 83 69 84 70 85 71 86 47 87
REMARK SMILES IDX 48 88 57 89 49 90 50 91 56 92 58 93 51 94 52 95 53 96 54 97
REMARK SMILES IDX 55 98
REMARK H PARENT 12 7 8 11 17 29 79 48 45 59
REMARK Flexibility Score: inf
ROOT
ATOM      1  C   UNL A   1      37.262  23.273  25.509  1.00  0.00     0.023 C 
ENDROOT
BRANCH   1   2
ATOM      2  C   UNL A   1      35.763  23.503  25.688  1.00  0.00     0.023 C 
BRANCH   2   3
ATOM      3  C   UNL A   1      35.058  22.489  26.583  1.00  0.00     0.116 C 
BRANCH   3   4
ATOM      4  N   UNL A   1      33.913  23.022  27.313  1.00  0.00    -0.351 N 
ATOM      5  C   UNL A   1      32.640  23.310  26.873  1.00  0.00     0.278 C 
ATOM      6  O   UNL A   1      31.751  23.454  27.717  1.00  0.00    -0.268 OA
ATOM      7  H   UNL A   1      34.076  23.203  28.267  1.00  0.00     0.163 HD
BRANCH   5   8
ATOM      8  C   UNL A   1      32.338  23.331  25.382  1.00  0.00     0.274 C 
ATOM      9  N   UNL A   1      31.824  24.559  24.703  1.00  0.00    -0.319 N 
ATOM     10  C   UNL A   1      31.427  24.243  23.289  1.00  0.00     0.188 C 
ATOM     11  H   UNL A   1      32.657  25.146  24.757  1.00  0.00     0.349 HD
ATOM     12  C   UNL A   1      31.673  22.042  24.893  1.00  0.00     0.076 C 
ATOM     13  C   UNL A   1      32.295  23.112  22.665  1.00  0.00     0.048 C 
ATOM     14  C   UNL A   1      31.411  25.414  22.271  1.00  0.00     0.065 C 
ATOM     15  C   UNL A   1      32.114  21.793  23.443  1.00  0.00     0.016 C 
ATOM     16  C   UNL A   1      33.773  23.557  22.485  1.00  0.00     0.010 C 
ATOM     17  C   UNL A   1      32.711  25.599  21.484  1.00  0.00     0.006 C 
ATOM     18  C   UNL A   1      33.911  25.066  22.246  1.00  0.00     0.001 C 
BRANCH   9  19
ATOM     19  C   UNL A   1      31.013  25.607  25.383  1.00  0.00     0.187 C 
ATOM     20  C   UNL A   1      32.834  27.165  26.496  1.00  0.00     0.014 C 
ATOM     21  C   UNL A   1      31.544  27.038  25.690  1.00  0.00     0.044 C 
ATOM     22  C   UNL A   1      31.587  27.880  24.424  1.00  0.00     0.009 C 
ATOM     23  C   UNL A   1      30.185  28.116  23.879  1.00  0.00     0.001 C 
ATOM     24  C   UNL A   1      29.546  25.785  24.908  1.00  0.00     0.065 C 
ATOM     25  C   UNL A   1      29.211  26.939  23.956  1.00  0.00     0.006 C 
ENDBRANCH   9  19
ENDBRANCH   5   8
ENDBRANCH   3   4
ENDBRANCH   2   3
ENDBRANCH   1   2
BRANCH   1  26
ATOM     26  C   UNL A   1      38.160  24.117  26.410  1.00  0.00     0.116 C 
BRANCH  26  27
ATOM     27  N   UNL A   1      39.578  23.855  26.211  1.00  0.00    -0.352 N 
ATOM     28  C   UNL A   1      40.672  24.535  26.687  1.00  0.00     0.251 C 
ATOM     29  H   UNL A   1      39.784  23.071  25.652  1.00  0.00     0.163 HD
ATOM     30  O   UNL A   1      41.796  24.228  26.292  1.00  0.00    -0.269 OA
BRANCH  28  31
ATOM     31  C   UNL A   1      40.501  25.651  27.643  1.00  0.00     0.039 A 
ATOM     32  C   UNL A   1      39.490  25.567  28.604  1.00  0.00     0.014 A 
ATOM     33  C   UNL A   1      41.331  26.775  27.600  1.00  0.00     0.014 A 
ATOM     34  C   UNL A   1      39.360  26.573  29.567  1.00  0.00     0.010 A 
ATOM     35  C   UNL A   1      41.251  27.736  28.605  1.00  0.00     0.010 A 
ATOM     36  C   UNL A   1      40.267  27.645  29.602  1.00  0.00    -0.014 A 
BRANCH  36  37
ATOM     37  C   UNL A   1      40.210  28.670  30.678  1.00  0.00     0.031 A 
ATOM     38  C   UNL A   1      41.094  28.547  31.891  1.00  0.00     0.074 A 
ATOM     39  C   UNL A   1      39.320  29.680  30.590  1.00  0.00     0.049 A 
ATOM     40  N   UNL A   1      41.132  29.294  32.964  1.00  0.00    -0.248 NA
ATOM     41  C   UNL A   1      42.046  27.425  31.912  1.00  0.00     0.031 C 
ATOM     42  C   UNL A   1      38.379  29.885  29.487  1.00  0.00     0.029 A 
ATOM     43  N   UNL A   1      39.050  30.718  31.449  1.00  0.00    -0.354 N 
ATOM     44  C   UNL A   1      42.102  28.733  33.786  1.00  0.00     0.074 A 
ATOM     45  C   UNL A   1      42.590  27.549  33.114  1.00  0.00     0.031 C 
ATOM     46  C   UNL A   1      37.652  30.989  29.725  1.00  0.00     0.029 A 
ATOM     47  C   UNL A   1      38.040  31.546  31.018  1.00  0.00     0.049 A 
ATOM     48  H   UNL A   1      39.536  30.856  32.295  1.00  0.00     0.167 HD
ATOM     49  C   UNL A   1      42.563  29.179  34.979  1.00  0.00     0.037 A 
ATOM     50  C   UNL A   1      37.479  32.623  31.601  1.00  0.00     0.037 A 
ATOM     51  C   UNL A   1      42.087  30.370  35.636  1.00  0.00     0.049 A 
ATOM     52  C   UNL A   1      37.993  33.080  32.942  1.00  0.00     0.074 A 
ATOM     53  C   UNL A   1      42.521  30.925  36.827  1.00  0.00     0.029 A 
ATOM     54  N   UNL A   1      41.074  31.189  35.159  1.00  0.00    -0.354 N 
ATOM     55  N   UNL A   1      38.952  32.569  33.676  1.00  0.00    -0.248 NA
ATOM     56  C   UNL A   1      37.353  34.265  33.532  1.00  0.00     0.031 C 
ATOM     57  C   UNL A   1      41.737  32.052  37.096  1.00  0.00     0.029 A 
ATOM     58  C   UNL A   1      40.856  32.234  36.043  1.00  0.00     0.049 A 
ATOM     59  H   UNL A   1      40.583  31.049  34.318  1.00  0.00     0.167 HD
ATOM     60  C   UNL A   1      39.053  33.390  34.795  1.00  0.00     0.074 A 
ATOM     61  C   UNL A   1      38.069  34.438  34.633  1.00  0.00     0.031 C 
ATOM     62  C   UNL A   1      39.886  33.284  35.860  1.00  0.00     0.037 A 
BRANCH  49  63
ATOM     63  C   UNL A   1      43.652  28.390  35.654  1.00  0.00     0.058 A 
ATOM     64  C   UNL A   1      45.010  28.647  35.401  1.00  0.00     0.135 A 
ATOM     65  C   UNL A   1      43.341  27.416  36.618  1.00  0.00     0.135 A 
ATOM     66  F   UNL A   1      45.365  29.554  34.478  1.00  0.00    -0.206 F 
ATOM     67  C   UNL A   1      46.018  27.960  36.068  1.00  0.00     0.059 A 
ATOM     68  C   UNL A   1      44.333  26.737  37.319  1.00  0.00     0.059 A 
ATOM     69  F   UNL A   1      42.060  27.128  36.897  1.00  0.00    -0.206 F 
ATOM     70  C   UNL A   1      45.670  27.011  37.031  1.00  0.00     0.060 A 
BRANCH  70  71
ATOM     71  S   UNL A   1      46.993  26.156  37.913  1.00  0.00     0.124 S 
ATOM     72  O   UNL A   1      46.604  26.375  39.303  1.00  0.00    -0.237 OA
ATOM     73  O   UNL A   1      46.857  24.788  37.425  1.00  0.00    -0.237 OA
ATOM     74  O   UNL A   1      48.198  26.857  37.483  1.00  0.00    -0.744 OA
ENDBRANCH  70  71
ENDBRANCH  49  63
BRANCH  50  75
ATOM     75  C   UNL A   1      36.365  33.352  30.930  1.00  0.00     0.058 A 
ATOM     76  C   UNL A   1      36.607  34.185  29.827  1.00  0.00     0.135 A 
ATOM     77  C   UNL A   1      35.045  33.256  31.396  1.00  0.00     0.135 A 
ATOM     78  F   UNL A   1      37.853  34.315  29.345  1.00  0.00    -0.206 F 
ATOM     79  C   UNL A   1      35.590  34.926  29.235  1.00  0.00     0.059 A 
ATOM     80  C   UNL A   1      34.005  33.961  30.801  1.00  0.00     0.059 A 
ATOM     81  F   UNL A   1      34.755  32.459  32.437  1.00  0.00    -0.206 F 
ATOM     82  C   UNL A   1      34.290  34.810  29.733  1.00  0.00     0.060 A 
BRANCH  82  83
ATOM     83  S   UNL A   1      32.975  35.771  28.954  1.00  0.00     0.124 S 
ATOM     84  O   UNL A   1      33.734  36.832  28.303  1.00  0.00    -0.237 OA
ATOM     85  O   UNL A   1      32.360  34.788  28.067  1.00  0.00    -0.237 OA
ATOM     86  O   UNL A   1      32.150  36.187  30.085  1.00  0.00    -0.744 OA
ENDBRANCH  82  83
ENDBRANCH  50  75
BRANCH  62  87
ATOM     87  C   UNL A   1      39.809  34.357  36.913  1.00  0.00     0.058 A 
ATOM     88  C   UNL A   1      40.508  35.567  36.791  1.00  0.00     0.135 A 
ATOM     89  C   UNL A   1      38.981  34.189  38.035  1.00  0.00     0.135 A 
ATOM     90  F   UNL A   1      41.318  35.777  35.741  1.00  0.00    -0.206 F 
ATOM     91  C   UNL A   1      40.411  36.563  37.758  1.00  0.00     0.059 A 
ATOM     92  C   UNL A   1      38.843  35.184  38.998  1.00  0.00     0.059 A 
ATOM     93  F   UNL A   1      38.281  33.055  38.196  1.00  0.00    -0.206 F 
ATOM     94  C   UNL A   1      39.571  36.364  38.856  1.00  0.00     0.060 A 
BRANCH  94  95
ATOM     95  S   UNL A   1      39.427  37.679  40.084  1.00  0.00     0.124 S 
ATOM     96  O   UNL A   1      38.261  38.409  39.599  1.00  0.00    -0.237 OA
ATOM     97  O   UNL A   1      39.235  36.929  41.321  1.00  0.00    -0.237 OA
ATOM     98  O   UNL A   1      40.700  38.385  39.977  1.00  0.00    -0.744 OA
ENDBRANCH  94  95
ENDBRANCH  62  87
ENDBRANCH  36  37
ENDBRANCH  28  31
ENDBRANCH  26  27
ENDBRANCH   1  26
TORSDOF 15
ENDMDL
MODEL 3
REMARK VINA RESULT:     -11.8      2.862      9.182
REMARK SMILES C[C@H]1CCCC[C@H]1[N@H+]1[C@@H](C(=O)NCCCCNC(=O)c2ccc(-c3c4nc(c(-c5c(F)cc(S(=O)(=O)[O-])cc5F)c5ccc([nH]5)c(-c5c(F)cc(S(=O)(=O)[O-])cc5F)c5nc(c(-c6c(F)cc(S(=O)(=O)[O-])cc6F)c6ccc3[nH]6)C=C5)C=C4)cc2)CC[C@@H]2CCCC[C@@H]21
REMARK SMILES IDX 15 1 14 2 13 3 12 4 10 5 11 6 9 8 8 9 93 10 86 12 88 13
REMARK SMILES IDX 92 14 87 15 89 16 91 17 90 18 7 19 1 20 2 21 3 22 4 23 6 24
REMARK SMILES IDX 5 25 16 26 17 27 18 28 19 30 20 31 21 32 85 33 22 34 84 35
REMARK SMILES IDX 23 36 24 37 25 38 78 39 26 40 83 41 77 42 79 43 27 44 82 45
REMARK SMILES IDX 76 46 75 47 28 49 62 50 41 51 61 52 42 53 45 54 60 55 80 56
REMARK SMILES IDX 43 57 44 58 59 60 81 61 46 62 29 63 30 64 39 65 31 66 32 67
REMARK SMILES IDX 38 68 40 69 33 70 34 71 35 72 36 73 37 74 63 75 64 76 73 77
REMARK SMILES IDX 65 78 66 79 72 80 74 81 67 82 68 83 69 84 70 85 71 86 47 87
REMARK SMILES IDX 48 88 57 89 49 90 50 91 56 92 58 93 51 94 52 95 53 96 54 97
REMARK SMILES IDX 55 98
REMARK H PARENT 12 7 8 11 17 29 79 48 45 59
REMARK Flexibility Score: inf
ROOT
ATOM      1  C   UNL A   1      35.623  23.021  25.268  1.00  0.00     0.023 C 
ENDROOT
BRANCH   1   2
ATOM      2  C   UNL A   1      34.821  23.484  26.481  1.00  0.00     0.023 C 
BRANCH   2   3
ATOM      3  C   UNL A   1      33.762  22.499  26.967  1.00  0.00     0.116 C 
BRANCH   3   4
ATOM      4  N   UNL A   1      32.517  23.120  27.407  1.00  0.00    -0.351 N 
ATOM      5  C   UNL A   1      31.456  23.597  26.669  1.00  0.00     0.278 C 
ATOM      6  O   UNL A   1      30.385  23.792  27.248  1.00  0.00    -0.268 OA
ATOM      7  H   UNL A   1      32.421  23.212  28.382  1.00  0.00     0.163 HD
BRANCH   5   8
ATOM      8  C   UNL A   1      31.593  23.760  25.162  1.00  0.00     0.274 C 
ATOM      9  N   UNL A   1      31.323  25.066  24.487  1.00  0.00    -0.319 N 
ATOM     10  C   UNL A   1      31.338  24.893  22.995  1.00  0.00     0.188 C 
ATOM     11  H   UNL A   1      32.119  25.604  24.829  1.00  0.00     0.349 HD
ATOM     12  C   UNL A   1      31.065  22.552  24.384  1.00  0.00     0.076 C 
ATOM     13  C   UNL A   1      32.321  23.777  22.534  1.00  0.00     0.048 C 
ATOM     14  C   UNL A   1      31.640  26.145  22.131  1.00  0.00     0.065 C 
ATOM     15  C   UNL A   1      31.894  22.407  23.100  1.00  0.00     0.016 C 
ATOM     16  C   UNL A   1      33.799  24.162  22.822  1.00  0.00     0.010 C 
ATOM     17  C   UNL A   1      33.114  26.332  21.763  1.00  0.00     0.006 C 
ATOM     18  C   UNL A   1      34.035  25.677  22.778  1.00  0.00     0.001 C 
BRANCH   9  19
ATOM     19  C   UNL A   1      30.376  26.091  25.009  1.00  0.00     0.187 C 
ATOM     20  C   UNL A   1      31.783  27.333  26.869  1.00  0.00     0.014 C 
ATOM     21  C   UNL A   1      30.835  27.421  25.676  1.00  0.00     0.044 C 
ATOM     22  C   UNL A   1      31.338  28.404  24.630  1.00  0.00     0.009 C 
ATOM     23  C   UNL A   1      30.211  28.829  23.696  1.00  0.00     0.001 C 
ATOM     24  C   UNL A   1      29.163  26.456  24.112  1.00  0.00     0.065 C 
ATOM     25  C   UNL A   1      29.219  27.742  23.280  1.00  0.00     0.006 C 
ENDBRANCH   9  19
ENDBRANCH   5   8
ENDBRANCH   3   4
ENDBRANCH   2   3
ENDBRANCH   1   2
BRANCH   1  26
ATOM     26  C   UNL A   1      37.008  23.648  25.128  1.00  0.00     0.116 C 
BRANCH  26  27
ATOM     27  N   UNL A   1      38.089  22.708  25.385  1.00  0.00    -0.352 N 
ATOM     28  C   UNL A   1      39.273  22.894  26.056  1.00  0.00     0.251 C 
ATOM     29  H   UNL A   1      37.951  21.801  25.026  1.00  0.00     0.163 HD
ATOM     30  O   UNL A   1      40.121  22.002  26.050  1.00  0.00    -0.269 OA
BRANCH  28  31
ATOM     31  C   UNL A   1      39.545  24.170  26.755  1.00  0.00     0.039 A 
ATOM     32  C   UNL A   1      39.004  24.369  28.028  1.00  0.00     0.014 A 
ATOM     33  C   UNL A   1      40.329  25.165  26.166  1.00  0.00     0.014 A 
ATOM     34  C   UNL A   1      39.311  25.533  28.739  1.00  0.00     0.010 A 
ATOM     35  C   UNL A   1      40.697  26.287  26.905  1.00  0.00     0.010 A 
ATOM     36  C   UNL A   1      40.196  26.483  28.201  1.00  0.00    -0.014 A 
BRANCH  36  37
ATOM     37  C   UNL A   1      40.616  27.676  28.983  1.00  0.00     0.031 A 
ATOM     38  C   UNL A   1      41.941  27.688  29.698  1.00  0.00     0.074 A 
ATOM     39  C   UNL A   1      39.778  28.727  29.096  1.00  0.00     0.049 A 
ATOM     40  N   UNL A   1      42.445  28.600  30.489  1.00  0.00    -0.248 NA
ATOM     41  C   UNL A   1      42.805  26.509  29.521  1.00  0.00     0.031 C 
ATOM     42  C   UNL A   1      38.450  28.821  28.487  1.00  0.00     0.029 A 
ATOM     43  N   UNL A   1      39.912  29.915  29.774  1.00  0.00    -0.354 N 
ATOM     44  C   UNL A   1      43.676  28.107  30.905  1.00  0.00     0.074 A 
ATOM     45  C   UNL A   1      43.820  26.789  30.326  1.00  0.00     0.031 C 
ATOM     46  C   UNL A   1      37.901  30.007  28.800  1.00  0.00     0.029 A 
ATOM     47  C   UNL A   1      38.816  30.740  29.670  1.00  0.00     0.049 A 
ATOM     48  H   UNL A   1      40.719  30.153  30.287  1.00  0.00     0.167 HD
ATOM     49  C   UNL A   1      44.613  28.708  31.676  1.00  0.00     0.037 A 
ATOM     50  C   UNL A   1      38.567  31.943  30.223  1.00  0.00     0.037 A 
ATOM     51  C   UNL A   1      44.473  30.029  32.235  1.00  0.00     0.049 A 
ATOM     52  C   UNL A   1      39.616  32.576  31.100  1.00  0.00     0.074 A 
ATOM     53  C   UNL A   1      45.384  30.740  32.996  1.00  0.00     0.029 A 
ATOM     54  N   UNL A   1      43.355  30.837  32.094  1.00  0.00    -0.354 N 
ATOM     55  N   UNL A   1      40.799  32.118  31.434  1.00  0.00    -0.248 NA
ATOM     56  C   UNL A   1      39.301  33.893  31.671  1.00  0.00     0.031 C 
ATOM     57  C   UNL A   1      44.799  31.958  33.357  1.00  0.00     0.029 A 
ATOM     58  C   UNL A   1      43.546  32.031  32.771  1.00  0.00     0.049 A 
ATOM     59  H   UNL A   1      42.545  30.598  31.588  1.00  0.00     0.167 HD
ATOM     60  C   UNL A   1      41.381  33.106  32.224  1.00  0.00     0.074 A 
ATOM     61  C   UNL A   1      40.426  34.191  32.305  1.00  0.00     0.031 C 
ATOM     62  C   UNL A   1      42.595  33.113  32.827  1.00  0.00     0.037 A 
BRANCH  49  63
ATOM     63  C   UNL A   1      45.886  27.956  31.955  1.00  0.00     0.058 A 
ATOM     64  C   UNL A   1      46.011  27.113  33.071  1.00  0.00     0.135 A 
ATOM     65  C   UNL A   1      46.967  28.020  31.061  1.00  0.00     0.135 A 
ATOM     66  F   UNL A   1      45.016  27.026  33.968  1.00  0.00    -0.206 F 
ATOM     67  C   UNL A   1      47.166  26.372  33.298  1.00  0.00     0.059 A 
ATOM     68  C   UNL A   1      48.121  27.265  31.253  1.00  0.00     0.059 A 
ATOM     69  F   UNL A   1      46.903  28.813  29.979  1.00  0.00    -0.206 F 
ATOM     70  C   UNL A   1      48.213  26.449  32.379  1.00  0.00     0.060 A 
BRANCH  70  71
ATOM     71  S   UNL A   1      49.688  25.450  32.672  1.00  0.00     0.124 S 
ATOM     72  O   UNL A   1      50.586  26.428  33.279  1.00  0.00    -0.237 OA
ATOM     73  O   UNL A   1      49.186  24.410  33.564  1.00  0.00    -0.237 OA
ATOM     74  O   UNL A   1      50.066  24.999  31.336  1.00  0.00    -0.744 OA
ENDBRANCH  70  71
ENDBRANCH  49  63
BRANCH  50  75
ATOM     75  C   UNL A   1      37.274  32.638  29.970  1.00  0.00     0.058 A 
ATOM     76  C   UNL A   1      37.182  33.678  29.032  1.00  0.00     0.135 A 
ATOM     77  C   UNL A   1      36.113  32.301  30.682  1.00  0.00     0.135 A 
ATOM     78  F   UNL A   1      38.264  34.043  28.327  1.00  0.00    -0.206 F 
ATOM     79  C   UNL A   1      35.999  34.383  28.836  1.00  0.00     0.059 A 
ATOM     80  C   UNL A   1      34.910  32.968  30.480  1.00  0.00     0.059 A 
ATOM     81  F   UNL A   1      36.140  31.301  31.578  1.00  0.00    -0.206 F 
ATOM     82  C   UNL A   1      34.867  34.022  29.569  1.00  0.00     0.060 A 
BRANCH  82  83
ATOM     83  S   UNL A   1      33.334  34.939  29.304  1.00  0.00     0.124 S 
ATOM     84  O   UNL A   1      32.788  34.993  30.655  1.00  0.00    -0.237 OA
ATOM     85  O   UNL A   1      33.822  36.202  28.760  1.00  0.00    -0.237 OA
ATOM     86  O   UNL A   1      32.601  34.099  28.360  1.00  0.00    -0.744 OA
ENDBRANCH  82  83
ENDBRANCH  50  75
BRANCH  62  87
ATOM     87  C   UNL A   1      42.987  34.351  33.587  1.00  0.00     0.058 A 
ATOM     88  C   UNL A   1      42.714  34.500  34.955  1.00  0.00     0.135 A 
ATOM     89  C   UNL A   1      43.694  35.381  32.944  1.00  0.00     0.135 A 
ATOM     90  F   UNL A   1      42.037  33.549  35.617  1.00  0.00    -0.206 F 
ATOM     91  C   UNL A   1      43.105  35.639  35.654  1.00  0.00     0.059 A 
ATOM     92  C   UNL A   1      44.122  36.513  33.630  1.00  0.00     0.059 A 
ATOM     93  F   UNL A   1      43.991  35.286  31.638  1.00  0.00    -0.206 F 
ATOM     94  C   UNL A   1      43.813  36.638  34.983  1.00  0.00     0.060 A 
BRANCH  94  95
ATOM     95  S   UNL A   1      44.343  38.093  35.912  1.00  0.00     0.124 S 
ATOM     96  O   UNL A   1      45.790  37.911  35.943  1.00  0.00    -0.237 OA
ATOM     97  O   UNL A   1      43.860  39.188  35.076  1.00  0.00    -0.237 OA
ATOM     98  O   UNL A   1      43.663  37.944  37.194  1.00  0.00    -0.744 OA
ENDBRANCH  94  95
ENDBRANCH  62  87
ENDBRANCH  36  37
ENDBRANCH  28  31
ENDBRANCH  26  27
ENDBRANCH   1  26
TORSDOF 15
ENDMDL
