MODEL 1
REMARK VINA RESULT:     -11.9      0.000      0.000
REMARK SMILES COc1ccc(C(=O)NCCCCNC(=O)c2ccc(-c3c4nc(c(-c5c(F)cc(S(=O)(=O)[O-])cc5F)c5ccc([nH]5)c(-c5c(F)cc(S(=O)(=O)[O-])cc5F)c5nc(c(-c6c(F)cc(S(=O)(=O)[O-])cc6F)c6ccc3[nH]6)C=C5)C=C4)cc2)cc1S(=O)(=O)N(C)Cc1cccc(F)c1
REMARK SMILES IDX 11 1 10 2 9 3 7 4 8 5 6 7 3 8 4 9 84 10 5 11 83 12 2 13 1 14
REMARK SMILES IDX 85 15 86 16 87 17 88 18 89 19 90 20 91 21 92 22 97 23 93 24
REMARK SMILES IDX 95 25 94 26 96 27 12 28 13 29 14 30 15 31 16 33 17 34 18 35
REMARK SMILES IDX 82 36 19 37 81 38 20 39 21 40 22 41 75 42 23 43 80 44 74 45
REMARK SMILES IDX 76 46 24 47 79 48 73 49 72 50 25 52 59 53 38 54 58 55 39 56
REMARK SMILES IDX 42 57 57 58 77 59 40 60 41 61 56 63 78 64 43 65 26 66 27 67
REMARK SMILES IDX 36 68 28 69 29 70 35 71 37 72 30 73 31 74 32 75 33 76 34 77
REMARK SMILES IDX 60 78 61 79 70 80 62 81 63 82 69 83 71 84 64 85 65 86 66 87
REMARK SMILES IDX 67 88 68 89 44 90 45 91 54 92 46 93 47 94 53 95 55 96 48 97
REMARK SMILES IDX 49 98 50 99 51 100 52 101
REMARK H PARENT 9 6 14 32 76 51 42 62
REMARK Flexibility Score: inf
ROOT
ATOM      1  C   UNL A   1      35.767  32.264  27.822  1.00  0.00     0.023 C 
ENDROOT
BRANCH   1   2
ATOM      2  C   UNL A   1      34.657  31.224  28.016  1.00  0.00     0.116 C 
BRANCH   2   3
ATOM      3  N   UNL A   1      33.393  31.698  27.467  1.00  0.00    -0.352 N 
ATOM      4  C   UNL A   1      32.344  31.062  26.848  1.00  0.00     0.251 C 
ATOM      5  O   UNL A   1      31.359  31.735  26.545  1.00  0.00    -0.269 OA
ATOM      6  H   UNL A   1      33.264  32.669  27.560  1.00  0.00     0.163 HD
BRANCH   4   7
ATOM      7  C   UNL A   1      32.320  29.598  26.554  1.00  0.00     0.041 A 
ATOM      8  C   UNL A   1      32.297  26.799  26.122  1.00  0.00     0.138 A 
ATOM      9  C   UNL A   1      31.861  27.333  27.338  1.00  0.00     0.049 A 
ATOM     10  C   UNL A   1      32.704  27.664  25.114  1.00  0.00     0.125 A 
ATOM     11  C   UNL A   1      31.899  28.719  27.561  1.00  0.00     0.018 A 
ATOM     12  C   UNL A   1      32.656  29.055  25.320  1.00  0.00     0.039 A 
BRANCH   8  13
ATOM     13  O   UNL A   1      32.143  25.458  25.917  1.00  0.00    -0.495 OA
ATOM     14  C   UNL A   1      30.772  25.069  25.959  1.00  0.00     0.278 C 
ENDBRANCH   8  13
BRANCH  10  15
ATOM     15  S   UNL A   1      33.415  27.152  23.576  1.00  0.00     0.246 S 
ATOM     16  O   UNL A   1      34.162  28.280  23.081  1.00  0.00    -0.207 OA
ATOM     17  O   UNL A   1      34.104  25.899  23.851  1.00  0.00    -0.207 OA
BRANCH  15  18
ATOM     18  N   UNL A   1      32.200  26.821  22.459  1.00  0.00    -0.196 NA
ATOM     19  C   UNL A   1      32.442  26.006  21.264  1.00  0.00     0.125 C 
BRANCH  18  20
ATOM     20  C   UNL A   1      30.842  26.692  23.048  1.00  0.00     0.137 C 
BRANCH  20  21
ATOM     21  C   UNL A   1      29.835  27.815  22.854  1.00  0.00    -0.030 A 
ATOM     22  C   UNL A   1      30.290  29.033  22.316  1.00  0.00     0.005 A 
ATOM     23  C   UNL A   1      28.481  27.733  23.215  1.00  0.00     0.044 A 
ATOM     24  C   UNL A   1      29.421  30.114  22.128  1.00  0.00     0.003 A 
ATOM     25  C   UNL A   1      27.622  28.810  23.022  1.00  0.00     0.123 A 
ATOM     26  C   UNL A   1      28.080  29.999  22.479  1.00  0.00     0.039 A 
ATOM     27  F   UNL A   1      26.332  28.688  23.360  1.00  0.00    -0.207 F 
ENDBRANCH  20  21
ENDBRANCH  18  20
ENDBRANCH  15  18
ENDBRANCH  10  15
ENDBRANCH   4   7
ENDBRANCH   2   3
ENDBRANCH   1   2
BRANCH   1  28
ATOM     28  C   UNL A   1      35.802  33.357  28.896  1.00  0.00     0.023 C 
BRANCH  28  29
ATOM     29  C   UNL A   1      36.728  33.063  30.073  1.00  0.00     0.116 C 
BRANCH  29  30
ATOM     30  N   UNL A   1      36.182  32.090  31.003  1.00  0.00    -0.352 N 
ATOM     31  C   UNL A   1      36.680  30.855  31.343  1.00  0.00     0.251 C 
ATOM     32  H   UNL A   1      35.344  32.349  31.448  1.00  0.00     0.163 HD
ATOM     33  O   UNL A   1      36.026  30.111  32.067  1.00  0.00    -0.269 OA
BRANCH  31  34
ATOM     34  C   UNL A   1      37.984  30.407  30.806  1.00  0.00     0.039 A 
ATOM     35  C   UNL A   1      38.105  30.204  29.428  1.00  0.00     0.014 A 
ATOM     36  C   UNL A   1      39.077  30.172  31.646  1.00  0.00     0.014 A 
ATOM     37  C   UNL A   1      39.330  29.804  28.889  1.00  0.00     0.010 A 
ATOM     38  C   UNL A   1      40.315  29.838  31.101  1.00  0.00     0.010 A 
ATOM     39  C   UNL A   1      40.450  29.636  29.719  1.00  0.00    -0.014 A 
BRANCH  39  40
ATOM     40  C   UNL A   1      41.759  29.217  29.159  1.00  0.00     0.031 A 
ATOM     41  C   UNL A   1      42.876  30.216  29.028  1.00  0.00     0.074 A 
ATOM     42  C   UNL A   1      41.925  27.955  28.720  1.00  0.00     0.049 A 
ATOM     43  N   UNL A   1      44.079  30.051  28.542  1.00  0.00    -0.248 NA
ATOM     44  C   UNL A   1      42.591  31.588  29.472  1.00  0.00     0.031 C 
ATOM     45  C   UNL A   1      40.895  26.915  28.730  1.00  0.00     0.029 A 
ATOM     46  N   UNL A   1      43.018  27.338  28.170  1.00  0.00    -0.354 N 
ATOM     47  C   UNL A   1      44.686  31.300  28.604  1.00  0.00     0.074 A 
ATOM     48  C   UNL A   1      43.700  32.222  29.123  1.00  0.00     0.031 C 
ATOM     49  C   UNL A   1      41.412  25.782  28.228  1.00  0.00     0.029 A 
ATOM     50  C   UNL A   1      42.800  26.020  27.844  1.00  0.00     0.049 A 
ATOM     51  H   UNL A   1      43.878  27.794  28.022  1.00  0.00     0.167 HD
ATOM     52  C   UNL A   1      45.957  31.644  28.280  1.00  0.00     0.037 A 
ATOM     53  C   UNL A   1      43.631  25.105  27.306  1.00  0.00     0.037 A 
ATOM     54  C   UNL A   1      46.942  30.716  27.790  1.00  0.00     0.049 A 
ATOM     55  C   UNL A   1      45.055  25.488  27.016  1.00  0.00     0.074 A 
ATOM     56  C   UNL A   1      48.271  30.948  27.482  1.00  0.00     0.029 A 
ATOM     57  N   UNL A   1      46.703  29.372  27.536  1.00  0.00    -0.354 N 
ATOM     58  N   UNL A   1      45.635  26.658  27.144  1.00  0.00    -0.248 NA
ATOM     59  C   UNL A   1      45.942  24.423  26.533  1.00  0.00     0.031 C 
ATOM     60  C   UNL A   1      48.830  29.749  27.020  1.00  0.00     0.029 A 
ATOM     61  C   UNL A   1      47.858  28.762  27.075  1.00  0.00     0.049 A 
ATOM     62  H   UNL A   1      45.839  28.919  27.666  1.00  0.00     0.167 HD
ATOM     63  C   UNL A   1      46.964  26.464  26.782  1.00  0.00     0.074 A 
ATOM     64  C   UNL A   1      47.100  25.062  26.438  1.00  0.00     0.031 C 
ATOM     65  C   UNL A   1      47.978  27.364  26.742  1.00  0.00     0.037 A 
BRANCH  52  66
ATOM     66  C   UNL A   1      46.338  33.089  28.453  1.00  0.00     0.058 A 
ATOM     67  C   UNL A   1      46.214  34.013  27.401  1.00  0.00     0.135 A 
ATOM     68  C   UNL A   1      46.861  33.551  29.670  1.00  0.00     0.135 A 
ATOM     69  F   UNL A   1      45.733  33.622  26.210  1.00  0.00    -0.206 F 
ATOM     70  C   UNL A   1      46.647  35.329  27.532  1.00  0.00     0.059 A 
ATOM     71  C   UNL A   1      47.274  34.871  29.833  1.00  0.00     0.059 A 
ATOM     72  F   UNL A   1      46.998  32.713  30.710  1.00  0.00    -0.206 F 
ATOM     73  C   UNL A   1      47.188  35.745  28.750  1.00  0.00     0.060 A 
BRANCH  73  74
ATOM     74  S   UNL A   1      47.792  37.440  28.896  1.00  0.00     0.124 S 
ATOM     75  O   UNL A   1      47.983  37.801  27.494  1.00  0.00    -0.237 OA
ATOM     76  O   UNL A   1      46.690  38.112  29.577  1.00  0.00    -0.237 OA
ATOM     77  O   UNL A   1      49.014  37.296  29.681  1.00  0.00    -0.744 OA
ENDBRANCH  73  74
ENDBRANCH  52  66
BRANCH  53  78
ATOM     78  C   UNL A   1      43.137  23.725  27.070  1.00  0.00     0.058 A 
ATOM     79  C   UNL A   1      42.745  23.311  25.789  1.00  0.00     0.135 A 
ATOM     80  C   UNL A   1      43.105  22.777  28.104  1.00  0.00     0.135 A 
ATOM     81  F   UNL A   1      42.755  24.184  24.770  1.00  0.00    -0.206 F 
ATOM     82  C   UNL A   1      42.339  22.004  25.538  1.00  0.00     0.059 A 
ATOM     83  C   UNL A   1      42.721  21.460  27.874  1.00  0.00     0.059 A 
ATOM     84  F   UNL A   1      43.488  23.121  29.344  1.00  0.00    -0.206 F 
ATOM     85  C   UNL A   1      42.337  21.083  26.587  1.00  0.00     0.060 A 
BRANCH  85  86
ATOM     86  S   UNL A   1      41.894  19.368  26.233  1.00  0.00     0.124 S 
ATOM     87  O   UNL A   1      42.788  19.057  25.125  1.00  0.00    -0.237 OA
ATOM     88  O   UNL A   1      42.192  18.706  27.500  1.00  0.00    -0.237 OA
ATOM     89  O   UNL A   1      40.476  19.451  25.898  1.00  0.00    -0.744 OA
ENDBRANCH  85  86
ENDBRANCH  53  78
BRANCH  65  90
ATOM     90  C   UNL A   1      49.334  26.852  26.348  1.00  0.00     0.058 A 
ATOM     91  C   UNL A   1      50.197  26.250  27.277  1.00  0.00     0.135 A 
ATOM     92  C   UNL A   1      49.764  26.939  25.014  1.00  0.00     0.135 A 
ATOM     93  F   UNL A   1      49.834  26.146  28.565  1.00  0.00    -0.206 F 
ATOM     94  C   UNL A   1      51.452  25.779  26.904  1.00  0.00     0.059 A 
ATOM     95  C   UNL A   1      51.004  26.454  24.613  1.00  0.00     0.059 A 
ATOM     96  F   UNL A   1      48.971  27.495  24.083  1.00  0.00    -0.206 F 
ATOM     97  C   UNL A   1      51.849  25.891  25.570  1.00  0.00     0.060 A 
BRANCH  97  98
ATOM     98  S   UNL A   1      53.473  25.267  25.090  1.00  0.00     0.124 S 
ATOM     99  O   UNL A   1      54.345  25.975  26.021  1.00  0.00    -0.237 OA
ATOM    100  O   UNL A   1      53.340  23.830  25.315  1.00  0.00    -0.237 OA
ATOM    101  O   UNL A   1      53.590  25.667  23.691  1.00  0.00    -0.744 OA
ENDBRANCH  97  98
ENDBRANCH  65  90
ENDBRANCH  39  40
ENDBRANCH  31  34
ENDBRANCH  29  30
ENDBRANCH  28  29
ENDBRANCH   1  28
TORSDOF 19
ENDMDL
MODEL 2
REMARK VINA RESULT:     -11.9      6.205     11.806
REMARK SMILES COc1ccc(C(=O)NCCCCNC(=O)c2ccc(-c3c4nc(c(-c5c(F)cc(S(=O)(=O)[O-])cc5F)c5ccc([nH]5)c(-c5c(F)cc(S(=O)(=O)[O-])cc5F)c5nc(c(-c6c(F)cc(S(=O)(=O)[O-])cc6F)c6ccc3[nH]6)C=C5)C=C4)cc2)cc1S(=O)(=O)N(C)Cc1cccc(F)c1
REMARK SMILES IDX 11 1 10 2 9 3 7 4 8 5 6 7 3 8 4 9 84 10 5 11 83 12 2 13 1 14
REMARK SMILES IDX 85 15 86 16 87 17 88 18 89 19 90 20 91 21 92 22 97 23 93 24
REMARK SMILES IDX 95 25 94 26 96 27 12 28 13 29 14 30 15 31 16 33 17 34 18 35
REMARK SMILES IDX 82 36 19 37 81 38 20 39 21 40 22 41 75 42 23 43 80 44 74 45
REMARK SMILES IDX 76 46 24 47 79 48 73 49 72 50 25 52 59 53 38 54 58 55 39 56
REMARK SMILES IDX 42 57 57 58 77 59 40 60 41 61 56 63 78 64 43 65 26 66 27 67
REMARK SMILES IDX 36 68 28 69 29 70 35 71 37 72 30 73 31 74 32 75 33 76 34 77
REMARK SMILES IDX 60 78 61 79 70 80 62 81 63 82 69 83 71 84 64 85 65 86 66 87
REMARK SMILES IDX 67 88 68 89 44 90 45 91 54 92 46 93 47 94 53 95 55 96 48 97
REMARK SMILES IDX 49 98 50 99 51 100 52 101
REMARK H PARENT 9 6 14 32 76 51 42 62
REMARK Flexibility Score: inf
ROOT
ATOM      1  C   UNL A   1      38.718  23.518  26.465  1.00  0.00     0.023 C 
ENDROOT
BRANCH   1   2
ATOM      2  C   UNL A   1      37.440  22.870  25.919  1.00  0.00     0.116 C 
BRANCH   2   3
ATOM      3  N   UNL A   1      37.452  22.830  24.462  1.00  0.00    -0.352 N 
ATOM      4  C   UNL A   1      36.461  22.918  23.515  1.00  0.00     0.251 C 
ATOM      5  O   UNL A   1      36.795  22.917  22.330  1.00  0.00    -0.269 OA
ATOM      6  H   UNL A   1      38.353  22.719  24.081  1.00  0.00     0.163 HD
BRANCH   4   7
ATOM      7  C   UNL A   1      35.010  23.048  23.842  1.00  0.00     0.041 A 
ATOM      8  C   UNL A   1      32.246  23.167  24.449  1.00  0.00     0.138 A 
ATOM      9  C   UNL A   1      33.002  22.044  24.800  1.00  0.00     0.049 A 
ATOM     10  C   UNL A   1      32.880  24.239  23.834  1.00  0.00     0.125 A 
ATOM     11  C   UNL A   1      34.366  21.976  24.474  1.00  0.00     0.018 A 
ATOM     12  C   UNL A   1      34.264  24.193  23.589  1.00  0.00     0.039 A 
BRANCH   8  13
ATOM     13  O   UNL A   1      30.953  23.230  24.879  1.00  0.00    -0.495 OA
ATOM     14  C   UNL A   1      30.735  22.414  26.028  1.00  0.00     0.278 C 
ENDBRANCH   8  13
BRANCH  10  15
ATOM     15  S   UNL A   1      32.048  25.667  23.198  1.00  0.00     0.246 S 
ATOM     16  O   UNL A   1      32.898  26.203  22.166  1.00  0.00    -0.207 OA
ATOM     17  O   UNL A   1      30.700  25.230  22.864  1.00  0.00    -0.207 OA
BRANCH  15  18
ATOM     18  N   UNL A   1      31.912  26.839  24.400  1.00  0.00    -0.196 NA
ATOM     19  C   UNL A   1      31.576  26.496  25.785  1.00  0.00     0.125 C 
BRANCH  18  20
ATOM     20  C   UNL A   1      32.832  27.994  24.238  1.00  0.00     0.137 C 
BRANCH  20  21
ATOM     21  C   UNL A   1      33.113  28.895  25.431  1.00  0.00    -0.030 A 
ATOM     22  C   UNL A   1      32.230  29.961  25.684  1.00  0.00     0.005 A 
ATOM     23  C   UNL A   1      34.223  28.760  26.279  1.00  0.00     0.044 A 
ATOM     24  C   UNL A   1      32.440  30.840  26.754  1.00  0.00     0.003 A 
ATOM     25  C   UNL A   1      34.424  29.634  27.342  1.00  0.00     0.123 A 
ATOM     26  C   UNL A   1      33.539  30.672  27.589  1.00  0.00     0.039 A 
ATOM     27  F   UNL A   1      35.483  29.462  28.143  1.00  0.00    -0.207 F 
ENDBRANCH  20  21
ENDBRANCH  18  20
ENDBRANCH  15  18
ENDBRANCH  10  15
ENDBRANCH   4   7
ENDBRANCH   2   3
ENDBRANCH   1   2
BRANCH   1  28
ATOM     28  C   UNL A   1      39.833  22.522  26.805  1.00  0.00     0.023 C 
BRANCH  28  29
ATOM     29  C   UNL A   1      41.175  23.163  27.148  1.00  0.00     0.116 C 
BRANCH  29  30
ATOM     30  N   UNL A   1      41.742  23.926  26.049  1.00  0.00    -0.352 N 
ATOM     31  C   UNL A   1      41.970  25.279  25.972  1.00  0.00     0.251 C 
ATOM     32  H   UNL A   1      41.997  23.405  25.255  1.00  0.00     0.163 HD
ATOM     33  O   UNL A   1      42.355  25.775  24.918  1.00  0.00    -0.269 OA
BRANCH  31  34
ATOM     34  C   UNL A   1      41.713  26.143  27.146  1.00  0.00     0.039 A 
ATOM     35  C   UNL A   1      42.560  27.231  27.374  1.00  0.00     0.014 A 
ATOM     36  C   UNL A   1      40.658  25.882  28.027  1.00  0.00     0.014 A 
ATOM     37  C   UNL A   1      42.328  28.079  28.459  1.00  0.00     0.010 A 
ATOM     38  C   UNL A   1      40.387  26.765  29.069  1.00  0.00     0.010 A 
ATOM     39  C   UNL A   1      41.228  27.863  29.305  1.00  0.00    -0.014 A 
BRANCH  39  40
ATOM     40  C   UNL A   1      40.966  28.759  30.459  1.00  0.00     0.031 A 
ATOM     41  C   UNL A   1      41.776  28.619  31.720  1.00  0.00     0.074 A 
ATOM     42  C   UNL A   1      39.967  29.658  30.394  1.00  0.00     0.049 A 
ATOM     43  N   UNL A   1      41.682  29.286  32.841  1.00  0.00    -0.248 NA
ATOM     44  C   UNL A   1      42.805  27.568  31.731  1.00  0.00     0.031 C 
ATOM     45  C   UNL A   1      39.069  29.842  29.254  1.00  0.00     0.029 A 
ATOM     46  N   UNL A   1      39.534  30.581  31.312  1.00  0.00    -0.354 N 
ATOM     47  C   UNL A   1      42.623  28.724  33.695  1.00  0.00     0.074 A 
ATOM     48  C   UNL A   1      43.239  27.627  32.981  1.00  0.00     0.031 C 
ATOM     49  C   UNL A   1      38.203  30.830  29.532  1.00  0.00     0.029 A 
ATOM     50  C   UNL A   1      38.472  31.336  30.874  1.00  0.00     0.049 A 
ATOM     51  H   UNL A   1      39.945  30.691  32.200  1.00  0.00     0.167 HD
ATOM     52  C   UNL A   1      42.963  29.102  34.952  1.00  0.00     0.037 A 
ATOM     53  C   UNL A   1      37.799  32.331  31.485  1.00  0.00     0.037 A 
ATOM     54  C   UNL A   1      42.366  30.212  35.648  1.00  0.00     0.049 A 
ATOM     55  C   UNL A   1      38.233  32.780  32.851  1.00  0.00     0.074 A 
ATOM     56  C   UNL A   1      42.672  30.713  36.901  1.00  0.00     0.029 A 
ATOM     57  N   UNL A   1      41.338  30.998  35.145  1.00  0.00    -0.354 N 
ATOM     58  N   UNL A   1      39.172  32.282  33.622  1.00  0.00    -0.248 NA
ATOM     59  C   UNL A   1      37.534  33.938  33.422  1.00  0.00     0.031 C 
ATOM     60  C   UNL A   1      41.812  31.787  37.166  1.00  0.00     0.029 A 
ATOM     61  C   UNL A   1      40.996  31.978  36.062  1.00  0.00     0.049 A 
ATOM     62  H   UNL A   1      40.914  30.876  34.265  1.00  0.00     0.167 HD
ATOM     63  C   UNL A   1      39.195  33.084  34.758  1.00  0.00     0.074 A 
ATOM     64  C   UNL A   1      38.181  34.102  34.568  1.00  0.00     0.031 C 
ATOM     65  C   UNL A   1      39.987  32.987  35.855  1.00  0.00     0.037 A 
BRANCH  52  66
ATOM     66  C   UNL A   1      44.031  28.297  35.642  1.00  0.00     0.058 A 
ATOM     67  C   UNL A   1      43.711  27.205  36.466  1.00  0.00     0.135 A 
ATOM     68  C   UNL A   1      45.385  28.638  35.505  1.00  0.00     0.135 A 
ATOM     69  F   UNL A   1      42.430  26.844  36.644  1.00  0.00    -0.206 F 
ATOM     70  C   UNL A   1      44.690  26.514  37.173  1.00  0.00     0.059 A 
ATOM     71  C   UNL A   1      46.384  27.943  36.181  1.00  0.00     0.059 A 
ATOM     72  F   UNL A   1      45.748  29.670  34.727  1.00  0.00    -0.206 F 
ATOM     73  C   UNL A   1      46.024  26.900  37.034  1.00  0.00     0.060 A 
BRANCH  73  74
ATOM     74  S   UNL A   1      47.283  26.031  37.992  1.00  0.00     0.124 S 
ATOM     75  O   UNL A   1      48.482  26.791  37.651  1.00  0.00    -0.237 OA
ATOM     76  O   UNL A   1      46.804  26.187  39.362  1.00  0.00    -0.237 OA
ATOM     77  O   UNL A   1      47.229  24.671  37.465  1.00  0.00    -0.744 OA
ENDBRANCH  73  74
ENDBRANCH  52  66
BRANCH  53  78
ATOM     78  C   UNL A   1      36.684  33.001  30.767  1.00  0.00     0.058 A 
ATOM     79  C   UNL A   1      35.350  32.672  31.045  1.00  0.00     0.135 A 
ATOM     80  C   UNL A   1      36.928  34.023  29.838  1.00  0.00     0.135 A 
ATOM     81  F   UNL A   1      35.068  31.698  31.924  1.00  0.00    -0.206 F 
ATOM     82  C   UNL A   1      34.294  33.333  30.428  1.00  0.00     0.059 A 
ATOM     83  C   UNL A   1      35.889  34.712  29.222  1.00  0.00     0.059 A 
ATOM     84  F   UNL A   1      38.189  34.386  29.553  1.00  0.00    -0.206 F 
ATOM     85  C   UNL A   1      34.573  34.358  29.522  1.00  0.00     0.060 A 
BRANCH  85  86
ATOM     86  S   UNL A   1      33.195  35.271  28.794  1.00  0.00     0.124 S 
ATOM     87  O   UNL A   1      33.894  36.287  28.015  1.00  0.00    -0.237 OA
ATOM     88  O   UNL A   1      32.512  34.235  28.025  1.00  0.00    -0.237 OA
ATOM     89  O   UNL A   1      32.464  35.759  29.959  1.00  0.00    -0.744 OA
ENDBRANCH  85  86
ENDBRANCH  53  78
BRANCH  65  90
ATOM     90  C   UNL A   1      39.813  34.033  36.920  1.00  0.00     0.058 A 
ATOM     91  C   UNL A   1      39.020  33.808  38.056  1.00  0.00     0.135 A 
ATOM     92  C   UNL A   1      40.474  35.267  36.815  1.00  0.00     0.135 A 
ATOM     93  F   UNL A   1      38.364  32.645  38.202  1.00  0.00    -0.206 F 
ATOM     94  C   UNL A   1      38.864  34.782  39.037  1.00  0.00     0.059 A 
ATOM     95  C   UNL A   1      40.351  36.247  37.795  1.00  0.00     0.059 A 
ATOM     96  F   UNL A   1      41.255  35.528  35.754  1.00  0.00    -0.206 F 
ATOM     97  C   UNL A   1      39.529  36.001  38.894  1.00  0.00     0.060 A 
BRANCH  97  98
ATOM     98  S   UNL A   1      39.331  37.255  40.177  1.00  0.00     0.124 S 
ATOM     99  O   UNL A   1      38.540  38.264  39.480  1.00  0.00    -0.237 OA
ATOM    100  O   UNL A   1      38.637  36.523  41.233  1.00  0.00    -0.237 OA
ATOM    101  O   UNL A   1      40.705  37.639  40.490  1.00  0.00    -0.744 OA
ENDBRANCH  97  98
ENDBRANCH  65  90
ENDBRANCH  39  40
ENDBRANCH  31  34
ENDBRANCH  29  30
ENDBRANCH  28  29
ENDBRANCH   1  28
TORSDOF 19
ENDMDL
MODEL 3
REMARK VINA RESULT:     -11.9      3.245      9.362
REMARK SMILES COc1ccc(C(=O)NCCCCNC(=O)c2ccc(-c3c4nc(c(-c5c(F)cc(S(=O)(=O)[O-])cc5F)c5ccc([nH]5)c(-c5c(F)cc(S(=O)(=O)[O-])cc5F)c5nc(c(-c6c(F)cc(S(=O)(=O)[O-])cc6F)c6ccc3[nH]6)C=C5)C=C4)cc2)cc1S(=O)(=O)N(C)Cc1cccc(F)c1
REMARK SMILES IDX 11 1 10 2 9 3 7 4 8 5 6 7 3 8 4 9 84 10 5 11 83 12 2 13 1 14
REMARK SMILES IDX 85 15 86 16 87 17 88 18 89 19 90 20 91 21 92 22 97 23 93 24
REMARK SMILES IDX 95 25 94 26 96 27 12 28 13 29 14 30 15 31 16 33 17 34 18 35
REMARK SMILES IDX 82 36 19 37 81 38 20 39 21 40 22 41 75 42 23 43 80 44 74 45
REMARK SMILES IDX 76 46 24 47 79 48 73 49 72 50 25 52 59 53 38 54 58 55 39 56
REMARK SMILES IDX 42 57 57 58 77 59 40 60 41 61 56 63 78 64 43 65 26 66 27 67
REMARK SMILES IDX 36 68 28 69 29 70 35 71 37 72 30 73 31 74 32 75 33 76 34 77
REMARK SMILES IDX 60 78 61 79 70 80 62 81 63 82 69 83 71 84 64 85 65 86 66 87
REMARK SMILES IDX 67 88 68 89 44 90 45 91 54 92 46 93 47 94 53 95 55 96 48 97
REMARK SMILES IDX 49 98 50 99 51 100 52 101
REMARK H PARENT 9 6 14 32 76 51 42 62
REMARK Flexibility Score: inf
ROOT
ATOM      1  C   UNL A   1      34.350  23.119  27.058  1.00  0.00     0.023 C 
ENDROOT
BRANCH   1   2
ATOM      2  C   UNL A   1      33.451  21.876  27.072  1.00  0.00     0.116 C 
BRANCH   2   3
ATOM      3  N   UNL A   1      32.111  22.202  27.541  1.00  0.00    -0.352 N 
ATOM      4  C   UNL A   1      31.088  22.948  27.009  1.00  0.00     0.251 C 
ATOM      5  O   UNL A   1      30.023  22.989  27.625  1.00  0.00    -0.269 OA
ATOM      6  H   UNL A   1      31.895  21.806  28.417  1.00  0.00     0.163 HD
BRANCH   4   7
ATOM      7  C   UNL A   1      31.185  23.682  25.712  1.00  0.00     0.041 A 
ATOM      8  C   UNL A   1      31.434  24.973  23.204  1.00  0.00     0.138 A 
ATOM      9  C   UNL A   1      31.331  23.581  23.278  1.00  0.00     0.049 A 
ATOM     10  C   UNL A   1      31.374  25.716  24.376  1.00  0.00     0.125 A 
ATOM     11  C   UNL A   1      31.235  22.941  24.524  1.00  0.00     0.018 A 
ATOM     12  C   UNL A   1      31.192  25.068  25.611  1.00  0.00     0.039 A 
BRANCH   8  13
ATOM     13  O   UNL A   1      31.420  25.553  21.968  1.00  0.00    -0.495 OA
ATOM     14  C   UNL A   1      32.690  25.469  21.328  1.00  0.00     0.278 C 
ENDBRANCH   8  13
BRANCH  10  15
ATOM     15  S   UNL A   1      31.632  27.465  24.472  1.00  0.00     0.246 S 
ATOM     16  O   UNL A   1      31.246  28.000  23.191  1.00  0.00    -0.207 OA
ATOM     17  O   UNL A   1      30.939  27.907  25.673  1.00  0.00    -0.207 OA
BRANCH  15  18
ATOM     18  N   UNL A   1      33.268  27.796  24.686  1.00  0.00    -0.196 NA
ATOM     19  C   UNL A   1      34.021  28.636  23.749  1.00  0.00     0.125 C 
BRANCH  18  20
ATOM     20  C   UNL A   1      33.696  27.893  26.105  1.00  0.00     0.137 C 
BRANCH  20  21
ATOM     21  C   UNL A   1      33.976  29.261  26.709  1.00  0.00    -0.030 A 
ATOM     22  C   UNL A   1      35.251  29.501  27.252  1.00  0.00     0.005 A 
ATOM     23  C   UNL A   1      33.030  30.293  26.796  1.00  0.00     0.044 A 
ATOM     24  C   UNL A   1      35.570  30.731  27.840  1.00  0.00     0.003 A 
ATOM     25  C   UNL A   1      33.354  31.515  27.378  1.00  0.00     0.123 A 
ATOM     26  C   UNL A   1      34.618  31.744  27.898  1.00  0.00     0.039 A 
ATOM     27  F   UNL A   1      32.432  32.485  27.426  1.00  0.00    -0.207 F 
ENDBRANCH  20  21
ENDBRANCH  18  20
ENDBRANCH  15  18
ENDBRANCH  10  15
ENDBRANCH   4   7
ENDBRANCH   2   3
ENDBRANCH   1   2
BRANCH   1  28
ATOM     28  C   UNL A   1      34.924  23.465  25.679  1.00  0.00     0.023 C 
BRANCH  28  29
ATOM     29  C   UNL A   1      36.396  23.869  25.687  1.00  0.00     0.116 C 
BRANCH  29  30
ATOM     30  N   UNL A   1      37.296  22.751  25.909  1.00  0.00    -0.352 N 
ATOM     31  C   UNL A   1      38.593  22.770  26.362  1.00  0.00     0.251 C 
ATOM     32  H   UNL A   1      36.928  21.861  25.708  1.00  0.00     0.163 HD
ATOM     33  O   UNL A   1      39.249  21.733  26.384  1.00  0.00    -0.269 OA
BRANCH  31  34
ATOM     34  C   UNL A   1      39.213  24.047  26.785  1.00  0.00     0.039 A 
ATOM     35  C   UNL A   1      39.118  24.423  28.128  1.00  0.00     0.014 A 
ATOM     36  C   UNL A   1      39.869  24.877  25.871  1.00  0.00     0.014 A 
ATOM     37  C   UNL A   1      39.714  25.609  28.561  1.00  0.00     0.010 A 
ATOM     38  C   UNL A   1      40.520  26.025  26.316  1.00  0.00     0.010 A 
ATOM     39  C   UNL A   1      40.435  26.410  27.662  1.00  0.00    -0.014 A 
BRANCH  39  40
ATOM     40  C   UNL A   1      41.078  27.671  28.110  1.00  0.00     0.031 A 
ATOM     41  C   UNL A   1      42.570  27.836  28.002  1.00  0.00     0.074 A 
ATOM     42  C   UNL A   1      40.329  28.644  28.663  1.00  0.00     0.049 A 
ATOM     43  N   UNL A   1      43.319  28.846  28.362  1.00  0.00    -0.248 NA
ATOM     44  C   UNL A   1      43.321  26.700  27.447  1.00  0.00     0.031 C 
ATOM     45  C   UNL A   1      38.884  28.574  28.885  1.00  0.00     0.029 A 
ATOM     46  N   UNL A   1      40.682  29.877  29.147  1.00  0.00    -0.354 N 
ATOM     47  C   UNL A   1      44.627  28.462  28.095  1.00  0.00     0.074 A 
ATOM     48  C   UNL A   1      44.573  27.105  27.594  1.00  0.00     0.031 C 
ATOM     49  C   UNL A   1      38.470  29.723  29.444  1.00  0.00     0.029 A 
ATOM     50  C   UNL A   1      39.621  30.600  29.637  1.00  0.00     0.049 A 
ATOM     51  H   UNL A   1      41.608  30.212  29.144  1.00  0.00     0.167 HD
ATOM     52  C   UNL A   1      45.768  29.180  28.230  1.00  0.00     0.037 A 
ATOM     53  C   UNL A   1      39.581  31.836  30.173  1.00  0.00     0.037 A 
ATOM     54  C   UNL A   1      45.812  30.539  28.702  1.00  0.00     0.049 A 
ATOM     55  C   UNL A   1      40.846  32.643  30.253  1.00  0.00     0.074 A 
ATOM     56  C   UNL A   1      46.908  31.376  28.828  1.00  0.00     0.029 A 
ATOM     57  N   UNL A   1      44.706  31.263  29.126  1.00  0.00    -0.354 N 
ATOM     58  N   UNL A   1      42.069  32.290  29.933  1.00  0.00    -0.248 NA
ATOM     59  C   UNL A   1      40.724  34.021  30.744  1.00  0.00     0.031 C 
ATOM     60  C   UNL A   1      46.467  32.599  29.350  1.00  0.00     0.029 A 
ATOM     61  C   UNL A   1      45.092  32.536  29.515  1.00  0.00     0.049 A 
ATOM     62  H   UNL A   1      43.784  30.923  29.147  1.00  0.00     0.167 HD
ATOM     63  C   UNL A   1      42.859  33.412  30.158  1.00  0.00     0.074 A 
ATOM     64  C   UNL A   1      41.972  34.455  30.635  1.00  0.00     0.031 C 
ATOM     65  C   UNL A   1      44.195  33.565  29.983  1.00  0.00     0.037 A 
BRANCH  52  66
ATOM     66  C   UNL A   1      47.055  28.495  27.858  1.00  0.00     0.058 A 
ATOM     67  C   UNL A   1      47.543  28.512  26.540  1.00  0.00     0.135 A 
ATOM     68  C   UNL A   1      47.793  27.787  28.819  1.00  0.00     0.135 A 
ATOM     69  F   UNL A   1      46.870  29.162  25.578  1.00  0.00    -0.206 F 
ATOM     70  C   UNL A   1      48.686  27.806  26.178  1.00  0.00     0.059 A 
ATOM     71  C   UNL A   1      48.955  27.097  28.485  1.00  0.00     0.059 A 
ATOM     72  F   UNL A   1      47.375  27.741  30.094  1.00  0.00    -0.206 F 
ATOM     73  C   UNL A   1      49.378  27.090  27.156  1.00  0.00     0.060 A 
BRANCH  73  74
ATOM     74  S   UNL A   1      50.832  26.138  26.667  1.00  0.00     0.124 S 
ATOM     75  O   UNL A   1      51.904  26.901  27.302  1.00  0.00    -0.237 OA
ATOM     76  O   UNL A   1      50.562  24.827  27.247  1.00  0.00    -0.237 OA
ATOM     77  O   UNL A   1      50.798  26.194  25.210  1.00  0.00    -0.744 OA
ENDBRANCH  73  74
ENDBRANCH  52  66
BRANCH  53  78
ATOM     78  C   UNL A   1      38.277  32.395  30.614  1.00  0.00     0.058 A 
ATOM     79  C   UNL A   1      37.793  32.156  31.907  1.00  0.00     0.135 A 
ATOM     80  C   UNL A   1      37.522  33.228  29.774  1.00  0.00     0.135 A 
ATOM     81  F   UNL A   1      38.480  31.363  32.744  1.00  0.00    -0.206 F 
ATOM     82  C   UNL A   1      36.605  32.722  32.357  1.00  0.00     0.059 A 
ATOM     83  C   UNL A   1      36.341  33.821  30.207  1.00  0.00     0.059 A 
ATOM     84  F   UNL A   1      37.954  33.500  28.532  1.00  0.00    -0.206 F 
ATOM     85  C   UNL A   1      35.888  33.560  31.500  1.00  0.00     0.060 A 
BRANCH  85  86
ATOM     86  S   UNL A   1      34.394  34.362  32.123  1.00  0.00     0.124 S 
ATOM     87  O   UNL A   1      33.848  33.330  32.995  1.00  0.00    -0.237 OA
ATOM     88  O   UNL A   1      34.934  35.543  32.790  1.00  0.00    -0.237 OA
ATOM     89  O   UNL A   1      33.630  34.634  30.909  1.00  0.00    -0.744 OA
ENDBRANCH  85  86
ENDBRANCH  53  78
BRANCH  65  90
ATOM     90  C   UNL A   1      44.774  34.920  30.272  1.00  0.00     0.058 A 
ATOM     91  C   UNL A   1      45.264  35.260  31.543  1.00  0.00     0.135 A 
ATOM     92  C   UNL A   1      44.867  35.882  29.254  1.00  0.00     0.135 A 
ATOM     93  F   UNL A   1      45.196  34.376  32.551  1.00  0.00    -0.206 F 
ATOM     94  C   UNL A   1      45.798  36.518  31.803  1.00  0.00     0.059 A 
ATOM     95  C   UNL A   1      45.417  37.139  29.484  1.00  0.00     0.059 A 
ATOM     96  F   UNL A   1      44.424  35.603  28.017  1.00  0.00    -0.206 F 
ATOM     97  C   UNL A   1      45.865  37.453  30.768  1.00  0.00     0.060 A 
BRANCH  97  98
ATOM     98  S   UNL A   1      46.570  39.079  31.109  1.00  0.00     0.124 S 
ATOM     99  O   UNL A   1      47.915  38.936  30.561  1.00  0.00    -0.237 OA
ATOM    100  O   UNL A   1      45.678  39.973  30.375  1.00  0.00    -0.237 OA
ATOM    101  O   UNL A   1      46.491  39.184  32.563  1.00  0.00    -0.744 OA
ENDBRANCH  97  98
ENDBRANCH  65  90
ENDBRANCH  39  40
ENDBRANCH  31  34
ENDBRANCH  29  30
ENDBRANCH  28  29
ENDBRANCH   1  28
TORSDOF 19
ENDMDL
