MODEL 1
REMARK VINA RESULT:     -10.8      0.000      0.000
REMARK SMILES CC(C)(C)OC(=O)N1CCC[C@H]1C(=O)N[C@@H](Cc1ccccc1)C(=O)NCCCCNC(=O)c1ccc(-c2c3nc(c(-c4c(F)cc(S(=O)(=O)[O-])cc4F)c4ccc([nH]4)c(-c4c(F)cc(S(=O)(=O)[O-])cc4F)c4nc(c(-c5c(F)cc(S(=O)(=O)[O-])cc5F)c5ccc2[nH]5)C=C4)C=C3)cc1
REMARK SMILES IDX 27 1 26 2 24 3 25 4 16 6 15 7 13 8 14 9 12 11 8 12 9 13
REMARK SMILES IDX 10 14 11 15 6 16 7 17 5 18 2 19 1 20 3 21 4 22 17 23 18 24
REMARK SMILES IDX 19 25 23 26 20 27 22 28 21 29 28 30 29 31 30 32 31 33 32 34
REMARK SMILES IDX 33 36 34 37 35 38 99 39 36 40 98 41 37 42 38 43 39 44 92 45
REMARK SMILES IDX 40 46 97 47 91 48 93 49 41 50 96 51 90 52 89 53 42 55 76 56
REMARK SMILES IDX 55 57 75 58 56 59 59 60 74 61 94 62 57 63 58 64 73 66 95 67
REMARK SMILES IDX 60 68 43 69 44 70 53 71 45 72 46 73 52 74 54 75 47 76 48 77
REMARK SMILES IDX 49 78 50 79 51 80 77 81 78 82 87 83 79 84 80 85 86 86 88 87
REMARK SMILES IDX 81 88 82 89 83 90 84 91 85 92 61 93 62 94 71 95 63 96 64 97
REMARK SMILES IDX 70 98 72 99 65 100 66 101 67 102 68 103 69 104
REMARK H PARENT 26 5 15 10 31 35 93 54 59 65
REMARK Flexibility Score: inf
ROOT
ATOM      1  C   UNL A   1      37.624  23.645  25.738  1.00  0.00     0.116 C 
ENDROOT
BRANCH   1   2
ATOM      2  N   UNL A   1      37.391  23.094  24.420  1.00  0.00    -0.354 N 
ATOM      3  C   UNL A   1      36.230  23.019  23.704  1.00  0.00     0.242 C 
ATOM      4  O   UNL A   1      36.335  22.990  22.472  1.00  0.00    -0.273 OA
ATOM      5  H   UNL A   1      38.184  22.718  23.975  1.00  0.00     0.163 HD
BRANCH   3   6
ATOM      6  C   UNL A   1      34.817  23.084  24.339  1.00  0.00     0.175 C 
BRANCH   6   7
ATOM      7  N   UNL A   1      33.721  23.283  23.387  1.00  0.00    -0.342 N 
ATOM      8  C   UNL A   1      32.688  24.185  23.457  1.00  0.00     0.243 C 
ATOM      9  O   UNL A   1      31.976  24.330  22.460  1.00  0.00    -0.273 OA
ATOM     10  H   UNL A   1      33.725  22.694  22.598  1.00  0.00     0.164 HD
BRANCH   8  11
ATOM     11  C   UNL A   1      32.340  24.810  24.824  1.00  0.00     0.178 C 
ATOM     12  N   UNL A   1      31.622  26.076  24.756  1.00  0.00    -0.296 N 
ATOM     13  C   UNL A   1      30.248  25.942  25.184  1.00  0.00     0.124 C 
ATOM     14  C   UNL A   1      30.287  24.755  26.128  1.00  0.00     0.024 C 
ATOM     15  C   UNL A   1      31.369  23.856  25.540  1.00  0.00     0.037 C 
BRANCH  12  16
ATOM     16  C   UNL A   1      32.280  27.247  24.480  1.00  0.00     0.410 C 
ATOM     17  O   UNL A   1      32.252  27.781  23.379  1.00  0.00    -0.224 OA
BRANCH  16  18
ATOM     18  O   UNL A   1      33.007  27.679  25.540  1.00  0.00    -0.444 OA
BRANCH  18  19
ATOM     19  C   UNL A   1      32.552  28.758  26.399  1.00  0.00     0.106 C 
ATOM     20  C   UNL A   1      33.841  29.432  26.899  1.00  0.00     0.056 C 
ATOM     21  C   UNL A   1      31.801  28.159  27.589  1.00  0.00     0.056 C 
ATOM     22  C   UNL A   1      31.714  29.824  25.680  1.00  0.00     0.056 C 
ENDBRANCH  18  19
ENDBRANCH  16  18
ENDBRANCH  12  16
ENDBRANCH   8  11
ENDBRANCH   6   7
BRANCH   6  23
ATOM     23  C   UNL A   1      34.552  22.006  25.410  1.00  0.00     0.070 C 
BRANCH  23  24
ATOM     24  C   UNL A   1      34.162  20.625  24.949  1.00  0.00    -0.045 A 
ATOM     25  C   UNL A   1      35.118  19.604  24.870  1.00  0.00     0.004 A 
ATOM     26  C   UNL A   1      32.832  20.327  24.620  1.00  0.00     0.004 A 
ATOM     27  C   UNL A   1      34.773  18.340  24.388  1.00  0.00     0.000 A 
ATOM     28  C   UNL A   1      32.480  19.050  24.175  1.00  0.00     0.000 A 
ATOM     29  C   UNL A   1      33.456  18.065  24.035  1.00  0.00     0.000 A 
ENDBRANCH  23  24
ENDBRANCH   6  23
ENDBRANCH   3   6
ENDBRANCH   1   2
BRANCH   1  30
ATOM     30  C   UNL A   1      38.811  23.045  26.481  1.00  0.00     0.023 C 
BRANCH  30  31
ATOM     31  C   UNL A   1      39.337  21.723  25.914  1.00  0.00     0.023 C 
BRANCH  31  32
ATOM     32  C   UNL A   1      39.958  20.735  26.907  1.00  0.00     0.116 C 
BRANCH  32  33
ATOM     33  N   UNL A   1      40.789  19.703  26.304  1.00  0.00    -0.352 N 
ATOM     34  C   UNL A   1      42.122  19.766  25.957  1.00  0.00     0.251 C 
ATOM     35  H   UNL A   1      40.340  18.846  26.121  1.00  0.00     0.163 HD
ATOM     36  O   UNL A   1      42.675  18.802  25.436  1.00  0.00    -0.269 OA
BRANCH  34  37
ATOM     37  C   UNL A   1      42.868  21.026  26.174  1.00  0.00     0.039 A 
ATOM     38  C   UNL A   1      43.119  21.856  25.078  1.00  0.00     0.014 A 
ATOM     39  C   UNL A   1      43.251  21.418  27.458  1.00  0.00     0.014 A 
ATOM     40  C   UNL A   1      43.653  23.131  25.286  1.00  0.00     0.010 A 
ATOM     41  C   UNL A   1      43.730  22.712  27.669  1.00  0.00     0.010 A 
ATOM     42  C   UNL A   1      43.907  23.590  26.590  1.00  0.00    -0.014 A 
BRANCH  42  43
ATOM     43  C   UNL A   1      44.299  25.003  26.845  1.00  0.00     0.031 A 
ATOM     44  C   UNL A   1      45.716  25.454  26.622  1.00  0.00     0.074 A 
ATOM     45  C   UNL A   1      43.388  25.863  27.346  1.00  0.00     0.049 A 
ATOM     46  N   UNL A   1      46.261  26.617  26.876  1.00  0.00    -0.248 NA
ATOM     47  C   UNL A   1      46.648  24.465  26.057  1.00  0.00     0.031 C 
ATOM     48  C   UNL A   1      41.992  25.538  27.652  1.00  0.00     0.029 A 
ATOM     49  N   UNL A   1      43.501  27.185  27.701  1.00  0.00    -0.354 N 
ATOM     50  C   UNL A   1      47.595  26.502  26.502  1.00  0.00     0.074 A 
ATOM     51  C   UNL A   1      47.790  25.140  26.053  1.00  0.00     0.031 C 
ATOM     52  C   UNL A   1      41.379  26.631  28.135  1.00  0.00     0.029 A 
ATOM     53  C   UNL A   1      42.341  27.725  28.207  1.00  0.00     0.049 A 
ATOM     54  H   UNL A   1      44.335  27.699  27.603  1.00  0.00     0.167 HD
ATOM     55  C   UNL A   1      48.561  27.451  26.507  1.00  0.00     0.037 A 
ATOM     56  C   UNL A   1      42.083  28.958  28.688  1.00  0.00     0.037 A 
ATOM     57  C   UNL A   1      48.363  28.810  26.941  1.00  0.00     0.049 A 
ATOM     58  C   UNL A   1      43.181  29.988  28.696  1.00  0.00     0.074 A 
ATOM     59  C   UNL A   1      49.279  29.848  26.966  1.00  0.00     0.029 A 
ATOM     60  N   UNL A   1      47.167  29.325  27.417  1.00  0.00    -0.354 N 
ATOM     61  N   UNL A   1      44.426  29.869  28.300  1.00  0.00    -0.248 NA
ATOM     62  C   UNL A   1      42.840  31.322  29.213  1.00  0.00     0.031 C 
ATOM     63  C   UNL A   1      48.645  30.982  27.481  1.00  0.00     0.029 A 
ATOM     64  C   UNL A   1      47.323  30.662  27.741  1.00  0.00     0.049 A 
ATOM     65  H   UNL A   1      46.329  28.815  27.511  1.00  0.00     0.167 HD
ATOM     66  C   UNL A   1      45.005  31.119  28.492  1.00  0.00     0.074 A 
ATOM     67  C   UNL A   1      43.974  31.982  29.025  1.00  0.00     0.031 C 
ATOM     68  C   UNL A   1      46.279  31.515  28.250  1.00  0.00     0.037 A 
BRANCH  55  69
ATOM     69  C   UNL A   1      49.921  27.064  25.997  1.00  0.00     0.058 A 
ATOM     70  C   UNL A   1      50.274  27.257  24.653  1.00  0.00     0.135 A 
ATOM     71  C   UNL A   1      50.900  26.559  26.867  1.00  0.00     0.135 A 
ATOM     72  F   UNL A   1      49.369  27.723  23.776  1.00  0.00    -0.206 F 
ATOM     73  C   UNL A   1      51.545  26.949  24.183  1.00  0.00     0.059 A 
ATOM     74  C   UNL A   1      52.188  26.267  26.424  1.00  0.00     0.059 A 
ATOM     75  F   UNL A   1      50.614  26.355  28.162  1.00  0.00    -0.206 F 
ATOM     76  C   UNL A   1      52.498  26.458  25.078  1.00  0.00     0.060 A 
BRANCH  76  77
ATOM     77  S   UNL A   1      54.152  26.091  24.456  1.00  0.00     0.124 S 
ATOM     78  O   UNL A   1      53.967  26.261  23.018  1.00  0.00    -0.237 OA
ATOM     79  O   UNL A   1      54.966  27.109  25.114  1.00  0.00    -0.237 OA
ATOM     80  O   UNL A   1      54.388  24.722  24.901  1.00  0.00    -0.744 OA
ENDBRANCH  76  77
ENDBRANCH  55  69
BRANCH  56  81
ATOM     81  C   UNL A   1      40.730  29.302  29.202  1.00  0.00     0.058 A 
ATOM     82  C   UNL A   1      39.673  29.585  28.323  1.00  0.00     0.135 A 
ATOM     83  C   UNL A   1      40.478  29.399  30.579  1.00  0.00     0.135 A 
ATOM     84  F   UNL A   1      39.867  29.511  26.997  1.00  0.00    -0.206 F 
ATOM     85  C   UNL A   1      38.427  29.992  28.787  1.00  0.00     0.059 A 
ATOM     86  C   UNL A   1      39.231  29.778  31.069  1.00  0.00     0.059 A 
ATOM     87  F   UNL A   1      41.448  29.119  31.463  1.00  0.00    -0.206 F 
ATOM     88  C   UNL A   1      38.218  30.094  30.164  1.00  0.00     0.060 A 
BRANCH  88  89
ATOM     89  S   UNL A   1      36.601  30.629  30.761  1.00  0.00     0.124 S 
ATOM     90  O   UNL A   1      36.339  29.652  31.812  1.00  0.00    -0.237 OA
ATOM     91  O   UNL A   1      36.870  31.992  31.209  1.00  0.00    -0.237 OA
ATOM     92  O   UNL A   1      35.756  30.523  29.575  1.00  0.00    -0.744 OA
ENDBRANCH  88  89
ENDBRANCH  56  81
BRANCH  68  93
ATOM     93  C   UNL A   1      46.619  32.955  28.518  1.00  0.00     0.058 A 
ATOM     94  C   UNL A   1      46.454  33.945  27.537  1.00  0.00     0.135 A 
ATOM     95  C   UNL A   1      47.070  33.354  29.786  1.00  0.00     0.135 A 
ATOM     96  F   UNL A   1      46.032  33.614  26.306  1.00  0.00    -0.206 F 
ATOM     97  C   UNL A   1      46.747  35.279  27.798  1.00  0.00     0.059 A 
ATOM     98  C   UNL A   1      47.345  34.687  30.076  1.00  0.00     0.059 A 
ATOM     99  F   UNL A   1      47.235  32.447  30.761  1.00  0.00    -0.206 F 
ATOM    100  C   UNL A   1      47.191  35.641  29.072  1.00  0.00     0.060 A 
BRANCH 100 101
ATOM    101  S   UNL A   1      47.533  37.381  29.409  1.00  0.00     0.124 S 
ATOM    102  O   UNL A   1      48.155  37.309  30.727  1.00  0.00    -0.237 OA
ATOM    103  O   UNL A   1      48.420  37.746  28.308  1.00  0.00    -0.237 OA
ATOM    104  O   UNL A   1      46.211  38.001  29.370  1.00  0.00    -0.744 OA
ENDBRANCH 100 101
ENDBRANCH  68  93
ENDBRANCH  42  43
ENDBRANCH  34  37
ENDBRANCH  32  33
ENDBRANCH  31  32
ENDBRANCH  30  31
ENDBRANCH   1  30
TORSDOF 21
ENDMDL
MODEL 2
REMARK VINA RESULT:     -10.6      4.317      6.150
REMARK SMILES CC(C)(C)OC(=O)N1CCC[C@H]1C(=O)N[C@@H](Cc1ccccc1)C(=O)NCCCCNC(=O)c1ccc(-c2c3nc(c(-c4c(F)cc(S(=O)(=O)[O-])cc4F)c4ccc([nH]4)c(-c4c(F)cc(S(=O)(=O)[O-])cc4F)c4nc(c(-c5c(F)cc(S(=O)(=O)[O-])cc5F)c5ccc2[nH]5)C=C4)C=C3)cc1
REMARK SMILES IDX 27 1 26 2 24 3 25 4 16 6 15 7 13 8 14 9 12 11 8 12 9 13
REMARK SMILES IDX 10 14 11 15 6 16 7 17 5 18 2 19 1 20 3 21 4 22 17 23 18 24
REMARK SMILES IDX 19 25 23 26 20 27 22 28 21 29 28 30 29 31 30 32 31 33 32 34
REMARK SMILES IDX 33 36 34 37 35 38 99 39 36 40 98 41 37 42 38 43 39 44 92 45
REMARK SMILES IDX 40 46 97 47 91 48 93 49 41 50 96 51 90 52 89 53 42 55 76 56
REMARK SMILES IDX 55 57 75 58 56 59 59 60 74 61 94 62 57 63 58 64 73 66 95 67
REMARK SMILES IDX 60 68 43 69 44 70 53 71 45 72 46 73 52 74 54 75 47 76 48 77
REMARK SMILES IDX 49 78 50 79 51 80 77 81 78 82 87 83 79 84 80 85 86 86 88 87
REMARK SMILES IDX 81 88 82 89 83 90 84 91 85 92 61 93 62 94 71 95 63 96 64 97
REMARK SMILES IDX 70 98 72 99 65 100 66 101 67 102 68 103 69 104
REMARK H PARENT 26 5 15 10 31 35 93 54 59 65
REMARK Flexibility Score: inf
ROOT
ATOM      1  C   UNL A   1      34.101  23.380  22.903  1.00  0.00     0.116 C 
ENDROOT
BRANCH   1   2
ATOM      2  N   UNL A   1      33.226  22.840  23.921  1.00  0.00    -0.354 N 
ATOM      3  C   UNL A   1      32.228  23.453  24.623  1.00  0.00     0.242 C 
ATOM      4  O   UNL A   1      31.313  22.732  25.041  1.00  0.00    -0.273 OA
ATOM      5  H   UNL A   1      33.372  21.891  24.141  1.00  0.00     0.163 HD
BRANCH   3   6
ATOM      6  C   UNL A   1      32.124  24.988  24.816  1.00  0.00     0.175 C 
BRANCH   6   7
ATOM      7  N   UNL A   1      30.775  25.486  25.099  1.00  0.00    -0.342 N 
ATOM      8  C   UNL A   1      29.899  26.100  24.239  1.00  0.00     0.243 C 
ATOM      9  O   UNL A   1      28.737  26.269  24.617  1.00  0.00    -0.273 OA
ATOM     10  H   UNL A   1      30.458  25.366  26.023  1.00  0.00     0.164 HD
BRANCH   8  11
ATOM     11  C   UNL A   1      30.449  26.732  22.943  1.00  0.00     0.178 C 
ATOM     12  N   UNL A   1      31.243  27.937  23.136  1.00  0.00    -0.296 N 
ATOM     13  C   UNL A   1      32.645  27.710  22.865  1.00  0.00     0.124 C 
ATOM     14  C   UNL A   1      32.631  26.553  21.882  1.00  0.00     0.024 C 
ATOM     15  C   UNL A   1      31.425  25.725  22.311  1.00  0.00     0.037 C 
BRANCH  12  16
ATOM     16  C   UNL A   1      30.644  29.147  23.374  1.00  0.00     0.410 C 
ATOM     17  O   UNL A   1      30.752  29.745  24.437  1.00  0.00    -0.224 OA
BRANCH  16  18
ATOM     18  O   UNL A   1      29.876  29.544  22.329  1.00  0.00    -0.444 OA
BRANCH  18  19
ATOM     19  C   UNL A   1      28.535  30.073  22.513  1.00  0.00     0.106 C 
ATOM     20  C   UNL A   1      28.080  30.488  21.105  1.00  0.00     0.056 C 
ATOM     21  C   UNL A   1      28.612  31.311  23.406  1.00  0.00     0.056 C 
ATOM     22  C   UNL A   1      27.525  29.050  23.050  1.00  0.00     0.056 C 
ENDBRANCH  18  19
ENDBRANCH  16  18
ENDBRANCH  12  16
ENDBRANCH   8  11
ENDBRANCH   6   7
BRANCH   6  23
ATOM     23  C   UNL A   1      33.233  25.592  25.704  1.00  0.00     0.070 C 
BRANCH  23  24
ATOM     24  C   UNL A   1      33.028  26.981  26.252  1.00  0.00    -0.045 A 
ATOM     25  C   UNL A   1      33.972  27.987  26.011  1.00  0.00     0.004 A 
ATOM     26  C   UNL A   1      31.876  27.301  26.984  1.00  0.00     0.004 A 
ATOM     27  C   UNL A   1      33.816  29.259  26.566  1.00  0.00     0.000 A 
ATOM     28  C   UNL A   1      31.702  28.585  27.506  1.00  0.00     0.000 A 
ATOM     29  C   UNL A   1      32.684  29.556  27.318  1.00  0.00     0.000 A 
ENDBRANCH  23  24
ENDBRANCH   6  23
ENDBRANCH   3   6
ENDBRANCH   1   2
BRANCH   1  30
ATOM     30  C   UNL A   1      35.588  23.266  23.212  1.00  0.00     0.023 C 
BRANCH  30  31
ATOM     31  C   UNL A   1      35.931  22.559  24.526  1.00  0.00     0.023 C 
BRANCH  31  32
ATOM     32  C   UNL A   1      37.008  23.201  25.404  1.00  0.00     0.116 C 
BRANCH  32  33
ATOM     33  N   UNL A   1      38.243  22.436  25.518  1.00  0.00    -0.352 N 
ATOM     34  C   UNL A   1      39.428  22.801  26.120  1.00  0.00     0.251 C 
ATOM     35  H   UNL A   1      38.228  21.539  25.112  1.00  0.00     0.163 HD
ATOM     36  O   UNL A   1      40.389  22.039  26.113  1.00  0.00    -0.269 OA
BRANCH  34  37
ATOM     37  C   UNL A   1      39.547  24.143  26.733  1.00  0.00     0.039 A 
ATOM     38  C   UNL A   1      39.025  24.345  28.014  1.00  0.00     0.014 A 
ATOM     39  C   UNL A   1      40.232  25.170  26.080  1.00  0.00     0.014 A 
ATOM     40  C   UNL A   1      39.288  25.543  28.684  1.00  0.00     0.010 A 
ATOM     41  C   UNL A   1      40.542  26.340  26.774  1.00  0.00     0.010 A 
ATOM     42  C   UNL A   1      40.099  26.526  28.092  1.00  0.00    -0.014 A 
BRANCH  42  43
ATOM     43  C   UNL A   1      40.543  27.722  28.858  1.00  0.00     0.031 A 
ATOM     44  C   UNL A   1      41.887  27.742  29.530  1.00  0.00     0.074 A 
ATOM     45  C   UNL A   1      39.700  28.766  29.004  1.00  0.00     0.049 A 
ATOM     46  N   UNL A   1      42.404  28.655  30.313  1.00  0.00    -0.248 NA
ATOM     47  C   UNL A   1      42.758  26.577  29.311  1.00  0.00     0.031 C 
ATOM     48  C   UNL A   1      38.349  28.851  28.441  1.00  0.00     0.029 A 
ATOM     49  N   UNL A   1      39.847  29.951  29.682  1.00  0.00    -0.354 N 
ATOM     50  C   UNL A   1      43.658  28.178  30.678  1.00  0.00     0.074 A 
ATOM     51  C   UNL A   1      43.802  26.870  30.074  1.00  0.00     0.031 C 
ATOM     52  C   UNL A   1      37.799  30.027  28.786  1.00  0.00     0.029 A 
ATOM     53  C   UNL A   1      38.739  30.766  29.622  1.00  0.00     0.049 A 
ATOM     54  H   UNL A   1      40.668  30.195  30.168  1.00  0.00     0.167 HD
ATOM     55  C   UNL A   1      44.611  28.784  31.425  1.00  0.00     0.037 A 
ATOM     56  C   UNL A   1      38.501  31.967  30.187  1.00  0.00     0.037 A 
ATOM     57  C   UNL A   1      44.472  30.091  32.015  1.00  0.00     0.049 A 
ATOM     58  C   UNL A   1      39.573  32.609  31.026  1.00  0.00     0.074 A 
ATOM     59  C   UNL A   1      45.391  30.795  32.774  1.00  0.00     0.029 A 
ATOM     60  N   UNL A   1      43.348  30.896  31.905  1.00  0.00    -0.354 N 
ATOM     61  N   UNL A   1      40.768  32.158  31.325  1.00  0.00    -0.248 NA
ATOM     62  C   UNL A   1      39.268  33.928  31.602  1.00  0.00     0.031 C 
ATOM     63  C   UNL A   1      44.814  32.013  33.145  1.00  0.00     0.029 A 
ATOM     64  C   UNL A   1      43.550  32.085  32.585  1.00  0.00     0.049 A 
ATOM     65  H   UNL A   1      42.528  30.657  31.416  1.00  0.00     0.167 HD
ATOM     66  C   UNL A   1      41.365  33.148  32.097  1.00  0.00     0.074 A 
ATOM     67  C   UNL A   1      40.408  34.228  32.208  1.00  0.00     0.031 C 
ATOM     68  C   UNL A   1      42.595  33.161  32.666  1.00  0.00     0.037 A 
BRANCH  55  69
ATOM     69  C   UNL A   1      45.910  28.054  31.625  1.00  0.00     0.058 A 
ATOM     70  C   UNL A   1      46.981  28.224  30.735  1.00  0.00     0.135 A 
ATOM     71  C   UNL A   1      46.109  27.232  32.746  1.00  0.00     0.135 A 
ATOM     72  F   UNL A   1      46.837  28.987  29.640  1.00  0.00    -0.206 F 
ATOM     73  C   UNL A   1      48.203  27.592  30.940  1.00  0.00     0.059 A 
ATOM     74  C   UNL A   1      47.332  26.609  32.983  1.00  0.00     0.059 A 
ATOM     75  F   UNL A   1      45.117  27.036  33.627  1.00  0.00    -0.206 F 
ATOM     76  C   UNL A   1      48.370  26.789  32.070  1.00  0.00     0.060 A 
BRANCH  76  77
ATOM     77  S   UNL A   1      49.972  26.001  32.334  1.00  0.00     0.124 S 
ATOM     78  O   UNL A   1      50.614  26.203  31.039  1.00  0.00    -0.237 OA
ATOM     79  O   UNL A   1      50.523  26.776  33.441  1.00  0.00    -0.237 OA
ATOM     80  O   UNL A   1      49.624  24.620  32.653  1.00  0.00    -0.744 OA
ENDBRANCH  76  77
ENDBRANCH  55  69
BRANCH  56  81
ATOM     81  C   UNL A   1      37.197  32.653  29.984  1.00  0.00     0.058 A 
ATOM     82  C   UNL A   1      37.066  33.694  29.051  1.00  0.00     0.135 A 
ATOM     83  C   UNL A   1      36.069  32.315  30.747  1.00  0.00     0.135 A 
ATOM     84  F   UNL A   1      38.118  34.057  28.301  1.00  0.00    -0.206 F 
ATOM     85  C   UNL A   1      35.878  34.403  28.911  1.00  0.00     0.059 A 
ATOM     86  C   UNL A   1      34.861  32.992  30.606  1.00  0.00     0.059 A 
ATOM     87  F   UNL A   1      36.135  31.314  31.639  1.00  0.00    -0.206 F 
ATOM     88  C   UNL A   1      34.782  34.049  29.700  1.00  0.00     0.060 A 
BRANCH  88  89
ATOM     89  S   UNL A   1      33.244  34.977  29.519  1.00  0.00     0.124 S 
ATOM     90  O   UNL A   1      32.483  34.110  28.627  1.00  0.00    -0.237 OA
ATOM     91  O   UNL A   1      32.765  35.055  30.896  1.00  0.00    -0.237 OA
ATOM     92  O   UNL A   1      33.685  36.245  28.945  1.00  0.00    -0.744 OA
ENDBRANCH  88  89
ENDBRANCH  56  81
BRANCH  68  93
ATOM     93  C   UNL A   1      42.995  34.398  33.422  1.00  0.00     0.058 A 
ATOM     94  C   UNL A   1      42.674  34.570  34.777  1.00  0.00     0.135 A 
ATOM     95  C   UNL A   1      43.751  35.400  32.792  1.00  0.00     0.135 A 
ATOM     96  F   UNL A   1      41.947  33.644  35.422  1.00  0.00    -0.206 F 
ATOM     97  C   UNL A   1      43.067  35.706  35.477  1.00  0.00     0.059 A 
ATOM     98  C   UNL A   1      44.177  36.532  33.480  1.00  0.00     0.059 A 
ATOM     99  F   UNL A   1      44.093  35.279  31.500  1.00  0.00    -0.206 F 
ATOM    100  C   UNL A   1      43.821  36.681  34.820  1.00  0.00     0.060 A 
BRANCH 100 101
ATOM    101  S   UNL A   1      44.357  38.134  35.749  1.00  0.00     0.124 S 
ATOM    102  O   UNL A   1      45.808  37.984  35.716  1.00  0.00    -0.237 OA
ATOM    103  O   UNL A   1      43.815  39.232  34.955  1.00  0.00    -0.237 OA
ATOM    104  O   UNL A   1      43.735  37.948  37.057  1.00  0.00    -0.744 OA
ENDBRANCH 100 101
ENDBRANCH  68  93
ENDBRANCH  42  43
ENDBRANCH  34  37
ENDBRANCH  32  33
ENDBRANCH  31  32
ENDBRANCH  30  31
ENDBRANCH   1  30
TORSDOF 21
ENDMDL
MODEL 3
REMARK VINA RESULT:     -10.3      2.916      4.871
REMARK SMILES CC(C)(C)OC(=O)N1CCC[C@H]1C(=O)N[C@@H](Cc1ccccc1)C(=O)NCCCCNC(=O)c1ccc(-c2c3nc(c(-c4c(F)cc(S(=O)(=O)[O-])cc4F)c4ccc([nH]4)c(-c4c(F)cc(S(=O)(=O)[O-])cc4F)c4nc(c(-c5c(F)cc(S(=O)(=O)[O-])cc5F)c5ccc2[nH]5)C=C4)C=C3)cc1
REMARK SMILES IDX 27 1 26 2 24 3 25 4 16 6 15 7 13 8 14 9 12 11 8 12 9 13
REMARK SMILES IDX 10 14 11 15 6 16 7 17 5 18 2 19 1 20 3 21 4 22 17 23 18 24
REMARK SMILES IDX 19 25 23 26 20 27 22 28 21 29 28 30 29 31 30 32 31 33 32 34
REMARK SMILES IDX 33 36 34 37 35 38 99 39 36 40 98 41 37 42 38 43 39 44 92 45
REMARK SMILES IDX 40 46 97 47 91 48 93 49 41 50 96 51 90 52 89 53 42 55 76 56
REMARK SMILES IDX 55 57 75 58 56 59 59 60 74 61 94 62 57 63 58 64 73 66 95 67
REMARK SMILES IDX 60 68 43 69 44 70 53 71 45 72 46 73 52 74 54 75 47 76 48 77
REMARK SMILES IDX 49 78 50 79 51 80 77 81 78 82 87 83 79 84 80 85 86 86 88 87
REMARK SMILES IDX 81 88 82 89 83 90 84 91 85 92 61 93 62 94 71 95 63 96 64 97
REMARK SMILES IDX 70 98 72 99 65 100 66 101 67 102 68 103 69 104
REMARK H PARENT 26 5 15 10 31 35 93 54 59 65
REMARK Flexibility Score: inf
ROOT
ATOM      1  C   UNL A   1      34.084  23.284  23.006  1.00  0.00     0.116 C 
ENDROOT
BRANCH   1   2
ATOM      2  N   UNL A   1      33.117  22.750  23.941  1.00  0.00    -0.354 N 
ATOM      3  C   UNL A   1      32.091  23.380  24.584  1.00  0.00     0.242 C 
ATOM      4  O   UNL A   1      31.124  22.682  24.913  1.00  0.00    -0.273 OA
ATOM      5  H   UNL A   1      33.214  21.791  24.144  1.00  0.00     0.163 HD
BRANCH   3   6
ATOM      6  C   UNL A   1      32.026  24.912  24.813  1.00  0.00     0.175 C 
BRANCH   6   7
ATOM      7  N   UNL A   1      30.681  25.446  25.048  1.00  0.00    -0.342 N 
ATOM      8  C   UNL A   1      29.864  26.108  24.165  1.00  0.00     0.243 C 
ATOM      9  O   UNL A   1      28.692  26.304  24.495  1.00  0.00    -0.273 OA
ATOM     10  H   UNL A   1      30.319  25.313  25.954  1.00  0.00     0.164 HD
BRANCH   8  11
ATOM     11  C   UNL A   1      30.492  26.752  22.912  1.00  0.00     0.178 C 
ATOM     12  N   UNL A   1      31.291  27.943  23.167  1.00  0.00    -0.296 N 
ATOM     13  C   UNL A   1      32.701  27.700  22.968  1.00  0.00     0.124 C 
ATOM     14  C   UNL A   1      32.725  26.560  21.966  1.00  0.00     0.024 C 
ATOM     15  C   UNL A   1      31.487  25.742  22.316  1.00  0.00     0.037 C 
BRANCH  12  16
ATOM     16  C   UNL A   1      30.696  29.157  23.394  1.00  0.00     0.410 C 
ATOM     17  O   UNL A   1      30.783  29.751  24.460  1.00  0.00    -0.224 OA
BRANCH  16  18
ATOM     18  O   UNL A   1      29.957  29.563  22.331  1.00  0.00    -0.444 OA
BRANCH  18  19
ATOM     19  C   UNL A   1      28.623  30.117  22.486  1.00  0.00     0.106 C 
ATOM     20  C   UNL A   1      28.221  30.572  21.073  1.00  0.00     0.056 C 
ATOM     21  C   UNL A   1      28.698  31.335  23.407  1.00  0.00     0.056 C 
ATOM     22  C   UNL A   1      27.575  29.106  22.969  1.00  0.00     0.056 C 
ENDBRANCH  18  19
ENDBRANCH  16  18
ENDBRANCH  12  16
ENDBRANCH   8  11
ENDBRANCH   6   7
BRANCH   6  23
ATOM     23  C   UNL A   1      33.110  25.458  25.766  1.00  0.00     0.070 C 
BRANCH  23  24
ATOM     24  C   UNL A   1      32.950  26.859  26.299  1.00  0.00    -0.045 A 
ATOM     25  C   UNL A   1      33.946  27.820  26.085  1.00  0.00     0.004 A 
ATOM     26  C   UNL A   1      31.790  27.235  26.990  1.00  0.00     0.004 A 
ATOM     27  C   UNL A   1      33.829  29.101  26.627  1.00  0.00     0.000 A 
ATOM     28  C   UNL A   1      31.656  28.530  27.498  1.00  0.00     0.000 A 
ATOM     29  C   UNL A   1      32.686  29.455  27.338  1.00  0.00     0.000 A 
ENDBRANCH  23  24
ENDBRANCH   6  23
ENDBRANCH   3   6
ENDBRANCH   1   2
BRANCH   1  30
ATOM     30  C   UNL A   1      35.521  23.303  23.513  1.00  0.00     0.023 C 
BRANCH  30  31
ATOM     31  C   UNL A   1      35.760  22.561  24.830  1.00  0.00     0.023 C 
BRANCH  31  32
ATOM     32  C   UNL A   1      36.807  23.146  25.782  1.00  0.00     0.116 C 
BRANCH  32  33
ATOM     33  N   UNL A   1      37.957  22.288  26.031  1.00  0.00    -0.352 N 
ATOM     34  C   UNL A   1      39.188  22.629  26.550  1.00  0.00     0.251 C 
ATOM     35  H   UNL A   1      37.840  21.339  25.797  1.00  0.00     0.163 HD
ATOM     36  O   UNL A   1      40.064  21.780  26.680  1.00  0.00    -0.269 OA
BRANCH  34  37
ATOM     37  C   UNL A   1      39.459  24.040  26.905  1.00  0.00     0.039 A 
ATOM     38  C   UNL A   1      39.261  24.451  28.226  1.00  0.00     0.014 A 
ATOM     39  C   UNL A   1      39.976  24.929  25.960  1.00  0.00     0.014 A 
ATOM     40  C   UNL A   1      39.686  25.722  28.624  1.00  0.00     0.010 A 
ATOM     41  C   UNL A   1      40.451  26.174  26.372  1.00  0.00     0.010 A 
ATOM     42  C   UNL A   1      40.338  26.571  27.713  1.00  0.00    -0.014 A 
BRANCH  42  43
ATOM     43  C   UNL A   1      40.961  27.846  28.160  1.00  0.00     0.031 A 
ATOM     44  C   UNL A   1      42.454  28.020  28.125  1.00  0.00     0.074 A 
ATOM     45  C   UNL A   1      40.179  28.824  28.665  1.00  0.00     0.049 A 
ATOM     46  N   UNL A   1      43.178  29.021  28.558  1.00  0.00    -0.248 NA
ATOM     47  C   UNL A   1      43.238  26.918  27.545  1.00  0.00     0.031 C 
ATOM     48  C   UNL A   1      38.721  28.761  28.798  1.00  0.00     0.029 A 
ATOM     49  N   UNL A   1      40.501  30.058  29.174  1.00  0.00    -0.354 N 
ATOM     50  C   UNL A   1      44.499  28.672  28.303  1.00  0.00     0.074 A 
ATOM     51  C   UNL A   1      44.480  27.345  27.725  1.00  0.00     0.031 C 
ATOM     52  C   UNL A   1      38.276  29.908  29.339  1.00  0.00     0.029 A 
ATOM     53  C   UNL A   1      39.415  30.773  29.624  1.00  0.00     0.049 A 
ATOM     54  H   UNL A   1      41.424  30.400  29.214  1.00  0.00     0.167 HD
ATOM     55  C   UNL A   1      45.622  29.402  28.505  1.00  0.00     0.037 A 
ATOM     56  C   UNL A   1      39.344  31.985  30.212  1.00  0.00     0.037 A 
ATOM     57  C   UNL A   1      45.639  30.729  29.067  1.00  0.00     0.049 A 
ATOM     58  C   UNL A   1      40.611  32.766  30.440  1.00  0.00     0.074 A 
ATOM     59  C   UNL A   1      46.728  31.553  29.295  1.00  0.00     0.029 A 
ATOM     60  N   UNL A   1      44.516  31.429  29.481  1.00  0.00    -0.354 N 
ATOM     61  N   UNL A   1      41.848  32.435  30.154  1.00  0.00    -0.248 NA
ATOM     62  C   UNL A   1      40.474  34.089  31.067  1.00  0.00     0.031 C 
ATOM     63  C   UNL A   1      46.267  32.741  29.871  1.00  0.00     0.029 A 
ATOM     64  C   UNL A   1      44.887  32.673  29.966  1.00  0.00     0.049 A 
ATOM     65  H   UNL A   1      43.592  31.093  29.438  1.00  0.00     0.167 HD
ATOM     66  C   UNL A   1      42.629  33.518  30.538  1.00  0.00     0.074 A 
ATOM     67  C   UNL A   1      41.727  34.521  31.064  1.00  0.00     0.031 C 
ATOM     68  C   UNL A   1      43.974  33.669  30.465  1.00  0.00     0.037 A 
BRANCH  55  69
ATOM     69  C   UNL A   1      46.932  28.796  28.088  1.00  0.00     0.058 A 
ATOM     70  C   UNL A   1      47.440  28.987  26.794  1.00  0.00     0.135 A 
ATOM     71  C   UNL A   1      47.718  28.076  29.002  1.00  0.00     0.135 A 
ATOM     72  F   UNL A   1      46.722  29.655  25.877  1.00  0.00    -0.206 F 
ATOM     73  C   UNL A   1      48.675  28.473  26.414  1.00  0.00     0.059 A 
ATOM     74  C   UNL A   1      48.968  27.573  28.651  1.00  0.00     0.059 A 
ATOM     75  F   UNL A   1      47.278  27.864  30.252  1.00  0.00    -0.206 F 
ATOM     76  C   UNL A   1      49.434  27.770  27.352  1.00  0.00     0.060 A 
BRANCH  76  77
ATOM     77  S   UNL A   1      51.047  27.134  26.849  1.00  0.00     0.124 S 
ATOM     78  O   UNL A   1      51.010  27.354  25.406  1.00  0.00    -0.237 OA
ATOM     79  O   UNL A   1      51.965  27.988  27.595  1.00  0.00    -0.237 OA
ATOM     80  O   UNL A   1      51.010  25.739  27.273  1.00  0.00    -0.744 OA
ENDBRANCH  76  77
ENDBRANCH  55  69
BRANCH  56  81
ATOM     81  C   UNL A   1      38.032  32.547  30.630  1.00  0.00     0.058 A 
ATOM     82  C   UNL A   1      37.244  33.286  29.734  1.00  0.00     0.135 A 
ATOM     83  C   UNL A   1      37.561  32.397  31.944  1.00  0.00     0.135 A 
ATOM     84  F   UNL A   1      37.655  33.461  28.468  1.00  0.00    -0.206 F 
ATOM     85  C   UNL A   1      36.057  33.891  30.133  1.00  0.00     0.059 A 
ATOM     86  C   UNL A   1      36.362  32.970  32.360  1.00  0.00     0.059 A 
ATOM     87  F   UNL A   1      38.266  31.683  32.835  1.00  0.00    -0.206 F 
ATOM     88  C   UNL A   1      35.629  33.734  31.453  1.00  0.00     0.060 A 
BRANCH  88  89
ATOM     89  S   UNL A   1      34.090  34.526  31.968  1.00  0.00     0.124 S 
ATOM     90  O   UNL A   1      33.550  33.540  32.897  1.00  0.00    -0.237 OA
ATOM     91  O   UNL A   1      34.567  35.771  32.564  1.00  0.00    -0.237 OA
ATOM     92  O   UNL A   1      33.359  34.681  30.713  1.00  0.00    -0.744 OA
ENDBRANCH  88  89
ENDBRANCH  56  81
BRANCH  68  93
ATOM     93  C   UNL A   1      44.549  34.980  30.922  1.00  0.00     0.058 A 
ATOM     94  C   UNL A   1      44.970  35.179  32.246  1.00  0.00     0.135 A 
ATOM     95  C   UNL A   1      44.724  36.035  30.012  1.00  0.00     0.135 A 
ATOM     96  F   UNL A   1      44.817  34.205  33.157  1.00  0.00    -0.206 F 
ATOM     97  C   UNL A   1      45.524  36.387  32.658  1.00  0.00     0.059 A 
ATOM     98  C   UNL A   1      45.300  37.242  30.396  1.00  0.00     0.059 A 
ATOM     99  F   UNL A   1      44.347  35.892  28.732  1.00  0.00    -0.206 F 
ATOM    100  C   UNL A   1      45.686  37.413  31.724  1.00  0.00     0.060 A 
BRANCH 100 101
ATOM    101  S   UNL A   1      46.440  38.963  32.262  1.00  0.00     0.124 S 
ATOM    102  O   UNL A   1      47.349  39.247  31.156  1.00  0.00    -0.237 OA
ATOM    103  O   UNL A   1      45.286  39.849  32.378  1.00  0.00    -0.237 OA
ATOM    104  O   UNL A   1      47.079  38.609  33.526  1.00  0.00    -0.744 OA
ENDBRANCH 100 101
ENDBRANCH  68  93
ENDBRANCH  42  43
ENDBRANCH  34  37
ENDBRANCH  32  33
ENDBRANCH  31  32
ENDBRANCH  30  31
ENDBRANCH   1  30
TORSDOF 21
ENDMDL
