MODEL 1
REMARK VINA RESULT:     -12.8      0.000      0.000
REMARK SMILES COc1cc(CC(=O)N[C@@H](CC(=O)NCCCCNC(=O)c2ccc(-c3c4nc(c(-c5c(F)cc(S(=O)(=O)[O-])cc5F)c5ccc([nH]5)c(-c5c(F)cc(S(=O)(=O)[O-])cc5F)c5nc(c(-c6c(F)cc(S(=O)(=O)[O-])cc6F)c6ccc3[nH]6)C=C5)C=C4)cc2)c2cccs2)ccc1C
REMARK SMILES IDX 15 1 14 2 12 3 13 4 11 6 10 7 9 8 7 9 8 10 6 12 5 13 3 14
REMARK SMILES IDX 4 15 95 16 94 17 96 18 93 19 2 20 1 21 88 22 89 23 92 24
REMARK SMILES IDX 90 25 91 26 16 27 17 28 18 29 19 30 20 31 21 33 22 34 23 35
REMARK SMILES IDX 87 36 24 37 86 38 25 39 26 40 27 41 80 42 28 43 85 44 79 45
REMARK SMILES IDX 81 46 29 47 84 48 78 49 77 50 30 52 64 53 43 54 63 55 44 56
REMARK SMILES IDX 47 57 62 58 82 59 45 60 46 61 61 63 83 64 48 65 31 66 32 67
REMARK SMILES IDX 41 68 33 69 34 70 40 71 42 72 35 73 36 74 37 75 38 76 39 77
REMARK SMILES IDX 65 78 66 79 75 80 67 81 68 82 74 83 76 84 69 85 70 86 71 87
REMARK SMILES IDX 72 88 73 89 49 90 50 91 59 92 51 93 52 94 58 95 60 96 53 97
REMARK SMILES IDX 54 98 55 99 56 100 57 101
REMARK H PARENT 14 5 9 11 19 32 81 51 47 62
REMARK Flexibility Score: inf
ROOT
ATOM      1  C   UNL A   1      32.289  29.698  24.957  1.00  0.00     0.116 C 
ENDROOT
BRANCH   1   2
ATOM      2  N   UNL A   1      30.993  29.567  24.307  1.00  0.00    -0.356 N 
ATOM      3  C   UNL A   1      30.457  28.551  23.581  1.00  0.00     0.222 C 
ATOM      4  O   UNL A   1      29.267  28.640  23.261  1.00  0.00    -0.275 OA
ATOM      5  H   UNL A   1      30.405  30.350  24.409  1.00  0.00     0.163 HD
BRANCH   3   6
ATOM      6  C   UNL A   1      31.252  27.315  23.210  1.00  0.00     0.130 C 
BRANCH   6   7
ATOM      7  C   UNL A   1      30.615  25.920  23.280  1.00  0.00     0.131 C 
BRANCH   7   8
ATOM      8  N   UNL A   1      29.869  25.653  24.497  1.00  0.00    -0.348 N 
ATOM      9  C   UNL A   1      30.181  25.634  25.813  1.00  0.00     0.224 C 
ATOM     10  O   UNL A   1      29.289  25.252  26.579  1.00  0.00    -0.275 OA
ATOM     11  H   UNL A   1      28.924  25.437  24.327  1.00  0.00     0.164 HD
BRANCH   9  12
ATOM     12  C   UNL A   1      31.448  26.227  26.384  1.00  0.00     0.135 C 
BRANCH  12  13
ATOM     13  C   UNL A   1      32.766  25.560  26.103  1.00  0.00    -0.035 A 
ATOM     14  C   UNL A   1      34.133  23.537  26.163  1.00  0.00     0.122 A 
ATOM     15  C   UNL A   1      32.940  24.210  26.445  1.00  0.00     0.051 A 
ATOM     16  C   UNL A   1      35.185  24.227  25.546  1.00  0.00    -0.009 A 
ATOM     17  C   UNL A   1      34.998  25.570  25.174  1.00  0.00     0.007 A 
ATOM     18  C   UNL A   1      36.490  23.561  25.205  1.00  0.00     0.048 C 
ATOM     19  C   UNL A   1      33.799  26.231  25.444  1.00  0.00     0.005 A 
BRANCH  14  20
ATOM     20  O   UNL A   1      34.354  22.224  26.491  1.00  0.00    -0.496 OA
ATOM     21  C   UNL A   1      33.583  21.708  27.569  1.00  0.00     0.278 C 
ENDBRANCH  14  20
ENDBRANCH  12  13
ENDBRANCH   9  12
ENDBRANCH   7   8
BRANCH   7  22
ATOM     22  C   UNL A   1      31.496  24.696  23.070  1.00  0.00     0.027 A 
ATOM     23  C   UNL A   1      32.687  24.666  22.359  1.00  0.00     0.017 A 
ATOM     24  S   UNL A   1      31.045  23.106  23.526  1.00  0.00    -0.147 S 
ATOM     25  C   UNL A   1      33.231  23.355  22.228  1.00  0.00     0.012 A 
ATOM     26  C   UNL A   1      32.447  22.414  22.852  1.00  0.00     0.065 A 
ENDBRANCH   7  22
ENDBRANCH   6   7
ENDBRANCH   3   6
ENDBRANCH   1   2
BRANCH   1  27
ATOM     27  C   UNL A   1      32.190  30.254  26.383  1.00  0.00     0.023 C 
BRANCH  27  28
ATOM     28  C   UNL A   1      32.998  29.526  27.448  1.00  0.00     0.023 C 
BRANCH  28  29
ATOM     29  C   UNL A   1      34.495  29.626  27.240  1.00  0.00     0.116 C 
BRANCH  29  30
ATOM     30  N   UNL A   1      35.111  30.819  27.807  1.00  0.00    -0.352 N 
ATOM     31  C   UNL A   1      36.301  30.884  28.521  1.00  0.00     0.251 C 
ATOM     32  H   UNL A   1      34.634  31.669  27.669  1.00  0.00     0.163 HD
ATOM     33  O   UNL A   1      36.675  31.914  29.060  1.00  0.00    -0.269 OA
BRANCH  31  34
ATOM     34  C   UNL A   1      37.122  29.652  28.566  1.00  0.00     0.039 A 
ATOM     35  C   UNL A   1      37.302  29.015  29.795  1.00  0.00     0.014 A 
ATOM     36  C   UNL A   1      37.943  29.360  27.481  1.00  0.00     0.014 A 
ATOM     37  C   UNL A   1      38.444  28.239  29.999  1.00  0.00     0.010 A 
ATOM     38  C   UNL A   1      39.132  28.701  27.726  1.00  0.00     0.010 A 
ATOM     39  C   UNL A   1      39.412  28.175  28.998  1.00  0.00    -0.014 A 
BRANCH  39  40
ATOM     40  C   UNL A   1      40.776  27.673  29.189  1.00  0.00     0.031 A 
ATOM     41  C   UNL A   1      41.120  26.288  28.772  1.00  0.00     0.074 A 
ATOM     42  C   UNL A   1      41.764  28.485  29.625  1.00  0.00     0.049 A 
ATOM     43  N   UNL A   1      42.251  25.707  28.995  1.00  0.00    -0.248 NA
ATOM     44  C   UNL A   1      40.156  25.410  28.122  1.00  0.00     0.031 C 
ATOM     45  C   UNL A   1      43.203  28.278  29.473  1.00  0.00     0.029 A 
ATOM     46  N   UNL A   1      41.668  29.568  30.500  1.00  0.00    -0.354 N 
ATOM     47  C   UNL A   1      42.271  24.515  28.305  1.00  0.00     0.074 A 
ATOM     48  C   UNL A   1      40.913  24.344  27.855  1.00  0.00     0.031 C 
ATOM     49  C   UNL A   1      43.852  29.009  30.389  1.00  0.00     0.029 A 
ATOM     50  C   UNL A   1      42.857  29.602  31.259  1.00  0.00     0.049 A 
ATOM     51  H   UNL A   1      40.910  30.192  30.574  1.00  0.00     0.167 HD
ATOM     52  C   UNL A   1      43.466  23.878  28.126  1.00  0.00     0.037 A 
ATOM     53  C   UNL A   1      42.822  29.445  32.617  1.00  0.00     0.037 A 
ATOM     54  C   UNL A   1      44.481  24.415  29.043  1.00  0.00     0.049 A 
ATOM     55  C   UNL A   1      43.477  28.176  33.130  1.00  0.00     0.074 A 
ATOM     56  C   UNL A   1      45.581  25.251  28.940  1.00  0.00     0.029 A 
ATOM     57  N   UNL A   1      44.259  24.261  30.401  1.00  0.00    -0.354 N 
ATOM     58  N   UNL A   1      44.127  27.321  32.388  1.00  0.00    -0.248 NA
ATOM     59  C   UNL A   1      43.374  27.732  34.523  1.00  0.00     0.031 C 
ATOM     60  C   UNL A   1      45.976  25.634  30.259  1.00  0.00     0.029 A 
ATOM     61  C   UNL A   1      45.121  25.024  31.159  1.00  0.00     0.049 A 
ATOM     62  H   UNL A   1      43.566  23.673  30.781  1.00  0.00     0.167 HD
ATOM     63  C   UNL A   1      44.412  26.205  33.133  1.00  0.00     0.074 A 
ATOM     64  C   UNL A   1      43.964  26.525  34.473  1.00  0.00     0.031 C 
ATOM     65  C   UNL A   1      44.928  25.062  32.600  1.00  0.00     0.037 A 
BRANCH  52  66
ATOM     66  C   UNL A   1      43.778  22.883  27.012  1.00  0.00     0.058 A 
ATOM     67  C   UNL A   1      43.064  21.663  26.924  1.00  0.00     0.135 A 
ATOM     68  C   UNL A   1      44.818  22.998  26.066  1.00  0.00     0.135 A 
ATOM     69  F   UNL A   1      42.009  21.412  27.712  1.00  0.00    -0.206 F 
ATOM     70  C   UNL A   1      43.409  20.631  26.042  1.00  0.00     0.059 A 
ATOM     71  C   UNL A   1      45.194  21.976  25.191  1.00  0.00     0.059 A 
ATOM     72  F   UNL A   1      45.528  24.112  25.905  1.00  0.00    -0.206 F 
ATOM     73  C   UNL A   1      44.496  20.785  25.196  1.00  0.00     0.060 A 
BRANCH  73  74
ATOM     74  S   UNL A   1      44.995  19.433  24.119  1.00  0.00     0.124 S 
ATOM     75  O   UNL A   1      46.450  19.478  24.226  1.00  0.00    -0.237 OA
ATOM     76  O   UNL A   1      44.344  18.286  24.743  1.00  0.00    -0.237 OA
ATOM     77  O   UNL A   1      44.459  19.819  22.815  1.00  0.00    -0.744 OA
ENDBRANCH  73  74
ENDBRANCH  52  66
BRANCH  53  78
ATOM     78  C   UNL A   1      41.652  30.132  33.227  1.00  0.00     0.058 A 
ATOM     79  C   UNL A   1      41.741  31.531  33.373  1.00  0.00     0.135 A 
ATOM     80  C   UNL A   1      40.375  29.555  33.196  1.00  0.00     0.135 A 
ATOM     81  F   UNL A   1      42.944  32.127  33.428  1.00  0.00    -0.206 F 
ATOM     82  C   UNL A   1      40.617  32.341  33.281  1.00  0.00     0.059 A 
ATOM     83  C   UNL A   1      39.232  30.349  33.122  1.00  0.00     0.059 A 
ATOM     84  F   UNL A   1      40.235  28.228  33.062  1.00  0.00    -0.206 F 
ATOM     85  C   UNL A   1      39.379  31.736  33.075  1.00  0.00     0.060 A 
BRANCH  85  86
ATOM     86  S   UNL A   1      38.025  32.787  32.502  1.00  0.00     0.124 S 
ATOM     87  O   UNL A   1      36.955  31.818  32.288  1.00  0.00    -0.237 OA
ATOM     88  O   UNL A   1      37.862  33.679  33.647  1.00  0.00    -0.237 OA
ATOM     89  O   UNL A   1      38.570  33.403  31.297  1.00  0.00    -0.744 OA
ENDBRANCH  85  86
ENDBRANCH  53  78
BRANCH  65  90
ATOM     90  C   UNL A   1      45.255  23.858  33.434  1.00  0.00     0.058 A 
ATOM     91  C   UNL A   1      44.277  22.911  33.774  1.00  0.00     0.135 A 
ATOM     92  C   UNL A   1      46.523  23.697  34.030  1.00  0.00     0.135 A 
ATOM     93  F   UNL A   1      43.040  22.997  33.260  1.00  0.00    -0.206 F 
ATOM     94  C   UNL A   1      44.537  21.864  34.657  1.00  0.00     0.059 A 
ATOM     95  C   UNL A   1      46.794  22.686  34.947  1.00  0.00     0.059 A 
ATOM     96  F   UNL A   1      47.543  24.512  33.719  1.00  0.00    -0.206 F 
ATOM     97  C   UNL A   1      45.796  21.765  35.248  1.00  0.00     0.060 A 
BRANCH  97  98
ATOM     98  S   UNL A   1      46.120  20.457  36.449  1.00  0.00     0.124 S 
ATOM     99  O   UNL A   1      45.302  19.353  35.954  1.00  0.00    -0.237 OA
ATOM    100  O   UNL A   1      47.562  20.285  36.309  1.00  0.00    -0.237 OA
ATOM    101  O   UNL A   1      45.673  21.042  37.709  1.00  0.00    -0.744 OA
ENDBRANCH  97  98
ENDBRANCH  65  90
ENDBRANCH  39  40
ENDBRANCH  31  34
ENDBRANCH  29  30
ENDBRANCH  28  29
ENDBRANCH  27  28
ENDBRANCH   1  27
TORSDOF 20
ENDMDL
MODEL 2
REMARK VINA RESULT:     -12.2      2.268      3.702
REMARK SMILES COc1cc(CC(=O)N[C@@H](CC(=O)NCCCCNC(=O)c2ccc(-c3c4nc(c(-c5c(F)cc(S(=O)(=O)[O-])cc5F)c5ccc([nH]5)c(-c5c(F)cc(S(=O)(=O)[O-])cc5F)c5nc(c(-c6c(F)cc(S(=O)(=O)[O-])cc6F)c6ccc3[nH]6)C=C5)C=C4)cc2)c2cccs2)ccc1C
REMARK SMILES IDX 15 1 14 2 12 3 13 4 11 6 10 7 9 8 7 9 8 10 6 12 5 13 3 14
REMARK SMILES IDX 4 15 95 16 94 17 96 18 93 19 2 20 1 21 88 22 89 23 92 24
REMARK SMILES IDX 90 25 91 26 16 27 17 28 18 29 19 30 20 31 21 33 22 34 23 35
REMARK SMILES IDX 87 36 24 37 86 38 25 39 26 40 27 41 80 42 28 43 85 44 79 45
REMARK SMILES IDX 81 46 29 47 84 48 78 49 77 50 30 52 64 53 43 54 63 55 44 56
REMARK SMILES IDX 47 57 62 58 82 59 45 60 46 61 61 63 83 64 48 65 31 66 32 67
REMARK SMILES IDX 41 68 33 69 34 70 40 71 42 72 35 73 36 74 37 75 38 76 39 77
REMARK SMILES IDX 65 78 66 79 75 80 67 81 68 82 74 83 76 84 69 85 70 86 71 87
REMARK SMILES IDX 72 88 73 89 49 90 50 91 59 92 51 93 52 94 58 95 60 96 53 97
REMARK SMILES IDX 54 98 55 99 56 100 57 101
REMARK H PARENT 14 5 9 11 19 32 81 51 47 62
REMARK Flexibility Score: inf
ROOT
ATOM      1  C   UNL A   1      33.104  26.014  25.889  1.00  0.00     0.116 C 
ENDROOT
BRANCH   1   2
ATOM      2  N   UNL A   1      31.719  26.138  26.319  1.00  0.00    -0.356 N 
ATOM      3  C   UNL A   1      30.557  25.820  25.690  1.00  0.00     0.222 C 
ATOM      4  O   UNL A   1      29.512  25.893  26.344  1.00  0.00    -0.275 OA
ATOM      5  H   UNL A   1      31.605  26.518  27.220  1.00  0.00     0.163 HD
BRANCH   3   6
ATOM      6  C   UNL A   1      30.521  25.339  24.253  1.00  0.00     0.130 C 
BRANCH   6   7
ATOM      7  C   UNL A   1      30.525  26.339  23.088  1.00  0.00     0.131 C 
BRANCH   7   8
ATOM      8  N   UNL A   1      31.846  26.775  22.668  1.00  0.00    -0.348 N 
ATOM      9  C   UNL A   1      32.933  26.150  22.161  1.00  0.00     0.224 C 
ATOM     10  O   UNL A   1      33.943  26.846  22.017  1.00  0.00    -0.275 OA
ATOM     11  H   UNL A   1      31.981  27.744  22.778  1.00  0.00     0.164 HD
BRANCH   9  12
ATOM     12  C   UNL A   1      32.906  24.749  21.595  1.00  0.00     0.135 C 
BRANCH  12  13
ATOM     13  C   UNL A   1      33.214  23.585  22.496  1.00  0.00    -0.035 A 
ATOM     14  C   UNL A   1      34.747  22.511  24.065  1.00  0.00     0.122 A 
ATOM     15  C   UNL A   1      34.436  23.552  23.185  1.00  0.00     0.051 A 
ATOM     16  C   UNL A   1      33.830  21.468  24.250  1.00  0.00    -0.009 A 
ATOM     17  C   UNL A   1      32.592  21.517  23.584  1.00  0.00     0.007 A 
ATOM     18  C   UNL A   1      34.096  20.324  25.190  1.00  0.00     0.048 C 
ATOM     19  C   UNL A   1      32.283  22.568  22.719  1.00  0.00     0.005 A 
BRANCH  14  20
ATOM     20  O   UNL A   1      35.933  22.430  24.749  1.00  0.00    -0.496 OA
ATOM     21  C   UNL A   1      36.848  23.500  24.547  1.00  0.00     0.278 C 
ENDBRANCH  14  20
ENDBRANCH  12  13
ENDBRANCH   9  12
ENDBRANCH   7   8
BRANCH   7  22
ATOM     22  C   UNL A   1      29.698  27.612  23.206  1.00  0.00     0.027 A 
ATOM     23  C   UNL A   1      28.313  27.678  23.251  1.00  0.00     0.017 A 
ATOM     24  S   UNL A   1      30.359  29.191  23.109  1.00  0.00    -0.147 S 
ATOM     25  C   UNL A   1      27.814  29.013  23.241  1.00  0.00     0.012 A 
ATOM     26  C   UNL A   1      28.831  29.936  23.200  1.00  0.00     0.065 A 
ENDBRANCH   7  22
ENDBRANCH   6   7
ENDBRANCH   3   6
ENDBRANCH   1   2
BRANCH   1  27
ATOM     27  C   UNL A   1      33.875  27.339  25.962  1.00  0.00     0.023 C 
BRANCH  27  28
ATOM     28  C   UNL A   1      33.036  28.608  25.953  1.00  0.00     0.023 C 
BRANCH  28  29
ATOM     29  C   UNL A   1      32.833  29.205  27.331  1.00  0.00     0.116 C 
BRANCH  29  30
ATOM     30  N   UNL A   1      33.187  30.615  27.442  1.00  0.00    -0.352 N 
ATOM     31  C   UNL A   1      34.371  31.141  27.942  1.00  0.00     0.251 C 
ATOM     32  H   UNL A   1      32.516  31.263  27.128  1.00  0.00     0.163 HD
ATOM     33  O   UNL A   1      34.528  32.341  28.105  1.00  0.00    -0.269 OA
BRANCH  31  34
ATOM     34  C   UNL A   1      35.460  30.179  28.232  1.00  0.00     0.039 A 
ATOM     35  C   UNL A   1      35.624  29.733  29.546  1.00  0.00     0.014 A 
ATOM     36  C   UNL A   1      36.467  30.008  27.288  1.00  0.00     0.014 A 
ATOM     37  C   UNL A   1      36.885  29.309  29.968  1.00  0.00     0.010 A 
ATOM     38  C   UNL A   1      37.738  29.713  27.740  1.00  0.00     0.010 A 
ATOM     39  C   UNL A   1      37.965  29.405  29.092  1.00  0.00    -0.014 A 
BRANCH  39  40
ATOM     40  C   UNL A   1      39.372  29.301  29.490  1.00  0.00     0.031 A 
ATOM     41  C   UNL A   1      40.119  28.039  29.244  1.00  0.00     0.074 A 
ATOM     42  C   UNL A   1      40.044  30.372  29.967  1.00  0.00     0.049 A 
ATOM     43  N   UNL A   1      41.320  27.797  29.652  1.00  0.00    -0.248 NA
ATOM     44  C   UNL A   1      39.517  26.900  28.565  1.00  0.00     0.031 C 
ATOM     45  C   UNL A   1      41.494  30.553  30.007  1.00  0.00     0.029 A 
ATOM     46  N   UNL A   1      39.548  31.435  30.722  1.00  0.00    -0.354 N 
ATOM     47  C   UNL A   1      41.744  26.619  29.081  1.00  0.00     0.074 A 
ATOM     48  C   UNL A   1      40.555  26.064  28.488  1.00  0.00     0.031 C 
ATOM     49  C   UNL A   1      41.796  31.480  30.925  1.00  0.00     0.029 A 
ATOM     50  C   UNL A   1      40.569  31.831  31.612  1.00  0.00     0.049 A 
ATOM     51  H   UNL A   1      38.652  31.835  30.648  1.00  0.00     0.167 HD
ATOM     52  C   UNL A   1      43.077  26.319  29.105  1.00  0.00     0.037 A 
ATOM     53  C   UNL A   1      40.387  31.744  32.965  1.00  0.00     0.037 A 
ATOM     54  C   UNL A   1      43.780  27.160  30.084  1.00  0.00     0.049 A 
ATOM     55  C   UNL A   1      41.271  30.730  33.665  1.00  0.00     0.074 A 
ATOM     56  C   UNL A   1      44.628  28.254  30.039  1.00  0.00     0.029 A 
ATOM     57  N   UNL A   1      43.417  27.026  31.414  1.00  0.00    -0.354 N 
ATOM     58  N   UNL A   1      42.218  30.042  33.087  1.00  0.00    -0.248 NA
ATOM     59  C   UNL A   1      41.093  30.351  35.070  1.00  0.00     0.031 C 
ATOM     60  C   UNL A   1      44.720  28.801  31.356  1.00  0.00     0.029 A 
ATOM     61  C   UNL A   1      43.937  28.034  32.199  1.00  0.00     0.049 A 
ATOM     62  H   UNL A   1      42.855  26.295  31.760  1.00  0.00     0.167 HD
ATOM     63  C   UNL A   1      42.676  29.087  33.958  1.00  0.00     0.074 A 
ATOM     64  C   UNL A   1      41.977  29.347  35.201  1.00  0.00     0.031 C 
ATOM     65  C   UNL A   1      43.541  28.097  33.596  1.00  0.00     0.037 A 
BRANCH  52  66
ATOM     66  C   UNL A   1      43.789  25.385  28.131  1.00  0.00     0.058 A 
ATOM     67  C   UNL A   1      44.234  25.866  26.875  1.00  0.00     0.135 A 
ATOM     68  C   UNL A   1      43.980  23.997  28.304  1.00  0.00     0.135 A 
ATOM     69  F   UNL A   1      44.179  27.169  26.566  1.00  0.00    -0.206 F 
ATOM     70  C   UNL A   1      44.735  25.034  25.866  1.00  0.00     0.059 A 
ATOM     71  C   UNL A   1      44.459  23.145  27.306  1.00  0.00     0.059 A 
ATOM     72  F   UNL A   1      43.739  23.374  29.455  1.00  0.00    -0.206 F 
ATOM     73  C   UNL A   1      44.818  23.667  26.080  1.00  0.00     0.060 A 
BRANCH  73  74
ATOM     74  S   UNL A   1      45.384  22.583  24.760  1.00  0.00     0.124 S 
ATOM     75  O   UNL A   1      46.127  23.505  23.906  1.00  0.00    -0.237 OA
ATOM     76  O   UNL A   1      46.182  21.602  25.487  1.00  0.00    -0.237 OA
ATOM     77  O   UNL A   1      44.143  22.071  24.182  1.00  0.00    -0.744 OA
ENDBRANCH  73  74
ENDBRANCH  52  66
BRANCH  53  78
ATOM     78  C   UNL A   1      39.005  32.123  33.366  1.00  0.00     0.058 A 
ATOM     79  C   UNL A   1      38.687  33.496  33.333  1.00  0.00     0.135 A 
ATOM     80  C   UNL A   1      37.951  31.203  33.291  1.00  0.00     0.135 A 
ATOM     81  F   UNL A   1      39.664  34.415  33.422  1.00  0.00    -0.206 F 
ATOM     82  C   UNL A   1      37.406  33.935  33.029  1.00  0.00     0.059 A 
ATOM     83  C   UNL A   1      36.653  31.623  33.004  1.00  0.00     0.059 A 
ATOM     84  F   UNL A   1      38.199  29.885  33.320  1.00  0.00    -0.206 F 
ATOM     85  C   UNL A   1      36.418  32.982  32.788  1.00  0.00     0.060 A 
BRANCH  85  86
ATOM     86  S   UNL A   1      34.912  33.536  31.956  1.00  0.00     0.124 S 
ATOM     87  O   UNL A   1      34.232  34.273  33.015  1.00  0.00    -0.237 OA
ATOM     88  O   UNL A   1      35.474  34.341  30.875  1.00  0.00    -0.237 OA
ATOM     89  O   UNL A   1      34.280  32.287  31.548  1.00  0.00    -0.744 OA
ENDBRANCH  85  86
ENDBRANCH  53  78
BRANCH  65  90
ATOM     90  C   UNL A   1      44.050  27.075  34.569  1.00  0.00     0.058 A 
ATOM     91  C   UNL A   1      45.381  27.084  35.015  1.00  0.00     0.135 A 
ATOM     92  C   UNL A   1      43.258  25.978  34.970  1.00  0.00     0.135 A 
ATOM     93  F   UNL A   1      46.207  28.084  34.670  1.00  0.00    -0.206 F 
ATOM     94  C   UNL A   1      45.901  26.063  35.810  1.00  0.00     0.059 A 
ATOM     95  C   UNL A   1      43.767  24.927  35.727  1.00  0.00     0.059 A 
ATOM     96  F   UNL A   1      41.956  25.912  34.650  1.00  0.00    -0.206 F 
ATOM     97  C   UNL A   1      45.090  24.983  36.153  1.00  0.00     0.060 A 
BRANCH  97  98
ATOM     98  S   UNL A   1      45.774  23.621  37.120  1.00  0.00     0.124 S 
ATOM     99  O   UNL A   1      45.299  22.442  36.399  1.00  0.00    -0.237 OA
ATOM    100  O   UNL A   1      47.205  23.885  37.022  1.00  0.00    -0.237 OA
ATOM    101  O   UNL A   1      45.183  23.818  38.440  1.00  0.00    -0.744 OA
ENDBRANCH  97  98
ENDBRANCH  65  90
ENDBRANCH  39  40
ENDBRANCH  31  34
ENDBRANCH  29  30
ENDBRANCH  28  29
ENDBRANCH  27  28
ENDBRANCH   1  27
TORSDOF 20
ENDMDL
MODEL 3
REMARK VINA RESULT:     -12.0      2.104      3.720
REMARK SMILES COc1cc(CC(=O)N[C@@H](CC(=O)NCCCCNC(=O)c2ccc(-c3c4nc(c(-c5c(F)cc(S(=O)(=O)[O-])cc5F)c5ccc([nH]5)c(-c5c(F)cc(S(=O)(=O)[O-])cc5F)c5nc(c(-c6c(F)cc(S(=O)(=O)[O-])cc6F)c6ccc3[nH]6)C=C5)C=C4)cc2)c2cccs2)ccc1C
REMARK SMILES IDX 15 1 14 2 12 3 13 4 11 6 10 7 9 8 7 9 8 10 6 12 5 13 3 14
REMARK SMILES IDX 4 15 95 16 94 17 96 18 93 19 2 20 1 21 88 22 89 23 92 24
REMARK SMILES IDX 90 25 91 26 16 27 17 28 18 29 19 30 20 31 21 33 22 34 23 35
REMARK SMILES IDX 87 36 24 37 86 38 25 39 26 40 27 41 80 42 28 43 85 44 79 45
REMARK SMILES IDX 81 46 29 47 84 48 78 49 77 50 30 52 64 53 43 54 63 55 44 56
REMARK SMILES IDX 47 57 62 58 82 59 45 60 46 61 61 63 83 64 48 65 31 66 32 67
REMARK SMILES IDX 41 68 33 69 34 70 40 71 42 72 35 73 36 74 37 75 38 76 39 77
REMARK SMILES IDX 65 78 66 79 75 80 67 81 68 82 74 83 76 84 69 85 70 86 71 87
REMARK SMILES IDX 72 88 73 89 49 90 50 91 59 92 51 93 52 94 58 95 60 96 53 97
REMARK SMILES IDX 54 98 55 99 56 100 57 101
REMARK H PARENT 14 5 9 11 19 32 81 51 47 62
REMARK Flexibility Score: inf
ROOT
ATOM      1  C   UNL A   1      31.965  26.473  26.137  1.00  0.00     0.116 C 
ENDROOT
BRANCH   1   2
ATOM      2  N   UNL A   1      31.181  25.304  26.504  1.00  0.00    -0.356 N 
ATOM      3  C   UNL A   1      31.560  24.042  26.836  1.00  0.00     0.222 C 
ATOM      4  O   UNL A   1      30.689  23.272  27.251  1.00  0.00    -0.275 OA
ATOM      5  H   UNL A   1      30.207  25.453  26.512  1.00  0.00     0.163 HD
BRANCH   3   6
ATOM      6  C   UNL A   1      33.004  23.586  26.761  1.00  0.00     0.130 C 
BRANCH   6   7
ATOM      7  C   UNL A   1      33.679  23.333  25.405  1.00  0.00     0.131 C 
BRANCH   7   8
ATOM      8  N   UNL A   1      32.909  22.510  24.489  1.00  0.00    -0.348 N 
ATOM      9  C   UNL A   1      32.541  22.627  23.192  1.00  0.00     0.224 C 
ATOM     10  O   UNL A   1      31.776  21.757  22.763  1.00  0.00    -0.275 OA
ATOM     11  H   UNL A   1      32.580  21.681  24.905  1.00  0.00     0.164 HD
BRANCH   9  12
ATOM     12  C   UNL A   1      33.159  23.615  22.231  1.00  0.00     0.135 C 
BRANCH  12  13
ATOM     13  C   UNL A   1      32.903  25.085  22.420  1.00  0.00    -0.035 A 
ATOM     14  C   UNL A   1      31.300  26.924  22.538  1.00  0.00     0.122 A 
ATOM     15  C   UNL A   1      31.590  25.573  22.327  1.00  0.00     0.051 A 
ATOM     16  C   UNL A   1      32.342  27.816  22.827  1.00  0.00    -0.009 A 
ATOM     17  C   UNL A   1      33.652  27.322  22.952  1.00  0.00     0.007 A 
ATOM     18  C   UNL A   1      32.098  29.279  23.076  1.00  0.00     0.048 C 
ATOM     19  C   UNL A   1      33.932  25.968  22.756  1.00  0.00     0.005 A 
BRANCH  14  20
ATOM     20  O   UNL A   1      30.037  27.448  22.444  1.00  0.00    -0.496 OA
ATOM     21  C   UNL A   1      29.144  27.127  23.503  1.00  0.00     0.278 C 
ENDBRANCH  14  20
ENDBRANCH  12  13
ENDBRANCH   9  12
ENDBRANCH   7   8
BRANCH   7  22
ATOM     22  C   UNL A   1      35.088  22.756  25.380  1.00  0.00     0.027 A 
ATOM     23  C   UNL A   1      36.265  23.490  25.370  1.00  0.00     0.017 A 
ATOM     24  S   UNL A   1      35.432  21.091  25.163  1.00  0.00    -0.147 S 
ATOM     25  C   UNL A   1      37.430  22.682  25.223  1.00  0.00     0.012 A 
ATOM     26  C   UNL A   1      37.115  21.347  25.134  1.00  0.00     0.065 A 
ENDBRANCH   7  22
ENDBRANCH   6   7
ENDBRANCH   3   6
ENDBRANCH   1   2
BRANCH   1  27
ATOM     27  C   UNL A   1      31.402  27.779  26.714  1.00  0.00     0.023 C 
BRANCH  27  28
ATOM     28  C   UNL A   1      32.395  28.684  27.428  1.00  0.00     0.023 C 
BRANCH  28  29
ATOM     29  C   UNL A   1      33.020  29.725  26.522  1.00  0.00     0.116 C 
BRANCH  29  30
ATOM     30  N   UNL A   1      33.263  31.016  27.155  1.00  0.00    -0.352 N 
ATOM     31  C   UNL A   1      34.274  31.326  28.055  1.00  0.00     0.251 C 
ATOM     32  H   UNL A   1      32.645  31.745  26.918  1.00  0.00     0.163 HD
ATOM     33  O   UNL A   1      34.325  32.406  28.623  1.00  0.00    -0.269 OA
BRANCH  31  34
ATOM     34  C   UNL A   1      35.320  30.299  28.266  1.00  0.00     0.039 A 
ATOM     35  C   UNL A   1      35.544  29.832  29.564  1.00  0.00     0.014 A 
ATOM     36  C   UNL A   1      36.250  30.077  27.255  1.00  0.00     0.014 A 
ATOM     37  C   UNL A   1      36.803  29.331  29.898  1.00  0.00     0.010 A 
ATOM     38  C   UNL A   1      37.528  29.703  27.620  1.00  0.00     0.010 A 
ATOM     39  C   UNL A   1      37.826  29.370  28.951  1.00  0.00    -0.014 A 
BRANCH  39  40
ATOM     40  C   UNL A   1      39.248  29.179  29.253  1.00  0.00     0.031 A 
ATOM     41  C   UNL A   1      39.905  27.884  28.932  1.00  0.00     0.074 A 
ATOM     42  C   UNL A   1      40.009  30.199  29.707  1.00  0.00     0.049 A 
ATOM     43  N   UNL A   1      41.114  27.566  29.255  1.00  0.00    -0.248 NA
ATOM     44  C   UNL A   1      39.196  26.796  28.271  1.00  0.00     0.031 C 
ATOM     45  C   UNL A   1      41.466  30.298  29.655  1.00  0.00     0.029 A 
ATOM     46  N   UNL A   1      39.624  31.269  30.515  1.00  0.00    -0.354 N 
ATOM     47  C   UNL A   1      41.433  26.381  28.633  1.00  0.00     0.074 A 
ATOM     48  C   UNL A   1      40.178  25.906  28.108  1.00  0.00     0.031 C 
ATOM     49  C   UNL A   1      41.879  31.185  30.570  1.00  0.00     0.029 A 
ATOM     50  C   UNL A   1      40.721  31.586  31.344  1.00  0.00     0.049 A 
ATOM     51  H   UNL A   1      38.748  31.719  30.509  1.00  0.00     0.167 HD
ATOM     52  C   UNL A   1      42.746  26.008  28.562  1.00  0.00     0.037 A 
ATOM     53  C   UNL A   1      40.622  31.476  32.704  1.00  0.00     0.037 A 
ATOM     54  C   UNL A   1      43.556  26.784  29.510  1.00  0.00     0.049 A 
ATOM     55  C   UNL A   1      41.491  30.398  33.322  1.00  0.00     0.074 A 
ATOM     56  C   UNL A   1      44.460  27.830  29.432  1.00  0.00     0.029 A 
ATOM     57  N   UNL A   1      43.274  26.637  30.858  1.00  0.00    -0.354 N 
ATOM     58  N   UNL A   1      42.359  29.673  32.669  1.00  0.00    -0.248 NA
ATOM     59  C   UNL A   1      41.384  29.995  34.728  1.00  0.00     0.031 C 
ATOM     60  C   UNL A   1      44.669  28.339  30.751  1.00  0.00     0.029 A 
ATOM     61  C   UNL A   1      43.900  27.596  31.627  1.00  0.00     0.049 A 
ATOM     62  H   UNL A   1      42.695  25.931  31.225  1.00  0.00     0.167 HD
ATOM     63  C   UNL A   1      42.817  28.674  33.488  1.00  0.00     0.074 A 
ATOM     64  C   UNL A   1      42.216  28.942  34.779  1.00  0.00     0.031 C 
ATOM     65  C   UNL A   1      43.599  27.647  33.049  1.00  0.00     0.037 A 
BRANCH  52  66
ATOM     66  C   UNL A   1      43.339  25.060  27.524  1.00  0.00     0.058 A 
ATOM     67  C   UNL A   1      44.312  24.103  27.903  1.00  0.00     0.135 A 
ATOM     68  C   UNL A   1      43.089  25.091  26.135  1.00  0.00     0.135 A 
ATOM     69  F   UNL A   1      44.630  23.902  29.190  1.00  0.00    -0.206 F 
ATOM     70  C   UNL A   1      45.024  23.323  26.984  1.00  0.00     0.059 A 
ATOM     71  C   UNL A   1      43.800  24.338  25.198  1.00  0.00     0.059 A 
ATOM     72  F   UNL A   1      42.128  25.834  25.591  1.00  0.00    -0.206 F 
ATOM     73  C   UNL A   1      44.781  23.467  25.626  1.00  0.00     0.060 A 
BRANCH  73  74
ATOM     74  S   UNL A   1      45.749  22.528  24.436  1.00  0.00     0.124 S 
ATOM     75  O   UNL A   1      46.624  23.553  23.877  1.00  0.00    -0.237 OA
ATOM     76  O   UNL A   1      46.394  21.530  25.282  1.00  0.00    -0.237 OA
ATOM     77  O   UNL A   1      44.743  22.005  23.514  1.00  0.00    -0.744 OA
ENDBRANCH  73  74
ENDBRANCH  52  66
BRANCH  53  78
ATOM     78  C   UNL A   1      39.293  31.921  33.203  1.00  0.00     0.058 A 
ATOM     79  C   UNL A   1      39.085  33.311  33.305  1.00  0.00     0.135 A 
ATOM     80  C   UNL A   1      38.167  31.094  33.100  1.00  0.00     0.135 A 
ATOM     81  F   UNL A   1      40.134  34.142  33.425  1.00  0.00    -0.206 F 
ATOM     82  C   UNL A   1      37.831  33.871  33.103  1.00  0.00     0.059 A 
ATOM     83  C   UNL A   1      36.896  31.635  32.914  1.00  0.00     0.059 A 
ATOM     84  F   UNL A   1      38.310  29.764  33.003  1.00  0.00    -0.206 F 
ATOM     85  C   UNL A   1      36.761  33.022  32.829  1.00  0.00     0.060 A 
BRANCH  85  86
ATOM     86  S   UNL A   1      35.271  33.761  32.122  1.00  0.00     0.124 S 
ATOM     87  O   UNL A   1      34.970  34.818  33.081  1.00  0.00    -0.237 OA
ATOM     88  O   UNL A   1      35.769  34.199  30.821  1.00  0.00    -0.237 OA
ATOM     89  O   UNL A   1      34.329  32.647  32.094  1.00  0.00    -0.744 OA
ENDBRANCH  85  86
ENDBRANCH  53  78
BRANCH  65  90
ATOM     90  C   UNL A   1      44.112  26.574  33.964  1.00  0.00     0.058 A 
ATOM     91  C   UNL A   1      45.487  26.382  34.173  1.00  0.00     0.135 A 
ATOM     92  C   UNL A   1      43.247  25.623  34.545  1.00  0.00     0.135 A 
ATOM     93  F   UNL A   1      46.380  27.234  33.647  1.00  0.00    -0.206 F 
ATOM     94  C   UNL A   1      45.978  25.306  34.913  1.00  0.00     0.059 A 
ATOM     95  C   UNL A   1      43.716  24.519  35.250  1.00  0.00     0.059 A 
ATOM     96  F   UNL A   1      41.914  25.756  34.457  1.00  0.00    -0.206 F 
ATOM     97  C   UNL A   1      45.086  24.373  35.438  1.00  0.00     0.060 A 
BRANCH  97  98
ATOM     98  S   UNL A   1      45.716  22.938  36.333  1.00  0.00     0.124 S 
ATOM     99  O   UNL A   1      45.330  23.223  37.713  1.00  0.00    -0.237 OA
ATOM    100  O   UNL A   1      44.989  21.851  35.687  1.00  0.00    -0.237 OA
ATOM    101  O   UNL A   1      47.151  22.984  36.070  1.00  0.00    -0.744 OA
ENDBRANCH  97  98
ENDBRANCH  65  90
ENDBRANCH  39  40
ENDBRANCH  31  34
ENDBRANCH  29  30
ENDBRANCH  28  29
ENDBRANCH  27  28
ENDBRANCH   1  27
TORSDOF 20
ENDMDL
