MODEL 1
REMARK VINA RESULT:      -9.7      0.000      0.000
REMARK SMILES O=C(C[C@H](C(=O)OC[C@H]1CCCO1)[NH+]1CCOCC1)NCCCCNC(=O)c1ccc(-c2c3nc(c(-c4c(F)cc(S(=O)(=O)[O-])cc4F)c4ccc([nH]4)c(-c4c(F)cc(S(=O)(=O)[O-])cc4F)c4nc(c(-c5c(F)cc(S(=O)(=O)[O-])cc5F)c5ccc2[nH]5)C=C4)C=C3)cc1
REMARK SMILES IDX 21 1 20 2 1 3 2 4 3 6 4 7 14 8 15 9 19 10 16 12 18 13 17 14
REMARK SMILES IDX 5 15 6 16 7 17 8 18 9 19 10 20 13 21 11 22 12 23 22 24 23 25
REMARK SMILES IDX 24 26 25 27 26 28 27 30 28 31 29 32 93 33 30 34 92 35 31 36
REMARK SMILES IDX 32 37 33 38 86 39 34 40 91 41 85 42 87 43 35 44 90 45 84 46
REMARK SMILES IDX 83 47 36 49 70 50 49 51 69 52 50 53 53 54 68 55 88 56 51 57
REMARK SMILES IDX 52 58 67 60 89 61 54 62 37 63 38 64 47 65 39 66 40 67 46 68
REMARK SMILES IDX 48 69 41 70 42 71 43 72 44 73 45 74 71 75 72 76 81 77 73 78
REMARK SMILES IDX 74 79 80 80 82 81 75 82 76 83 77 84 78 85 79 86 55 87 56 88
REMARK SMILES IDX 65 89 57 90 58 91 64 92 66 93 59 94 60 95 61 96 62 97 63 98
REMARK H PARENT 20 5 14 11 25 29 87 48 53 59
REMARK Flexibility Score: inf
ROOT
ATOM      1  C   UNL A   1      37.994  34.384  29.554  1.00  0.00     0.116 C 
ENDROOT
BRANCH   1   2
ATOM      2  N   UNL A   1      37.614  34.370  30.953  1.00  0.00    -0.356 N 
ATOM      3  O   UNL A   1      39.754  34.498  31.768  1.00  0.00    -0.275 OA
ATOM      4  C   UNL A   1      38.544  34.466  31.967  1.00  0.00     0.226 C 
ATOM      5  H   UNL A   1      36.661  34.289  31.186  1.00  0.00     0.163 HD
BRANCH   4   6
ATOM      6  C   UNL A   1      37.964  34.378  33.368  1.00  0.00     0.177 C 
BRANCH   6   7
ATOM      7  C   UNL A   1      37.710  32.932  33.840  1.00  0.00     0.304 C 
BRANCH   7   8
ATOM      8  N   UNL A   1      37.892  32.673  35.306  1.00  0.00    -0.319 N 
ATOM      9  C   UNL A   1      38.873  33.497  36.036  1.00  0.00     0.291 C 
ATOM     10  C   UNL A   1      38.190  31.247  35.594  1.00  0.00     0.291 C 
ATOM     11  H   UNL A   1      36.977  32.956  35.660  1.00  0.00     0.348 HD
ATOM     12  C   UNL A   1      40.340  33.085  35.804  1.00  0.00     0.221 C 
ATOM     13  C   UNL A   1      39.666  30.872  35.355  1.00  0.00     0.221 C 
ATOM     14  O   UNL A   1      40.545  31.705  36.118  1.00  0.00    -0.370 OA
ENDBRANCH   7   8
BRANCH   7  15
ATOM     15  C   UNL A   1      36.264  32.566  33.404  1.00  0.00     0.365 C 
ATOM     16  O   UNL A   1      35.963  31.552  32.783  1.00  0.00    -0.245 OA
BRANCH  15  17
ATOM     17  O   UNL A   1      35.341  33.448  33.875  1.00  0.00    -0.459 OA
BRANCH  17  18
ATOM     18  C   UNL A   1      34.263  33.738  32.971  1.00  0.00     0.265 C 
BRANCH  18  19
ATOM     19  C   UNL A   1      34.488  35.040  32.167  1.00  0.00     0.156 C 
ATOM     20  C   UNL A   1      33.203  35.567  31.548  1.00  0.00     0.038 C 
ATOM     21  O   UNL A   1      34.942  36.108  33.020  1.00  0.00    -0.375 OA
ATOM     22  C   UNL A   1      32.602  36.347  32.695  1.00  0.00     0.031 C 
ATOM     23  C   UNL A   1      33.822  36.919  33.389  1.00  0.00     0.161 C 
ENDBRANCH  18  19
ENDBRANCH  17  18
ENDBRANCH  15  17
ENDBRANCH   7  15
ENDBRANCH   6   7
ENDBRANCH   4   6
ENDBRANCH   1   2
BRANCH   1  24
ATOM     24  C   UNL A   1      37.321  33.251  28.783  1.00  0.00     0.023 C 
BRANCH  24  25
ATOM     25  C   UNL A   1      35.826  33.448  28.515  1.00  0.00     0.023 C 
BRANCH  25  26
ATOM     26  C   UNL A   1      34.885  32.618  29.384  1.00  0.00     0.116 C 
BRANCH  26  27
ATOM     27  N   UNL A   1      34.139  31.627  28.626  1.00  0.00    -0.352 N 
ATOM     28  C   UNL A   1      34.562  30.439  28.076  1.00  0.00     0.251 C 
ATOM     29  H   UNL A   1      33.187  31.838  28.484  1.00  0.00     0.163 HD
ATOM     30  O   UNL A   1      33.809  29.806  27.346  1.00  0.00    -0.269 OA
BRANCH  28  31
ATOM     31  C   UNL A   1      35.932  29.942  28.340  1.00  0.00     0.039 A 
ATOM     32  C   UNL A   1      36.880  30.010  27.314  1.00  0.00     0.014 A 
ATOM     33  C   UNL A   1      36.286  29.408  29.581  1.00  0.00     0.014 A 
ATOM     34  C   UNL A   1      38.197  29.613  27.557  1.00  0.00     0.010 A 
ATOM     35  C   UNL A   1      37.616  29.083  29.845  1.00  0.00     0.010 A 
ATOM     36  C   UNL A   1      38.587  29.185  28.837  1.00  0.00    -0.014 A 
BRANCH  36  37
ATOM     37  C   UNL A   1      40.006  28.857  29.141  1.00  0.00     0.031 A 
ATOM     38  C   UNL A   1      40.910  29.887  29.764  1.00  0.00     0.074 A 
ATOM     39  C   UNL A   1      40.500  27.650  28.797  1.00  0.00     0.049 A 
ATOM     40  N   UNL A   1      42.189  29.810  30.032  1.00  0.00    -0.248 NA
ATOM     41  C   UNL A   1      40.304  31.183  30.107  1.00  0.00     0.031 C 
ATOM     42  C   UNL A   1      39.740  26.580  28.145  1.00  0.00     0.029 A 
ATOM     43  N   UNL A   1      41.760  27.121  28.935  1.00  0.00    -0.354 N 
ATOM     44  C   UNL A   1      42.541  31.044  30.568  1.00  0.00     0.074 A 
ATOM     45  C   UNL A   1      41.355  31.871  30.530  1.00  0.00     0.031 C 
ATOM     46  C   UNL A   1      40.542  25.520  27.957  1.00  0.00     0.029 A 
ATOM     47  C   UNL A   1      41.882  25.845  28.434  1.00  0.00     0.049 A 
ATOM     48  H   UNL A   1      42.505  27.609  29.354  1.00  0.00     0.167 HD
ATOM     49  C   UNL A   1      43.736  31.442  31.067  1.00  0.00     0.037 A 
ATOM     50  C   UNL A   1      42.955  25.032  28.354  1.00  0.00     0.037 A 
ATOM     51  C   UNL A   1      44.909  30.609  31.116  1.00  0.00     0.049 A 
ATOM     52  C   UNL A   1      44.276  25.503  28.901  1.00  0.00     0.074 A 
ATOM     53  C   UNL A   1      46.154  30.907  31.645  1.00  0.00     0.029 A 
ATOM     54  N   UNL A   1      44.989  29.317  30.616  1.00  0.00    -0.354 N 
ATOM     55  N   UNL A   1      44.575  26.653  29.457  1.00  0.00    -0.248 NA
ATOM     56  C   UNL A   1      45.404  24.566  28.816  1.00  0.00     0.031 C 
ATOM     57  C   UNL A   1      46.998  29.815  31.419  1.00  0.00     0.029 A 
ATOM     58  C   UNL A   1      46.265  28.813  30.803  1.00  0.00     0.049 A 
ATOM     59  H   UNL A   1      44.247  28.830  30.190  1.00  0.00     0.167 HD
ATOM     60  C   UNL A   1      45.916  26.565  29.816  1.00  0.00     0.074 A 
ATOM     61  C   UNL A   1      46.366  25.246  29.425  1.00  0.00     0.031 C 
ATOM     62  C   UNL A   1      46.701  27.494  30.415  1.00  0.00     0.037 A 
BRANCH  49  63
ATOM     63  C   UNL A   1      43.834  32.844  31.608  1.00  0.00     0.058 A 
ATOM     64  C   UNL A   1      44.079  33.944  30.769  1.00  0.00     0.135 A 
ATOM     65  C   UNL A   1      43.641  33.099  32.977  1.00  0.00     0.135 A 
ATOM     66  F   UNL A   1      44.284  33.759  29.456  1.00  0.00    -0.206 F 
ATOM     67  C   UNL A   1      44.160  35.239  31.270  1.00  0.00     0.059 A 
ATOM     68  C   UNL A   1      43.687  34.390  33.495  1.00  0.00     0.059 A 
ATOM     69  F   UNL A   1      43.404  32.086  33.826  1.00  0.00    -0.206 F 
ATOM     70  C   UNL A   1      43.962  35.452  32.636  1.00  0.00     0.060 A 
BRANCH  70  71
ATOM     71  S   UNL A   1      44.067  37.139  33.267  1.00  0.00     0.124 S 
ATOM     72  O   UNL A   1      44.312  37.894  32.041  1.00  0.00    -0.237 OA
ATOM     73  O   UNL A   1      42.753  37.328  33.874  1.00  0.00    -0.237 OA
ATOM     74  O   UNL A   1      45.185  37.084  34.203  1.00  0.00    -0.744 OA
ENDBRANCH  70  71
ENDBRANCH  49  63
BRANCH  50  75
ATOM     75  C   UNL A   1      42.821  23.683  27.738  1.00  0.00     0.058 A 
ATOM     76  C   UNL A   1      42.513  22.559  28.517  1.00  0.00     0.135 A 
ATOM     77  C   UNL A   1      42.989  23.495  26.357  1.00  0.00     0.135 A 
ATOM     78  F   UNL A   1      42.350  22.685  29.843  1.00  0.00    -0.206 F 
ATOM     79  C   UNL A   1      42.394  21.291  27.954  1.00  0.00     0.059 A 
ATOM     80  C   UNL A   1      42.846  22.243  25.766  1.00  0.00     0.059 A 
ATOM     81  F   UNL A   1      43.268  24.541  25.563  1.00  0.00    -0.206 F 
ATOM     82  C   UNL A   1      42.561  21.145  26.575  1.00  0.00     0.060 A 
BRANCH  82  83
ATOM     83  S   UNL A   1      42.359  19.504  25.849  1.00  0.00     0.124 S 
ATOM     84  O   UNL A   1      42.702  18.641  26.972  1.00  0.00    -0.237 OA
ATOM     85  O   UNL A   1      40.953  19.514  25.456  1.00  0.00    -0.237 OA
ATOM     86  O   UNL A   1      43.311  19.509  24.742  1.00  0.00    -0.744 OA
ENDBRANCH  82  83
ENDBRANCH  50  75
BRANCH  62  87
ATOM     87  C   UNL A   1      48.123  27.107  30.724  1.00  0.00     0.058 A 
ATOM     88  C   UNL A   1      49.195  27.517  29.915  1.00  0.00     0.135 A 
ATOM     89  C   UNL A   1      48.421  26.361  31.876  1.00  0.00     0.135 A 
ATOM     90  F   UNL A   1      48.967  28.227  28.798  1.00  0.00    -0.206 F 
ATOM     91  C   UNL A   1      50.509  27.181  30.224  1.00  0.00     0.059 A 
ATOM     92  C   UNL A   1      49.731  26.040  32.221  1.00  0.00     0.059 A 
ATOM     93  F   UNL A   1      47.436  25.953  32.691  1.00  0.00    -0.206 F 
ATOM     94  C   UNL A   1      50.767  26.444  31.383  1.00  0.00     0.060 A 
BRANCH  94  95
ATOM     95  S   UNL A   1      52.480  26.045  31.790  1.00  0.00     0.124 S 
ATOM     96  O   UNL A   1      52.835  27.145  32.680  1.00  0.00    -0.237 OA
ATOM     97  O   UNL A   1      52.354  24.735  32.420  1.00  0.00    -0.237 OA
ATOM     98  O   UNL A   1      53.148  26.049  30.492  1.00  0.00    -0.744 OA
ENDBRANCH  94  95
ENDBRANCH  62  87
ENDBRANCH  36  37
ENDBRANCH  28  31
ENDBRANCH  26  27
ENDBRANCH  25  26
ENDBRANCH  24  25
ENDBRANCH   1  24
TORSDOF 20
ENDMDL
MODEL 2
REMARK VINA RESULT:      -9.6      5.176     11.910
REMARK SMILES O=C(C[C@H](C(=O)OC[C@H]1CCCO1)[NH+]1CCOCC1)NCCCCNC(=O)c1ccc(-c2c3nc(c(-c4c(F)cc(S(=O)(=O)[O-])cc4F)c4ccc([nH]4)c(-c4c(F)cc(S(=O)(=O)[O-])cc4F)c4nc(c(-c5c(F)cc(S(=O)(=O)[O-])cc5F)c5ccc2[nH]5)C=C4)C=C3)cc1
REMARK SMILES IDX 21 1 20 2 1 3 2 4 3 6 4 7 14 8 15 9 19 10 16 12 18 13 17 14
REMARK SMILES IDX 5 15 6 16 7 17 8 18 9 19 10 20 13 21 11 22 12 23 22 24 23 25
REMARK SMILES IDX 24 26 25 27 26 28 27 30 28 31 29 32 93 33 30 34 92 35 31 36
REMARK SMILES IDX 32 37 33 38 86 39 34 40 91 41 85 42 87 43 35 44 90 45 84 46
REMARK SMILES IDX 83 47 36 49 70 50 49 51 69 52 50 53 53 54 68 55 88 56 51 57
REMARK SMILES IDX 52 58 67 60 89 61 54 62 37 63 38 64 47 65 39 66 40 67 46 68
REMARK SMILES IDX 48 69 41 70 42 71 43 72 44 73 45 74 71 75 72 76 81 77 73 78
REMARK SMILES IDX 74 79 80 80 82 81 75 82 76 83 77 84 78 85 79 86 55 87 56 88
REMARK SMILES IDX 65 89 57 90 58 91 64 92 66 93 59 94 60 95 61 96 62 97 63 98
REMARK H PARENT 20 5 14 11 25 29 87 48 53 59
REMARK Flexibility Score: inf
ROOT
ATOM      1  C   UNL A   1      37.322  21.556  25.108  1.00  0.00     0.116 C 
ENDROOT
BRANCH   1   2
ATOM      2  N   UNL A   1      36.080  22.266  24.873  1.00  0.00    -0.356 N 
ATOM      3  O   UNL A   1      36.595  22.919  22.736  1.00  0.00    -0.275 OA
ATOM      4  C   UNL A   1      35.798  22.873  23.668  1.00  0.00     0.226 C 
ATOM      5  H   UNL A   1      35.417  22.317  25.599  1.00  0.00     0.163 HD
BRANCH   4   6
ATOM      6  C   UNL A   1      34.475  23.616  23.626  1.00  0.00     0.177 C 
BRANCH   6   7
ATOM      7  C   UNL A   1      33.330  22.879  24.352  1.00  0.00     0.304 C 
BRANCH   7   8
ATOM      8  N   UNL A   1      32.049  23.642  24.511  1.00  0.00    -0.319 N 
ATOM      9  C   UNL A   1      32.130  25.039  24.976  1.00  0.00     0.291 C 
ATOM     10  C   UNL A   1      31.074  22.930  25.377  1.00  0.00     0.291 C 
ATOM     11  H   UNL A   1      31.739  23.692  23.541  1.00  0.00     0.348 HD
ATOM     12  C   UNL A   1      32.382  25.187  26.489  1.00  0.00     0.221 C 
ATOM     13  C   UNL A   1      31.353  23.104  26.883  1.00  0.00     0.221 C 
ATOM     14  O   UNL A   1      31.393  24.488  27.248  1.00  0.00    -0.370 OA
ENDBRANCH   7   8
BRANCH   7  15
ATOM     15  C   UNL A   1      33.078  21.561  23.567  1.00  0.00     0.365 C 
ATOM     16  O   UNL A   1      32.449  21.491  22.516  1.00  0.00    -0.245 OA
BRANCH  15  17
ATOM     17  O   UNL A   1      33.722  20.497  24.119  1.00  0.00    -0.459 OA
BRANCH  17  18
ATOM     18  C   UNL A   1      32.909  19.671  24.967  1.00  0.00     0.265 C 
BRANCH  18  19
ATOM     19  C   UNL A   1      32.500  18.340  24.296  1.00  0.00     0.156 C 
ATOM     20  C   UNL A   1      33.640  17.715  23.507  1.00  0.00     0.038 C 
ATOM     21  O   UNL A   1      32.153  17.345  25.278  1.00  0.00    -0.375 OA
ATOM     22  C   UNL A   1      34.394  16.971  24.586  1.00  0.00     0.031 C 
ATOM     23  C   UNL A   1      33.285  16.501  25.506  1.00  0.00     0.161 C 
ENDBRANCH  18  19
ENDBRANCH  17  18
ENDBRANCH  15  17
ENDBRANCH   7  15
ENDBRANCH   6   7
ENDBRANCH   4   6
ENDBRANCH   1   2
BRANCH   1  24
ATOM     24  C   UNL A   1      37.141  20.049  24.937  1.00  0.00     0.023 C 
BRANCH  24  25
ATOM     25  C   UNL A   1      38.359  19.203  25.322  1.00  0.00     0.023 C 
BRANCH  25  26
ATOM     26  C   UNL A   1      39.523  19.967  25.948  1.00  0.00     0.116 C 
BRANCH  26  27
ATOM     27  N   UNL A   1      40.714  19.151  26.112  1.00  0.00    -0.352 N 
ATOM     28  C   UNL A   1      42.022  19.533  26.303  1.00  0.00     0.251 C 
ATOM     29  H   UNL A   1      40.563  18.178  26.081  1.00  0.00     0.163 HD
ATOM     30  O   UNL A   1      42.910  18.690  26.278  1.00  0.00    -0.269 OA
BRANCH  28  31
ATOM     31  C   UNL A   1      42.359  20.961  26.509  1.00  0.00     0.039 A 
ATOM     32  C   UNL A   1      42.571  21.420  27.812  1.00  0.00     0.014 A 
ATOM     33  C   UNL A   1      42.463  21.845  25.433  1.00  0.00     0.014 A 
ATOM     34  C   UNL A   1      42.958  22.744  28.028  1.00  0.00     0.010 A 
ATOM     35  C   UNL A   1      42.922  23.145  25.643  1.00  0.00     0.010 A 
ATOM     36  C   UNL A   1      43.178  23.608  26.942  1.00  0.00    -0.014 A 
BRANCH  36  37
ATOM     37  C   UNL A   1      43.690  24.991  27.148  1.00  0.00     0.031 A 
ATOM     38  C   UNL A   1      45.150  25.299  26.956  1.00  0.00     0.074 A 
ATOM     39  C   UNL A   1      42.849  25.957  27.570  1.00  0.00     0.049 A 
ATOM     40  N   UNL A   1      45.792  26.421  27.161  1.00  0.00    -0.248 NA
ATOM     41  C   UNL A   1      46.009  24.194  26.500  1.00  0.00     0.031 C 
ATOM     42  C   UNL A   1      41.419  25.777  27.838  1.00  0.00     0.029 A 
ATOM     43  N   UNL A   1      43.073  27.280  27.861  1.00  0.00    -0.354 N 
ATOM     44  C   UNL A   1      47.125  26.159  26.865  1.00  0.00     0.074 A 
ATOM     45  C   UNL A   1      47.210  24.755  26.526  1.00  0.00     0.031 C 
ATOM     46  C   UNL A   1      40.893  26.946  28.235  1.00  0.00     0.029 A 
ATOM     47  C   UNL A   1      41.951  27.950  28.292  1.00  0.00     0.049 A 
ATOM     48  H   UNL A   1      43.954  27.710  27.769  1.00  0.00     0.167 HD
ATOM     49  C   UNL A   1      48.176  27.013  26.853  1.00  0.00     0.037 A 
ATOM     50  C   UNL A   1      41.791  29.225  28.701  1.00  0.00     0.037 A 
ATOM     51  C   UNL A   1      48.082  28.413  27.177  1.00  0.00     0.049 A 
ATOM     52  C   UNL A   1      42.978  30.152  28.694  1.00  0.00     0.074 A 
ATOM     53  C   UNL A   1      49.082  29.371  27.149  1.00  0.00     0.029 A 
ATOM     54  N   UNL A   1      46.926  29.058  27.591  1.00  0.00    -0.354 N 
ATOM     55  N   UNL A   1      44.220  29.898  28.355  1.00  0.00    -0.248 NA
ATOM     56  C   UNL A   1      42.742  31.538  29.119  1.00  0.00     0.031 C 
ATOM     57  C   UNL A   1      48.542  30.581  27.595  1.00  0.00     0.029 A 
ATOM     58  C   UNL A   1      47.191  30.394  27.843  1.00  0.00     0.049 A 
ATOM     59  H   UNL A   1      46.045  28.629  27.691  1.00  0.00     0.167 HD
ATOM     60  C   UNL A   1      44.906  31.100  28.497  1.00  0.00     0.074 A 
ATOM     61  C   UNL A   1      43.938  32.082  28.940  1.00  0.00     0.031 C 
ATOM     62  C   UNL A   1      46.218  31.365  28.278  1.00  0.00     0.037 A 
BRANCH  49  63
ATOM     63  C   UNL A   1      49.523  26.458  26.472  1.00  0.00     0.058 A 
ATOM     64  C   UNL A   1      49.965  26.445  25.138  1.00  0.00     0.135 A 
ATOM     65  C   UNL A   1      50.400  25.969  27.455  1.00  0.00     0.135 A 
ATOM     66  F   UNL A   1      49.164  26.888  24.157  1.00  0.00    -0.206 F 
ATOM     67  C   UNL A   1      51.214  25.941  24.790  1.00  0.00     0.059 A 
ATOM     68  C   UNL A   1      51.666  25.488  27.131  1.00  0.00     0.059 A 
ATOM     69  F   UNL A   1      50.031  25.956  28.745  1.00  0.00    -0.206 F 
ATOM     70  C   UNL A   1      52.058  25.465  25.794  1.00  0.00     0.060 A 
BRANCH  70  71
ATOM     71  S   UNL A   1      53.675  24.817  25.323  1.00  0.00     0.124 S 
ATOM     72  O   UNL A   1      54.442  25.032  26.546  1.00  0.00    -0.237 OA
ATOM     73  O   UNL A   1      53.373  23.426  25.002  1.00  0.00    -0.237 OA
ATOM     74  O   UNL A   1      54.059  25.651  24.189  1.00  0.00    -0.744 OA
ENDBRANCH  70  71
ENDBRANCH  49  63
BRANCH  50  75
ATOM     75  C   UNL A   1      40.452  29.702  29.142  1.00  0.00     0.058 A 
ATOM     76  C   UNL A   1      39.416  29.907  28.219  1.00  0.00     0.135 A 
ATOM     77  C   UNL A   1      40.181  29.954  30.496  1.00  0.00     0.135 A 
ATOM     78  F   UNL A   1      39.627  29.687  26.913  1.00  0.00    -0.206 F 
ATOM     79  C   UNL A   1      38.163  30.361  28.619  1.00  0.00     0.059 A 
ATOM     80  C   UNL A   1      38.927  30.382  30.924  1.00  0.00     0.059 A 
ATOM     81  F   UNL A   1      41.132  29.759  31.422  1.00  0.00    -0.206 F 
ATOM     82  C   UNL A   1      37.928  30.594  29.975  1.00  0.00     0.060 A 
BRANCH  82  83
ATOM     83  S   UNL A   1      36.284  31.140  30.488  1.00  0.00     0.124 S 
ATOM     84  O   UNL A   1      35.464  30.694  29.368  1.00  0.00    -0.237 OA
ATOM     85  O   UNL A   1      36.100  30.416  31.743  1.00  0.00    -0.237 OA
ATOM     86  O   UNL A   1      36.439  32.585  30.624  1.00  0.00    -0.744 OA
ENDBRANCH  82  83
ENDBRANCH  50  75
BRANCH  62  87
ATOM     87  C   UNL A   1      46.683  32.783  28.477  1.00  0.00     0.058 A 
ATOM     88  C   UNL A   1      47.201  33.228  29.704  1.00  0.00     0.135 A 
ATOM     89  C   UNL A   1      46.661  33.693  27.407  1.00  0.00     0.135 A 
ATOM     90  F   UNL A   1      47.241  32.402  30.761  1.00  0.00    -0.206 F 
ATOM     91  C   UNL A   1      47.657  34.532  29.870  1.00  0.00     0.059 A 
ATOM     92  C   UNL A   1      47.140  34.993  27.542  1.00  0.00     0.059 A 
ATOM     93  F   UNL A   1      46.186  33.317  26.209  1.00  0.00    -0.206 F 
ATOM     94  C   UNL A   1      47.626  35.407  28.781  1.00  0.00     0.060 A 
BRANCH  94  95
ATOM     95  S   UNL A   1      48.254  37.085  29.002  1.00  0.00     0.124 S 
ATOM     96  O   UNL A   1      49.694  36.857  29.048  1.00  0.00    -0.237 OA
ATOM     97  O   UNL A   1      47.757  37.763  27.809  1.00  0.00    -0.237 OA
ATOM     98  O   UNL A   1      47.647  37.513  30.258  1.00  0.00    -0.744 OA
ENDBRANCH  94  95
ENDBRANCH  62  87
ENDBRANCH  36  37
ENDBRANCH  28  31
ENDBRANCH  26  27
ENDBRANCH  25  26
ENDBRANCH  24  25
ENDBRANCH   1  24
TORSDOF 20
ENDMDL
MODEL 3
REMARK VINA RESULT:      -9.4      3.964      7.734
REMARK SMILES O=C(C[C@H](C(=O)OC[C@H]1CCCO1)[NH+]1CCOCC1)NCCCCNC(=O)c1ccc(-c2c3nc(c(-c4c(F)cc(S(=O)(=O)[O-])cc4F)c4ccc([nH]4)c(-c4c(F)cc(S(=O)(=O)[O-])cc4F)c4nc(c(-c5c(F)cc(S(=O)(=O)[O-])cc5F)c5ccc2[nH]5)C=C4)C=C3)cc1
REMARK SMILES IDX 21 1 20 2 1 3 2 4 3 6 4 7 14 8 15 9 19 10 16 12 18 13 17 14
REMARK SMILES IDX 5 15 6 16 7 17 8 18 9 19 10 20 13 21 11 22 12 23 22 24 23 25
REMARK SMILES IDX 24 26 25 27 26 28 27 30 28 31 29 32 93 33 30 34 92 35 31 36
REMARK SMILES IDX 32 37 33 38 86 39 34 40 91 41 85 42 87 43 35 44 90 45 84 46
REMARK SMILES IDX 83 47 36 49 70 50 49 51 69 52 50 53 53 54 68 55 88 56 51 57
REMARK SMILES IDX 52 58 67 60 89 61 54 62 37 63 38 64 47 65 39 66 40 67 46 68
REMARK SMILES IDX 48 69 41 70 42 71 43 72 44 73 45 74 71 75 72 76 81 77 73 78
REMARK SMILES IDX 74 79 80 80 82 81 75 82 76 83 77 84 78 85 79 86 55 87 56 88
REMARK SMILES IDX 65 89 57 90 58 91 64 92 66 93 59 94 60 95 61 96 62 97 63 98
REMARK H PARENT 20 5 14 11 25 29 87 48 53 59
REMARK Flexibility Score: inf
ROOT
ATOM      1  C   UNL A   1      31.684  26.536  25.847  1.00  0.00     0.116 C 
ENDROOT
BRANCH   1   2
ATOM      2  N   UNL A   1      31.784  25.211  25.269  1.00  0.00    -0.356 N 
ATOM      3  O   UNL A   1      31.736  24.088  27.268  1.00  0.00    -0.275 OA
ATOM      4  C   UNL A   1      31.766  24.069  26.042  1.00  0.00     0.226 C 
ATOM      5  H   UNL A   1      31.869  25.124  24.292  1.00  0.00     0.163 HD
BRANCH   4   6
ATOM      6  C   UNL A   1      31.938  22.775  25.266  1.00  0.00     0.177 C 
BRANCH   6   7
ATOM      7  C   UNL A   1      33.397  22.276  25.215  1.00  0.00     0.304 C 
BRANCH   7   8
ATOM      8  N   UNL A   1      34.455  23.296  25.509  1.00  0.00    -0.319 N 
ATOM      9  C   UNL A   1      34.993  24.079  24.381  1.00  0.00     0.291 C 
ATOM     10  C   UNL A   1      35.605  22.717  26.251  1.00  0.00     0.291 C 
ATOM     11  H   UNL A   1      33.925  23.958  26.076  1.00  0.00     0.348 HD
ATOM     12  C   UNL A   1      36.004  23.312  23.507  1.00  0.00     0.221 C 
ATOM     13  C   UNL A   1      36.598  21.962  25.345  1.00  0.00     0.221 C 
ATOM     14  O   UNL A   1      37.085  22.802  24.293  1.00  0.00    -0.370 OA
ENDBRANCH   7   8
BRANCH   7  15
ATOM     15  C   UNL A   1      33.498  21.090  26.216  1.00  0.00     0.365 C 
ATOM     16  O   UNL A   1      33.142  21.141  27.388  1.00  0.00    -0.245 OA
BRANCH  15  17
ATOM     17  O   UNL A   1      33.934  19.946  25.622  1.00  0.00    -0.459 OA
BRANCH  17  18
ATOM     18  C   UNL A   1      33.499  19.764  24.265  1.00  0.00     0.265 C 
BRANCH  18  19
ATOM     19  C   UNL A   1      32.389  18.696  24.128  1.00  0.00     0.156 C 
ATOM     20  C   UNL A   1      32.727  17.640  23.088  1.00  0.00     0.038 C 
ATOM     21  O   UNL A   1      32.223  17.956  25.353  1.00  0.00    -0.375 OA
ATOM     22  C   UNL A   1      33.587  16.684  23.883  1.00  0.00     0.031 C 
ATOM     23  C   UNL A   1      32.957  16.731  25.260  1.00  0.00     0.161 C 
ENDBRANCH  18  19
ENDBRANCH  17  18
ENDBRANCH  15  17
ENDBRANCH   7  15
ENDBRANCH   6   7
ENDBRANCH   4   6
ENDBRANCH   1   2
BRANCH   1  24
ATOM     24  C   UNL A   1      32.323  27.587  24.943  1.00  0.00     0.023 C 
BRANCH  24  25
ATOM     25  C   UNL A   1      33.589  28.242  25.505  1.00  0.00     0.023 C 
BRANCH  25  26
ATOM     26  C   UNL A   1      33.650  28.364  27.026  1.00  0.00     0.116 C 
BRANCH  26  27
ATOM     27  N   UNL A   1      33.534  29.736  27.490  1.00  0.00    -0.352 N 
ATOM     28  C   UNL A   1      34.448  30.520  28.156  1.00  0.00     0.251 C 
ATOM     29  H   UNL A   1      32.670  30.170  27.301  1.00  0.00     0.163 HD
ATOM     30  O   UNL A   1      34.107  31.614  28.590  1.00  0.00    -0.269 OA
BRANCH  28  31
ATOM     31  C   UNL A   1      35.829  30.032  28.374  1.00  0.00     0.039 A 
ATOM     32  C   UNL A   1      36.730  30.070  27.305  1.00  0.00     0.014 A 
ATOM     33  C   UNL A   1      36.239  29.537  29.614  1.00  0.00     0.014 A 
ATOM     34  C   UNL A   1      38.058  29.681  27.502  1.00  0.00     0.010 A 
ATOM     35  C   UNL A   1      37.580  29.221  29.829  1.00  0.00     0.010 A 
ATOM     36  C   UNL A   1      38.505  29.293  28.776  1.00  0.00    -0.014 A 
BRANCH  36  37
ATOM     37  C   UNL A   1      39.937  28.975  29.027  1.00  0.00     0.031 A 
ATOM     38  C   UNL A   1      40.869  30.027  29.566  1.00  0.00     0.074 A 
ATOM     39  C   UNL A   1      40.415  27.755  28.708  1.00  0.00     0.049 A 
ATOM     40  N   UNL A   1      42.158  29.960  29.777  1.00  0.00    -0.248 NA
ATOM     41  C   UNL A   1      40.279  31.338  29.885  1.00  0.00     0.031 C 
ATOM     42  C   UNL A   1      39.626  26.661  28.135  1.00  0.00     0.029 A 
ATOM     43  N   UNL A   1      41.680  27.230  28.809  1.00  0.00    -0.354 N 
ATOM     44  C   UNL A   1      42.535  31.213  30.246  1.00  0.00     0.074 A 
ATOM     45  C   UNL A   1      41.347  32.040  30.231  1.00  0.00     0.031 C 
ATOM     46  C   UNL A   1      40.419  25.593  27.952  1.00  0.00     0.029 A 
ATOM     47  C   UNL A   1      41.780  25.935  28.354  1.00  0.00     0.049 A 
ATOM     48  H   UNL A   1      42.444  27.733  29.173  1.00  0.00     0.167 HD
ATOM     49  C   UNL A   1      43.751  31.630  30.674  1.00  0.00     0.037 A 
ATOM     50  C   UNL A   1      42.848  25.117  28.256  1.00  0.00     0.037 A 
ATOM     51  C   UNL A   1      44.925  30.798  30.701  1.00  0.00     0.049 A 
ATOM     52  C   UNL A   1      44.192  25.608  28.723  1.00  0.00     0.074 A 
ATOM     53  C   UNL A   1      46.193  31.114  31.160  1.00  0.00     0.029 A 
ATOM     54  N   UNL A   1      44.982  29.487  30.249  1.00  0.00    -0.354 N 
ATOM     55  N   UNL A   1      44.516  26.779  29.218  1.00  0.00    -0.248 NA
ATOM     56  C   UNL A   1      45.316  24.667  28.623  1.00  0.00     0.031 C 
ATOM     57  C   UNL A   1      47.027  30.013  30.938  1.00  0.00     0.029 A 
ATOM     58  C   UNL A   1      46.266  28.989  30.397  1.00  0.00     0.049 A 
ATOM     59  H   UNL A   1      44.221  28.984  29.878  1.00  0.00     0.167 HD
ATOM     60  C   UNL A   1      45.872  26.704  29.518  1.00  0.00     0.074 A 
ATOM     61  C   UNL A   1      46.305  25.369  29.159  1.00  0.00     0.031 C 
ATOM     62  C   UNL A   1      46.685  27.655  30.042  1.00  0.00     0.037 A 
BRANCH  49  63
ATOM     63  C   UNL A   1      43.873  33.052  31.154  1.00  0.00     0.058 A 
ATOM     64  C   UNL A   1      43.661  33.398  32.499  1.00  0.00     0.135 A 
ATOM     65  C   UNL A   1      44.246  34.077  30.268  1.00  0.00     0.135 A 
ATOM     66  F   UNL A   1      43.290  32.462  33.386  1.00  0.00    -0.206 F 
ATOM     67  C   UNL A   1      43.784  34.711  32.941  1.00  0.00     0.059 A 
ATOM     68  C   UNL A   1      44.405  35.392  30.696  1.00  0.00     0.059 A 
ATOM     69  F   UNL A   1      44.461  33.805  28.971  1.00  0.00    -0.206 F 
ATOM     70  C   UNL A   1      44.158  35.702  32.032  1.00  0.00     0.060 A 
BRANCH  70  71
ATOM     71  S   UNL A   1      44.315  37.398  32.625  1.00  0.00     0.124 S 
ATOM     72  O   UNL A   1      45.687  37.405  33.126  1.00  0.00    -0.237 OA
ATOM     73  O   UNL A   1      44.080  38.176  31.413  1.00  0.00    -0.237 OA
ATOM     74  O   UNL A   1      43.276  37.501  33.644  1.00  0.00    -0.744 OA
ENDBRANCH  70  71
ENDBRANCH  49  63
BRANCH  50  75
ATOM     75  C   UNL A   1      42.686  23.746  27.701  1.00  0.00     0.058 A 
ATOM     76  C   UNL A   1      42.469  22.645  28.542  1.00  0.00     0.135 A 
ATOM     77  C   UNL A   1      42.736  23.511  26.318  1.00  0.00     0.135 A 
ATOM     78  F   UNL A   1      42.420  22.816  29.873  1.00  0.00    -0.206 F 
ATOM     79  C   UNL A   1      42.325  21.357  28.036  1.00  0.00     0.059 A 
ATOM     80  C   UNL A   1      42.567  22.236  25.785  1.00  0.00     0.059 A 
ATOM     81  F   UNL A   1      42.925  24.532  25.468  1.00  0.00    -0.206 F 
ATOM     82  C   UNL A   1      42.374  21.163  26.654  1.00  0.00     0.060 A 
BRANCH  82  83
ATOM     83  S   UNL A   1      42.140  19.495  26.005  1.00  0.00     0.124 S 
ATOM     84  O   UNL A   1      42.591  18.678  27.125  1.00  0.00    -0.237 OA
ATOM     85  O   UNL A   1      40.706  19.471  25.732  1.00  0.00    -0.237 OA
ATOM     86  O   UNL A   1      42.996  19.473  24.822  1.00  0.00    -0.744 OA
ENDBRANCH  82  83
ENDBRANCH  50  75
BRANCH  62  87
ATOM     87  C   UNL A   1      48.120  27.279  30.300  1.00  0.00     0.058 A 
ATOM     88  C   UNL A   1      49.138  27.568  29.378  1.00  0.00     0.135 A 
ATOM     89  C   UNL A   1      48.487  26.669  31.511  1.00  0.00     0.135 A 
ATOM     90  F   UNL A   1      48.843  28.144  28.202  1.00  0.00    -0.206 F 
ATOM     91  C   UNL A   1      50.467  27.244  29.637  1.00  0.00     0.059 A 
ATOM     92  C   UNL A   1      49.812  26.364  31.804  1.00  0.00     0.059 A 
ATOM     93  F   UNL A   1      47.554  26.380  32.432  1.00  0.00    -0.206 F 
ATOM     94  C   UNL A   1      50.794  26.645  30.857  1.00  0.00     0.060 A 
BRANCH  94  95
ATOM     95  S   UNL A   1      52.526  26.262  31.194  1.00  0.00     0.124 S 
ATOM     96  O   UNL A   1      52.408  25.073  32.031  1.00  0.00    -0.237 OA
ATOM     97  O   UNL A   1      53.063  26.044  29.854  1.00  0.00    -0.237 OA
ATOM     98  O   UNL A   1      53.013  27.460  31.872  1.00  0.00    -0.744 OA
ENDBRANCH  94  95
ENDBRANCH  62  87
ENDBRANCH  36  37
ENDBRANCH  28  31
ENDBRANCH  26  27
ENDBRANCH  25  26
ENDBRANCH  24  25
ENDBRANCH   1  24
TORSDOF 20
ENDMDL
