MODEL 1
REMARK VINA RESULT:      -8.7      0.000      0.000
REMARK SMILES COc1cc(N)ccc1SCc1ccc(C(=O)NCCCCNC(=O)c2ccc(-c3c4nc(c(-c5c(F)cc(S(=O)(=O)[O-])cc5F)c5ccc([nH]5)c(-c5c(F)cc(S(=O)(=O)[O-])cc5F)c5nc(c(-c6c(F)cc(S(=O)(=O)[O-])cc6F)c6ccc3[nH]6)C=C5)C=C4)cc2)s1
REMARK SMILES IDX 20 1 19 2 18 3 16 4 17 5 15 7 12 8 13 9 92 10 14 11 11 12
REMARK SMILES IDX 10 13 9 14 3 15 4 16 5 17 8 18 7 19 2 20 1 21 6 22 21 25
REMARK SMILES IDX 22 26 23 27 24 28 25 30 26 31 27 32 91 33 28 34 90 35 29 36
REMARK SMILES IDX 30 37 31 38 84 39 32 40 89 41 83 42 85 43 33 44 88 45 82 46
REMARK SMILES IDX 81 47 34 49 68 50 47 51 67 52 48 53 51 54 66 55 86 56 49 57
REMARK SMILES IDX 50 58 65 60 87 61 52 62 35 63 36 64 45 65 37 66 38 67 44 68
REMARK SMILES IDX 46 69 39 70 40 71 41 72 42 73 43 74 69 75 70 76 79 77 71 78
REMARK SMILES IDX 72 79 78 80 80 81 73 82 74 83 75 84 76 85 77 86 53 87 54 88
REMARK SMILES IDX 63 89 55 90 56 91 62 92 64 93 57 94 58 95 59 96 60 97 61 98
REMARK H PARENT 18 6 6 23 6 24 23 29 85 48 51 59
REMARK Flexibility Score: inf
ROOT
ATOM      1  C   UNL A   1      41.951  22.007  28.454  1.00  0.00     0.023 C 
ENDROOT
BRANCH   1   2
ATOM      2  C   UNL A   1      42.682  23.205  27.850  1.00  0.00     0.116 C 
BRANCH   2   3
ATOM      3  N   UNL A   1      44.029  22.847  27.464  1.00  0.00    -0.351 N 
ATOM      4  C   UNL A   1      45.020  23.542  26.811  1.00  0.00     0.261 C 
ATOM      5  O   UNL A   1      46.063  22.903  26.639  1.00  0.00    -0.268 OA
ATOM      6  H   UNL A   1      44.285  21.930  27.717  1.00  0.00     0.163 HD
BRANCH   4   7
ATOM      7  C   UNL A   1      44.852  24.932  26.394  1.00  0.00     0.092 A 
ATOM      8  C   UNL A   1      44.995  27.427  26.473  1.00  0.00     0.016 A 
ATOM      9  C   UNL A   1      44.142  26.969  25.487  1.00  0.00     0.017 A 
ATOM     10  S   UNL A   1      45.801  26.117  27.215  1.00  0.00    -0.134 S 
ATOM     11  C   UNL A   1      44.086  25.547  25.421  1.00  0.00     0.026 A 
BRANCH   8  12
ATOM     12  C   UNL A   1      45.211  28.870  26.837  1.00  0.00     0.121 C 
BRANCH  12  13
ATOM     13  S   UNL A   1      43.780  29.960  27.086  1.00  0.00    -0.117 SA
BRANCH  13  14
ATOM     14  C   UNL A   1      44.420  31.599  27.462  1.00  0.00     0.050 A 
ATOM     15  C   UNL A   1      44.411  32.755  26.664  1.00  0.00     0.134 A 
ATOM     16  C   UNL A   1      44.914  33.965  27.181  1.00  0.00     0.073 A 
ATOM     17  C   UNL A   1      45.465  34.041  28.463  1.00  0.00     0.035 A 
ATOM     18  C   UNL A   1      45.035  31.677  28.726  1.00  0.00     0.021 A 
ATOM     19  C   UNL A   1      45.570  32.875  29.209  1.00  0.00     0.027 A 
BRANCH  15  20
ATOM     20  O   UNL A   1      43.865  32.685  25.411  1.00  0.00    -0.496 OA
ATOM     21  C   UNL A   1      44.092  33.793  24.552  1.00  0.00     0.278 C 
ENDBRANCH  15  20
BRANCH  17  22
ATOM     22  N   UNL A   1      46.028  35.223  28.923  1.00  0.00    -0.399 N 
ATOM     23  H   UNL A   1      46.972  35.427  28.728  1.00  0.00     0.156 HD
ATOM     24  H   UNL A   1      45.485  35.858  29.444  1.00  0.00     0.156 HD
ENDBRANCH  17  22
ENDBRANCH  13  14
ENDBRANCH  12  13
ENDBRANCH   8  12
ENDBRANCH   4   7
ENDBRANCH   2   3
ENDBRANCH   1   2
BRANCH   1  25
ATOM     25  C   UNL A   1      40.814  21.462  27.580  1.00  0.00     0.023 C 
BRANCH  25  26
ATOM     26  C   UNL A   1      40.789  21.981  26.143  1.00  0.00     0.116 C 
BRANCH  26  27
ATOM     27  N   UNL A   1      39.452  22.313  25.676  1.00  0.00    -0.352 N 
ATOM     28  C   UNL A   1      38.685  23.417  25.968  1.00  0.00     0.251 C 
ATOM     29  H   UNL A   1      39.040  21.659  25.067  1.00  0.00     0.163 HD
ATOM     30  O   UNL A   1      37.531  23.480  25.567  1.00  0.00    -0.269 OA
BRANCH  28  31
ATOM     31  C   UNL A   1      39.252  24.500  26.800  1.00  0.00     0.039 A 
ATOM     32  C   UNL A   1      40.093  25.437  26.195  1.00  0.00     0.014 A 
ATOM     33  C   UNL A   1      38.948  24.601  28.160  1.00  0.00     0.014 A 
ATOM     34  C   UNL A   1      40.578  26.513  26.941  1.00  0.00     0.010 A 
ATOM     35  C   UNL A   1      39.378  25.709  28.886  1.00  0.00     0.010 A 
ATOM     36  C   UNL A   1      40.196  26.676  28.283  1.00  0.00    -0.014 A 
BRANCH  36  37
ATOM     37  C   UNL A   1      40.635  27.862  29.061  1.00  0.00     0.031 A 
ATOM     38  C   UNL A   1      41.989  27.883  29.718  1.00  0.00     0.074 A 
ATOM     39  C   UNL A   1      39.788  28.900  29.221  1.00  0.00     0.049 A 
ATOM     40  N   UNL A   1      42.531  28.815  30.459  1.00  0.00    -0.248 NA
ATOM     41  C   UNL A   1      42.834  26.693  29.538  1.00  0.00     0.031 C 
ATOM     42  C   UNL A   1      38.426  28.969  28.685  1.00  0.00     0.029 A 
ATOM     43  N   UNL A   1      39.944  30.090  29.885  1.00  0.00    -0.354 N 
ATOM     44  C   UNL A   1      43.772  28.321  30.843  1.00  0.00     0.074 A 
ATOM     45  C   UNL A   1      43.880  26.985  30.298  1.00  0.00     0.031 C 
ATOM     46  C   UNL A   1      37.881  30.150  29.019  1.00  0.00     0.029 A 
ATOM     47  C   UNL A   1      38.840  30.908  29.818  1.00  0.00     0.049 A 
ATOM     48  H   UNL A   1      40.768  30.336  30.364  1.00  0.00     0.167 HD
ATOM     49  C   UNL A   1      44.742  28.933  31.564  1.00  0.00     0.037 A 
ATOM     50  C   UNL A   1      38.624  32.131  30.341  1.00  0.00     0.037 A 
ATOM     51  C   UNL A   1      44.637  30.272  32.082  1.00  0.00     0.049 A 
ATOM     52  C   UNL A   1      39.723  32.797  31.121  1.00  0.00     0.074 A 
ATOM     53  C   UNL A   1      45.588  31.006  32.770  1.00  0.00     0.029 A 
ATOM     54  N   UNL A   1      43.515  31.079  31.970  1.00  0.00    -0.354 N 
ATOM     55  N   UNL A   1      40.919  32.343  31.412  1.00  0.00    -0.248 NA
ATOM     56  C   UNL A   1      39.451  34.146  31.634  1.00  0.00     0.031 C 
ATOM     57  C   UNL A   1      45.026  32.242  33.108  1.00  0.00     0.029 A 
ATOM     58  C   UNL A   1      43.743  32.297  32.591  1.00  0.00     0.049 A 
ATOM     59  H   UNL A   1      42.680  30.826  31.516  1.00  0.00     0.167 HD
ATOM     60  C   UNL A   1      41.549  33.360  32.121  1.00  0.00     0.074 A 
ATOM     61  C   UNL A   1      40.608  34.457  32.201  1.00  0.00     0.031 C 
ATOM     62  C   UNL A   1      42.795  33.381  32.658  1.00  0.00     0.037 A 
BRANCH  49  63
ATOM     63  C   UNL A   1      46.008  28.162  31.825  1.00  0.00     0.058 A 
ATOM     64  C   UNL A   1      46.189  27.424  33.006  1.00  0.00     0.135 A 
ATOM     65  C   UNL A   1      47.037  28.133  30.871  1.00  0.00     0.135 A 
ATOM     66  F   UNL A   1      45.244  27.430  33.960  1.00  0.00    -0.206 F 
ATOM     67  C   UNL A   1      47.357  26.707  33.244  1.00  0.00     0.059 A 
ATOM     68  C   UNL A   1      48.202  27.400  31.076  1.00  0.00     0.059 A 
ATOM     69  F   UNL A   1      46.918  28.821  29.725  1.00  0.00    -0.206 F 
ATOM     70  C   UNL A   1      48.359  26.701  32.272  1.00  0.00     0.060 A 
BRANCH  70  71
ATOM     71  S   UNL A   1      49.866  25.762  32.595  1.00  0.00     0.124 S 
ATOM     72  O   UNL A   1      50.319  25.464  31.240  1.00  0.00    -0.237 OA
ATOM     73  O   UNL A   1      50.679  26.719  33.338  1.00  0.00    -0.237 OA
ATOM     74  O   UNL A   1      49.394  24.615  33.364  1.00  0.00    -0.744 OA
ENDBRANCH  70  71
ENDBRANCH  49  63
BRANCH  50  75
ATOM     75  C   UNL A   1      37.323  32.816  30.115  1.00  0.00     0.058 A 
ATOM     76  C   UNL A   1      37.150  33.698  29.038  1.00  0.00     0.135 A 
ATOM     77  C   UNL A   1      36.227  32.596  30.963  1.00  0.00     0.135 A 
ATOM     78  F   UNL A   1      38.171  33.945  28.204  1.00  0.00    -0.206 F 
ATOM     79  C   UNL A   1      35.943  34.352  28.820  1.00  0.00     0.059 A 
ATOM     80  C   UNL A   1      35.001  33.218  30.749  1.00  0.00     0.059 A 
ATOM     81  F   UNL A   1      36.335  31.745  31.996  1.00  0.00    -0.206 F 
ATOM     82  C   UNL A   1      34.872  34.105  29.680  1.00  0.00     0.060 A 
BRANCH  82  83
ATOM     83  S   UNL A   1      33.294  34.924  29.360  1.00  0.00     0.124 S 
ATOM     84  O   UNL A   1      33.734  36.227  28.878  1.00  0.00    -0.237 OA
ATOM     85  O   UNL A   1      32.690  34.044  28.363  1.00  0.00    -0.237 OA
ATOM     86  O   UNL A   1      32.644  34.917  30.667  1.00  0.00    -0.744 OA
ENDBRANCH  82  83
ENDBRANCH  50  75
BRANCH  62  87
ATOM     87  C   UNL A   1      43.223  34.645  33.352  1.00  0.00     0.058 A 
ATOM     88  C   UNL A   1      43.112  34.796  34.743  1.00  0.00     0.135 A 
ATOM     89  C   UNL A   1      43.786  35.703  32.620  1.00  0.00     0.135 A 
ATOM     90  F   UNL A   1      42.576  33.817  35.489  1.00  0.00    -0.206 F 
ATOM     91  C   UNL A   1      43.517  35.964  35.381  1.00  0.00     0.059 A 
ATOM     92  C   UNL A   1      44.223  36.868  33.241  1.00  0.00     0.059 A 
ATOM     93  F   UNL A   1      43.926  35.605  31.289  1.00  0.00    -0.206 F 
ATOM     94  C   UNL A   1      44.071  36.995  34.621  1.00  0.00     0.060 A 
BRANCH  94  95
ATOM     95  S   UNL A   1      44.613  38.498  35.462  1.00  0.00     0.124 S 
ATOM     96  O   UNL A   1      46.056  38.444  35.256  1.00  0.00    -0.237 OA
ATOM     97  O   UNL A   1      43.905  39.542  34.727  1.00  0.00    -0.237 OA
ATOM     98  O   UNL A   1      44.167  38.296  36.838  1.00  0.00    -0.744 OA
ENDBRANCH  94  95
ENDBRANCH  62  87
ENDBRANCH  36  37
ENDBRANCH  28  31
ENDBRANCH  26  27
ENDBRANCH  25  26
ENDBRANCH   1  25
TORSDOF 19
ENDMDL
MODEL 2
REMARK VINA RESULT:      -8.7      3.912      6.761
REMARK SMILES COc1cc(N)ccc1SCc1ccc(C(=O)NCCCCNC(=O)c2ccc(-c3c4nc(c(-c5c(F)cc(S(=O)(=O)[O-])cc5F)c5ccc([nH]5)c(-c5c(F)cc(S(=O)(=O)[O-])cc5F)c5nc(c(-c6c(F)cc(S(=O)(=O)[O-])cc6F)c6ccc3[nH]6)C=C5)C=C4)cc2)s1
REMARK SMILES IDX 20 1 19 2 18 3 16 4 17 5 15 7 12 8 13 9 92 10 14 11 11 12
REMARK SMILES IDX 10 13 9 14 3 15 4 16 5 17 8 18 7 19 2 20 1 21 6 22 21 25
REMARK SMILES IDX 22 26 23 27 24 28 25 30 26 31 27 32 91 33 28 34 90 35 29 36
REMARK SMILES IDX 30 37 31 38 84 39 32 40 89 41 83 42 85 43 33 44 88 45 82 46
REMARK SMILES IDX 81 47 34 49 68 50 47 51 67 52 48 53 51 54 66 55 86 56 49 57
REMARK SMILES IDX 50 58 65 60 87 61 52 62 35 63 36 64 45 65 37 66 38 67 44 68
REMARK SMILES IDX 46 69 39 70 40 71 41 72 42 73 43 74 69 75 70 76 79 77 71 78
REMARK SMILES IDX 72 79 78 80 80 81 73 82 74 83 75 84 76 85 77 86 53 87 54 88
REMARK SMILES IDX 63 89 55 90 56 91 62 92 64 93 57 94 58 95 59 96 60 97 61 98
REMARK H PARENT 18 6 6 23 6 24 23 29 85 48 51 59
REMARK Flexibility Score: inf
ROOT
ATOM      1  C   UNL A   1      44.993  22.378  26.181  1.00  0.00     0.023 C 
ENDROOT
BRANCH   1   2
ATOM      2  C   UNL A   1      43.867  21.617  25.481  1.00  0.00     0.116 C 
BRANCH   2   3
ATOM      3  N   UNL A   1      43.426  20.496  26.282  1.00  0.00    -0.351 N 
ATOM      4  C   UNL A   1      42.248  20.240  26.944  1.00  0.00     0.261 C 
ATOM      5  O   UNL A   1      42.227  19.163  27.549  1.00  0.00    -0.268 OA
ATOM      6  H   UNL A   1      44.098  19.781  26.371  1.00  0.00     0.163 HD
BRANCH   4   7
ATOM      7  C   UNL A   1      41.113  21.157  26.897  1.00  0.00     0.092 A 
ATOM      8  C   UNL A   1      38.954  22.165  26.135  1.00  0.00     0.016 A 
ATOM      9  C   UNL A   1      39.649  22.981  27.006  1.00  0.00     0.017 A 
ATOM     10  S   UNL A   1      39.733  20.651  25.990  1.00  0.00    -0.134 S 
ATOM     11  C   UNL A   1      40.863  22.393  27.466  1.00  0.00     0.026 A 
BRANCH   8  12
ATOM     12  C   UNL A   1      37.681  22.532  25.425  1.00  0.00     0.121 C 
BRANCH  12  13
ATOM     13  S   UNL A   1      36.330  21.323  25.314  1.00  0.00    -0.117 SA
BRANCH  13  14
ATOM     14  C   UNL A   1      35.016  22.083  24.349  1.00  0.00     0.050 A 
ATOM     15  C   UNL A   1      33.774  21.546  23.971  1.00  0.00     0.134 A 
ATOM     16  C   UNL A   1      32.854  22.344  23.262  1.00  0.00     0.073 A 
ATOM     17  C   UNL A   1      33.159  23.654  22.884  1.00  0.00     0.035 A 
ATOM     18  C   UNL A   1      35.332  23.382  23.907  1.00  0.00     0.021 A 
ATOM     19  C   UNL A   1      34.427  24.146  23.165  1.00  0.00     0.027 A 
BRANCH  15  20
ATOM     20  O   UNL A   1      33.470  20.266  24.347  1.00  0.00    -0.496 OA
ATOM     21  C   UNL A   1      32.190  20.058  24.930  1.00  0.00     0.278 C 
ENDBRANCH  15  20
BRANCH  17  22
ATOM     22  N   UNL A   1      32.272  24.394  22.116  1.00  0.00    -0.399 N 
ATOM     23  H   UNL A   1      32.459  24.552  21.162  1.00  0.00     0.156 HD
ATOM     24  H   UNL A   1      31.456  24.764  22.525  1.00  0.00     0.156 HD
ENDBRANCH  17  22
ENDBRANCH  13  14
ENDBRANCH  12  13
ENDBRANCH   8  12
ENDBRANCH   4   7
ENDBRANCH   2   3
ENDBRANCH   1   2
BRANCH   1  25
ATOM     25  C   UNL A   1      44.582  23.018  27.513  1.00  0.00     0.023 C 
BRANCH  25  26
ATOM     26  C   UNL A   1      44.065  24.452  27.415  1.00  0.00     0.116 C 
BRANCH  26  27
ATOM     27  N   UNL A   1      43.274  24.697  26.219  1.00  0.00    -0.352 N 
ATOM     28  C   UNL A   1      42.246  25.592  26.032  1.00  0.00     0.251 C 
ATOM     29  H   UNL A   1      43.506  24.147  25.437  1.00  0.00     0.163 HD
ATOM     30  O   UNL A   1      41.617  25.587  24.983  1.00  0.00    -0.269 OA
BRANCH  28  31
ATOM     31  C   UNL A   1      41.884  26.526  27.120  1.00  0.00     0.039 A 
ATOM     32  C   UNL A   1      40.924  26.125  28.053  1.00  0.00     0.014 A 
ATOM     33  C   UNL A   1      42.494  27.778  27.229  1.00  0.00     0.014 A 
ATOM     34  C   UNL A   1      40.623  26.958  29.132  1.00  0.00     0.010 A 
ATOM     35  C   UNL A   1      42.240  28.577  28.341  1.00  0.00     0.010 A 
ATOM     36  C   UNL A   1      41.303  28.174  29.305  1.00  0.00    -0.014 A 
BRANCH  36  37
ATOM     37  C   UNL A   1      41.053  29.025  30.495  1.00  0.00     0.031 A 
ATOM     38  C   UNL A   1      41.881  28.855  31.740  1.00  0.00     0.074 A 
ATOM     39  C   UNL A   1      40.041  29.916  30.472  1.00  0.00     0.049 A 
ATOM     40  N   UNL A   1      41.790  29.484  32.883  1.00  0.00    -0.248 NA
ATOM     41  C   UNL A   1      42.933  27.827  31.704  1.00  0.00     0.031 C 
ATOM     42  C   UNL A   1      39.129  30.129  29.344  1.00  0.00     0.029 A 
ATOM     43  N   UNL A   1      39.605  30.803  31.422  1.00  0.00    -0.354 N 
ATOM     44  C   UNL A   1      42.760  28.923  33.704  1.00  0.00     0.074 A 
ATOM     45  C   UNL A   1      43.393  27.866  32.946  1.00  0.00     0.031 C 
ATOM     46  C   UNL A   1      38.259  31.102  29.659  1.00  0.00     0.029 A 
ATOM     47  C   UNL A   1      38.529  31.561  31.019  1.00  0.00     0.049 A 
ATOM     48  H   UNL A   1      40.022  30.890  32.310  1.00  0.00     0.167 HD
ATOM     49  C   UNL A   1      43.108  29.272  34.966  1.00  0.00     0.037 A 
ATOM     50  C   UNL A   1      37.839  32.517  31.671  1.00  0.00     0.037 A 
ATOM     51  C   UNL A   1      42.491  30.342  35.705  1.00  0.00     0.049 A 
ATOM     52  C   UNL A   1      38.257  32.900  33.063  1.00  0.00     0.074 A 
ATOM     53  C   UNL A   1      42.813  30.817  36.965  1.00  0.00     0.029 A 
ATOM     54  N   UNL A   1      41.424  31.105  35.253  1.00  0.00    -0.354 N 
ATOM     55  N   UNL A   1      39.227  32.407  33.798  1.00  0.00    -0.248 NA
ATOM     56  C   UNL A   1      37.498  33.976  33.713  1.00  0.00     0.031 C 
ATOM     57  C   UNL A   1      41.916  31.840  37.291  1.00  0.00     0.029 A 
ATOM     58  C   UNL A   1      41.064  32.035  36.216  1.00  0.00     0.049 A 
ATOM     59  H   UNL A   1      40.987  31.002  34.378  1.00  0.00     0.167 HD
ATOM     60  C   UNL A   1      39.208  33.130  34.985  1.00  0.00     0.074 A 
ATOM     61  C   UNL A   1      38.141  34.102  34.864  1.00  0.00     0.031 C 
ATOM     62  C   UNL A   1      40.001  32.999  36.078  1.00  0.00     0.037 A 
BRANCH  49  63
ATOM     63  C   UNL A   1      44.217  28.496  35.624  1.00  0.00     0.058 A 
ATOM     64  C   UNL A   1      43.968  27.301  36.317  1.00  0.00     0.135 A 
ATOM     65  C   UNL A   1      45.548  28.932  35.532  1.00  0.00     0.135 A 
ATOM     66  F   UNL A   1      42.712  26.845  36.450  1.00  0.00    -0.206 F 
ATOM     67  C   UNL A   1      44.994  26.580  36.919  1.00  0.00     0.059 A 
ATOM     68  C   UNL A   1      46.594  28.214  36.103  1.00  0.00     0.059 A 
ATOM     69  F   UNL A   1      45.844  30.069  34.882  1.00  0.00    -0.206 F 
ATOM     70  C   UNL A   1      46.305  27.046  36.807  1.00  0.00     0.060 A 
BRANCH  70  71
ATOM     71  S   UNL A   1      47.626  26.097  37.591  1.00  0.00     0.124 S 
ATOM     72  O   UNL A   1      46.864  25.099  38.336  1.00  0.00    -0.237 OA
ATOM     73  O   UNL A   1      48.374  25.594  36.442  1.00  0.00    -0.237 OA
ATOM     74  O   UNL A   1      48.322  27.088  38.403  1.00  0.00    -0.744 OA
ENDBRANCH  70  71
ENDBRANCH  49  63
BRANCH  50  75
ATOM     75  C   UNL A   1      36.701  33.200  30.999  1.00  0.00     0.058 A 
ATOM     76  C   UNL A   1      36.922  34.129  29.972  1.00  0.00     0.135 A 
ATOM     77  C   UNL A   1      35.373  32.930  31.363  1.00  0.00     0.135 A 
ATOM     78  F   UNL A   1      38.174  34.423  29.593  1.00  0.00    -0.206 F 
ATOM     79  C   UNL A   1      35.869  34.781  29.340  1.00  0.00     0.059 A 
ATOM     80  C   UNL A   1      34.301  33.551  30.728  1.00  0.00     0.059 A 
ATOM     81  F   UNL A   1      35.107  32.035  32.327  1.00  0.00    -0.206 F 
ATOM     82  C   UNL A   1      34.560  34.484  29.725  1.00  0.00     0.060 A 
BRANCH  82  83
ATOM     83  S   UNL A   1      33.197  35.302  28.866  1.00  0.00     0.124 S 
ATOM     84  O   UNL A   1      33.908  36.293  28.068  1.00  0.00    -0.237 OA
ATOM     85  O   UNL A   1      32.595  34.197  28.126  1.00  0.00    -0.237 OA
ATOM     86  O   UNL A   1      32.386  35.832  29.958  1.00  0.00    -0.744 OA
ENDBRANCH  82  83
ENDBRANCH  50  75
BRANCH  62  87
ATOM     87  C   UNL A   1      39.767  33.952  37.217  1.00  0.00     0.058 A 
ATOM     88  C   UNL A   1      38.925  33.624  38.291  1.00  0.00     0.135 A 
ATOM     89  C   UNL A   1      40.423  35.193  37.252  1.00  0.00     0.135 A 
ATOM     90  F   UNL A   1      38.270  32.452  38.304  1.00  0.00    -0.206 F 
ATOM     91  C   UNL A   1      38.718  34.506  39.347  1.00  0.00     0.059 A 
ATOM     92  C   UNL A   1      40.252  36.079  38.312  1.00  0.00     0.059 A 
ATOM     93  F   UNL A   1      41.248  35.551  36.256  1.00  0.00    -0.206 F 
ATOM     94  C   UNL A   1      39.385  35.732  39.347  1.00  0.00     0.060 A 
BRANCH  94  95
ATOM     95  S   UNL A   1      39.126  36.860  40.733  1.00  0.00     0.124 S 
ATOM     96  O   UNL A   1      38.348  36.029  41.645  1.00  0.00    -0.237 OA
ATOM     97  O   UNL A   1      40.492  37.158  41.154  1.00  0.00    -0.237 OA
ATOM     98  O   UNL A   1      38.405  37.978  40.130  1.00  0.00    -0.744 OA
ENDBRANCH  94  95
ENDBRANCH  62  87
ENDBRANCH  36  37
ENDBRANCH  28  31
ENDBRANCH  26  27
ENDBRANCH  25  26
ENDBRANCH   1  25
TORSDOF 19
ENDMDL
MODEL 3
REMARK VINA RESULT:      -8.6      3.512      9.586
REMARK SMILES COc1cc(N)ccc1SCc1ccc(C(=O)NCCCCNC(=O)c2ccc(-c3c4nc(c(-c5c(F)cc(S(=O)(=O)[O-])cc5F)c5ccc([nH]5)c(-c5c(F)cc(S(=O)(=O)[O-])cc5F)c5nc(c(-c6c(F)cc(S(=O)(=O)[O-])cc6F)c6ccc3[nH]6)C=C5)C=C4)cc2)s1
REMARK SMILES IDX 20 1 19 2 18 3 16 4 17 5 15 7 12 8 13 9 92 10 14 11 11 12
REMARK SMILES IDX 10 13 9 14 3 15 4 16 5 17 8 18 7 19 2 20 1 21 6 22 21 25
REMARK SMILES IDX 22 26 23 27 24 28 25 30 26 31 27 32 91 33 28 34 90 35 29 36
REMARK SMILES IDX 30 37 31 38 84 39 32 40 89 41 83 42 85 43 33 44 88 45 82 46
REMARK SMILES IDX 81 47 34 49 68 50 47 51 67 52 48 53 51 54 66 55 86 56 49 57
REMARK SMILES IDX 50 58 65 60 87 61 52 62 35 63 36 64 45 65 37 66 38 67 44 68
REMARK SMILES IDX 46 69 39 70 40 71 41 72 42 73 43 74 69 75 70 76 79 77 71 78
REMARK SMILES IDX 72 79 78 80 80 81 73 82 74 83 75 84 76 85 77 86 53 87 54 88
REMARK SMILES IDX 63 89 55 90 56 91 62 92 64 93 57 94 58 95 59 96 60 97 61 98
REMARK H PARENT 18 6 6 23 6 24 23 29 85 48 51 59
REMARK Flexibility Score: inf
ROOT
ATOM      1  C   UNL A   1      36.060  32.558  31.354  1.00  0.00     0.023 C 
ENDROOT
BRANCH   1   2
ATOM      2  C   UNL A   1      35.831  32.315  32.846  1.00  0.00     0.116 C 
BRANCH   2   3
ATOM      3  N   UNL A   1      36.864  32.950  33.636  1.00  0.00    -0.351 N 
ATOM      4  C   UNL A   1      38.080  32.503  34.097  1.00  0.00     0.261 C 
ATOM      5  O   UNL A   1      38.708  33.331  34.764  1.00  0.00    -0.268 OA
ATOM      6  H   UNL A   1      36.656  33.877  33.892  1.00  0.00     0.163 HD
BRANCH   4   7
ATOM      7  C   UNL A   1      38.590  31.170  33.785  1.00  0.00     0.092 A 
ATOM      8  C   UNL A   1      40.239  29.322  33.441  1.00  0.00     0.016 A 
ATOM      9  C   UNL A   1      38.981  29.015  32.960  1.00  0.00     0.017 A 
ATOM     10  S   UNL A   1      40.211  30.819  34.264  1.00  0.00    -0.134 S 
ATOM     11  C   UNL A   1      38.033  30.055  33.186  1.00  0.00     0.026 A 
BRANCH   8  12
ATOM     12  C   UNL A   1      41.464  28.463  33.289  1.00  0.00     0.121 C 
BRANCH  12  13
ATOM     13  S   UNL A   1      42.485  28.085  34.743  1.00  0.00    -0.117 SA
BRANCH  13  14
ATOM     14  C   UNL A   1      42.730  26.303  34.769  1.00  0.00     0.050 A 
ATOM     15  C   UNL A   1      41.932  25.310  35.363  1.00  0.00     0.134 A 
ATOM     16  C   UNL A   1      42.276  23.953  35.208  1.00  0.00     0.073 A 
ATOM     17  C   UNL A   1      43.421  23.562  34.510  1.00  0.00     0.035 A 
ATOM     18  C   UNL A   1      43.913  25.896  34.124  1.00  0.00     0.021 A 
ATOM     19  C   UNL A   1      44.265  24.548  34.017  1.00  0.00     0.027 A 
BRANCH  15  20
ATOM     20  O   UNL A   1      40.806  25.690  36.040  1.00  0.00    -0.496 OA
ATOM     21  C   UNL A   1      40.826  25.530  37.452  1.00  0.00     0.278 C 
ENDBRANCH  15  20
BRANCH  17  22
ATOM     22  N   UNL A   1      43.786  22.224  34.439  1.00  0.00    -0.399 N 
ATOM     23  H   UNL A   1      43.552  21.692  33.644  1.00  0.00     0.156 HD
ATOM     24  H   UNL A   1      44.277  21.807  35.183  1.00  0.00     0.156 HD
ENDBRANCH  17  22
ENDBRANCH  13  14
ENDBRANCH  12  13
ENDBRANCH   8  12
ENDBRANCH   4   7
ENDBRANCH   2   3
ENDBRANCH   1   2
BRANCH   1  25
ATOM     25  C   UNL A   1      34.769  32.662  30.532  1.00  0.00     0.023 C 
BRANCH  25  26
ATOM     26  C   UNL A   1      34.949  32.560  29.018  1.00  0.00     0.116 C 
BRANCH  26  27
ATOM     27  N   UNL A   1      34.168  31.490  28.418  1.00  0.00    -0.352 N 
ATOM     28  C   UNL A   1      34.579  30.239  28.021  1.00  0.00     0.251 C 
ATOM     29  H   UNL A   1      33.214  31.688  28.276  1.00  0.00     0.163 HD
ATOM     30  O   UNL A   1      33.802  29.500  27.431  1.00  0.00    -0.269 OA
BRANCH  28  31
ATOM     31  C   UNL A   1      35.972  29.814  28.276  1.00  0.00     0.039 A 
ATOM     32  C   UNL A   1      36.917  29.973  27.258  1.00  0.00     0.014 A 
ATOM     33  C   UNL A   1      36.350  29.275  29.508  1.00  0.00     0.014 A 
ATOM     34  C   UNL A   1      38.254  29.652  27.501  1.00  0.00     0.010 A 
ATOM     35  C   UNL A   1      37.693  29.018  29.770  1.00  0.00     0.010 A 
ATOM     36  C   UNL A   1      38.658  29.205  28.769  1.00  0.00    -0.014 A 
BRANCH  36  37
ATOM     37  C   UNL A   1      40.090  28.943  29.064  1.00  0.00     0.031 A 
ATOM     38  C   UNL A   1      40.710  27.618  28.712  1.00  0.00     0.074 A 
ATOM     39  C   UNL A   1      40.818  29.884  29.700  1.00  0.00     0.049 A 
ATOM     40  N   UNL A   1      41.931  27.198  28.919  1.00  0.00    -0.248 NA
ATOM     41  C   UNL A   1      39.837  26.626  28.066  1.00  0.00     0.031 C 
ATOM     42  C   UNL A   1      40.311  31.184  30.148  1.00  0.00     0.029 A 
ATOM     43  N   UNL A   1      42.134  29.890  30.086  1.00  0.00    -0.354 N 
ATOM     44  C   UNL A   1      41.971  25.894  28.441  1.00  0.00     0.074 A 
ATOM     45  C   UNL A   1      40.637  25.572  27.983  1.00  0.00     0.031 C 
ATOM     46  C   UNL A   1      41.311  31.871  30.723  1.00  0.00     0.029 A 
ATOM     47  C   UNL A   1      42.519  31.052  30.715  1.00  0.00     0.049 A 
ATOM     48  H   UNL A   1      42.745  29.135  29.928  1.00  0.00     0.167 HD
ATOM     49  C   UNL A   1      43.028  25.050  28.369  1.00  0.00     0.037 A 
ATOM     50  C   UNL A   1      43.711  31.415  31.227  1.00  0.00     0.037 A 
ATOM     51  C   UNL A   1      44.359  25.386  28.803  1.00  0.00     0.049 A 
ATOM     52  C   UNL A   1      44.874  30.468  31.117  1.00  0.00     0.074 A 
ATOM     53  C   UNL A   1      45.512  24.624  28.715  1.00  0.00     0.029 A 
ATOM     54  N   UNL A   1      44.716  26.581  29.409  1.00  0.00    -0.354 N 
ATOM     55  N   UNL A   1      44.910  29.264  30.594  1.00  0.00    -0.248 NA
ATOM     56  C   UNL A   1      46.160  30.929  31.654  1.00  0.00     0.031 C 
ATOM     57  C   UNL A   1      46.558  25.344  29.303  1.00  0.00     0.029 A 
ATOM     58  C   UNL A   1      46.068  26.572  29.716  1.00  0.00     0.049 A 
ATOM     59  H   UNL A   1      44.101  27.327  29.594  1.00  0.00     0.167 HD
ATOM     60  C   UNL A   1      46.227  28.837  30.718  1.00  0.00     0.074 A 
ATOM     61  C   UNL A   1      46.958  29.915  31.351  1.00  0.00     0.031 C 
ATOM     62  C   UNL A   1      46.781  27.657  30.343  1.00  0.00     0.037 A 
BRANCH  49  63
ATOM     63  C   UNL A   1      42.790  23.683  27.786  1.00  0.00     0.058 A 
ATOM     64  C   UNL A   1      42.831  23.456  26.401  1.00  0.00     0.135 A 
ATOM     65  C   UNL A   1      42.553  22.580  28.622  1.00  0.00     0.135 A 
ATOM     66  F   UNL A   1      43.039  24.477  25.554  1.00  0.00    -0.206 F 
ATOM     67  C   UNL A   1      42.618  22.191  25.864  1.00  0.00     0.059 A 
ATOM     68  C   UNL A   1      42.363  21.301  28.108  1.00  0.00     0.059 A 
ATOM     69  F   UNL A   1      42.502  22.739  29.954  1.00  0.00    -0.206 F 
ATOM     70  C   UNL A   1      42.383  21.119  26.726  1.00  0.00     0.060 A 
BRANCH  70  71
ATOM     71  S   UNL A   1      42.113  19.483  26.013  1.00  0.00     0.124 S 
ATOM     72  O   UNL A   1      40.667  19.490  25.810  1.00  0.00    -0.237 OA
ATOM     73  O   UNL A   1      42.922  19.533  24.799  1.00  0.00    -0.237 OA
ATOM     74  O   UNL A   1      42.596  18.576  27.048  1.00  0.00    -0.744 OA
ENDBRANCH  70  71
ENDBRANCH  49  63
BRANCH  50  75
ATOM     75  C   UNL A   1      43.871  32.751  31.861  1.00  0.00     0.058 A 
ATOM     76  C   UNL A   1      44.182  33.882  31.092  1.00  0.00     0.135 A 
ATOM     77  C   UNL A   1      43.706  32.925  33.244  1.00  0.00     0.135 A 
ATOM     78  F   UNL A   1      44.355  33.764  29.767  1.00  0.00    -0.206 F 
ATOM     79  C   UNL A   1      44.343  35.135  31.672  1.00  0.00     0.059 A 
ATOM     80  C   UNL A   1      43.836  34.174  33.843  1.00  0.00     0.059 A 
ATOM     81  F   UNL A   1      43.389  31.878  34.021  1.00  0.00    -0.206 F 
ATOM     82  C   UNL A   1      44.166  35.272  33.049  1.00  0.00     0.060 A 
BRANCH  82  83
ATOM     83  S   UNL A   1      44.331  36.914  33.786  1.00  0.00     0.124 S 
ATOM     84  O   UNL A   1      43.401  37.692  32.977  1.00  0.00    -0.237 OA
ATOM     85  O   UNL A   1      43.928  36.671  35.168  1.00  0.00    -0.237 OA
ATOM     86  O   UNL A   1      45.745  37.223  33.599  1.00  0.00    -0.744 OA
ENDBRANCH  82  83
ENDBRANCH  50  75
BRANCH  62  87
ATOM     87  C   UNL A   1      48.257  27.483  30.578  1.00  0.00     0.058 A 
ATOM     88  C   UNL A   1      49.206  27.881  29.624  1.00  0.00     0.135 A 
ATOM     89  C   UNL A   1      48.726  26.945  31.787  1.00  0.00     0.135 A 
ATOM     90  F   UNL A   1      48.810  28.395  28.449  1.00  0.00    -0.206 F 
ATOM     91  C   UNL A   1      50.570  27.725  29.849  1.00  0.00     0.059 A 
ATOM     92  C   UNL A   1      50.086  26.806  32.044  1.00  0.00     0.059 A 
ATOM     93  F   UNL A   1      47.860  26.560  32.737  1.00  0.00    -0.206 F 
ATOM     94  C   UNL A   1      51.000  27.185  31.063  1.00  0.00     0.060 A 
BRANCH  94  95
ATOM     95  S   UNL A   1      52.773  27.008  31.352  1.00  0.00     0.124 S 
ATOM     96  O   UNL A   1      52.956  27.816  32.553  1.00  0.00    -0.237 OA
ATOM     97  O   UNL A   1      52.919  25.566  31.529  1.00  0.00    -0.237 OA
ATOM     98  O   UNL A   1      53.371  27.547  30.135  1.00  0.00    -0.744 OA
ENDBRANCH  94  95
ENDBRANCH  62  87
ENDBRANCH  36  37
ENDBRANCH  28  31
ENDBRANCH  26  27
ENDBRANCH  25  26
ENDBRANCH   1  25
TORSDOF 19
ENDMDL
