MODEL 1
REMARK VINA RESULT:     -11.9      0.000      0.000
REMARK SMILES Cc1cc(C)cc(Nc2nc(C)cc(C(=O)NCCCCNC(=O)c3ccc(-c4c5nc(c(-c6c(F)cc(S(=O)(=O)[O-])cc6F)c6ccc([nH]6)c(-c6c(F)cc(S(=O)(=O)[O-])cc6F)c6nc(c(-c7c(F)cc(S(=O)(=O)[O-])cc7F)c7ccc4[nH]7)C=C6)C=C5)cc3)n2)c1
REMARK SMILES IDX 20 1 19 2 18 3 17 4 15 5 16 6 14 8 9 9 10 10 91 11 11 12
REMARK SMILES IDX 12 13 13 14 8 15 7 17 1 18 2 19 3 20 92 21 4 22 5 23 6 24
REMARK SMILES IDX 21 25 22 26 23 27 24 29 25 30 26 31 90 32 27 33 89 34 28 35
REMARK SMILES IDX 29 36 30 37 83 38 31 39 88 40 82 41 84 42 32 43 87 44 81 45
REMARK SMILES IDX 80 46 33 48 67 49 46 50 66 51 47 52 50 53 65 54 85 55 48 56
REMARK SMILES IDX 49 57 64 59 86 60 51 61 34 62 35 63 44 64 36 65 37 66 43 67
REMARK SMILES IDX 45 68 38 69 39 70 40 71 41 72 42 73 68 74 69 75 78 76 70 77
REMARK SMILES IDX 71 78 77 79 79 80 72 81 73 82 74 83 75 84 76 85 52 86 53 87
REMARK SMILES IDX 62 88 54 89 55 90 61 91 63 92 56 93 57 94 58 95 59 96 60 97
REMARK H PARENT 17 7 8 16 22 28 84 47 50 58
REMARK Flexibility Score: inf
ROOT
ATOM      1  C   UNL A   1      32.301  27.852  27.159  1.00  0.00     0.023 C 
ENDROOT
BRANCH   1   2
ATOM      2  C   UNL A   1      31.587  27.953  25.805  1.00  0.00     0.023 C 
BRANCH   2   3
ATOM      3  C   UNL A   1      31.379  26.606  25.111  1.00  0.00     0.116 C 
BRANCH   3   4
ATOM      4  N   UNL A   1      30.623  25.715  25.963  1.00  0.00    -0.351 N 
ATOM      5  C   UNL A   1      30.891  24.479  26.501  1.00  0.00     0.270 C 
ATOM      6  O   UNL A   1      29.976  23.968  27.151  1.00  0.00    -0.268 OA
ATOM      7  H   UNL A   1      29.735  26.065  26.207  1.00  0.00     0.163 HD
BRANCH   5   8
ATOM      8  C   UNL A   1      32.206  23.751  26.367  1.00  0.00     0.134 A 
ATOM      9  C   UNL A   1      33.216  21.692  26.592  1.00  0.00     0.228 A 
ATOM     10  N   UNL A   1      34.426  22.185  26.301  1.00  0.00    -0.218 NA
ATOM     11  N   UNL A   1      32.122  22.446  26.696  1.00  0.00    -0.208 NA
ATOM     12  C   UNL A   1      34.489  23.477  25.930  1.00  0.00     0.044 A 
ATOM     13  C   UNL A   1      35.819  23.974  25.452  1.00  0.00     0.067 C 
ATOM     14  C   UNL A   1      33.377  24.295  25.899  1.00  0.00     0.058 A 
BRANCH   9  15
ATOM     15  N   UNL A   1      33.113  20.304  26.653  1.00  0.00    -0.324 N 
ATOM     16  H   UNL A   1      33.155  19.899  27.550  1.00  0.00     0.170 HD
BRANCH  15  17
ATOM     17  C   UNL A   1      32.956  19.420  25.569  1.00  0.00     0.041 A 
ATOM     18  C   UNL A   1      33.328  15.681  24.895  1.00  0.00     0.044 C 
ATOM     19  C   UNL A   1      33.072  17.144  24.692  1.00  0.00    -0.049 A 
ATOM     20  C   UNL A   1      32.731  17.617  23.419  1.00  0.00     0.007 A 
ATOM     21  C   UNL A   1      33.178  18.050  25.759  1.00  0.00     0.029 A 
ATOM     22  C   UNL A   1      32.475  18.973  23.209  1.00  0.00    -0.049 A 
ATOM     23  C   UNL A   1      32.110  19.484  21.847  1.00  0.00     0.044 C 
ATOM     24  C   UNL A   1      32.568  19.854  24.292  1.00  0.00     0.029 A 
ENDBRANCH  15  17
ENDBRANCH   9  15
ENDBRANCH   5   8
ENDBRANCH   3   4
ENDBRANCH   2   3
ENDBRANCH   1   2
BRANCH   1  25
ATOM     25  C   UNL A   1      33.645  28.574  27.229  1.00  0.00     0.116 C 
BRANCH  25  26
ATOM     26  N   UNL A   1      33.527  29.959  27.658  1.00  0.00    -0.352 N 
ATOM     27  C   UNL A   1      34.479  30.747  28.260  1.00  0.00     0.251 C 
ATOM     28  H   UNL A   1      32.656  30.386  27.496  1.00  0.00     0.163 HD
ATOM     29  O   UNL A   1      34.188  31.868  28.656  1.00  0.00    -0.269 OA
BRANCH  27  30
ATOM     30  C   UNL A   1      35.836  30.203  28.465  1.00  0.00     0.039 A 
ATOM     31  C   UNL A   1      36.722  30.190  27.385  1.00  0.00     0.014 A 
ATOM     32  C   UNL A   1      36.243  29.751  29.722  1.00  0.00     0.014 A 
ATOM     33  C   UNL A   1      38.043  29.786  27.584  1.00  0.00     0.010 A 
ATOM     34  C   UNL A   1      37.574  29.404  29.932  1.00  0.00     0.010 A 
ATOM     35  C   UNL A   1      38.487  29.426  28.867  1.00  0.00    -0.014 A 
BRANCH  35  36
ATOM     36  C   UNL A   1      39.906  29.075  29.117  1.00  0.00     0.031 A 
ATOM     37  C   UNL A   1      40.853  30.112  29.653  1.00  0.00     0.074 A 
ATOM     38  C   UNL A   1      40.352  27.844  28.798  1.00  0.00     0.049 A 
ATOM     39  N   UNL A   1      42.144  30.030  29.845  1.00  0.00    -0.248 NA
ATOM     40  C   UNL A   1      40.276  31.422  29.994  1.00  0.00     0.031 C 
ATOM     41  C   UNL A   1      39.537  26.768  28.228  1.00  0.00     0.029 A 
ATOM     42  N   UNL A   1      41.606  27.294  28.893  1.00  0.00    -0.354 N 
ATOM     43  C   UNL A   1      42.534  31.274  30.324  1.00  0.00     0.074 A 
ATOM     44  C   UNL A   1      41.353  32.111  30.343  1.00  0.00     0.031 C 
ATOM     45  C   UNL A   1      40.310  25.686  28.034  1.00  0.00     0.029 A 
ATOM     46  C   UNL A   1      41.678  25.999  28.435  1.00  0.00     0.049 A 
ATOM     47  H   UNL A   1      42.381  27.781  29.254  1.00  0.00     0.167 HD
ATOM     48  C   UNL A   1      43.760  31.676  30.737  1.00  0.00     0.037 A 
ATOM     49  C   UNL A   1      42.730  25.165  28.340  1.00  0.00     0.037 A 
ATOM     50  C   UNL A   1      44.928  30.834  30.734  1.00  0.00     0.049 A 
ATOM     51  C   UNL A   1      44.082  25.634  28.805  1.00  0.00     0.074 A 
ATOM     52  C   UNL A   1      46.212  31.140  31.150  1.00  0.00     0.029 A 
ATOM     53  N   UNL A   1      44.951  29.517  30.300  1.00  0.00    -0.354 N 
ATOM     54  N   UNL A   1      44.424  26.804  29.291  1.00  0.00    -0.248 NA
ATOM     55  C   UNL A   1      45.188  24.672  28.714  1.00  0.00     0.031 C 
ATOM     56  C   UNL A   1      47.017  30.013  30.948  1.00  0.00     0.029 A 
ATOM     57  C   UNL A   1      46.227  28.996  30.438  1.00  0.00     0.049 A 
ATOM     58  H   UNL A   1      44.175  29.026  29.945  1.00  0.00     0.167 HD
ATOM     59  C   UNL A   1      45.780  26.708  29.587  1.00  0.00     0.074 A 
ATOM     60  C   UNL A   1      46.191  25.364  29.237  1.00  0.00     0.031 C 
ATOM     61  C   UNL A   1      46.610  27.649  30.100  1.00  0.00     0.037 A 
BRANCH  48  62
ATOM     62  C   UNL A   1      43.893  33.082  31.245  1.00  0.00     0.058 A 
ATOM     63  C   UNL A   1      43.777  33.374  32.614  1.00  0.00     0.135 A 
ATOM     64  C   UNL A   1      44.170  34.144  30.370  1.00  0.00     0.135 A 
ATOM     65  F   UNL A   1      43.494  32.398  33.491  1.00  0.00    -0.206 F 
ATOM     66  C   UNL A   1      43.905  34.673  33.094  1.00  0.00     0.059 A 
ATOM     67  C   UNL A   1      44.328  35.448  30.832  1.00  0.00     0.059 A 
ATOM     68  F   UNL A   1      44.290  33.919  29.052  1.00  0.00    -0.206 F 
ATOM     69  C   UNL A   1      44.179  35.704  32.195  1.00  0.00     0.060 A 
BRANCH  69  70
ATOM     70  S   UNL A   1      44.349  37.383  32.835  1.00  0.00     0.124 S 
ATOM     71  O   UNL A   1      43.200  37.470  33.730  1.00  0.00    -0.237 OA
ATOM     72  O   UNL A   1      45.656  37.341  33.484  1.00  0.00    -0.237 OA
ATOM     73  O   UNL A   1      44.275  38.212  31.636  1.00  0.00    -0.744 OA
ENDBRANCH  69  70
ENDBRANCH  48  62
BRANCH  49  74
ATOM     74  C   UNL A   1      42.552  23.793  27.795  1.00  0.00     0.058 A 
ATOM     75  C   UNL A   1      42.481  23.570  26.412  1.00  0.00     0.135 A 
ATOM     76  C   UNL A   1      42.434  22.682  28.644  1.00  0.00     0.135 A 
ATOM     77  F   UNL A   1      42.586  24.603  25.562  1.00  0.00    -0.206 F 
ATOM     78  C   UNL A   1      42.269  22.299  25.888  1.00  0.00     0.059 A 
ATOM     79  C   UNL A   1      42.244  21.398  28.143  1.00  0.00     0.059 A 
ATOM     80  F   UNL A   1      42.516  22.840  29.974  1.00  0.00    -0.206 F 
ATOM     81  C   UNL A   1      42.147  21.219  26.764  1.00  0.00     0.060 A 
BRANCH  81  82
ATOM     82  S   UNL A   1      41.892  19.568  26.077  1.00  0.00     0.124 S 
ATOM     83  O   UNL A   1      42.798  19.585  24.935  1.00  0.00    -0.237 OA
ATOM     84  O   UNL A   1      42.279  18.706  27.188  1.00  0.00    -0.237 OA
ATOM     85  O   UNL A   1      40.467  19.559  25.755  1.00  0.00    -0.744 OA
ENDBRANCH  81  82
ENDBRANCH  49  74
BRANCH  61  86
ATOM     86  C   UNL A   1      48.035  27.247  30.351  1.00  0.00     0.058 A 
ATOM     87  C   UNL A   1      49.041  27.474  29.399  1.00  0.00     0.135 A 
ATOM     88  C   UNL A   1      48.405  26.675  31.579  1.00  0.00     0.135 A 
ATOM     89  F   UNL A   1      48.735  28.012  28.208  1.00  0.00    -0.206 F 
ATOM     90  C   UNL A   1      50.365  27.133  29.650  1.00  0.00     0.059 A 
ATOM     91  C   UNL A   1      49.727  26.347  31.858  1.00  0.00     0.059 A 
ATOM     92  F   UNL A   1      47.480  26.446  32.523  1.00  0.00    -0.206 F 
ATOM     93  C   UNL A   1      50.699  26.569  30.884  1.00  0.00     0.060 A 
BRANCH  93  94
ATOM     94  S   UNL A   1      52.427  26.167  31.215  1.00  0.00     0.124 S 
ATOM     95  O   UNL A   1      52.988  26.149  29.867  1.00  0.00    -0.237 OA
ATOM     96  O   UNL A   1      52.852  27.276  32.063  1.00  0.00    -0.237 OA
ATOM     97  O   UNL A   1      52.352  24.871  31.882  1.00  0.00    -0.744 OA
ENDBRANCH  93  94
ENDBRANCH  61  86
ENDBRANCH  35  36
ENDBRANCH  27  30
ENDBRANCH  25  26
ENDBRANCH   1  25
TORSDOF 16
ENDMDL
MODEL 2
REMARK VINA RESULT:     -11.8      2.939      4.264
REMARK SMILES Cc1cc(C)cc(Nc2nc(C)cc(C(=O)NCCCCNC(=O)c3ccc(-c4c5nc(c(-c6c(F)cc(S(=O)(=O)[O-])cc6F)c6ccc([nH]6)c(-c6c(F)cc(S(=O)(=O)[O-])cc6F)c6nc(c(-c7c(F)cc(S(=O)(=O)[O-])cc7F)c7ccc4[nH]7)C=C6)C=C5)cc3)n2)c1
REMARK SMILES IDX 20 1 19 2 18 3 17 4 15 5 16 6 14 8 9 9 10 10 91 11 11 12
REMARK SMILES IDX 12 13 13 14 8 15 7 17 1 18 2 19 3 20 92 21 4 22 5 23 6 24
REMARK SMILES IDX 21 25 22 26 23 27 24 29 25 30 26 31 90 32 27 33 89 34 28 35
REMARK SMILES IDX 29 36 30 37 83 38 31 39 88 40 82 41 84 42 32 43 87 44 81 45
REMARK SMILES IDX 80 46 33 48 67 49 46 50 66 51 47 52 50 53 65 54 85 55 48 56
REMARK SMILES IDX 49 57 64 59 86 60 51 61 34 62 35 63 44 64 36 65 37 66 43 67
REMARK SMILES IDX 45 68 38 69 39 70 40 71 41 72 42 73 68 74 69 75 78 76 70 77
REMARK SMILES IDX 71 78 77 79 79 80 72 81 73 82 74 83 75 84 76 85 52 86 53 87
REMARK SMILES IDX 62 88 54 89 55 90 61 91 63 92 56 93 57 94 58 95 59 96 60 97
REMARK H PARENT 17 7 8 16 22 28 84 47 50 58
REMARK Flexibility Score: inf
ROOT
ATOM      1  C   UNL A   1      35.303  32.327  27.793  1.00  0.00     0.023 C 
ENDROOT
BRANCH   1   2
ATOM      2  C   UNL A   1      33.976  31.598  28.038  1.00  0.00     0.023 C 
BRANCH   2   3
ATOM      3  C   UNL A   1      33.720  30.436  27.076  1.00  0.00     0.116 C 
BRANCH   3   4
ATOM      4  N   UNL A   1      32.855  29.457  27.693  1.00  0.00    -0.351 N 
ATOM      5  C   UNL A   1      32.077  28.442  27.188  1.00  0.00     0.270 C 
ATOM      6  O   UNL A   1      31.406  27.820  28.015  1.00  0.00    -0.268 OA
ATOM      7  H   UNL A   1      32.814  29.531  28.673  1.00  0.00     0.163 HD
BRANCH   5   8
ATOM      8  C   UNL A   1      32.022  28.043  25.734  1.00  0.00     0.134 A 
ATOM      9  C   UNL A   1      33.086  26.799  24.111  1.00  0.00     0.228 A 
ATOM     10  N   UNL A   1      32.246  27.214  23.155  1.00  0.00    -0.218 NA
ATOM     11  N   UNL A   1      33.041  27.239  25.369  1.00  0.00    -0.208 NA
ATOM     12  C   UNL A   1      31.208  27.979  23.541  1.00  0.00     0.044 A 
ATOM     13  C   UNL A   1      30.187  28.303  22.492  1.00  0.00     0.067 C 
ATOM     14  C   UNL A   1      31.027  28.380  24.849  1.00  0.00     0.058 A 
BRANCH   9  15
ATOM     15  N   UNL A   1      33.949  25.761  23.767  1.00  0.00    -0.324 N 
ATOM     16  H   UNL A   1      34.784  26.016  23.311  1.00  0.00     0.170 HD
BRANCH  15  17
ATOM     17  C   UNL A   1      33.754  24.387  24.002  1.00  0.00     0.041 A 
ATOM     18  C   UNL A   1      34.863  21.767  26.547  1.00  0.00     0.044 C 
ATOM     19  C   UNL A   1      34.210  22.410  25.361  1.00  0.00    -0.049 A 
ATOM     20  C   UNL A   1      33.460  21.627  24.475  1.00  0.00     0.007 A 
ATOM     21  C   UNL A   1      34.348  23.786  25.118  1.00  0.00     0.029 A 
ATOM     22  C   UNL A   1      32.833  22.206  23.371  1.00  0.00    -0.049 A 
ATOM     23  C   UNL A   1      32.028  21.371  22.419  1.00  0.00     0.044 C 
ATOM     24  C   UNL A   1      32.968  23.583  23.161  1.00  0.00     0.029 A 
ENDBRANCH  15  17
ENDBRANCH   9  15
ENDBRANCH   5   8
ENDBRANCH   3   4
ENDBRANCH   2   3
ENDBRANCH   1   2
BRANCH   1  25
ATOM     25  C   UNL A   1      36.133  32.586  29.049  1.00  0.00     0.116 C 
BRANCH  25  26
ATOM     26  N   UNL A   1      35.762  31.728  30.164  1.00  0.00    -0.352 N 
ATOM     27  C   UNL A   1      36.497  30.723  30.746  1.00  0.00     0.251 C 
ATOM     28  H   UNL A   1      34.872  31.889  30.553  1.00  0.00     0.163 HD
ATOM     29  O   UNL A   1      35.999  30.020  31.616  1.00  0.00    -0.269 OA
BRANCH  27  30
ATOM     30  C   UNL A   1      37.873  30.473  30.270  1.00  0.00     0.039 A 
ATOM     31  C   UNL A   1      38.920  30.532  31.192  1.00  0.00     0.014 A 
ATOM     32  C   UNL A   1      38.118  30.140  28.936  1.00  0.00     0.014 A 
ATOM     33  C   UNL A   1      40.211  30.189  30.788  1.00  0.00     0.010 A 
ATOM     34  C   UNL A   1      39.394  29.743  28.550  1.00  0.00     0.010 A 
ATOM     35  C   UNL A   1      40.450  29.756  29.474  1.00  0.00    -0.014 A 
BRANCH  35  36
ATOM     36  C   UNL A   1      41.797  29.306  29.047  1.00  0.00     0.031 A 
ATOM     37  C   UNL A   1      42.930  30.292  28.972  1.00  0.00     0.074 A 
ATOM     38  C   UNL A   1      41.980  28.027  28.663  1.00  0.00     0.049 A 
ATOM     39  N   UNL A   1      44.148  30.117  28.531  1.00  0.00    -0.248 NA
ATOM     40  C   UNL A   1      42.646  31.662  29.430  1.00  0.00     0.031 C 
ATOM     41  C   UNL A   1      40.945  26.990  28.648  1.00  0.00     0.029 A 
ATOM     42  N   UNL A   1      43.098  27.384  28.196  1.00  0.00    -0.354 N 
ATOM     43  C   UNL A   1      44.775  31.350  28.654  1.00  0.00     0.074 A 
ATOM     44  C   UNL A   1      43.787  32.280  29.161  1.00  0.00     0.031 C 
ATOM     45  C   UNL A   1      41.480  25.840  28.205  1.00  0.00     0.029 A 
ATOM     46  C   UNL A   1      42.884  26.064  27.876  1.00  0.00     0.049 A 
ATOM     47  H   UNL A   1      43.972  27.826  28.100  1.00  0.00     0.167 HD
ATOM     48  C   UNL A   1      46.065  31.674  28.395  1.00  0.00     0.037 A 
ATOM     49  C   UNL A   1      43.723  25.143  27.364  1.00  0.00     0.037 A 
ATOM     50  C   UNL A   1      47.048  30.742  27.910  1.00  0.00     0.049 A 
ATOM     51  C   UNL A   1      45.150  25.528  27.084  1.00  0.00     0.074 A 
ATOM     52  C   UNL A   1      48.385  30.966  27.634  1.00  0.00     0.029 A 
ATOM     53  N   UNL A   1      46.801  29.405  27.635  1.00  0.00    -0.354 N 
ATOM     54  N   UNL A   1      45.736  26.691  27.243  1.00  0.00    -0.248 NA
ATOM     55  C   UNL A   1      46.033  24.475  26.562  1.00  0.00     0.031 C 
ATOM     56  C   UNL A   1      48.944  29.768  27.173  1.00  0.00     0.029 A 
ATOM     57  C   UNL A   1      47.961  28.792  27.193  1.00  0.00     0.049 A 
ATOM     58  H   UNL A   1      45.930  28.959  27.739  1.00  0.00     0.167 HD
ATOM     59  C   UNL A   1      47.060  26.503  26.864  1.00  0.00     0.074 A 
ATOM     60  C   UNL A   1      47.192  25.113  26.480  1.00  0.00     0.031 C 
ATOM     61  C   UNL A   1      48.075  27.401  26.833  1.00  0.00     0.037 A 
BRANCH  48  62
ATOM     62  C   UNL A   1      46.487  33.092  28.653  1.00  0.00     0.058 A 
ATOM     63  C   UNL A   1      46.406  34.069  27.647  1.00  0.00     0.135 A 
ATOM     64  C   UNL A   1      46.944  33.491  29.918  1.00  0.00     0.135 A 
ATOM     65  F   UNL A   1      45.993  33.736  26.414  1.00  0.00    -0.206 F 
ATOM     66  C   UNL A   1      46.788  35.385  27.880  1.00  0.00     0.059 A 
ATOM     67  C   UNL A   1      47.308  34.809  30.181  1.00  0.00     0.059 A 
ATOM     68  F   UNL A   1      47.041  32.596  30.915  1.00  0.00    -0.206 F 
ATOM     69  C   UNL A   1      47.240  35.745  29.150  1.00  0.00     0.060 A 
BRANCH  69  70
ATOM     70  S   UNL A   1      47.726  37.460  29.437  1.00  0.00     0.124 S 
ATOM     71  O   UNL A   1      47.398  38.073  28.154  1.00  0.00    -0.237 OA
ATOM     72  O   UNL A   1      46.876  37.844  30.559  1.00  0.00    -0.237 OA
ATOM     73  O   UNL A   1      49.151  37.362  29.739  1.00  0.00    -0.744 OA
ENDBRANCH  69  70
ENDBRANCH  48  62
BRANCH  49  74
ATOM     74  C   UNL A   1      43.244  23.762  27.094  1.00  0.00     0.058 A 
ATOM     75  C   UNL A   1      43.119  22.826  28.130  1.00  0.00     0.135 A 
ATOM     76  C   UNL A   1      42.917  23.347  25.794  1.00  0.00     0.135 A 
ATOM     77  F   UNL A   1      43.423  23.178  29.390  1.00  0.00    -0.206 F 
ATOM     78  C   UNL A   1      42.716  21.517  27.887  1.00  0.00     0.059 A 
ATOM     79  C   UNL A   1      42.490  22.049  25.528  1.00  0.00     0.059 A 
ATOM     80  F   UNL A   1      43.000  24.210  24.770  1.00  0.00    -0.206 F 
ATOM     81  C   UNL A   1      42.408  21.137  26.579  1.00  0.00     0.060 A 
BRANCH  81  82
ATOM     82  S   UNL A   1      41.866  19.441  26.272  1.00  0.00     0.124 S 
ATOM     83  O   UNL A   1      42.623  19.107  25.071  1.00  0.00    -0.237 OA
ATOM     84  O   UNL A   1      42.273  18.759  27.495  1.00  0.00    -0.237 OA
ATOM     85  O   UNL A   1      40.424  19.582  26.093  1.00  0.00    -0.744 OA
ENDBRANCH  81  82
ENDBRANCH  49  74
BRANCH  61  86
ATOM     86  C   UNL A   1      49.425  26.900  26.408  1.00  0.00     0.058 A 
ATOM     87  C   UNL A   1      50.277  26.235  27.304  1.00  0.00     0.135 A 
ATOM     88  C   UNL A   1      49.847  27.040  25.077  1.00  0.00     0.135 A 
ATOM     89  F   UNL A   1      49.920  26.083  28.589  1.00  0.00    -0.206 F 
ATOM     90  C   UNL A   1      51.511  25.741  26.897  1.00  0.00     0.059 A 
ATOM     91  C   UNL A   1      51.068  26.533  24.644  1.00  0.00     0.059 A 
ATOM     92  F   UNL A   1      49.064  27.661  24.182  1.00  0.00    -0.206 F 
ATOM     93  C   UNL A   1      51.899  25.894  25.564  1.00  0.00     0.060 A 
BRANCH  93  94
ATOM     94  S   UNL A   1      53.485  25.212  25.037  1.00  0.00     0.124 S 
ATOM     95  O   UNL A   1      53.506  25.578  23.624  1.00  0.00    -0.237 OA
ATOM     96  O   UNL A   1      54.432  25.923  25.890  1.00  0.00    -0.237 OA
ATOM     97  O   UNL A   1      53.350  23.786  25.315  1.00  0.00    -0.744 OA
ENDBRANCH  93  94
ENDBRANCH  61  86
ENDBRANCH  35  36
ENDBRANCH  27  30
ENDBRANCH  25  26
ENDBRANCH   1  25
TORSDOF 16
ENDMDL
MODEL 3
REMARK VINA RESULT:     -11.8      5.022      9.700
REMARK SMILES Cc1cc(C)cc(Nc2nc(C)cc(C(=O)NCCCCNC(=O)c3ccc(-c4c5nc(c(-c6c(F)cc(S(=O)(=O)[O-])cc6F)c6ccc([nH]6)c(-c6c(F)cc(S(=O)(=O)[O-])cc6F)c6nc(c(-c7c(F)cc(S(=O)(=O)[O-])cc7F)c7ccc4[nH]7)C=C6)C=C5)cc3)n2)c1
REMARK SMILES IDX 20 1 19 2 18 3 17 4 15 5 16 6 14 8 9 9 10 10 91 11 11 12
REMARK SMILES IDX 12 13 13 14 8 15 7 17 1 18 2 19 3 20 92 21 4 22 5 23 6 24
REMARK SMILES IDX 21 25 22 26 23 27 24 29 25 30 26 31 90 32 27 33 89 34 28 35
REMARK SMILES IDX 29 36 30 37 83 38 31 39 88 40 82 41 84 42 32 43 87 44 81 45
REMARK SMILES IDX 80 46 33 48 67 49 46 50 66 51 47 52 50 53 65 54 85 55 48 56
REMARK SMILES IDX 49 57 64 59 86 60 51 61 34 62 35 63 44 64 36 65 37 66 43 67
REMARK SMILES IDX 45 68 38 69 39 70 40 71 41 72 42 73 68 74 69 75 78 76 70 77
REMARK SMILES IDX 71 78 77 79 79 80 72 81 73 82 74 83 75 84 76 85 52 86 53 87
REMARK SMILES IDX 62 88 54 89 55 90 61 91 63 92 56 93 57 94 58 95 59 96 60 97
REMARK H PARENT 17 7 8 16 22 28 84 47 50 58
REMARK Flexibility Score: inf
ROOT
ATOM      1  C   UNL A   1      40.128  22.100  27.032  1.00  0.00     0.023 C 
ENDROOT
BRANCH   1   2
ATOM      2  C   UNL A   1      39.300  21.374  25.964  1.00  0.00     0.023 C 
BRANCH   2   3
ATOM      3  C   UNL A   1      37.869  21.897  25.828  1.00  0.00     0.116 C 
BRANCH   3   4
ATOM      4  N   UNL A   1      37.653  22.425  24.499  1.00  0.00    -0.351 N 
ATOM      5  C   UNL A   1      36.559  22.975  23.875  1.00  0.00     0.270 C 
ATOM      6  O   UNL A   1      36.715  23.275  22.689  1.00  0.00    -0.268 OA
ATOM      7  H   UNL A   1      38.452  22.382  23.925  1.00  0.00     0.163 HD
BRANCH   5   8
ATOM      8  C   UNL A   1      35.235  23.248  24.544  1.00  0.00     0.134 A 
ATOM      9  C   UNL A   1      33.271  22.261  25.237  1.00  0.00     0.228 A 
ATOM     10  N   UNL A   1      32.753  23.429  25.636  1.00  0.00    -0.218 NA
ATOM     11  N   UNL A   1      34.458  22.150  24.640  1.00  0.00    -0.208 NA
ATOM     12  C   UNL A   1      33.556  24.508  25.578  1.00  0.00     0.044 A 
ATOM     13  C   UNL A   1      33.022  25.774  26.176  1.00  0.00     0.067 C 
ATOM     14  C   UNL A   1      34.841  24.450  25.080  1.00  0.00     0.058 A 
BRANCH   9  15
ATOM     15  N   UNL A   1      32.565  21.116  25.600  1.00  0.00    -0.324 N 
ATOM     16  H   UNL A   1      31.982  21.191  26.390  1.00  0.00     0.170 HD
BRANCH  15  17
ATOM     17  C   UNL A   1      32.599  19.864  24.959  1.00  0.00     0.041 A 
ATOM     18  C   UNL A   1      32.188  18.487  21.422  1.00  0.00     0.044 C 
ATOM     19  C   UNL A   1      32.402  18.559  22.904  1.00  0.00    -0.049 A 
ATOM     20  C   UNL A   1      32.579  17.378  23.636  1.00  0.00     0.007 A 
ATOM     21  C   UNL A   1      32.416  19.794  23.572  1.00  0.00     0.029 A 
ATOM     22  C   UNL A   1      32.793  17.422  25.014  1.00  0.00    -0.049 A 
ATOM     23  C   UNL A   1      32.983  16.160  25.803  1.00  0.00     0.044 C 
ATOM     24  C   UNL A   1      32.823  18.666  25.655  1.00  0.00     0.029 A 
ENDBRANCH  15  17
ENDBRANCH   9  15
ENDBRANCH   5   8
ENDBRANCH   3   4
ENDBRANCH   2   3
ENDBRANCH   1   2
BRANCH   1  25
ATOM     25  C   UNL A   1      39.867  23.601  27.133  1.00  0.00     0.116 C 
BRANCH  25  26
ATOM     26  N   UNL A   1      40.488  24.362  26.060  1.00  0.00    -0.352 N 
ATOM     27  C   UNL A   1      40.975  25.647  26.099  1.00  0.00     0.251 C 
ATOM     28  H   UNL A   1      40.569  23.898  25.196  1.00  0.00     0.163 HD
ATOM     29  O   UNL A   1      41.376  26.184  25.075  1.00  0.00    -0.269 OA
BRANCH  27  30
ATOM     30  C   UNL A   1      40.960  26.381  27.380  1.00  0.00     0.039 A 
ATOM     31  C   UNL A   1      41.866  27.428  27.562  1.00  0.00     0.014 A 
ATOM     32  C   UNL A   1      40.029  26.066  28.373  1.00  0.00     0.014 A 
ATOM     33  C   UNL A   1      41.793  28.207  28.718  1.00  0.00     0.010 A 
ATOM     34  C   UNL A   1      39.920  26.879  29.497  1.00  0.00     0.010 A 
ATOM     35  C   UNL A   1      40.796  27.960  29.675  1.00  0.00    -0.014 A 
BRANCH  35  36
ATOM     36  C   UNL A   1      40.647  28.828  30.869  1.00  0.00     0.031 A 
ATOM     37  C   UNL A   1      39.624  29.930  30.874  1.00  0.00     0.074 A 
ATOM     38  C   UNL A   1      41.479  28.665  31.917  1.00  0.00     0.049 A 
ATOM     39  N   UNL A   1      39.409  30.851  31.776  1.00  0.00    -0.248 NA
ATOM     40  C   UNL A   1      38.745  30.022  29.698  1.00  0.00     0.031 C 
ATOM     41  C   UNL A   1      42.541  27.660  32.008  1.00  0.00     0.029 A 
ATOM     42  N   UNL A   1      41.572  29.351  33.101  1.00  0.00    -0.354 N 
ATOM     43  C   UNL A   1      38.375  31.634  31.278  1.00  0.00     0.074 A 
ATOM     44  C   UNL A   1      38.042  31.112  29.969  1.00  0.00     0.031 C 
ATOM     45  C   UNL A   1      43.171  27.790  33.187  1.00  0.00     0.029 A 
ATOM     46  C   UNL A   1      42.580  28.904  33.922  1.00  0.00     0.049 A 
ATOM     47  H   UNL A   1      40.973  30.095  33.340  1.00  0.00     0.167 HD
ATOM     48  C   UNL A   1      37.742  32.676  31.868  1.00  0.00     0.037 A 
ATOM     49  C   UNL A   1      42.988  29.349  35.126  1.00  0.00     0.037 A 
ATOM     50  C   UNL A   1      38.064  33.178  33.177  1.00  0.00     0.049 A 
ATOM     51  C   UNL A   1      42.268  30.509  35.760  1.00  0.00     0.074 A 
ATOM     52  C   UNL A   1      37.469  34.217  33.872  1.00  0.00     0.029 A 
ATOM     53  N   UNL A   1      39.065  32.673  33.992  1.00  0.00    -0.354 N 
ATOM     54  N   UNL A   1      41.266  31.213  35.288  1.00  0.00    -0.248 NA
ATOM     55  C   UNL A   1      42.728  30.931  37.090  1.00  0.00     0.031 C 
ATOM     56  C   UNL A   1      38.124  34.353  35.101  1.00  0.00     0.029 A 
ATOM     57  C   UNL A   1      39.105  33.378  35.184  1.00  0.00     0.049 A 
ATOM     58  H   UNL A   1      39.660  31.924  33.759  1.00  0.00     0.167 HD
ATOM     59  C   UNL A   1      40.961  32.144  36.275  1.00  0.00     0.074 A 
ATOM     60  C   UNL A   1      41.876  31.906  37.373  1.00  0.00     0.031 C 
ATOM     61  C   UNL A   1      40.012  33.112  36.272  1.00  0.00     0.037 A 
BRANCH  48  62
ATOM     62  C   UNL A   1      36.623  33.325  31.106  1.00  0.00     0.058 A 
ATOM     63  C   UNL A   1      35.284  33.160  31.498  1.00  0.00     0.135 A 
ATOM     64  C   UNL A   1      36.884  34.147  29.999  1.00  0.00     0.135 A 
ATOM     65  F   UNL A   1      34.978  32.370  32.540  1.00  0.00    -0.206 F 
ATOM     66  C   UNL A   1      34.243  33.764  30.803  1.00  0.00     0.059 A 
ATOM     67  C   UNL A   1      35.858  34.782  29.303  1.00  0.00     0.059 A 
ATOM     68  F   UNL A   1      38.145  34.338  29.581  1.00  0.00    -0.206 F 
ATOM     69  C   UNL A   1      34.539  34.572  29.705  1.00  0.00     0.060 A 
BRANCH  69  70
ATOM     70  S   UNL A   1      33.176  35.354  28.818  1.00  0.00     0.124 S 
ATOM     71  O   UNL A   1      33.885  36.333  27.999  1.00  0.00    -0.237 OA
ATOM     72  O   UNL A   1      32.587  34.232  28.094  1.00  0.00    -0.237 OA
ATOM     73  O   UNL A   1      32.350  35.909  29.886  1.00  0.00    -0.744 OA
ENDBRANCH  69  70
ENDBRANCH  48  62
BRANCH  49  74
ATOM     74  C   UNL A   1      44.125  28.693  35.822  1.00  0.00     0.058 A 
ATOM     75  C   UNL A   1      45.443  29.125  35.615  1.00  0.00     0.135 A 
ATOM     76  C   UNL A   1      43.920  27.613  36.694  1.00  0.00     0.135 A 
ATOM     77  F   UNL A   1      45.688  30.153  34.787  1.00  0.00    -0.206 F 
ATOM     78  C   UNL A   1      46.522  28.493  36.223  1.00  0.00     0.059 A 
ATOM     79  C   UNL A   1      44.981  26.979  37.332  1.00  0.00     0.059 A 
ATOM     80  F   UNL A   1      42.676  27.175  36.942  1.00  0.00    -0.206 F 
ATOM     81  C   UNL A   1      46.280  27.415  37.077  1.00  0.00     0.060 A 
BRANCH  81  82
ATOM     82  S   UNL A   1      47.684  26.610  37.880  1.00  0.00     0.124 S 
ATOM     83  O   UNL A   1      47.541  25.238  37.410  1.00  0.00    -0.237 OA
ATOM     84  O   UNL A   1      48.818  27.355  37.344  1.00  0.00    -0.237 OA
ATOM     85  O   UNL A   1      47.420  26.824  39.301  1.00  0.00    -0.744 OA
ENDBRANCH  81  82
ENDBRANCH  49  74
BRANCH  61  86
ATOM     86  C   UNL A   1      39.887  33.958  37.506  1.00  0.00     0.058 A 
ATOM     87  C   UNL A   1      40.589  35.165  37.644  1.00  0.00     0.135 A 
ATOM     88  C   UNL A   1      39.013  33.581  38.538  1.00  0.00     0.135 A 
ATOM     89  F   UNL A   1      41.441  35.563  36.686  1.00  0.00    -0.206 F 
ATOM     90  C   UNL A   1      40.443  35.963  38.773  1.00  0.00     0.059 A 
ATOM     91  C   UNL A   1      38.835  34.376  39.666  1.00  0.00     0.059 A 
ATOM     92  F   UNL A   1      38.313  32.440  38.449  1.00  0.00    -0.206 F 
ATOM     93  C   UNL A   1      39.562  35.560  39.779  1.00  0.00     0.060 A 
BRANCH  93  94
ATOM     94  S   UNL A   1      39.349  36.624  41.222  1.00  0.00     0.124 S 
ATOM     95  O   UNL A   1      38.400  35.851  42.018  1.00  0.00    -0.237 OA
ATOM     96  O   UNL A   1      40.705  36.705  41.757  1.00  0.00    -0.237 OA
ATOM     97  O   UNL A   1      38.830  37.864  40.655  1.00  0.00    -0.744 OA
ENDBRANCH  93  94
ENDBRANCH  61  86
ENDBRANCH  35  36
ENDBRANCH  27  30
ENDBRANCH  25  26
ENDBRANCH   1  25
TORSDOF 16
ENDMDL
