MODEL 1
REMARK VINA RESULT:     -13.2      0.000      0.000
REMARK SMILES CCc1ccc(C(=O)N2Cc3nc[nH]c3C[C@@H]2C(=O)NCCCCNC(=O)c2ccc(-c3c4nc(c(-c5c(F)cc(S(=O)(=O)[O-])cc5F)c5ccc([nH]5)c(-c5c(F)cc(S(=O)(=O)[O-])cc5F)c5nc(c(-c6c(F)cc(S(=O)(=O)[O-])cc6F)c6ccc3[nH]6)C=C5)C=C4)cc2)o1
REMARK SMILES IDX 22 1 21 2 20 3 18 4 19 5 17 7 9 8 10 9 11 10 16 11 12 12
REMARK SMILES IDX 15 13 13 14 14 15 7 17 8 18 6 19 3 20 4 21 94 22 5 23 2 24
REMARK SMILES IDX 1 25 23 26 24 27 25 28 26 29 27 31 28 32 29 33 93 34 30 35
REMARK SMILES IDX 92 36 31 37 32 38 33 39 86 40 34 41 91 42 85 43 87 44 35 45
REMARK SMILES IDX 90 46 84 47 83 48 36 50 70 51 49 52 69 53 50 54 53 55 68 56
REMARK SMILES IDX 88 57 51 58 52 59 67 61 89 62 54 63 37 64 38 65 47 66 39 67
REMARK SMILES IDX 40 68 46 69 48 70 41 71 42 72 43 73 44 74 45 75 71 76 72 77
REMARK SMILES IDX 81 78 73 79 74 80 80 81 82 82 75 83 76 84 77 85 78 86 79 87
REMARK SMILES IDX 55 88 56 89 65 90 57 91 58 92 64 93 66 94 59 95 60 96 61 97
REMARK SMILES IDX 62 98 63 99
REMARK H PARENT 20 6 14 16 25 30 87 49 53 60
REMARK Flexibility Score: inf
ROOT
ATOM      1  C   UNL A   1      35.643  22.736  23.888  1.00  0.00     0.023 C 
ENDROOT
BRANCH   1   2
ATOM      2  C   UNL A   1      34.194  23.170  23.682  1.00  0.00     0.116 C 
BRANCH   2   3
ATOM      3  N   UNL A   1      34.073  24.301  22.786  1.00  0.00    -0.354 N 
ATOM      4  C   UNL A   1      33.743  25.613  22.890  1.00  0.00     0.243 C 
ATOM      5  O   UNL A   1      33.689  26.162  21.786  1.00  0.00    -0.273 OA
ATOM      6  H   UNL A   1      34.286  24.053  21.857  1.00  0.00     0.163 HD
BRANCH   4   7
ATOM      7  C   UNL A   1      33.342  26.357  24.211  1.00  0.00     0.181 C 
ATOM      8  N   UNL A   1      31.875  26.330  24.622  1.00  0.00    -0.318 N 
ATOM      9  C   UNL A   1      31.460  27.026  25.863  1.00  0.00     0.179 C 
ATOM     10  C   UNL A   1      32.275  28.247  26.096  1.00  0.00     0.081 A 
ATOM     11  C   UNL A   1      33.945  27.784  24.259  1.00  0.00     0.091 C 
ATOM     12  N   UNL A   1      32.109  29.147  27.121  1.00  0.00    -0.240 NA
ATOM     13  C   UNL A   1      33.379  28.578  25.359  1.00  0.00     0.042 A 
ATOM     14  C   UNL A   1      33.076  30.030  26.965  1.00  0.00     0.197 A 
ATOM     15  N   UNL A   1      33.873  29.728  25.893  1.00  0.00    -0.348 N 
ATOM     16  H   UNL A   1      34.649  30.242  25.573  1.00  0.00     0.167 HD
BRANCH   8  17
ATOM     17  C   UNL A   1      30.844  26.177  23.683  1.00  0.00     0.290 C 
ATOM     18  O   UNL A   1      30.541  25.061  23.267  1.00  0.00    -0.265 OA
BRANCH  17  19
ATOM     19  C   UNL A   1      30.341  27.430  23.129  1.00  0.00     0.191 A 
ATOM     20  C   UNL A   1      28.874  29.062  22.859  1.00  0.00     0.104 A 
ATOM     21  C   UNL A   1      30.028  29.467  22.223  1.00  0.00     0.046 A 
ATOM     22  O   UNL A   1      29.045  27.811  23.380  1.00  0.00    -0.456 OA
ATOM     23  C   UNL A   1      30.954  28.410  22.364  1.00  0.00     0.056 A 
BRANCH  20  24
ATOM     24  C   UNL A   1      27.565  29.749  23.048  1.00  0.00     0.072 C 
ATOM     25  C   UNL A   1      27.607  31.261  22.921  1.00  0.00     0.012 C 
ENDBRANCH  20  24
ENDBRANCH  17  19
ENDBRANCH   8  17
ENDBRANCH   4   7
ENDBRANCH   2   3
ENDBRANCH   1   2
BRANCH   1  26
ATOM     26  C   UNL A   1      36.155  22.806  25.332  1.00  0.00     0.023 C 
BRANCH  26  27
ATOM     27  C   UNL A   1      37.614  23.227  25.477  1.00  0.00     0.116 C 
BRANCH  27  28
ATOM     28  N   UNL A   1      38.414  22.263  26.229  1.00  0.00    -0.352 N 
ATOM     29  C   UNL A   1      39.598  22.490  26.913  1.00  0.00     0.251 C 
ATOM     30  H   UNL A   1      38.069  21.341  26.254  1.00  0.00     0.163 HD
ATOM     31  O   UNL A   1      40.336  21.567  27.205  1.00  0.00    -0.269 OA
BRANCH  29  32
ATOM     32  C   UNL A   1      39.939  23.879  27.274  1.00  0.00     0.039 A 
ATOM     33  C   UNL A   1      39.014  24.913  27.121  1.00  0.00     0.014 A 
ATOM     34  C   UNL A   1      41.191  24.118  27.829  1.00  0.00     0.014 A 
ATOM     35  C   UNL A   1      39.327  26.174  27.625  1.00  0.00     0.010 A 
ATOM     36  C   UNL A   1      41.445  25.321  28.442  1.00  0.00     0.010 A 
ATOM     37  C   UNL A   1      40.536  26.369  28.311  1.00  0.00    -0.014 A 
BRANCH  37  38
ATOM     38  C   UNL A   1      40.811  27.633  28.996  1.00  0.00     0.031 A 
ATOM     39  C   UNL A   1      41.927  28.444  28.423  1.00  0.00     0.074 A 
ATOM     40  C   UNL A   1      39.979  28.162  29.920  1.00  0.00     0.049 A 
ATOM     41  N   UNL A   1      43.053  28.761  28.974  1.00  0.00    -0.248 NA
ATOM     42  C   UNL A   1      41.823  28.861  27.014  1.00  0.00     0.031 C 
ATOM     43  C   UNL A   1      38.675  27.650  30.365  1.00  0.00     0.029 A 
ATOM     44  N   UNL A   1      40.073  29.348  30.581  1.00  0.00    -0.354 N 
ATOM     45  C   UNL A   1      43.704  29.601  28.070  1.00  0.00     0.074 A 
ATOM     46  C   UNL A   1      42.990  29.480  26.827  1.00  0.00     0.031 C 
ATOM     47  C   UNL A   1      38.006  28.621  31.022  1.00  0.00     0.029 A 
ATOM     48  C   UNL A   1      38.900  29.746  31.212  1.00  0.00     0.049 A 
ATOM     49  H   UNL A   1      40.901  29.880  30.609  1.00  0.00     0.167 HD
ATOM     50  C   UNL A   1      44.641  30.505  28.477  1.00  0.00     0.037 A 
ATOM     51  C   UNL A   1      38.668  30.921  31.844  1.00  0.00     0.037 A 
ATOM     52  C   UNL A   1      45.092  30.219  29.815  1.00  0.00     0.049 A 
ATOM     53  C   UNL A   1      39.990  31.488  32.201  1.00  0.00     0.074 A 
ATOM     54  C   UNL A   1      45.744  29.170  30.430  1.00  0.00     0.029 A 
ATOM     55  N   UNL A   1      44.546  30.972  30.827  1.00  0.00    -0.354 N 
ATOM     56  N   UNL A   1      40.816  30.933  33.046  1.00  0.00    -0.248 NA
ATOM     57  C   UNL A   1      40.583  32.466  31.305  1.00  0.00     0.031 C 
ATOM     58  C   UNL A   1      45.178  29.094  31.737  1.00  0.00     0.029 A 
ATOM     59  C   UNL A   1      44.249  30.129  31.867  1.00  0.00     0.049 A 
ATOM     60  H   UNL A   1      44.396  31.945  30.809  1.00  0.00     0.167 HD
ATOM     61  C   UNL A   1      42.077  31.167  32.518  1.00  0.00     0.074 A 
ATOM     62  C   UNL A   1      41.877  32.217  31.524  1.00  0.00     0.031 C 
ATOM     63  C   UNL A   1      43.106  30.298  32.742  1.00  0.00     0.037 A 
BRANCH  50  64
ATOM     64  C   UNL A   1      44.877  31.857  27.835  1.00  0.00     0.058 A 
ATOM     65  C   UNL A   1      46.118  32.124  27.215  1.00  0.00     0.135 A 
ATOM     66  C   UNL A   1      44.062  32.988  28.061  1.00  0.00     0.135 A 
ATOM     67  F   UNL A   1      46.980  31.128  26.953  1.00  0.00    -0.206 F 
ATOM     68  C   UNL A   1      46.549  33.420  26.922  1.00  0.00     0.059 A 
ATOM     69  C   UNL A   1      44.447  34.282  27.726  1.00  0.00     0.059 A 
ATOM     70  F   UNL A   1      42.893  32.907  28.709  1.00  0.00    -0.206 F 
ATOM     71  C   UNL A   1      45.710  34.495  27.201  1.00  0.00     0.060 A 
BRANCH  71  72
ATOM     72  S   UNL A   1      46.305  36.175  26.940  1.00  0.00     0.124 S 
ATOM     73  O   UNL A   1      45.053  36.918  26.873  1.00  0.00    -0.237 OA
ATOM     74  O   UNL A   1      47.120  36.399  28.131  1.00  0.00    -0.237 OA
ATOM     75  O   UNL A   1      47.051  36.076  25.689  1.00  0.00    -0.744 OA
ENDBRANCH  71  72
ENDBRANCH  50  64
BRANCH  51  76
ATOM     76  C   UNL A   1      37.406  31.699  31.890  1.00  0.00     0.058 A 
ATOM     77  C   UNL A   1      36.782  32.014  33.107  1.00  0.00     0.135 A 
ATOM     78  C   UNL A   1      36.934  32.383  30.750  1.00  0.00     0.135 A 
ATOM     79  F   UNL A   1      37.185  31.426  34.243  1.00  0.00    -0.206 F 
ATOM     80  C   UNL A   1      35.776  32.983  33.199  1.00  0.00     0.059 A 
ATOM     81  C   UNL A   1      35.929  33.348  30.815  1.00  0.00     0.059 A 
ATOM     82  F   UNL A   1      37.505  32.195  29.550  1.00  0.00    -0.206 F 
ATOM     83  C   UNL A   1      35.370  33.659  32.049  1.00  0.00     0.060 A 
BRANCH  83  84
ATOM     84  S   UNL A   1      34.195  35.026  32.197  1.00  0.00     0.124 S 
ATOM     85  O   UNL A   1      33.962  35.377  30.800  1.00  0.00    -0.237 OA
ATOM     86  O   UNL A   1      33.075  34.396  32.890  1.00  0.00    -0.237 OA
ATOM     87  O   UNL A   1      34.924  36.020  32.980  1.00  0.00    -0.744 OA
ENDBRANCH  83  84
ENDBRANCH  51  76
BRANCH  63  88
ATOM     88  C   UNL A   1      42.948  29.280  33.845  1.00  0.00     0.058 A 
ATOM     89  C   UNL A   1      43.164  29.543  35.210  1.00  0.00     0.135 A 
ATOM     90  C   UNL A   1      42.401  28.032  33.517  1.00  0.00     0.135 A 
ATOM     91  F   UNL A   1      43.594  30.743  35.621  1.00  0.00    -0.206 F 
ATOM     92  C   UNL A   1      42.877  28.598  36.198  1.00  0.00     0.059 A 
ATOM     93  C   UNL A   1      42.079  27.085  34.487  1.00  0.00     0.059 A 
ATOM     94  F   UNL A   1      42.115  27.741  32.236  1.00  0.00    -0.206 F 
ATOM     95  C   UNL A   1      42.328  27.372  35.826  1.00  0.00     0.060 A 
BRANCH  95  96
ATOM     96  S   UNL A   1      41.862  26.191  37.111  1.00  0.00     0.124 S 
ATOM     97  O   UNL A   1      41.845  24.929  36.379  1.00  0.00    -0.237 OA
ATOM     98  O   UNL A   1      42.937  26.343  38.088  1.00  0.00    -0.237 OA
ATOM     99  O   UNL A   1      40.557  26.671  37.559  1.00  0.00    -0.744 OA
ENDBRANCH  95  96
ENDBRANCH  63  88
ENDBRANCH  37  38
ENDBRANCH  29  32
ENDBRANCH  27  28
ENDBRANCH  26  27
ENDBRANCH   1  26
TORSDOF 17
ENDMDL
MODEL 2
REMARK VINA RESULT:     -13.1      3.084      9.675
REMARK SMILES CCc1ccc(C(=O)N2Cc3nc[nH]c3C[C@@H]2C(=O)NCCCCNC(=O)c2ccc(-c3c4nc(c(-c5c(F)cc(S(=O)(=O)[O-])cc5F)c5ccc([nH]5)c(-c5c(F)cc(S(=O)(=O)[O-])cc5F)c5nc(c(-c6c(F)cc(S(=O)(=O)[O-])cc6F)c6ccc3[nH]6)C=C5)C=C4)cc2)o1
REMARK SMILES IDX 22 1 21 2 20 3 18 4 19 5 17 7 9 8 10 9 11 10 16 11 12 12
REMARK SMILES IDX 15 13 13 14 14 15 7 17 8 18 6 19 3 20 4 21 94 22 5 23 2 24
REMARK SMILES IDX 1 25 23 26 24 27 25 28 26 29 27 31 28 32 29 33 93 34 30 35
REMARK SMILES IDX 92 36 31 37 32 38 33 39 86 40 34 41 91 42 85 43 87 44 35 45
REMARK SMILES IDX 90 46 84 47 83 48 36 50 70 51 49 52 69 53 50 54 53 55 68 56
REMARK SMILES IDX 88 57 51 58 52 59 67 61 89 62 54 63 37 64 38 65 47 66 39 67
REMARK SMILES IDX 40 68 46 69 48 70 41 71 42 72 43 73 44 74 45 75 71 76 72 77
REMARK SMILES IDX 81 78 73 79 74 80 80 81 82 82 75 83 76 84 77 85 78 86 79 87
REMARK SMILES IDX 55 88 56 89 65 90 57 91 58 92 64 93 66 94 59 95 60 96 61 97
REMARK SMILES IDX 62 98 63 99
REMARK H PARENT 20 6 14 16 25 30 87 49 53 60
REMARK Flexibility Score: inf
ROOT
ATOM      1  C   UNL A   1      32.785  27.617  26.212  1.00  0.00     0.023 C 
ENDROOT
BRANCH   1   2
ATOM      2  C   UNL A   1      31.522  26.812  25.916  1.00  0.00     0.116 C 
BRANCH   2   3
ATOM      3  N   UNL A   1      31.474  25.562  26.646  1.00  0.00    -0.354 N 
ATOM      4  C   UNL A   1      32.196  24.413  26.687  1.00  0.00     0.243 C 
ATOM      5  O   UNL A   1      31.680  23.575  27.431  1.00  0.00    -0.273 OA
ATOM      6  H   UNL A   1      30.719  25.539  27.278  1.00  0.00     0.163 HD
BRANCH   4   7
ATOM      7  C   UNL A   1      33.462  24.093  25.819  1.00  0.00     0.181 C 
ATOM      8  N   UNL A   1      33.241  23.457  24.453  1.00  0.00    -0.318 N 
ATOM      9  C   UNL A   1      34.416  23.136  23.607  1.00  0.00     0.179 C 
ATOM     10  C   UNL A   1      35.584  22.735  24.435  1.00  0.00     0.081 A 
ATOM     11  C   UNL A   1      34.541  23.354  26.650  1.00  0.00     0.091 C 
ATOM     12  N   UNL A   1      36.805  22.319  23.962  1.00  0.00    -0.240 NA
ATOM     13  C   UNL A   1      35.618  22.827  25.799  1.00  0.00     0.042 A 
ATOM     14  C   UNL A   1      37.542  22.122  25.037  1.00  0.00     0.197 A 
ATOM     15  N   UNL A   1      36.854  22.409  26.186  1.00  0.00    -0.348 N 
ATOM     16  H   UNL A   1      37.189  22.330  27.108  1.00  0.00     0.167 HD
BRANCH   8  17
ATOM     17  C   UNL A   1      32.107  22.681  24.170  1.00  0.00     0.290 C 
ATOM     18  O   UNL A   1      31.030  23.218  23.926  1.00  0.00    -0.265 OA
BRANCH  17  19
ATOM     19  C   UNL A   1      32.286  21.249  24.390  1.00  0.00     0.191 A 
ATOM     20  C   UNL A   1      32.547  19.139  23.781  1.00  0.00     0.104 A 
ATOM     21  C   UNL A   1      32.754  19.179  25.143  1.00  0.00     0.046 A 
ATOM     22  O   UNL A   1      32.227  20.386  23.322  1.00  0.00    -0.456 OA
ATOM     23  C   UNL A   1      32.552  20.519  25.539  1.00  0.00     0.056 A 
BRANCH  20  24
ATOM     24  C   UNL A   1      32.624  18.012  22.809  1.00  0.00     0.072 C 
ATOM     25  C   UNL A   1      33.690  16.974  23.109  1.00  0.00     0.012 C 
ENDBRANCH  20  24
ENDBRANCH  17  19
ENDBRANCH   8  17
ENDBRANCH   4   7
ENDBRANCH   2   3
ENDBRANCH   1   2
BRANCH   1  26
ATOM     26  C   UNL A   1      32.556  29.035  26.748  1.00  0.00     0.023 C 
BRANCH  26  27
ATOM     27  C   UNL A   1      33.698  29.599  27.587  1.00  0.00     0.116 C 
BRANCH  27  28
ATOM     28  N   UNL A   1      34.033  30.978  27.242  1.00  0.00    -0.352 N 
ATOM     29  C   UNL A   1      35.128  31.717  27.659  1.00  0.00     0.251 C 
ATOM     30  H   UNL A   1      33.404  31.438  26.639  1.00  0.00     0.163 HD
ATOM     31  O   UNL A   1      35.123  32.933  27.589  1.00  0.00    -0.269 OA
BRANCH  29  32
ATOM     32  C   UNL A   1      36.297  30.992  28.192  1.00  0.00     0.039 A 
ATOM     33  C   UNL A   1      36.517  29.649  27.880  1.00  0.00     0.014 A 
ATOM     34  C   UNL A   1      37.207  31.704  28.966  1.00  0.00     0.014 A 
ATOM     35  C   UNL A   1      37.715  29.055  28.275  1.00  0.00     0.010 A 
ATOM     36  C   UNL A   1      38.439  31.160  29.237  1.00  0.00     0.010 A 
ATOM     37  C   UNL A   1      38.689  29.824  28.932  1.00  0.00    -0.014 A 
BRANCH  37  38
ATOM     38  C   UNL A   1      40.018  29.273  29.202  1.00  0.00     0.031 A 
ATOM     39  C   UNL A   1      40.375  29.140  30.647  1.00  0.00     0.074 A 
ATOM     40  C   UNL A   1      40.780  28.695  28.248  1.00  0.00     0.049 A 
ATOM     41  N   UNL A   1      41.312  29.746  31.300  1.00  0.00    -0.248 NA
ATOM     42  C   UNL A   1      39.506  28.309  31.498  1.00  0.00     0.031 C 
ATOM     43  C   UNL A   1      40.440  28.455  26.838  1.00  0.00     0.029 A 
ATOM     44  N   UNL A   1      41.991  28.087  28.369  1.00  0.00    -0.354 N 
ATOM     45  C   UNL A   1      41.295  29.210  32.588  1.00  0.00     0.074 A 
ATOM     46  C   UNL A   1      40.063  28.474  32.699  1.00  0.00     0.031 C 
ATOM     47  C   UNL A   1      41.298  27.557  26.311  1.00  0.00     0.029 A 
ATOM     48  C   UNL A   1      42.353  27.311  27.274  1.00  0.00     0.049 A 
ATOM     49  H   UNL A   1      42.563  28.189  29.164  1.00  0.00     0.167 HD
ATOM     50  C   UNL A   1      42.402  29.224  33.385  1.00  0.00     0.037 A 
ATOM     51  C   UNL A   1      43.440  26.511  27.160  1.00  0.00     0.037 A 
ATOM     52  C   UNL A   1      43.395  30.138  32.881  1.00  0.00     0.049 A 
ATOM     53  C   UNL A   1      44.430  26.984  28.158  1.00  0.00     0.074 A 
ATOM     54  C   UNL A   1      43.458  31.498  32.662  1.00  0.00     0.029 A 
ATOM     55  N   UNL A   1      44.437  29.591  32.172  1.00  0.00    -0.354 N 
ATOM     56  N   UNL A   1      45.004  28.155  28.115  1.00  0.00    -0.248 NA
ATOM     57  C   UNL A   1      44.481  26.314  29.446  1.00  0.00     0.031 C 
ATOM     58  C   UNL A   1      44.245  31.650  31.482  1.00  0.00     0.029 A 
ATOM     59  C   UNL A   1      44.661  30.380  31.074  1.00  0.00     0.049 A 
ATOM     60  H   UNL A   1      44.936  28.776  32.411  1.00  0.00     0.167 HD
ATOM     61  C   UNL A   1      45.108  28.549  29.441  1.00  0.00     0.074 A 
ATOM     62  C   UNL A   1      44.890  27.329  30.211  1.00  0.00     0.031 C 
ATOM     63  C   UNL A   1      45.088  29.871  29.786  1.00  0.00     0.037 A 
BRANCH  50  64
ATOM     64  C   UNL A   1      42.756  28.150  34.395  1.00  0.00     0.058 A 
ATOM     65  C   UNL A   1      42.895  28.499  35.757  1.00  0.00     0.135 A 
ATOM     66  C   UNL A   1      43.250  26.875  34.046  1.00  0.00     0.135 A 
ATOM     67  F   UNL A   1      42.464  29.689  36.207  1.00  0.00    -0.206 F 
ATOM     68  C   UNL A   1      43.549  27.679  36.680  1.00  0.00     0.059 A 
ATOM     69  C   UNL A   1      43.856  26.018  34.960  1.00  0.00     0.059 A 
ATOM     70  F   UNL A   1      43.262  26.435  32.782  1.00  0.00    -0.206 F 
ATOM     71  C   UNL A   1      44.044  26.447  36.263  1.00  0.00     0.060 A 
BRANCH  71  72
ATOM     72  S   UNL A   1      44.996  25.438  37.413  1.00  0.00     0.124 S 
ATOM     73  O   UNL A   1      44.746  24.098  36.898  1.00  0.00    -0.237 OA
ATOM     74  O   UNL A   1      46.349  25.955  37.225  1.00  0.00    -0.237 OA
ATOM     75  O   UNL A   1      44.391  25.743  38.707  1.00  0.00    -0.744 OA
ENDBRANCH  71  72
ENDBRANCH  50  64
BRANCH  51  76
ATOM     76  C   UNL A   1      43.546  25.209  26.458  1.00  0.00     0.058 A 
ATOM     77  C   UNL A   1      44.370  25.047  25.333  1.00  0.00     0.135 A 
ATOM     78  C   UNL A   1      43.049  24.026  27.044  1.00  0.00     0.135 A 
ATOM     79  F   UNL A   1      44.903  26.119  24.728  1.00  0.00    -0.206 F 
ATOM     80  C   UNL A   1      44.718  23.784  24.840  1.00  0.00     0.059 A 
ATOM     81  C   UNL A   1      43.375  22.757  26.568  1.00  0.00     0.059 A 
ATOM     82  F   UNL A   1      42.301  24.073  28.158  1.00  0.00    -0.206 F 
ATOM     83  C   UNL A   1      44.230  22.643  25.478  1.00  0.00     0.060 A 
BRANCH  83  84
ATOM     84  S   UNL A   1      44.816  21.017  24.946  1.00  0.00     0.124 S 
ATOM     85  O   UNL A   1      43.847  20.126  25.575  1.00  0.00    -0.237 OA
ATOM     86  O   UNL A   1      44.734  21.120  23.492  1.00  0.00    -0.237 OA
ATOM     87  O   UNL A   1      46.172  20.950  25.484  1.00  0.00    -0.744 OA
ENDBRANCH  83  84
ENDBRANCH  51  76
BRANCH  63  88
ATOM     88  C   UNL A   1      45.301  30.893  28.696  1.00  0.00     0.058 A 
ATOM     89  C   UNL A   1      44.277  31.432  27.897  1.00  0.00     0.135 A 
ATOM     90  C   UNL A   1      46.576  31.463  28.568  1.00  0.00     0.135 A 
ATOM     91  F   UNL A   1      43.012  31.014  28.023  1.00  0.00    -0.206 F 
ATOM     92  C   UNL A   1      44.516  32.470  26.993  1.00  0.00     0.059 A 
ATOM     93  C   UNL A   1      46.831  32.517  27.694  1.00  0.00     0.059 A 
ATOM     94  F   UNL A   1      47.585  31.033  29.345  1.00  0.00    -0.206 F 
ATOM     95  C   UNL A   1      45.797  33.011  26.902  1.00  0.00     0.060 A 
BRANCH  95  96
ATOM     96  S   UNL A   1      46.082  34.419  25.808  1.00  0.00     0.124 S 
ATOM     97  O   UNL A   1      47.501  34.283  25.493  1.00  0.00    -0.237 OA
ATOM     98  O   UNL A   1      45.161  34.157  24.705  1.00  0.00    -0.237 OA
ATOM     99  O   UNL A   1      45.734  35.571  26.635  1.00  0.00    -0.744 OA
ENDBRANCH  95  96
ENDBRANCH  63  88
ENDBRANCH  37  38
ENDBRANCH  29  32
ENDBRANCH  27  28
ENDBRANCH  26  27
ENDBRANCH   1  26
TORSDOF 17
ENDMDL
MODEL 3
REMARK VINA RESULT:     -12.9      2.599      4.227
REMARK SMILES CCc1ccc(C(=O)N2Cc3nc[nH]c3C[C@@H]2C(=O)NCCCCNC(=O)c2ccc(-c3c4nc(c(-c5c(F)cc(S(=O)(=O)[O-])cc5F)c5ccc([nH]5)c(-c5c(F)cc(S(=O)(=O)[O-])cc5F)c5nc(c(-c6c(F)cc(S(=O)(=O)[O-])cc6F)c6ccc3[nH]6)C=C5)C=C4)cc2)o1
REMARK SMILES IDX 22 1 21 2 20 3 18 4 19 5 17 7 9 8 10 9 11 10 16 11 12 12
REMARK SMILES IDX 15 13 13 14 14 15 7 17 8 18 6 19 3 20 4 21 94 22 5 23 2 24
REMARK SMILES IDX 1 25 23 26 24 27 25 28 26 29 27 31 28 32 29 33 93 34 30 35
REMARK SMILES IDX 92 36 31 37 32 38 33 39 86 40 34 41 91 42 85 43 87 44 35 45
REMARK SMILES IDX 90 46 84 47 83 48 36 50 70 51 49 52 69 53 50 54 53 55 68 56
REMARK SMILES IDX 88 57 51 58 52 59 67 61 89 62 54 63 37 64 38 65 47 66 39 67
REMARK SMILES IDX 40 68 46 69 48 70 41 71 42 72 43 73 44 74 45 75 71 76 72 77
REMARK SMILES IDX 81 78 73 79 74 80 80 81 82 82 75 83 76 84 77 85 78 86 79 87
REMARK SMILES IDX 55 88 56 89 65 90 57 91 58 92 64 93 66 94 59 95 60 96 61 97
REMARK SMILES IDX 62 98 63 99
REMARK H PARENT 20 6 14 16 25 30 87 49 53 60
REMARK Flexibility Score: inf
ROOT
ATOM      1  C   UNL A   1      38.704  22.985  26.708  1.00  0.00     0.023 C 
ENDROOT
BRANCH   1   2
ATOM      2  C   UNL A   1      37.754  23.892  25.930  1.00  0.00     0.116 C 
BRANCH   2   3
ATOM      3  N   UNL A   1      37.462  23.387  24.605  1.00  0.00    -0.354 N 
ATOM      4  C   UNL A   1      36.366  23.266  23.813  1.00  0.00     0.243 C 
ATOM      5  O   UNL A   1      36.620  22.660  22.768  1.00  0.00    -0.273 OA
ATOM      6  H   UNL A   1      38.270  23.039  24.162  1.00  0.00     0.163 HD
BRANCH   4   7
ATOM      7  C   UNL A   1      34.909  23.709  24.188  1.00  0.00     0.181 C 
ATOM      8  N   UNL A   1      34.235  23.007  25.360  1.00  0.00    -0.318 N 
ATOM      9  C   UNL A   1      32.857  23.397  25.739  1.00  0.00     0.179 C 
ATOM     10  C   UNL A   1      32.058  23.787  24.547  1.00  0.00     0.081 A 
ATOM     11  C   UNL A   1      34.001  23.773  22.934  1.00  0.00     0.091 C 
ATOM     12  N   UNL A   1      30.731  24.143  24.544  1.00  0.00    -0.240 NA
ATOM     13  C   UNL A   1      32.585  23.938  23.295  1.00  0.00     0.042 A 
ATOM     14  C   UNL A   1      30.461  24.457  23.292  1.00  0.00     0.197 A 
ATOM     15  N   UNL A   1      31.563  24.337  22.489  1.00  0.00    -0.348 N 
ATOM     16  H   UNL A   1      31.607  24.506  21.520  1.00  0.00     0.167 HD
BRANCH   8  17
ATOM     17  C   UNL A   1      34.585  21.704  25.745  1.00  0.00     0.290 C 
ATOM     18  O   UNL A   1      35.486  21.517  26.561  1.00  0.00    -0.265 OA
BRANCH  17  19
ATOM     19  C   UNL A   1      33.944  20.651  24.964  1.00  0.00     0.191 A 
ATOM     20  C   UNL A   1      33.773  18.640  24.061  1.00  0.00     0.104 A 
ATOM     21  C   UNL A   1      32.554  19.254  23.875  1.00  0.00     0.046 A 
ATOM     22  O   UNL A   1      34.635  19.495  24.688  1.00  0.00    -0.456 OA
ATOM     23  C   UNL A   1      32.673  20.552  24.420  1.00  0.00     0.056 A 
BRANCH  20  24
ATOM     24  C   UNL A   1      34.248  17.273  23.704  1.00  0.00     0.072 C 
ATOM     25  C   UNL A   1      34.736  16.436  24.872  1.00  0.00     0.012 C 
ENDBRANCH  20  24
ENDBRANCH  17  19
ENDBRANCH   8  17
ENDBRANCH   4   7
ENDBRANCH   2   3
ENDBRANCH   1   2
BRANCH   1  26
ATOM     26  C   UNL A   1      39.392  21.887  25.887  1.00  0.00     0.023 C 
BRANCH  26  27
ATOM     27  C   UNL A   1      40.644  21.294  26.525  1.00  0.00     0.116 C 
BRANCH  27  28
ATOM     28  N   UNL A   1      41.852  21.534  25.741  1.00  0.00    -0.352 N 
ATOM     29  C   UNL A   1      42.469  22.747  25.479  1.00  0.00     0.251 C 
ATOM     30  H   UNL A   1      42.281  20.738  25.352  1.00  0.00     0.163 HD
ATOM     31  O   UNL A   1      43.252  22.862  24.553  1.00  0.00    -0.269 OA
BRANCH  29  32
ATOM     32  C   UNL A   1      42.149  23.894  26.349  1.00  0.00     0.039 A 
ATOM     33  C   UNL A   1      42.579  23.935  27.677  1.00  0.00     0.014 A 
ATOM     34  C   UNL A   1      41.458  24.963  25.789  1.00  0.00     0.014 A 
ATOM     35  C   UNL A   1      42.391  25.107  28.408  1.00  0.00     0.010 A 
ATOM     36  C   UNL A   1      41.392  26.158  26.463  1.00  0.00     0.010 A 
ATOM     37  C   UNL A   1      41.820  26.230  27.788  1.00  0.00    -0.014 A 
BRANCH  37  38
ATOM     38  C   UNL A   1      41.769  27.520  28.479  1.00  0.00     0.031 A 
ATOM     39  C   UNL A   1      42.922  28.433  28.218  1.00  0.00     0.074 A 
ATOM     40  C   UNL A   1      40.662  27.969  29.110  1.00  0.00     0.049 A 
ATOM     41  N   UNL A   1      43.809  28.863  29.054  1.00  0.00    -0.248 NA
ATOM     42  C   UNL A   1      43.186  28.828  26.824  1.00  0.00     0.031 C 
ATOM     43  C   UNL A   1      39.339  27.334  29.184  1.00  0.00     0.029 A 
ATOM     44  N   UNL A   1      40.453  29.163  29.728  1.00  0.00    -0.354 N 
ATOM     45  C   UNL A   1      44.610  29.758  28.344  1.00  0.00     0.074 A 
ATOM     46  C   UNL A   1      44.295  29.559  26.954  1.00  0.00     0.031 C 
ATOM     47  C   UNL A   1      38.423  28.238  29.590  1.00  0.00     0.029 A 
ATOM     48  C   UNL A   1      39.117  29.447  29.987  1.00  0.00     0.049 A 
ATOM     49  H   UNL A   1      41.186  29.775  29.972  1.00  0.00     0.167 HD
ATOM     50  C   UNL A   1      45.303  30.753  28.969  1.00  0.00     0.037 A 
ATOM     51  C   UNL A   1      38.605  30.597  30.487  1.00  0.00     0.037 A 
ATOM     52  C   UNL A   1      45.378  30.522  30.388  1.00  0.00     0.049 A 
ATOM     53  C   UNL A   1      39.712  31.295  31.184  1.00  0.00     0.074 A 
ATOM     54  C   UNL A   1      45.922  29.547  31.199  1.00  0.00     0.029 A 
ATOM     55  N   UNL A   1      44.498  31.223  31.177  1.00  0.00    -0.354 N 
ATOM     56  N   UNL A   1      40.310  30.830  32.247  1.00  0.00    -0.248 NA
ATOM     57  C   UNL A   1      40.443  32.321  30.460  1.00  0.00     0.031 C 
ATOM     58  C   UNL A   1      45.016  29.424  32.293  1.00  0.00     0.029 A 
ATOM     59  C   UNL A   1      43.996  30.362  32.118  1.00  0.00     0.049 A 
ATOM     60  H   UNL A   1      44.270  32.177  31.084  1.00  0.00     0.167 HD
ATOM     61  C   UNL A   1      41.642  31.185  32.090  1.00  0.00     0.074 A 
ATOM     62  C   UNL A   1      41.637  32.203  31.045  1.00  0.00     0.031 C 
ATOM     63  C   UNL A   1      42.640  30.423  32.627  1.00  0.00     0.037 A 
BRANCH  50  64
ATOM     64  C   UNL A   1      45.586  32.118  28.373  1.00  0.00     0.058 A 
ATOM     65  C   UNL A   1      46.917  32.588  28.318  1.00  0.00     0.135 A 
ATOM     66  C   UNL A   1      44.592  33.092  28.134  1.00  0.00     0.135 A 
ATOM     67  F   UNL A   1      47.947  31.754  28.533  1.00  0.00    -0.206 F 
ATOM     68  C   UNL A   1      47.230  33.936  28.125  1.00  0.00     0.059 A 
ATOM     69  C   UNL A   1      44.884  34.430  27.884  1.00  0.00     0.059 A 
ATOM     70  F   UNL A   1      43.285  32.817  28.230  1.00  0.00    -0.206 F 
ATOM     71  C   UNL A   1      46.201  34.852  27.928  1.00  0.00     0.060 A 
BRANCH  71  72
ATOM     72  S   UNL A   1      46.588  36.607  27.801  1.00  0.00     0.124 S 
ATOM     73  O   UNL A   1      45.372  37.210  28.332  1.00  0.00    -0.237 OA
ATOM     74  O   UNL A   1      47.778  36.719  28.639  1.00  0.00    -0.237 OA
ATOM     75  O   UNL A   1      46.817  36.797  26.371  1.00  0.00    -0.744 OA
ENDBRANCH  71  72
ENDBRANCH  50  64
BRANCH  51  76
ATOM     76  C   UNL A   1      37.316  31.247  30.145  1.00  0.00     0.058 A 
ATOM     77  C   UNL A   1      36.535  31.886  31.122  1.00  0.00     0.135 A 
ATOM     78  C   UNL A   1      36.960  31.490  28.802  1.00  0.00     0.135 A 
ATOM     79  F   UNL A   1      36.821  31.726  32.423  1.00  0.00    -0.206 F 
ATOM     80  C   UNL A   1      35.487  32.750  30.788  1.00  0.00     0.059 A 
ATOM     81  C   UNL A   1      35.915  32.342  28.445  1.00  0.00     0.059 A 
ATOM     82  F   UNL A   1      37.681  30.972  27.795  1.00  0.00    -0.206 F 
ATOM     83  C   UNL A   1      35.197  32.988  29.444  1.00  0.00     0.060 A 
BRANCH  83  84
ATOM     84  S   UNL A   1      33.957  34.233  29.016  1.00  0.00     0.124 S 
ATOM     85  O   UNL A   1      34.781  35.296  28.449  1.00  0.00    -0.237 OA
ATOM     86  O   UNL A   1      33.110  33.512  28.070  1.00  0.00    -0.237 OA
ATOM     87  O   UNL A   1      33.328  34.542  30.296  1.00  0.00    -0.744 OA
ENDBRANCH  83  84
ENDBRANCH  51  76
BRANCH  63  88
ATOM     88  C   UNL A   1      42.269  29.402  33.675  1.00  0.00     0.058 A 
ATOM     89  C   UNL A   1      41.959  28.057  33.403  1.00  0.00     0.135 A 
ATOM     90  C   UNL A   1      42.391  29.767  35.024  1.00  0.00     0.135 A 
ATOM     91  F   UNL A   1      41.917  27.600  32.146  1.00  0.00    -0.206 F 
ATOM     92  C   UNL A   1      41.749  27.127  34.424  1.00  0.00     0.059 A 
ATOM     93  C   UNL A   1      42.215  28.850  36.058  1.00  0.00     0.059 A 
ATOM     94  F   UNL A   1      42.744  31.022  35.350  1.00  0.00    -0.206 F 
ATOM     95  C   UNL A   1      41.886  27.533  35.751  1.00  0.00     0.060 A 
BRANCH  95  96
ATOM     96  S   UNL A   1      41.717  26.307  37.067  1.00  0.00     0.124 S 
ATOM     97  O   UNL A   1      41.755  25.051  36.326  1.00  0.00    -0.237 OA
ATOM     98  O   UNL A   1      42.879  26.581  37.909  1.00  0.00    -0.237 OA
ATOM     99  O   UNL A   1      40.430  26.635  37.675  1.00  0.00    -0.744 OA
ENDBRANCH  95  96
ENDBRANCH  63  88
ENDBRANCH  37  38
ENDBRANCH  29  32
ENDBRANCH  27  28
ENDBRANCH  26  27
ENDBRANCH   1  26
TORSDOF 17
ENDMDL
