MODEL 1
REMARK VINA RESULT:     -11.8      0.000      0.000
REMARK SMILES C[C@H]1CC[C@@H]([C@@H](Cc2ccccc2)C(=O)NCCCCNC(=O)c2ccc(-c3c4nc(c(-c5c(F)cc(S(=O)(=O)[O-])cc5F)c5ccc([nH]5)c(-c5c(F)cc(S(=O)(=O)[O-])cc5F)c5nc(c(-c6c(F)cc(S(=O)(=O)[O-])cc6F)c6ccc3[nH]6)C=C5)C=C4)cc2)C[C@@H]1C
REMARK SMILES IDX 19 1 18 2 17 3 16 4 14 5 15 6 6 8 5 9 1 10 2 11 3 12 91 13
REMARK SMILES IDX 4 14 90 15 92 16 7 17 8 18 9 19 13 20 10 21 12 22 11 23
REMARK SMILES IDX 20 24 21 25 22 26 23 28 24 29 25 30 89 31 26 32 88 33 27 34
REMARK SMILES IDX 28 35 29 36 82 37 30 38 87 39 81 40 83 41 31 42 86 43 80 44
REMARK SMILES IDX 79 45 32 47 66 48 45 49 65 50 46 51 49 52 64 53 84 54 47 55
REMARK SMILES IDX 48 56 63 58 85 59 50 60 33 61 34 62 43 63 35 64 36 65 42 66
REMARK SMILES IDX 44 67 37 68 38 69 39 70 40 71 41 72 67 73 68 74 77 75 69 76
REMARK SMILES IDX 70 77 76 78 78 79 71 80 72 81 73 82 74 83 75 84 51 85 52 86
REMARK SMILES IDX 61 87 53 88 54 89 60 90 62 91 55 92 56 93 57 94 58 95 59 96
REMARK H PARENT 16 7 21 27 83 46 49 57
REMARK Flexibility Score: inf
ROOT
ATOM      1  C   UNL A   1      32.450  28.872  25.933  1.00  0.00     0.023 C 
ENDROOT
BRANCH   1   2
ATOM      2  C   UNL A   1      32.940  29.160  24.519  1.00  0.00     0.023 C 
BRANCH   2   3
ATOM      3  C   UNL A   1      32.060  28.604  23.400  1.00  0.00     0.116 C 
BRANCH   3   4
ATOM      4  N   UNL A   1      32.779  27.719  22.508  1.00  0.00    -0.356 N 
ATOM      5  C   UNL A   1      33.156  26.423  22.610  1.00  0.00     0.223 C 
ATOM      6  O   UNL A   1      33.670  25.936  21.594  1.00  0.00    -0.275 OA
ATOM      7  H   UNL A   1      33.047  28.143  21.661  1.00  0.00     0.163 HD
BRANCH   5   8
ATOM      8  C   UNL A   1      33.038  25.555  23.877  1.00  0.00     0.086 C 
BRANCH   8   9
ATOM      9  C   UNL A   1      31.774  24.608  23.935  1.00  0.00     0.002 C 
ATOM     10  C   UNL A   1      32.970  20.751  25.556  1.00  0.00     0.008 C 
ATOM     11  C   UNL A   1      31.957  21.754  24.969  1.00  0.00    -0.011 C 
ATOM     12  C   UNL A   1      31.904  22.970  25.895  1.00  0.00     0.004 C 
ATOM     13  C   UNL A   1      32.367  22.127  23.534  1.00  0.00    -0.011 C 
ATOM     14  C   UNL A   1      31.242  24.208  25.314  1.00  0.00     0.005 C 
ATOM     15  C   UNL A   1      31.701  23.394  22.997  1.00  0.00     0.008 C 
ATOM     16  C   UNL A   1      32.121  20.970  22.556  1.00  0.00     0.008 C 
ENDBRANCH   8   9
BRANCH   8  17
ATOM     17  C   UNL A   1      34.331  25.365  24.731  1.00  0.00     0.049 C 
BRANCH  17  18
ATOM     18  C   UNL A   1      35.227  24.152  24.675  1.00  0.00    -0.047 A 
ATOM     19  C   UNL A   1      35.538  23.423  25.829  1.00  0.00     0.004 A 
ATOM     20  C   UNL A   1      35.679  23.644  23.448  1.00  0.00     0.004 A 
ATOM     21  C   UNL A   1      36.417  22.336  25.779  1.00  0.00     0.000 A 
ATOM     22  C   UNL A   1      36.563  22.564  23.391  1.00  0.00     0.000 A 
ATOM     23  C   UNL A   1      36.955  21.927  24.563  1.00  0.00     0.000 A 
ENDBRANCH  17  18
ENDBRANCH   8  17
ENDBRANCH   5   8
ENDBRANCH   3   4
ENDBRANCH   2   3
ENDBRANCH   1   2
BRANCH   1  24
ATOM     24  C   UNL A   1      33.496  29.014  27.034  1.00  0.00     0.116 C 
BRANCH  24  25
ATOM     25  N   UNL A   1      33.511  30.303  27.720  1.00  0.00    -0.352 N 
ATOM     26  C   UNL A   1      34.562  30.870  28.410  1.00  0.00     0.251 C 
ATOM     27  H   UNL A   1      32.677  30.826  27.686  1.00  0.00     0.163 HD
ATOM     28  O   UNL A   1      34.449  31.957  28.966  1.00  0.00    -0.269 OA
BRANCH  26  29
ATOM     29  C   UNL A   1      35.822  30.103  28.504  1.00  0.00     0.039 A 
ATOM     30  C   UNL A   1      36.683  30.074  27.406  1.00  0.00     0.014 A 
ATOM     31  C   UNL A   1      36.212  29.564  29.732  1.00  0.00     0.014 A 
ATOM     32  C   UNL A   1      37.988  29.606  27.573  1.00  0.00     0.010 A 
ATOM     33  C   UNL A   1      37.533  29.182  29.916  1.00  0.00     0.010 A 
ATOM     34  C   UNL A   1      38.442  29.218  28.845  1.00  0.00    -0.014 A 
BRANCH  34  35
ATOM     35  C   UNL A   1      39.865  28.874  29.099  1.00  0.00     0.031 A 
ATOM     36  C   UNL A   1      40.799  29.921  29.639  1.00  0.00     0.074 A 
ATOM     37  C   UNL A   1      40.341  27.664  28.739  1.00  0.00     0.049 A 
ATOM     38  N   UNL A   1      42.098  29.877  29.781  1.00  0.00    -0.248 NA
ATOM     39  C   UNL A   1      40.195  31.206  30.029  1.00  0.00     0.031 C 
ATOM     40  C   UNL A   1      39.553  26.582  28.141  1.00  0.00     0.029 A 
ATOM     41  N   UNL A   1      41.610  27.146  28.806  1.00  0.00    -0.354 N 
ATOM     42  C   UNL A   1      42.470  31.135  30.240  1.00  0.00     0.074 A 
ATOM     43  C   UNL A   1      41.265  31.934  30.308  1.00  0.00     0.031 C 
ATOM     44  C   UNL A   1      40.351  25.525  27.919  1.00  0.00     0.029 A 
ATOM     45  C   UNL A   1      41.712  25.861  28.323  1.00  0.00     0.049 A 
ATOM     46  H   UNL A   1      42.377  27.647  29.167  1.00  0.00     0.167 HD
ATOM     47  C   UNL A   1      43.699  31.579  30.594  1.00  0.00     0.037 A 
ATOM     48  C   UNL A   1      42.781  25.049  28.214  1.00  0.00     0.037 A 
ATOM     49  C   UNL A   1      44.884  30.764  30.578  1.00  0.00     0.049 A 
ATOM     50  C   UNL A   1      44.126  25.542  28.675  1.00  0.00     0.074 A 
ATOM     51  C   UNL A   1      46.164  31.098  30.980  1.00  0.00     0.029 A 
ATOM     52  N   UNL A   1      44.928  29.444  30.155  1.00  0.00    -0.354 N 
ATOM     53  N   UNL A   1      44.451  26.721  29.151  1.00  0.00    -0.248 NA
ATOM     54  C   UNL A   1      45.247  24.596  28.591  1.00  0.00     0.031 C 
ATOM     55  C   UNL A   1      46.988  29.985  30.784  1.00  0.00     0.029 A 
ATOM     56  C   UNL A   1      46.213  28.948  30.287  1.00  0.00     0.049 A 
ATOM     57  H   UNL A   1      44.159  28.935  29.811  1.00  0.00     0.167 HD
ATOM     58  C   UNL A   1      45.807  26.648  29.450  1.00  0.00     0.074 A 
ATOM     59  C   UNL A   1      46.240  25.309  29.105  1.00  0.00     0.031 C 
ATOM     60  C   UNL A   1      46.619  27.604  29.961  1.00  0.00     0.037 A 
BRANCH  47  61
ATOM     61  C   UNL A   1      43.813  33.007  31.042  1.00  0.00     0.058 A 
ATOM     62  C   UNL A   1      43.933  34.058  30.118  1.00  0.00     0.135 A 
ATOM     63  C   UNL A   1      43.800  33.332  32.408  1.00  0.00     0.135 A 
ATOM     64  F   UNL A   1      43.970  33.799  28.801  1.00  0.00    -0.206 F 
ATOM     65  C   UNL A   1      44.075  35.377  30.533  1.00  0.00     0.059 A 
ATOM     66  C   UNL A   1      43.914  34.648  32.844  1.00  0.00     0.059 A 
ATOM     67  F   UNL A   1      43.688  32.365  33.332  1.00  0.00    -0.206 F 
ATOM     68  C   UNL A   1      44.071  35.662  31.899  1.00  0.00     0.060 A 
BRANCH  68  69
ATOM     69  S   UNL A   1      44.271  37.377  32.425  1.00  0.00     0.124 S 
ATOM     70  O   UNL A   1      44.099  38.088  31.162  1.00  0.00    -0.237 OA
ATOM     71  O   UNL A   1      43.193  37.538  33.395  1.00  0.00    -0.237 OA
ATOM     72  O   UNL A   1      45.619  37.404  32.983  1.00  0.00    -0.744 OA
ENDBRANCH  68  69
ENDBRANCH  47  61
BRANCH  48  73
ATOM     73  C   UNL A   1      42.620  23.670  27.682  1.00  0.00     0.058 A 
ATOM     74  C   UNL A   1      42.661  23.427  26.301  1.00  0.00     0.135 A 
ATOM     75  C   UNL A   1      42.432  22.572  28.535  1.00  0.00     0.135 A 
ATOM     76  F   UNL A   1      42.834  24.447  25.446  1.00  0.00    -0.206 F 
ATOM     77  C   UNL A   1      42.505  22.147  25.780  1.00  0.00     0.059 A 
ATOM     78  C   UNL A   1      42.293  21.279  28.039  1.00  0.00     0.059 A 
ATOM     79  F   UNL A   1      42.404  22.751  29.865  1.00  0.00    -0.206 F 
ATOM     80  C   UNL A   1      42.321  21.078  26.659  1.00  0.00     0.060 A 
BRANCH  80  81
ATOM     81  S   UNL A   1      42.168  19.412  25.978  1.00  0.00     0.124 S 
ATOM     82  O   UNL A   1      42.668  18.598  27.080  1.00  0.00    -0.237 OA
ATOM     83  O   UNL A   1      40.736  19.316  25.713  1.00  0.00    -0.237 OA
ATOM     84  O   UNL A   1      43.014  19.458  24.790  1.00  0.00    -0.744 OA
ENDBRANCH  80  81
ENDBRANCH  48  73
BRANCH  60  85
ATOM     85  C   UNL A   1      48.047  27.229  30.227  1.00  0.00     0.058 A 
ATOM     86  C   UNL A   1      49.044  27.398  29.255  1.00  0.00     0.135 A 
ATOM     87  C   UNL A   1      48.432  26.760  31.493  1.00  0.00     0.135 A 
ATOM     88  F   UNL A   1      48.723  27.837  28.027  1.00  0.00    -0.206 F 
ATOM     89  C   UNL A   1      50.376  27.104  29.526  1.00  0.00     0.059 A 
ATOM     90  C   UNL A   1      49.760  26.479  31.792  1.00  0.00     0.059 A 
ATOM     91  F   UNL A   1      47.514  26.591  32.458  1.00  0.00    -0.206 F 
ATOM     92  C   UNL A   1      50.725  26.647  30.799  1.00  0.00     0.060 A 
BRANCH  92  93
ATOM     93  S   UNL A   1      52.464  26.317  31.158  1.00  0.00     0.124 S 
ATOM     94  O   UNL A   1      53.046  26.324  29.820  1.00  0.00    -0.237 OA
ATOM     95  O   UNL A   1      52.828  27.443  32.013  1.00  0.00    -0.237 OA
ATOM     96  O   UNL A   1      52.430  25.019  31.824  1.00  0.00    -0.744 OA
ENDBRANCH  92  93
ENDBRANCH  60  85
ENDBRANCH  34  35
ENDBRANCH  26  29
ENDBRANCH  24  25
ENDBRANCH   1  24
TORSDOF 17
ENDMDL
MODEL 2
REMARK VINA RESULT:     -11.7      1.046      2.327
REMARK SMILES C[C@H]1CC[C@@H]([C@@H](Cc2ccccc2)C(=O)NCCCCNC(=O)c2ccc(-c3c4nc(c(-c5c(F)cc(S(=O)(=O)[O-])cc5F)c5ccc([nH]5)c(-c5c(F)cc(S(=O)(=O)[O-])cc5F)c5nc(c(-c6c(F)cc(S(=O)(=O)[O-])cc6F)c6ccc3[nH]6)C=C5)C=C4)cc2)C[C@@H]1C
REMARK SMILES IDX 19 1 18 2 17 3 16 4 14 5 15 6 6 8 5 9 1 10 2 11 3 12 91 13
REMARK SMILES IDX 4 14 90 15 92 16 7 17 8 18 9 19 13 20 10 21 12 22 11 23
REMARK SMILES IDX 20 24 21 25 22 26 23 28 24 29 25 30 89 31 26 32 88 33 27 34
REMARK SMILES IDX 28 35 29 36 82 37 30 38 87 39 81 40 83 41 31 42 86 43 80 44
REMARK SMILES IDX 79 45 32 47 66 48 45 49 65 50 46 51 49 52 64 53 84 54 47 55
REMARK SMILES IDX 48 56 63 58 85 59 50 60 33 61 34 62 43 63 35 64 36 65 42 66
REMARK SMILES IDX 44 67 37 68 38 69 39 70 40 71 41 72 67 73 68 74 77 75 69 76
REMARK SMILES IDX 70 77 76 78 78 79 71 80 72 81 73 82 74 83 75 84 51 85 52 86
REMARK SMILES IDX 61 87 53 88 54 89 60 90 62 91 55 92 56 93 57 94 58 95 59 96
REMARK H PARENT 16 7 21 27 83 46 49 57
REMARK Flexibility Score: inf
ROOT
ATOM      1  C   UNL A   1      32.226  28.308  27.249  1.00  0.00     0.023 C 
ENDROOT
BRANCH   1   2
ATOM      2  C   UNL A   1      31.592  28.272  25.864  1.00  0.00     0.023 C 
BRANCH   2   3
ATOM      3  C   UNL A   1      30.659  27.088  25.607  1.00  0.00     0.116 C 
BRANCH   3   4
ATOM      4  N   UNL A   1      30.933  25.960  26.470  1.00  0.00    -0.356 N 
ATOM      5  C   UNL A   1      31.582  24.789  26.270  1.00  0.00     0.223 C 
ATOM      6  O   UNL A   1      31.732  24.084  27.277  1.00  0.00    -0.275 OA
ATOM      7  H   UNL A   1      30.577  26.063  27.382  1.00  0.00     0.163 HD
BRANCH   5   8
ATOM      8  C   UNL A   1      32.088  24.268  24.912  1.00  0.00     0.086 C 
BRANCH   8   9
ATOM      9  C   UNL A   1      33.455  24.886  24.415  1.00  0.00     0.002 C 
ATOM     10  C   UNL A   1      36.455  21.738  24.257  1.00  0.00     0.008 C 
ATOM     11  C   UNL A   1      35.960  23.190  24.102  1.00  0.00    -0.011 C 
ATOM     12  C   UNL A   1      34.828  23.197  23.073  1.00  0.00     0.004 C 
ATOM     13  C   UNL A   1      35.512  23.736  25.468  1.00  0.00    -0.011 C 
ATOM     14  C   UNL A   1      33.978  24.455  23.041  1.00  0.00     0.005 C 
ATOM     15  C   UNL A   1      34.634  24.985  25.393  1.00  0.00     0.008 C 
ATOM     16  C   UNL A   1      36.710  24.010  26.388  1.00  0.00     0.008 C 
ENDBRANCH   8   9
BRANCH   8  17
ATOM     17  C   UNL A   1      31.477  22.929  24.391  1.00  0.00     0.049 C 
BRANCH  17  18
ATOM     18  C   UNL A   1      32.143  21.580  24.503  1.00  0.00    -0.047 A 
ATOM     19  C   UNL A   1      32.146  20.679  23.432  1.00  0.00     0.004 A 
ATOM     20  C   UNL A   1      32.887  21.234  25.640  1.00  0.00     0.004 A 
ATOM     21  C   UNL A   1      32.713  19.407  23.562  1.00  0.00     0.000 A 
ATOM     22  C   UNL A   1      33.450  19.963  25.780  1.00  0.00     0.000 A 
ATOM     23  C   UNL A   1      33.338  19.038  24.749  1.00  0.00     0.000 A 
ENDBRANCH  17  18
ENDBRANCH   8  17
ENDBRANCH   5   8
ENDBRANCH   3   4
ENDBRANCH   2   3
ENDBRANCH   1   2
BRANCH   1  24
ATOM     24  C   UNL A   1      33.607  28.951  27.324  1.00  0.00     0.116 C 
BRANCH  24  25
ATOM     25  N   UNL A   1      33.655  30.257  27.974  1.00  0.00    -0.352 N 
ATOM     26  C   UNL A   1      34.743  30.848  28.582  1.00  0.00     0.251 C 
ATOM     27  H   UNL A   1      32.817  30.774  27.978  1.00  0.00     0.163 HD
ATOM     28  O   UNL A   1      34.656  31.948  29.117  1.00  0.00    -0.269 OA
BRANCH  26  29
ATOM     29  C   UNL A   1      36.011  30.091  28.619  1.00  0.00     0.039 A 
ATOM     30  C   UNL A   1      36.861  30.137  27.512  1.00  0.00     0.014 A 
ATOM     31  C   UNL A   1      36.420  29.485  29.809  1.00  0.00     0.014 A 
ATOM     32  C   UNL A   1      38.173  29.674  27.639  1.00  0.00     0.010 A 
ATOM     33  C   UNL A   1      37.747  29.107  29.957  1.00  0.00     0.010 A 
ATOM     34  C   UNL A   1      38.644  29.217  28.881  1.00  0.00    -0.014 A 
BRANCH  34  35
ATOM     35  C   UNL A   1      40.073  28.874  29.100  1.00  0.00     0.031 A 
ATOM     36  C   UNL A   1      41.018  29.921  29.622  1.00  0.00     0.074 A 
ATOM     37  C   UNL A   1      40.543  27.666  28.724  1.00  0.00     0.049 A 
ATOM     38  N   UNL A   1      42.320  29.878  29.733  1.00  0.00    -0.248 NA
ATOM     39  C   UNL A   1      40.421  31.203  30.031  1.00  0.00     0.031 C 
ATOM     40  C   UNL A   1      39.742  26.586  28.141  1.00  0.00     0.029 A 
ATOM     41  N   UNL A   1      41.813  27.150  28.760  1.00  0.00    -0.354 N 
ATOM     42  C   UNL A   1      42.701  31.135  30.188  1.00  0.00     0.074 A 
ATOM     43  C   UNL A   1      41.496  31.931  30.288  1.00  0.00     0.031 C 
ATOM     44  C   UNL A   1      40.536  25.530  27.896  1.00  0.00     0.029 A 
ATOM     45  C   UNL A   1      41.906  25.867  28.270  1.00  0.00     0.049 A 
ATOM     46  H   UNL A   1      42.588  27.651  29.104  1.00  0.00     0.167 HD
ATOM     47  C   UNL A   1      43.937  31.579  30.515  1.00  0.00     0.037 A 
ATOM     48  C   UNL A   1      42.974  25.058  28.132  1.00  0.00     0.037 A 
ATOM     49  C   UNL A   1      45.122  30.766  30.469  1.00  0.00     0.049 A 
ATOM     50  C   UNL A   1      44.329  25.551  28.563  1.00  0.00     0.074 A 
ATOM     51  C   UNL A   1      46.412  31.102  30.841  1.00  0.00     0.029 A 
ATOM     52  N   UNL A   1      45.159  29.448  30.039  1.00  0.00    -0.354 N 
ATOM     53  N   UNL A   1      44.662  26.728  29.036  1.00  0.00    -0.248 NA
ATOM     54  C   UNL A   1      45.449  24.608  28.449  1.00  0.00     0.031 C 
ATOM     55  C   UNL A   1      47.232  29.991  30.622  1.00  0.00     0.029 A 
ATOM     56  C   UNL A   1      46.447  28.955  30.139  1.00  0.00     0.049 A 
ATOM     57  H   UNL A   1      44.382  28.939  29.711  1.00  0.00     0.167 HD
ATOM     58  C   UNL A   1      46.025  26.657  29.302  1.00  0.00     0.074 A 
ATOM     59  C   UNL A   1      46.452  25.320  28.943  1.00  0.00     0.031 C 
ATOM     60  C   UNL A   1      46.847  27.613  29.798  1.00  0.00     0.037 A 
BRANCH  47  61
ATOM     61  C   UNL A   1      44.059  33.006  30.966  1.00  0.00     0.058 A 
ATOM     62  C   UNL A   1      44.325  34.043  30.057  1.00  0.00     0.135 A 
ATOM     63  C   UNL A   1      43.906  33.344  32.320  1.00  0.00     0.135 A 
ATOM     64  F   UNL A   1      44.499  33.770  28.753  1.00  0.00    -0.206 F 
ATOM     65  C   UNL A   1      44.474  35.359  30.479  1.00  0.00     0.059 A 
ATOM     66  C   UNL A   1      44.025  34.659  32.760  1.00  0.00     0.059 A 
ATOM     67  F   UNL A   1      43.652  32.392  33.231  1.00  0.00    -0.206 F 
ATOM     68  C   UNL A   1      44.329  35.656  31.834  1.00  0.00     0.060 A 
BRANCH  68  69
ATOM     69  S   UNL A   1      44.540  37.366  32.371  1.00  0.00     0.124 S 
ATOM     70  O   UNL A   1      45.794  37.284  33.113  1.00  0.00    -0.237 OA
ATOM     71  O   UNL A   1      44.599  38.091  31.105  1.00  0.00    -0.237 OA
ATOM     72  O   UNL A   1      43.348  37.617  33.175  1.00  0.00    -0.744 OA
ENDBRANCH  68  69
ENDBRANCH  47  61
BRANCH  48  73
ATOM     73  C   UNL A   1      42.803  23.681  27.599  1.00  0.00     0.058 A 
ATOM     74  C   UNL A   1      42.592  22.598  28.467  1.00  0.00     0.135 A 
ATOM     75  C   UNL A   1      42.835  23.418  26.221  1.00  0.00     0.135 A 
ATOM     76  F   UNL A   1      42.557  22.801  29.793  1.00  0.00    -0.206 F 
ATOM     77  C   UNL A   1      42.436  21.301  27.991  1.00  0.00     0.059 A 
ATOM     78  C   UNL A   1      42.662  22.130  25.720  1.00  0.00     0.059 A 
ATOM     79  F   UNL A   1      43.015  24.422  25.349  1.00  0.00    -0.206 F 
ATOM     80  C   UNL A   1      42.474  21.077  26.614  1.00  0.00     0.060 A 
BRANCH  80  81
ATOM     81  S   UNL A   1      42.222  19.396  26.001  1.00  0.00     0.124 S 
ATOM     82  O   UNL A   1      42.641  18.600  27.150  1.00  0.00    -0.237 OA
ATOM     83  O   UNL A   1      40.794  19.385  25.705  1.00  0.00    -0.237 OA
ATOM     84  O   UNL A   1      43.096  19.333  24.834  1.00  0.00    -0.744 OA
ENDBRANCH  80  81
ENDBRANCH  48  73
BRANCH  60  85
ATOM     85  C   UNL A   1      48.282  27.239  30.029  1.00  0.00     0.058 A 
ATOM     86  C   UNL A   1      49.269  27.483  29.063  1.00  0.00     0.135 A 
ATOM     87  C   UNL A   1      48.683  26.694  31.260  1.00  0.00     0.135 A 
ATOM     88  F   UNL A   1      48.934  27.996  27.869  1.00  0.00    -0.206 F 
ATOM     89  C   UNL A   1      50.607  27.188  29.305  1.00  0.00     0.059 A 
ATOM     90  C   UNL A   1      50.016  26.410  31.530  1.00  0.00     0.059 A 
ATOM     91  F   UNL A   1      47.775  26.451  32.218  1.00  0.00    -0.206 F 
ATOM     92  C   UNL A   1      50.971  26.654  30.543  1.00  0.00     0.060 A 
BRANCH  92  93
ATOM     93  S   UNL A   1      52.717  26.324  30.867  1.00  0.00     0.124 S 
ATOM     94  O   UNL A   1      53.120  27.538  31.568  1.00  0.00    -0.237 OA
ATOM     95  O   UNL A   1      52.663  25.111  31.678  1.00  0.00    -0.237 OA
ATOM     96  O   UNL A   1      53.281  26.150  29.531  1.00  0.00    -0.744 OA
ENDBRANCH  92  93
ENDBRANCH  60  85
ENDBRANCH  34  35
ENDBRANCH  26  29
ENDBRANCH  24  25
ENDBRANCH   1  24
TORSDOF 17
ENDMDL
MODEL 3
REMARK VINA RESULT:     -11.5      3.100      9.410
REMARK SMILES C[C@H]1CC[C@@H]([C@@H](Cc2ccccc2)C(=O)NCCCCNC(=O)c2ccc(-c3c4nc(c(-c5c(F)cc(S(=O)(=O)[O-])cc5F)c5ccc([nH]5)c(-c5c(F)cc(S(=O)(=O)[O-])cc5F)c5nc(c(-c6c(F)cc(S(=O)(=O)[O-])cc6F)c6ccc3[nH]6)C=C5)C=C4)cc2)C[C@@H]1C
REMARK SMILES IDX 19 1 18 2 17 3 16 4 14 5 15 6 6 8 5 9 1 10 2 11 3 12 91 13
REMARK SMILES IDX 4 14 90 15 92 16 7 17 8 18 9 19 13 20 10 21 12 22 11 23
REMARK SMILES IDX 20 24 21 25 22 26 23 28 24 29 25 30 89 31 26 32 88 33 27 34
REMARK SMILES IDX 28 35 29 36 82 37 30 38 87 39 81 40 83 41 31 42 86 43 80 44
REMARK SMILES IDX 79 45 32 47 66 48 45 49 65 50 46 51 49 52 64 53 84 54 47 55
REMARK SMILES IDX 48 56 63 58 85 59 50 60 33 61 34 62 43 63 35 64 36 65 42 66
REMARK SMILES IDX 44 67 37 68 38 69 39 70 40 71 41 72 67 73 68 74 77 75 69 76
REMARK SMILES IDX 70 77 76 78 78 79 71 80 72 81 73 82 74 83 75 84 51 85 52 86
REMARK SMILES IDX 61 87 53 88 54 89 60 90 62 91 55 92 56 93 57 94 58 95 59 96
REMARK H PARENT 16 7 21 27 83 46 49 57
REMARK Flexibility Score: inf
ROOT
ATOM      1  C   UNL A   1      36.330  22.845  23.991  1.00  0.00     0.023 C 
ENDROOT
BRANCH   1   2
ATOM      2  C   UNL A   1      34.998  22.205  24.361  1.00  0.00     0.023 C 
BRANCH   2   3
ATOM      3  C   UNL A   1      34.426  22.630  25.714  1.00  0.00     0.116 C 
BRANCH   3   4
ATOM      4  N   UNL A   1      33.024  22.302  25.858  1.00  0.00    -0.356 N 
ATOM      5  C   UNL A   1      31.890  23.004  25.623  1.00  0.00     0.223 C 
ATOM      6  O   UNL A   1      30.835  22.368  25.750  1.00  0.00    -0.275 OA
ATOM      7  H   UNL A   1      32.863  21.391  26.193  1.00  0.00     0.163 HD
BRANCH   5   8
ATOM      8  C   UNL A   1      31.822  24.501  25.268  1.00  0.00     0.086 C 
BRANCH   8   9
ATOM      9  C   UNL A   1      31.568  24.825  23.742  1.00  0.00     0.002 C 
ATOM     10  C   UNL A   1      33.568  28.556  22.737  1.00  0.00     0.008 C 
ATOM     11  C   UNL A   1      32.700  27.321  22.424  1.00  0.00    -0.011 C 
ATOM     12  C   UNL A   1      33.540  26.071  22.695  1.00  0.00     0.004 C 
ATOM     13  C   UNL A   1      31.417  27.359  23.272  1.00  0.00    -0.011 C 
ATOM     14  C   UNL A   1      32.765  24.768  22.789  1.00  0.00     0.005 C 
ATOM     15  C   UNL A   1      30.683  26.022  23.366  1.00  0.00     0.008 C 
ATOM     16  C   UNL A   1      30.445  28.440  22.779  1.00  0.00     0.008 C 
ENDBRANCH   8   9
BRANCH   8  17
ATOM     17  C   UNL A   1      31.574  25.499  26.442  1.00  0.00     0.049 C 
BRANCH  17  18
ATOM     18  C   UNL A   1      32.230  26.852  26.572  1.00  0.00    -0.047 A 
ATOM     19  C   UNL A   1      33.569  27.049  26.215  1.00  0.00     0.004 A 
ATOM     20  C   UNL A   1      31.486  27.983  26.939  1.00  0.00     0.004 A 
ATOM     21  C   UNL A   1      34.188  28.291  26.395  1.00  0.00     0.000 A 
ATOM     22  C   UNL A   1      32.098  29.225  27.128  1.00  0.00     0.000 A 
ATOM     23  C   UNL A   1      33.459  29.371  26.882  1.00  0.00     0.000 A 
ENDBRANCH  17  18
ENDBRANCH   8  17
ENDBRANCH   5   8
ENDBRANCH   3   4
ENDBRANCH   2   3
ENDBRANCH   1   2
BRANCH   1  24
ATOM     24  C   UNL A   1      37.195  23.292  25.165  1.00  0.00     0.116 C 
BRANCH  24  25
ATOM     25  N   UNL A   1      38.416  22.520  25.372  1.00  0.00    -0.352 N 
ATOM     26  C   UNL A   1      39.530  22.896  26.093  1.00  0.00     0.251 C 
ATOM     27  H   UNL A   1      38.450  21.632  24.948  1.00  0.00     0.163 HD
ATOM     28  O   UNL A   1      40.512  22.167  26.179  1.00  0.00    -0.269 OA
BRANCH  26  29
ATOM     29  C   UNL A   1      39.528  24.234  26.722  1.00  0.00     0.039 A 
ATOM     30  C   UNL A   1      38.938  24.393  27.976  1.00  0.00     0.014 A 
ATOM     31  C   UNL A   1      40.257  25.272  26.138  1.00  0.00     0.014 A 
ATOM     32  C   UNL A   1      39.179  25.563  28.701  1.00  0.00     0.010 A 
ATOM     33  C   UNL A   1      40.566  26.393  26.895  1.00  0.00     0.010 A 
ATOM     34  C   UNL A   1      40.048  26.542  28.193  1.00  0.00    -0.014 A 
BRANCH  34  35
ATOM     35  C   UNL A   1      40.462  27.719  29.001  1.00  0.00     0.031 A 
ATOM     36  C   UNL A   1      41.762  27.684  29.755  1.00  0.00     0.074 A 
ATOM     37  C   UNL A   1      39.623  28.765  29.148  1.00  0.00     0.049 A 
ATOM     38  N   UNL A   1      42.231  28.530  30.635  1.00  0.00    -0.248 NA
ATOM     39  C   UNL A   1      42.629  26.518  29.520  1.00  0.00     0.031 C 
ATOM     40  C   UNL A   1      38.302  28.891  28.524  1.00  0.00     0.029 A 
ATOM     41  N   UNL A   1      39.748  29.915  29.885  1.00  0.00    -0.354 N 
ATOM     42  C   UNL A   1      43.426  27.981  31.085  1.00  0.00     0.074 A 
ATOM     43  C   UNL A   1      43.587  26.709  30.414  1.00  0.00     0.031 C 
ATOM     44  C   UNL A   1      37.753  30.062  28.887  1.00  0.00     0.029 A 
ATOM     45  C   UNL A   1      38.660  30.755  29.795  1.00  0.00     0.049 A 
ATOM     46  H   UNL A   1      40.543  30.122  30.429  1.00  0.00     0.167 HD
ATOM     47  C   UNL A   1      44.320  28.499  31.960  1.00  0.00     0.037 A 
ATOM     48  C   UNL A   1      38.421  31.943  30.383  1.00  0.00     0.037 A 
ATOM     49  C   UNL A   1      44.184  29.790  32.579  1.00  0.00     0.049 A 
ATOM     50  C   UNL A   1      39.459  32.530  31.301  1.00  0.00     0.074 A 
ATOM     51  C   UNL A   1      45.064  30.435  33.429  1.00  0.00     0.029 A 
ATOM     52  N   UNL A   1      43.103  30.641  32.401  1.00  0.00    -0.354 N 
ATOM     53  N   UNL A   1      40.606  32.017  31.679  1.00  0.00    -0.248 NA
ATOM     54  C   UNL A   1      39.175  33.855  31.867  1.00  0.00     0.031 C 
ATOM     55  C   UNL A   1      44.509  31.670  33.778  1.00  0.00     0.029 A 
ATOM     56  C   UNL A   1      43.296  31.806  33.122  1.00  0.00     0.049 A 
ATOM     57  H   UNL A   1      42.315  30.444  31.843  1.00  0.00     0.167 HD
ATOM     58  C   UNL A   1      41.193  32.970  32.503  1.00  0.00     0.074 A 
ATOM     59  C   UNL A   1      40.277  34.091  32.566  1.00  0.00     0.031 C 
ATOM     60  C   UNL A   1      42.382  32.920  33.151  1.00  0.00     0.037 A 
BRANCH  47  61
ATOM     61  C   UNL A   1      45.530  27.670  32.280  1.00  0.00     0.058 A 
ATOM     62  C   UNL A   1      45.519  26.730  33.323  1.00  0.00     0.135 A 
ATOM     63  C   UNL A   1      46.713  27.813  31.538  1.00  0.00     0.135 A 
ATOM     64  F   UNL A   1      44.419  26.569  34.076  1.00  0.00    -0.206 F 
ATOM     65  C   UNL A   1      46.650  25.988  33.644  1.00  0.00     0.059 A 
ATOM     66  C   UNL A   1      47.848  27.062  31.825  1.00  0.00     0.059 A 
ATOM     67  F   UNL A   1      46.776  28.698  30.531  1.00  0.00    -0.206 F 
ATOM     68  C   UNL A   1      47.813  26.166  32.893  1.00  0.00     0.060 A 
BRANCH  68  69
ATOM     69  S   UNL A   1      49.278  25.208  33.329  1.00  0.00     0.124 S 
ATOM     70  O   UNL A   1      48.685  24.082  34.045  1.00  0.00    -0.237 OA
ATOM     71  O   UNL A   1      49.853  24.897  32.024  1.00  0.00    -0.237 OA
ATOM     72  O   UNL A   1      50.057  26.133  34.146  1.00  0.00    -0.744 OA
ENDBRANCH  68  69
ENDBRANCH  47  61
BRANCH  48  73
ATOM     73  C   UNL A   1      37.163  32.679  30.091  1.00  0.00     0.058 A 
ATOM     74  C   UNL A   1      36.009  32.455  30.858  1.00  0.00     0.135 A 
ATOM     75  C   UNL A   1      37.088  33.622  29.055  1.00  0.00     0.135 A 
ATOM     76  F   UNL A   1      36.032  31.560  31.856  1.00  0.00    -0.206 F 
ATOM     77  C   UNL A   1      34.819  33.127  30.598  1.00  0.00     0.059 A 
ATOM     78  C   UNL A   1      35.914  34.321  28.788  1.00  0.00     0.059 A 
ATOM     79  F   UNL A   1      38.170  33.885  28.305  1.00  0.00    -0.206 F 
ATOM     80  C   UNL A   1      34.782  34.059  29.559  1.00  0.00     0.060 A 
BRANCH  80  81
ATOM     81  S   UNL A   1      33.247  34.962  29.259  1.00  0.00     0.124 S 
ATOM     82  O   UNL A   1      32.639  34.954  30.585  1.00  0.00    -0.237 OA
ATOM     83  O   UNL A   1      33.735  36.254  28.788  1.00  0.00    -0.237 OA
ATOM     84  O   UNL A   1      32.574  34.151  28.249  1.00  0.00    -0.744 OA
ENDBRANCH  80  81
ENDBRANCH  48  73
BRANCH  60  85
ATOM     85  C   UNL A   1      42.788  34.127  33.945  1.00  0.00     0.058 A 
ATOM     86  C   UNL A   1      42.497  34.239  35.313  1.00  0.00     0.135 A 
ATOM     87  C   UNL A   1      43.539  35.150  33.344  1.00  0.00     0.135 A 
ATOM     88  F   UNL A   1      41.776  33.289  35.929  1.00  0.00    -0.206 F 
ATOM     89  C   UNL A   1      42.927  35.332  36.057  1.00  0.00     0.059 A 
ATOM     90  C   UNL A   1      43.995  36.242  34.074  1.00  0.00     0.059 A 
ATOM     91  F   UNL A   1      43.850  35.083  32.040  1.00  0.00    -0.206 F 
ATOM     92  C   UNL A   1      43.678  36.328  35.429  1.00  0.00     0.060 A 
BRANCH  92  93
ATOM     93  S   UNL A   1      44.276  37.717  36.415  1.00  0.00     0.124 S 
ATOM     94  O   UNL A   1      44.088  38.833  35.494  1.00  0.00    -0.237 OA
ATOM     95  O   UNL A   1      43.383  37.692  37.570  1.00  0.00    -0.237 OA
ATOM     96  O   UNL A   1      45.663  37.359  36.697  1.00  0.00    -0.744 OA
ENDBRANCH  92  93
ENDBRANCH  60  85
ENDBRANCH  34  35
ENDBRANCH  26  29
ENDBRANCH  24  25
ENDBRANCH   1  24
TORSDOF 17
ENDMDL
