MODEL 1
REMARK VINA RESULT:     -13.5      0.000      0.000
REMARK SMILES COc1cccc(C(=O)Nc2ccc(NC(=O)[C@@H]3[C@@H](C(=O)NCCCCNC(=O)c4ccc(-c5c6nc(c(-c7c(F)cc(S(=O)(=O)[O-])cc7F)c7ccc([nH]7)c(-c7c(F)cc(S(=O)(=O)[O-])cc7F)c7nc(c(-c8c(F)cc(S(=O)(=O)[O-])cc8F)c8ccc5[nH]8)C=C7)C=C6)cc4)[C@@H]4C=C[C@H]3C4)cc2)c1
REMARK SMILES IDX 23 1 22 2 20 3 21 4 19 6 18 7 99 8 96 9 98 10 100 11 97 12
REMARK SMILES IDX 16 13 15 14 17 16 14 17 11 18 12 19 102 20 13 21 101 22
REMARK SMILES IDX 10 23 8 24 9 25 7 27 3 28 4 29 103 30 5 31 6 32 2 33 1 34
REMARK SMILES IDX 24 35 25 36 26 37 27 38 28 39 29 41 30 42 31 43 95 44 32 45
REMARK SMILES IDX 94 46 33 47 34 48 35 49 88 50 36 51 93 52 87 53 89 54 37 55
REMARK SMILES IDX 92 56 86 57 85 58 38 60 72 61 51 62 71 63 52 64 55 65 70 66
REMARK SMILES IDX 90 67 53 68 54 69 69 71 91 72 56 73 39 74 40 75 49 76 41 77
REMARK SMILES IDX 42 78 48 79 50 80 43 81 44 82 45 83 46 84 47 85 73 86 74 87
REMARK SMILES IDX 83 88 75 89 76 90 82 91 84 92 77 93 78 94 79 95 80 96 81 97
REMARK SMILES IDX 57 98 58 99 67 100 59 101 60 102 66 103 68 104 61 105 62 106
REMARK SMILES IDX 63 107 64 108 65 109
REMARK H PARENT 22 5 15 15 10 26 27 40 89 59 55 70
REMARK Flexibility Score: inf
ROOT
ATOM      1  C   UNL A   1      31.981  30.230  25.928  1.00  0.00     0.116 C 
ENDROOT
BRANCH   1   2
ATOM      2  N   UNL A   1      32.363  29.684  24.635  1.00  0.00    -0.356 N 
ATOM      3  C   UNL A   1      31.551  29.288  23.603  1.00  0.00     0.224 C 
ATOM      4  O   UNL A   1      32.067  28.901  22.558  1.00  0.00    -0.275 OA
ATOM      5  H   UNL A   1      33.331  29.586  24.481  1.00  0.00     0.163 HD
BRANCH   3   6
ATOM      6  C   UNL A   1      30.046  29.351  23.818  1.00  0.00     0.098 C 
ATOM      7  C   UNL A   1      29.212  28.280  23.051  1.00  0.00     0.099 C 
ATOM      8  C   UNL A   1      28.196  29.140  22.244  1.00  0.00     0.025 C 
ATOM      9  C   UNL A   1      29.514  30.679  23.201  1.00  0.00     0.025 C 
ATOM     10  C   UNL A   1      27.327  30.014  23.119  1.00  0.00    -0.027 C 
ATOM     11  C   UNL A   1      29.145  30.252  21.772  1.00  0.00     0.017 C 
ATOM     12  C   UNL A   1      28.118  30.925  23.705  1.00  0.00    -0.027 C 
BRANCH   7  13
ATOM     13  C   UNL A   1      28.694  27.005  23.741  1.00  0.00     0.228 C 
ATOM     14  N   UNL A   1      29.457  26.052  24.347  1.00  0.00    -0.326 N 
ATOM     15  H   UNL A   1      29.001  25.589  25.087  1.00  0.00     0.169 HD
ATOM     16  O   UNL A   1      27.471  26.868  23.891  1.00  0.00    -0.274 OA
BRANCH  14  17
ATOM     17  C   UNL A   1      30.757  25.609  24.120  1.00  0.00     0.041 A 
ATOM     18  C   UNL A   1      33.387  24.855  23.620  1.00  0.00     0.041 A 
ATOM     19  C   UNL A   1      32.374  24.438  22.763  1.00  0.00     0.028 A 
ATOM     20  C   UNL A   1      33.094  25.603  24.759  1.00  0.00     0.028 A 
ATOM     21  C   UNL A   1      31.057  24.755  23.066  1.00  0.00     0.028 A 
ATOM     22  C   UNL A   1      31.769  25.975  25.014  1.00  0.00     0.028 A 
BRANCH  18  23
ATOM     23  N   UNL A   1      34.686  24.443  23.339  1.00  0.00    -0.322 N 
ATOM     24  C   UNL A   1      35.198  23.171  23.519  1.00  0.00     0.255 C 
ATOM     25  O   UNL A   1      36.188  22.836  22.869  1.00  0.00    -0.269 OA
ATOM     26  H   UNL A   1      35.301  25.123  22.978  1.00  0.00     0.170 HD
BRANCH  24  27
ATOM     27  C   UNL A   1      34.665  22.248  24.567  1.00  0.00     0.043 A 
ATOM     28  C   UNL A   1      33.205  20.476  25.373  1.00  0.00     0.119 A 
ATOM     29  C   UNL A   1      33.575  20.785  26.681  1.00  0.00     0.046 A 
ATOM     30  C   UNL A   1      33.800  21.173  24.323  1.00  0.00     0.060 A 
ATOM     31  C   UNL A   1      34.521  21.778  26.938  1.00  0.00     0.005 A 
ATOM     32  C   UNL A   1      35.057  22.514  25.884  1.00  0.00     0.014 A 
BRANCH  28  33
ATOM     33  O   UNL A   1      32.253  19.502  25.258  1.00  0.00    -0.497 OA
ATOM     34  C   UNL A   1      32.622  18.158  25.555  1.00  0.00     0.278 C 
ENDBRANCH  28  33
ENDBRANCH  24  27
ENDBRANCH  18  23
ENDBRANCH  14  17
ENDBRANCH   7  13
ENDBRANCH   3   6
ENDBRANCH   1   2
BRANCH   1  35
ATOM     35  C   UNL A   1      33.151  30.364  26.898  1.00  0.00     0.023 C 
BRANCH  35  36
ATOM     36  C   UNL A   1      34.078  29.151  26.972  1.00  0.00     0.023 C 
BRANCH  36  37
ATOM     37  C   UNL A   1      35.418  29.386  27.664  1.00  0.00     0.116 C 
BRANCH  37  38
ATOM     38  N   UNL A   1      35.285  30.045  28.955  1.00  0.00    -0.352 N 
ATOM     39  C   UNL A   1      36.252  30.355  29.883  1.00  0.00     0.251 C 
ATOM     40  H   UNL A   1      34.368  30.307  29.201  1.00  0.00     0.163 HD
ATOM     41  O   UNL A   1      35.920  30.787  30.986  1.00  0.00    -0.269 OA
BRANCH  39  42
ATOM     42  C   UNL A   1      37.682  30.140  29.571  1.00  0.00     0.039 A 
ATOM     43  C   UNL A   1      38.571  29.868  30.614  1.00  0.00     0.014 A 
ATOM     44  C   UNL A   1      38.145  30.187  28.253  1.00  0.00     0.014 A 
ATOM     45  C   UNL A   1      39.904  29.560  30.327  1.00  0.00     0.010 A 
ATOM     46  C   UNL A   1      39.451  29.798  27.963  1.00  0.00     0.010 A 
ATOM     47  C   UNL A   1      40.345  29.474  28.995  1.00  0.00    -0.014 A 
BRANCH  47  48
ATOM     48  C   UNL A   1      41.727  29.032  28.664  1.00  0.00     0.031 A 
ATOM     49  C   UNL A   1      42.858  30.028  28.639  1.00  0.00     0.074 A 
ATOM     50  C   UNL A   1      41.953  27.747  28.315  1.00  0.00     0.049 A 
ATOM     51  N   UNL A   1      44.108  29.849  28.298  1.00  0.00    -0.248 NA
ATOM     52  C   UNL A   1      42.537  31.413  29.024  1.00  0.00     0.031 C 
ATOM     53  C   UNL A   1      40.934  26.697  28.249  1.00  0.00     0.029 A 
ATOM     54  N   UNL A   1      43.108  27.108  27.937  1.00  0.00    -0.354 N 
ATOM     55  C   UNL A   1      44.716  31.094  28.410  1.00  0.00     0.074 A 
ATOM     56  C   UNL A   1      43.688  32.032  28.805  1.00  0.00     0.031 C 
ATOM     57  C   UNL A   1      41.512  25.544  27.875  1.00  0.00     0.029 A 
ATOM     58  C   UNL A   1      42.931  25.778  27.631  1.00  0.00     0.049 A 
ATOM     59  H   UNL A   1      43.981  27.559  27.890  1.00  0.00     0.167 HD
ATOM     60  C   UNL A   1      46.017  31.420  28.222  1.00  0.00     0.037 A 
ATOM     61  C   UNL A   1      43.808  24.854  27.190  1.00  0.00     0.037 A 
ATOM     62  C   UNL A   1      47.043  30.477  27.862  1.00  0.00     0.049 A 
ATOM     63  C   UNL A   1      45.248  25.248  26.987  1.00  0.00     0.074 A 
ATOM     64  C   UNL A   1      48.402  30.701  27.720  1.00  0.00     0.029 A 
ATOM     65  N   UNL A   1      46.829  29.135  27.588  1.00  0.00    -0.354 N 
ATOM     66  N   UNL A   1      45.818  26.415  27.175  1.00  0.00    -0.248 NA
ATOM     67  C   UNL A   1      46.167  24.199  26.520  1.00  0.00     0.031 C 
ATOM     68  C   UNL A   1      49.001  29.507  27.307  1.00  0.00     0.029 A 
ATOM     69  C   UNL A   1      48.026  28.524  27.252  1.00  0.00     0.049 A 
ATOM     70  H   UNL A   1      45.955  28.682  27.626  1.00  0.00     0.167 HD
ATOM     71  C   UNL A   1      47.166  26.231  26.883  1.00  0.00     0.074 A 
ATOM     72  C   UNL A   1      47.329  24.839  26.520  1.00  0.00     0.031 C 
ATOM     73  C   UNL A   1      48.177  27.133  26.911  1.00  0.00     0.037 A 
BRANCH  60  74
ATOM     74  C   UNL A   1      46.421  32.858  28.410  1.00  0.00     0.058 A 
ATOM     75  C   UNL A   1      46.352  33.787  27.360  1.00  0.00     0.135 A 
ATOM     76  C   UNL A   1      46.799  33.331  29.678  1.00  0.00     0.135 A 
ATOM     77  F   UNL A   1      46.013  33.387  26.124  1.00  0.00    -0.206 F 
ATOM     78  C   UNL A   1      46.652  35.130  27.556  1.00  0.00     0.059 A 
ATOM     79  C   UNL A   1      47.076  34.676  29.904  1.00  0.00     0.059 A 
ATOM     80  F   UNL A   1      46.884  32.486  30.717  1.00  0.00    -0.206 F 
ATOM     81  C   UNL A   1      47.005  35.567  28.835  1.00  0.00     0.060 A 
BRANCH  81  82
ATOM     82  S   UNL A   1      47.345  37.324  29.080  1.00  0.00     0.124 S 
ATOM     83  O   UNL A   1      47.790  37.343  30.470  1.00  0.00    -0.237 OA
ATOM     84  O   UNL A   1      48.377  37.581  28.081  1.00  0.00    -0.237 OA
ATOM     85  O   UNL A   1      46.057  37.959  28.826  1.00  0.00    -0.744 OA
ENDBRANCH  81  82
ENDBRANCH  60  74
BRANCH  61  86
ATOM     86  C   UNL A   1      43.361  23.461  26.908  1.00  0.00     0.058 A 
ATOM     87  C   UNL A   1      43.085  22.563  27.949  1.00  0.00     0.135 A 
ATOM     88  C   UNL A   1      43.233  22.990  25.591  1.00  0.00     0.135 A 
ATOM     89  F   UNL A   1      43.197  22.962  29.225  1.00  0.00    -0.206 F 
ATOM     90  C   UNL A   1      42.736  21.239  27.700  1.00  0.00     0.059 A 
ATOM     91  C   UNL A   1      42.854  21.679  25.316  1.00  0.00     0.059 A 
ATOM     92  F   UNL A   1      43.466  23.812  24.555  1.00  0.00    -0.206 F 
ATOM     93  C   UNL A   1      42.628  20.805  26.378  1.00  0.00     0.060 A 
BRANCH  93  94
ATOM     94  S   UNL A   1      42.167  19.088  26.064  1.00  0.00     0.124 S 
ATOM     95  O   UNL A   1      42.972  18.779  24.888  1.00  0.00    -0.237 OA
ATOM     96  O   UNL A   1      42.567  18.431  27.304  1.00  0.00    -0.237 OA
ATOM     97  O   UNL A   1      40.726  19.163  25.840  1.00  0.00    -0.744 OA
ENDBRANCH  93  94
ENDBRANCH  61  86
BRANCH  73  98
ATOM     98  C   UNL A   1      49.562  26.638  26.590  1.00  0.00     0.058 A 
ATOM     99  C   UNL A   1      50.415  26.126  27.580  1.00  0.00     0.135 A 
ATOM    100  C   UNL A   1      50.019  26.627  25.261  1.00  0.00     0.135 A 
ATOM    101  F   UNL A   1      50.031  26.119  28.866  1.00  0.00    -0.206 F 
ATOM    102  C   UNL A   1      51.683  25.644  27.267  1.00  0.00     0.059 A 
ATOM    103  C   UNL A   1      51.270  26.121  24.923  1.00  0.00     0.059 A 
ATOM    104  F   UNL A   1      49.239  27.094  24.274  1.00  0.00    -0.206 F 
ATOM    105  C   UNL A   1      52.099  25.643  25.935  1.00  0.00     0.060 A 
BRANCH 105 106
ATOM    106  S   UNL A   1      53.732  24.982  25.540  1.00  0.00     0.124 S 
ATOM    107  O   UNL A   1      54.080  25.749  24.348  1.00  0.00    -0.237 OA
ATOM    108  O   UNL A   1      54.496  25.298  26.742  1.00  0.00    -0.237 OA
ATOM    109  O   UNL A   1      53.480  23.561  25.321  1.00  0.00    -0.744 OA
ENDBRANCH 105 106
ENDBRANCH  73  98
ENDBRANCH  47  48
ENDBRANCH  39  42
ENDBRANCH  37  38
ENDBRANCH  36  37
ENDBRANCH  35  36
ENDBRANCH   1  35
TORSDOF 19
ENDMDL
MODEL 2
REMARK VINA RESULT:     -13.1      0.682      7.771
REMARK SMILES COc1cccc(C(=O)Nc2ccc(NC(=O)[C@@H]3[C@@H](C(=O)NCCCCNC(=O)c4ccc(-c5c6nc(c(-c7c(F)cc(S(=O)(=O)[O-])cc7F)c7ccc([nH]7)c(-c7c(F)cc(S(=O)(=O)[O-])cc7F)c7nc(c(-c8c(F)cc(S(=O)(=O)[O-])cc8F)c8ccc5[nH]8)C=C7)C=C6)cc4)[C@@H]4C=C[C@H]3C4)cc2)c1
REMARK SMILES IDX 23 1 22 2 20 3 21 4 19 6 18 7 99 8 96 9 98 10 100 11 97 12
REMARK SMILES IDX 16 13 15 14 17 16 14 17 11 18 12 19 102 20 13 21 101 22
REMARK SMILES IDX 10 23 8 24 9 25 7 27 3 28 4 29 103 30 5 31 6 32 2 33 1 34
REMARK SMILES IDX 24 35 25 36 26 37 27 38 28 39 29 41 30 42 31 43 95 44 32 45
REMARK SMILES IDX 94 46 33 47 34 48 35 49 88 50 36 51 93 52 87 53 89 54 37 55
REMARK SMILES IDX 92 56 86 57 85 58 38 60 72 61 51 62 71 63 52 64 55 65 70 66
REMARK SMILES IDX 90 67 53 68 54 69 69 71 91 72 56 73 39 74 40 75 49 76 41 77
REMARK SMILES IDX 42 78 48 79 50 80 43 81 44 82 45 83 46 84 47 85 73 86 74 87
REMARK SMILES IDX 83 88 75 89 76 90 82 91 84 92 77 93 78 94 79 95 80 96 81 97
REMARK SMILES IDX 57 98 58 99 67 100 59 101 60 102 66 103 68 104 61 105 62 106
REMARK SMILES IDX 63 107 64 108 65 109
REMARK H PARENT 22 5 15 15 10 26 27 40 89 59 55 70
REMARK Flexibility Score: inf
ROOT
ATOM      1  C   UNL A   1      32.030  30.303  26.109  1.00  0.00     0.116 C 
ENDROOT
BRANCH   1   2
ATOM      2  N   UNL A   1      32.485  29.810  24.818  1.00  0.00    -0.356 N 
ATOM      3  C   UNL A   1      31.731  29.395  23.750  1.00  0.00     0.224 C 
ATOM      4  O   UNL A   1      32.302  29.062  22.715  1.00  0.00    -0.275 OA
ATOM      5  H   UNL A   1      33.461  29.769  24.696  1.00  0.00     0.163 HD
BRANCH   3   6
ATOM      6  C   UNL A   1      30.218  29.370  23.914  1.00  0.00     0.098 C 
ATOM      7  C   UNL A   1      29.479  28.225  23.156  1.00  0.00     0.099 C 
ATOM      8  C   UNL A   1      28.440  28.994  22.289  1.00  0.00     0.025 C 
ATOM      9  C   UNL A   1      29.627  30.642  23.236  1.00  0.00     0.025 C 
ATOM     10  C   UNL A   1      27.490  29.839  23.105  1.00  0.00    -0.027 C 
ATOM     11  C   UNL A   1      29.334  30.148  21.811  1.00  0.00     0.017 C 
ATOM     12  C   UNL A   1      28.202  30.816  23.686  1.00  0.00    -0.027 C 
BRANCH   7  13
ATOM     13  C   UNL A   1      29.018  26.943  23.871  1.00  0.00     0.228 C 
ATOM     14  N   UNL A   1      29.760  26.190  24.732  1.00  0.00    -0.326 N 
ATOM     15  H   UNL A   1      29.225  25.718  25.410  1.00  0.00     0.169 HD
ATOM     16  O   UNL A   1      27.827  26.609  23.780  1.00  0.00    -0.274 OA
BRANCH  14  17
ATOM     17  C   UNL A   1      31.129  25.961  24.833  1.00  0.00     0.041 A 
ATOM     18  C   UNL A   1      33.837  25.361  25.039  1.00  0.00     0.041 A 
ATOM     19  C   UNL A   1      33.156  25.868  26.140  1.00  0.00     0.028 A 
ATOM     20  C   UNL A   1      33.192  25.199  23.814  1.00  0.00     0.028 A 
ATOM     21  C   UNL A   1      31.824  26.236  26.003  1.00  0.00     0.028 A 
ATOM     22  C   UNL A   1      31.831  25.509  23.710  1.00  0.00     0.028 A 
BRANCH  18  23
ATOM     23  N   UNL A   1      35.194  25.087  25.183  1.00  0.00    -0.322 N 
ATOM     24  C   UNL A   1      35.788  23.840  25.122  1.00  0.00     0.255 C 
ATOM     25  O   UNL A   1      36.986  23.769  24.851  1.00  0.00    -0.269 OA
ATOM     26  H   UNL A   1      35.789  25.856  25.343  1.00  0.00     0.170 HD
BRANCH  24  27
ATOM     27  C   UNL A   1      35.049  22.597  25.502  1.00  0.00     0.043 A 
ATOM     28  C   UNL A   1      33.925  20.494  25.014  1.00  0.00     0.119 A 
ATOM     29  C   UNL A   1      33.441  20.466  26.320  1.00  0.00     0.046 A 
ATOM     30  C   UNL A   1      34.775  21.531  24.634  1.00  0.00     0.060 A 
ATOM     31  C   UNL A   1      33.795  21.461  27.233  1.00  0.00     0.005 A 
ATOM     32  C   UNL A   1      34.589  22.528  26.821  1.00  0.00     0.014 A 
BRANCH  28  33
ATOM     33  O   UNL A   1      33.486  19.476  24.214  1.00  0.00    -0.497 OA
ATOM     34  C   UNL A   1      32.469  18.613  24.716  1.00  0.00     0.278 C 
ENDBRANCH  28  33
ENDBRANCH  24  27
ENDBRANCH  18  23
ENDBRANCH  14  17
ENDBRANCH   7  13
ENDBRANCH   3   6
ENDBRANCH   1   2
BRANCH   1  35
ATOM     35  C   UNL A   1      33.051  30.108  27.225  1.00  0.00     0.023 C 
BRANCH  35  36
ATOM     36  C   UNL A   1      34.189  29.138  26.905  1.00  0.00     0.023 C 
BRANCH  36  37
ATOM     37  C   UNL A   1      35.528  29.451  27.569  1.00  0.00     0.116 C 
BRANCH  37  38
ATOM     38  N   UNL A   1      35.403  29.766  28.984  1.00  0.00    -0.352 N 
ATOM     39  C   UNL A   1      36.375  29.835  29.955  1.00  0.00     0.251 C 
ATOM     40  H   UNL A   1      34.488  29.957  29.293  1.00  0.00     0.163 HD
ATOM     41  O   UNL A   1      36.050  29.977  31.132  1.00  0.00    -0.269 OA
BRANCH  39  42
ATOM     42  C   UNL A   1      37.803  29.706  29.590  1.00  0.00     0.039 A 
ATOM     43  C   UNL A   1      38.714  29.273  30.557  1.00  0.00     0.014 A 
ATOM     44  C   UNL A   1      38.244  29.992  28.295  1.00  0.00     0.014 A 
ATOM     45  C   UNL A   1      40.047  29.046  30.202  1.00  0.00     0.010 A 
ATOM     46  C   UNL A   1      39.551  29.686  27.924  1.00  0.00     0.010 A 
ATOM     47  C   UNL A   1      40.468  29.204  28.871  1.00  0.00    -0.014 A 
BRANCH  47  48
ATOM     48  C   UNL A   1      41.851  28.854  28.449  1.00  0.00     0.031 A 
ATOM     49  C   UNL A   1      42.186  27.444  28.035  1.00  0.00     0.074 A 
ATOM     50  C   UNL A   1      42.824  29.789  28.506  1.00  0.00     0.049 A 
ATOM     51  N   UNL A   1      43.346  26.932  27.712  1.00  0.00    -0.248 NA
ATOM     52  C   UNL A   1      41.076  26.476  28.002  1.00  0.00     0.031 C 
ATOM     53  C   UNL A   1      42.641  31.176  28.940  1.00  0.00     0.029 A 
ATOM     54  N   UNL A   1      44.163  29.712  28.212  1.00  0.00    -0.354 N 
ATOM     55  C   UNL A   1      43.111  25.586  27.457  1.00  0.00     0.074 A 
ATOM     56  C   UNL A   1      41.706  25.348  27.706  1.00  0.00     0.031 C 
ATOM     57  C   UNL A   1      43.816  31.821  28.865  1.00  0.00     0.029 A 
ATOM     58  C   UNL A   1      44.846  30.888  28.421  1.00  0.00     0.049 A 
ATOM     59  H   UNL A   1      44.595  28.891  27.882  1.00  0.00     0.167 HD
ATOM     60  C   UNL A   1      43.982  24.641  27.031  1.00  0.00     0.037 A 
ATOM     61  C   UNL A   1      46.155  31.181  28.285  1.00  0.00     0.037 A 
ATOM     62  C   UNL A   1      45.372  24.891  26.750  1.00  0.00     0.049 A 
ATOM     63  C   UNL A   1      47.101  30.107  27.812  1.00  0.00     0.074 A 
ATOM     64  C   UNL A   1      46.316  24.012  26.246  1.00  0.00     0.029 A 
ATOM     65  N   UNL A   1      46.018  26.101  26.948  1.00  0.00    -0.354 N 
ATOM     66  N   UNL A   1      46.842  28.859  27.500  1.00  0.00    -0.248 NA
ATOM     67  C   UNL A   1      48.515  30.481  27.665  1.00  0.00     0.031 C 
ATOM     68  C   UNL A   1      47.545  24.676  26.190  1.00  0.00     0.029 A 
ATOM     69  C   UNL A   1      47.354  25.985  26.601  1.00  0.00     0.049 A 
ATOM     70  H   UNL A   1      45.591  26.922  27.285  1.00  0.00     0.167 HD
ATOM     71  C   UNL A   1      48.053  28.311  27.088  1.00  0.00     0.074 A 
ATOM     72  C   UNL A   1      49.040  29.366  27.176  1.00  0.00     0.031 C 
ATOM     73  C   UNL A   1      48.323  27.049  26.675  1.00  0.00     0.037 A 
BRANCH  60  74
ATOM     74  C   UNL A   1      43.466  23.242  26.828  1.00  0.00     0.058 A 
ATOM     75  C   UNL A   1      43.268  22.707  25.545  1.00  0.00     0.135 A 
ATOM     76  C   UNL A   1      43.250  22.396  27.929  1.00  0.00     0.135 A 
ATOM     77  F   UNL A   1      43.443  23.475  24.457  1.00  0.00    -0.206 F 
ATOM     78  C   UNL A   1      42.866  21.389  25.360  1.00  0.00     0.059 A 
ATOM     79  C   UNL A   1      42.875  21.065  27.767  1.00  0.00     0.059 A 
ATOM     80  F   UNL A   1      43.422  22.856  29.178  1.00  0.00    -0.206 F 
ATOM     81  C   UNL A   1      42.680  20.573  26.478  1.00  0.00     0.060 A 
BRANCH  81  82
ATOM     82  S   UNL A   1      42.203  18.851  26.216  1.00  0.00     0.124 S 
ATOM     83  O   UNL A   1      42.349  18.300  27.560  1.00  0.00    -0.237 OA
ATOM     84  O   UNL A   1      40.834  18.980  25.729  1.00  0.00    -0.237 OA
ATOM     85  O   UNL A   1      43.173  18.374  25.235  1.00  0.00    -0.744 OA
ENDBRANCH  81  82
ENDBRANCH  60  74
BRANCH  61  86
ATOM     86  C   UNL A   1      46.661  32.547  28.595  1.00  0.00     0.058 A 
ATOM     87  C   UNL A   1      47.047  32.898  29.897  1.00  0.00     0.135 A 
ATOM     88  C   UNL A   1      46.738  33.538  27.604  1.00  0.00     0.135 A 
ATOM     89  F   UNL A   1      46.987  31.989  30.882  1.00  0.00    -0.206 F 
ATOM     90  C   UNL A   1      47.454  34.191  30.215  1.00  0.00     0.059 A 
ATOM     91  C   UNL A   1      47.172  34.829  27.891  1.00  0.00     0.059 A 
ATOM     92  F   UNL A   1      46.399  33.252  26.337  1.00  0.00    -0.206 F 
ATOM     93  C   UNL A   1      47.509  35.151  29.205  1.00  0.00     0.060 A 
BRANCH  93  94
ATOM     94  S   UNL A   1      48.045  36.823  29.626  1.00  0.00     0.124 S 
ATOM     95  O   UNL A   1      48.164  36.736  31.076  1.00  0.00    -0.237 OA
ATOM     96  O   UNL A   1      49.298  36.938  28.887  1.00  0.00    -0.237 OA
ATOM     97  O   UNL A   1      46.956  37.659  29.130  1.00  0.00    -0.744 OA
ENDBRANCH  93  94
ENDBRANCH  61  86
BRANCH  73  98
ATOM     98  C   UNL A   1      49.730  26.745  26.237  1.00  0.00     0.058 A 
ATOM     99  C   UNL A   1      50.690  26.235  27.125  1.00  0.00     0.135 A 
ATOM    100  C   UNL A   1      50.105  26.915  24.893  1.00  0.00     0.135 A 
ATOM    101  F   UNL A   1      50.387  26.059  28.421  1.00  0.00    -0.206 F 
ATOM    102  C   UNL A   1      51.980  25.930  26.702  1.00  0.00     0.059 A 
ATOM    103  C   UNL A   1      51.379  26.586  24.443  1.00  0.00     0.059 A 
ATOM    104  F   UNL A   1      49.222  27.387  23.999  1.00  0.00    -0.206 F 
ATOM    105  C   UNL A   1      52.314  26.106  25.358  1.00  0.00     0.060 A 
BRANCH 105 106
ATOM    106  S   UNL A   1      53.980  25.671  24.816  1.00  0.00     0.124 S 
ATOM    107  O   UNL A   1      53.894  24.216  24.739  1.00  0.00    -0.237 OA
ATOM    108  O   UNL A   1      54.086  26.368  23.539  1.00  0.00    -0.237 OA
ATOM    109  O   UNL A   1      54.832  26.194  25.881  1.00  0.00    -0.744 OA
ENDBRANCH 105 106
ENDBRANCH  73  98
ENDBRANCH  47  48
ENDBRANCH  39  42
ENDBRANCH  37  38
ENDBRANCH  36  37
ENDBRANCH  35  36
ENDBRANCH   1  35
TORSDOF 19
ENDMDL
MODEL 3
REMARK VINA RESULT:     -12.6      1.396      2.530
REMARK SMILES COc1cccc(C(=O)Nc2ccc(NC(=O)[C@@H]3[C@@H](C(=O)NCCCCNC(=O)c4ccc(-c5c6nc(c(-c7c(F)cc(S(=O)(=O)[O-])cc7F)c7ccc([nH]7)c(-c7c(F)cc(S(=O)(=O)[O-])cc7F)c7nc(c(-c8c(F)cc(S(=O)(=O)[O-])cc8F)c8ccc5[nH]8)C=C7)C=C6)cc4)[C@@H]4C=C[C@H]3C4)cc2)c1
REMARK SMILES IDX 23 1 22 2 20 3 21 4 19 6 18 7 99 8 96 9 98 10 100 11 97 12
REMARK SMILES IDX 16 13 15 14 17 16 14 17 11 18 12 19 102 20 13 21 101 22
REMARK SMILES IDX 10 23 8 24 9 25 7 27 3 28 4 29 103 30 5 31 6 32 2 33 1 34
REMARK SMILES IDX 24 35 25 36 26 37 27 38 28 39 29 41 30 42 31 43 95 44 32 45
REMARK SMILES IDX 94 46 33 47 34 48 35 49 88 50 36 51 93 52 87 53 89 54 37 55
REMARK SMILES IDX 92 56 86 57 85 58 38 60 72 61 51 62 71 63 52 64 55 65 70 66
REMARK SMILES IDX 90 67 53 68 54 69 69 71 91 72 56 73 39 74 40 75 49 76 41 77
REMARK SMILES IDX 42 78 48 79 50 80 43 81 44 82 45 83 46 84 47 85 73 86 74 87
REMARK SMILES IDX 83 88 75 89 76 90 82 91 84 92 77 93 78 94 79 95 80 96 81 97
REMARK SMILES IDX 57 98 58 99 67 100 59 101 60 102 66 103 68 104 61 105 62 106
REMARK SMILES IDX 63 107 64 108 65 109
REMARK H PARENT 22 5 15 15 10 26 27 40 89 59 55 70
REMARK Flexibility Score: inf
ROOT
ATOM      1  C   UNL A   1      33.082  29.669  25.443  1.00  0.00     0.116 C 
ENDROOT
BRANCH   1   2
ATOM      2  N   UNL A   1      33.709  28.394  25.130  1.00  0.00    -0.356 N 
ATOM      3  C   UNL A   1      33.108  27.206  24.800  1.00  0.00     0.224 C 
ATOM      4  O   UNL A   1      33.814  26.244  24.512  1.00  0.00    -0.275 OA
ATOM      5  H   UNL A   1      34.693  28.383  25.159  1.00  0.00     0.163 HD
BRANCH   3   6
ATOM      6  C   UNL A   1      31.586  27.152  24.813  1.00  0.00     0.098 C 
ATOM      7  C   UNL A   1      30.966  25.722  24.840  1.00  0.00     0.099 C 
ATOM      8  C   UNL A   1      30.028  25.724  23.598  1.00  0.00     0.025 C 
ATOM      9  C   UNL A   1      31.061  27.707  23.454  1.00  0.00     0.025 C 
ATOM     10  C   UNL A   1      28.971  26.801  23.650  1.00  0.00    -0.027 C 
ATOM     11  C   UNL A   1      30.955  26.435  22.600  1.00  0.00     0.017 C 
ATOM     12  C   UNL A   1      29.589  27.989  23.581  1.00  0.00    -0.027 C 
BRANCH   7  13
ATOM     13  C   UNL A   1      30.442  25.088  26.141  1.00  0.00     0.228 C 
ATOM     14  N   UNL A   1      30.990  24.026  26.796  1.00  0.00    -0.326 N 
ATOM     15  H   UNL A   1      30.840  24.038  27.769  1.00  0.00     0.169 HD
ATOM     16  O   UNL A   1      29.517  25.653  26.745  1.00  0.00    -0.274 OA
BRANCH  14  17
ATOM     17  C   UNL A   1      31.720  22.926  26.351  1.00  0.00     0.041 A 
ATOM     18  C   UNL A   1      33.285  20.820  25.431  1.00  0.00     0.041 A 
ATOM     19  C   UNL A   1      32.214  21.271  24.666  1.00  0.00     0.028 A 
ATOM     20  C   UNL A   1      33.552  21.375  26.681  1.00  0.00     0.028 A 
ATOM     21  C   UNL A   1      31.394  22.271  25.172  1.00  0.00     0.028 A 
ATOM     22  C   UNL A   1      32.758  22.430  27.147  1.00  0.00     0.028 A 
BRANCH  18  23
ATOM     23  N   UNL A   1      34.033  19.755  24.937  1.00  0.00    -0.322 N 
ATOM     24  C   UNL A   1      35.412  19.660  24.929  1.00  0.00     0.255 C 
ATOM     25  O   UNL A   1      35.926  18.543  24.861  1.00  0.00    -0.269 OA
ATOM     26  H   UNL A   1      33.533  18.997  24.558  1.00  0.00     0.170 HD
BRANCH  24  27
ATOM     27  C   UNL A   1      36.286  20.872  24.870  1.00  0.00     0.043 A 
ATOM     28  C   UNL A   1      38.148  22.256  25.606  1.00  0.00     0.119 A 
ATOM     29  C   UNL A   1      37.657  23.304  24.829  1.00  0.00     0.046 A 
ATOM     30  C   UNL A   1      37.489  21.028  25.572  1.00  0.00     0.060 A 
ATOM     31  C   UNL A   1      36.523  23.131  24.033  1.00  0.00     0.005 A 
ATOM     32  C   UNL A   1      35.834  21.921  24.062  1.00  0.00     0.014 A 
BRANCH  28  33
ATOM     33  O   UNL A   1      39.249  22.560  26.356  1.00  0.00    -0.497 OA
ATOM     34  C   UNL A   1      39.342  23.866  26.920  1.00  0.00     0.278 C 
ENDBRANCH  28  33
ENDBRANCH  24  27
ENDBRANCH  18  23
ENDBRANCH  14  17
ENDBRANCH   7  13
ENDBRANCH   3   6
ENDBRANCH   1   2
BRANCH   1  35
ATOM     35  C   UNL A   1      33.268  30.094  26.895  1.00  0.00     0.023 C 
BRANCH  35  36
ATOM     36  C   UNL A   1      34.294  29.283  27.686  1.00  0.00     0.023 C 
BRANCH  36  37
ATOM     37  C   UNL A   1      35.519  30.057  28.165  1.00  0.00     0.116 C 
BRANCH  37  38
ATOM     38  N   UNL A   1      35.425  30.470  29.557  1.00  0.00    -0.352 N 
ATOM     39  C   UNL A   1      36.410  30.552  30.515  1.00  0.00     0.251 C 
ATOM     40  H   UNL A   1      34.524  30.728  29.859  1.00  0.00     0.163 HD
ATOM     41  O   UNL A   1      36.104  30.786  31.683  1.00  0.00    -0.269 OA
BRANCH  39  42
ATOM     42  C   UNL A   1      37.825  30.325  30.150  1.00  0.00     0.039 A 
ATOM     43  C   UNL A   1      38.709  29.850  31.122  1.00  0.00     0.014 A 
ATOM     44  C   UNL A   1      38.279  30.562  28.850  1.00  0.00     0.014 A 
ATOM     45  C   UNL A   1      40.024  29.532  30.769  1.00  0.00     0.010 A 
ATOM     46  C   UNL A   1      39.563  30.167  28.481  1.00  0.00     0.010 A 
ATOM     47  C   UNL A   1      40.450  29.641  29.434  1.00  0.00    -0.014 A 
BRANCH  47  48
ATOM     48  C   UNL A   1      41.807  29.197  29.015  1.00  0.00     0.031 A 
ATOM     49  C   UNL A   1      42.943  30.185  28.949  1.00  0.00     0.074 A 
ATOM     50  C   UNL A   1      42.001  27.919  28.625  1.00  0.00     0.049 A 
ATOM     51  N   UNL A   1      44.170  30.003  28.533  1.00  0.00    -0.248 NA
ATOM     52  C   UNL A   1      42.657  31.563  29.383  1.00  0.00     0.031 C 
ATOM     53  C   UNL A   1      40.970  26.877  28.592  1.00  0.00     0.029 A 
ATOM     54  N   UNL A   1      43.127  27.279  28.167  1.00  0.00    -0.354 N 
ATOM     55  C   UNL A   1      44.795  31.241  28.638  1.00  0.00     0.074 A 
ATOM     56  C   UNL A   1      43.800  32.177  29.113  1.00  0.00     0.031 C 
ATOM     57  C   UNL A   1      41.516  25.729  28.160  1.00  0.00     0.029 A 
ATOM     58  C   UNL A   1      42.922  25.958  27.841  1.00  0.00     0.049 A 
ATOM     59  H   UNL A   1      44.000  27.725  28.082  1.00  0.00     0.167 HD
ATOM     60  C   UNL A   1      46.086  31.562  28.385  1.00  0.00     0.037 A 
ATOM     61  C   UNL A   1      43.764  25.038  27.331  1.00  0.00     0.037 A 
ATOM     62  C   UNL A   1      47.081  30.619  27.946  1.00  0.00     0.049 A 
ATOM     63  C   UNL A   1      45.194  25.426  27.056  1.00  0.00     0.074 A 
ATOM     64  C   UNL A   1      48.432  30.836  27.732  1.00  0.00     0.029 A 
ATOM     65  N   UNL A   1      46.840  29.285  27.654  1.00  0.00    -0.354 N 
ATOM     66  N   UNL A   1      45.784  26.583  27.237  1.00  0.00    -0.248 NA
ATOM     67  C   UNL A   1      46.075  24.381  26.514  1.00  0.00     0.031 C 
ATOM     68  C   UNL A   1      48.996  29.647  27.259  1.00  0.00     0.029 A 
ATOM     69  C   UNL A   1      48.011  28.674  27.236  1.00  0.00     0.049 A 
ATOM     70  H   UNL A   1      45.966  28.838  27.731  1.00  0.00     0.167 HD
ATOM     71  C   UNL A   1      47.111  26.396  26.865  1.00  0.00     0.074 A 
ATOM     72  C   UNL A   1      47.241  25.011  26.462  1.00  0.00     0.031 C 
ATOM     73  C   UNL A   1      48.130  27.289  26.856  1.00  0.00     0.037 A 
BRANCH  60  74
ATOM     74  C   UNL A   1      46.513  32.991  28.582  1.00  0.00     0.058 A 
ATOM     75  C   UNL A   1      46.956  33.464  29.827  1.00  0.00     0.135 A 
ATOM     76  C   UNL A   1      46.562  33.876  27.491  1.00  0.00     0.135 A 
ATOM     77  F   UNL A   1      46.915  32.667  30.907  1.00  0.00    -0.206 F 
ATOM     78  C   UNL A   1      47.423  34.764  29.988  1.00  0.00     0.059 A 
ATOM     79  C   UNL A   1      47.053  35.172  27.622  1.00  0.00     0.059 A 
ATOM     80  F   UNL A   1      46.148  33.477  26.279  1.00  0.00    -0.206 F 
ATOM     81  C   UNL A   1      47.475  35.608  28.877  1.00  0.00     0.060 A 
BRANCH  81  82
ATOM     82  S   UNL A   1      48.129  37.277  29.095  1.00  0.00     0.124 S 
ATOM     83  O   UNL A   1      47.069  37.905  29.879  1.00  0.00    -0.237 OA
ATOM     84  O   UNL A   1      49.380  37.030  29.805  1.00  0.00    -0.237 OA
ATOM     85  O   UNL A   1      48.273  37.769  27.729  1.00  0.00    -0.744 OA
ENDBRANCH  81  82
ENDBRANCH  60  74
BRANCH  61  86
ATOM     86  C   UNL A   1      43.289  23.655  27.043  1.00  0.00     0.058 A 
ATOM     87  C   UNL A   1      43.095  22.726  28.075  1.00  0.00     0.135 A 
ATOM     88  C   UNL A   1      43.052  23.226  25.727  1.00  0.00     0.135 A 
ATOM     89  F   UNL A   1      43.313  23.084  29.349  1.00  0.00    -0.206 F 
ATOM     90  C   UNL A   1      42.721  21.411  27.813  1.00  0.00     0.059 A 
ATOM     91  C   UNL A   1      42.646  21.925  25.443  1.00  0.00     0.059 A 
ATOM     92  F   UNL A   1      43.203  24.080  24.702  1.00  0.00    -0.206 F 
ATOM     93  C   UNL A   1      42.503  21.019  26.492  1.00  0.00     0.060 A 
BRANCH  93  94
ATOM     94  S   UNL A   1      42.010  19.313  26.164  1.00  0.00     0.124 S 
ATOM     95  O   UNL A   1      42.415  18.649  27.397  1.00  0.00    -0.237 OA
ATOM     96  O   UNL A   1      40.573  19.445  25.950  1.00  0.00    -0.237 OA
ATOM     97  O   UNL A   1      42.784  18.964  24.975  1.00  0.00    -0.744 OA
ENDBRANCH  93  94
ENDBRANCH  61  86
BRANCH  73  98
ATOM     98  C   UNL A   1      49.491  26.792  26.446  1.00  0.00     0.058 A 
ATOM     99  C   UNL A   1      50.307  26.059  27.321  1.00  0.00     0.135 A 
ATOM    100  C   UNL A   1      49.957  27.006  25.138  1.00  0.00     0.135 A 
ATOM    101  F   UNL A   1      49.912  25.831  28.584  1.00  0.00    -0.206 F 
ATOM    102  C   UNL A   1      51.551  25.579  26.922  1.00  0.00     0.059 A 
ATOM    103  C   UNL A   1      51.183  26.507  24.709  1.00  0.00     0.059 A 
ATOM    104  F   UNL A   1      49.211  27.689  24.257  1.00  0.00    -0.206 F 
ATOM    105  C   UNL A   1      51.978  25.805  25.612  1.00  0.00     0.060 A 
BRANCH 105 106
ATOM    106  S   UNL A   1      53.577  25.145  25.098  1.00  0.00     0.124 S 
ATOM    107  O   UNL A   1      53.607  25.512  23.685  1.00  0.00    -0.237 OA
ATOM    108  O   UNL A   1      54.506  25.868  25.960  1.00  0.00    -0.237 OA
ATOM    109  O   UNL A   1      53.460  23.716  25.372  1.00  0.00    -0.744 OA
ENDBRANCH 105 106
ENDBRANCH  73  98
ENDBRANCH  47  48
ENDBRANCH  39  42
ENDBRANCH  37  38
ENDBRANCH  36  37
ENDBRANCH  35  36
ENDBRANCH   1  35
TORSDOF 19
ENDMDL
