MODEL 1
REMARK VINA RESULT:     -11.9      0.000      0.000
REMARK SMILES Cc1cc(F)c([C@@](C)(C(=O)NCCCCNC(=O)c2ccc(-c3c4nc(c(-c5c(F)cc(S(=O)(=O)[O-])cc5F)c5ccc([nH]5)c(-c5c(F)cc(S(=O)(=O)[O-])cc5F)c5nc(c(-c6c(F)cc(S(=O)(=O)[O-])cc6F)c6ccc3[nH]6)C=C5)C=C4)cc2)[NH+]2CC[NH2+]CC2)cc1F
REMARK SMILES IDX 14 1 13 2 12 3 11 4 9 5 10 6 7 8 8 9 6 10 1 11 2 12 3 13
REMARK SMILES IDX 92 14 4 15 91 16 93 17 5 18 85 19 86 20 90 21 87 23 89 24
REMARK SMILES IDX 88 25 15 28 16 29 17 30 18 32 19 33 20 34 84 35 21 36 83 37
REMARK SMILES IDX 22 38 23 39 24 40 77 41 25 42 82 43 76 44 78 45 26 46 81 47
REMARK SMILES IDX 75 48 74 49 27 51 61 52 40 53 60 54 41 55 44 56 59 57 79 58
REMARK SMILES IDX 42 59 43 60 58 62 80 63 45 64 28 65 29 66 38 67 30 68 31 69
REMARK SMILES IDX 37 70 39 71 32 72 33 73 34 74 35 75 36 76 62 77 63 78 72 79
REMARK SMILES IDX 64 80 65 81 71 82 73 83 66 84 67 85 68 86 69 87 70 88 46 89
REMARK SMILES IDX 47 90 56 91 48 92 49 93 55 94 57 95 50 96 51 97 52 98 53 99
REMARK SMILES IDX 54 100
REMARK H PARENT 11 7 85 22 88 26 88 27 16 31 78 50 44 61
REMARK Flexibility Score: inf
ROOT
ATOM      1  C   UNL A   1      33.767  28.589  25.890  1.00  0.00     0.023 C 
ENDROOT
BRANCH   1   2
ATOM      2  C   UNL A   1      34.304  27.249  25.390  1.00  0.00     0.023 C 
BRANCH   2   3
ATOM      3  C   UNL A   1      33.394  26.528  24.404  1.00  0.00     0.116 C 
BRANCH   3   4
ATOM      4  N   UNL A   1      34.103  25.537  23.623  1.00  0.00    -0.350 N 
ATOM      5  C   UNL A   1      34.173  24.176  23.688  1.00  0.00     0.286 C 
ATOM      6  O   UNL A   1      34.751  23.678  22.709  1.00  0.00    -0.267 OA
ATOM      7  H   UNL A   1      34.645  25.923  22.899  1.00  0.00     0.163 HD
BRANCH   5   8
ATOM      8  C   UNL A   1      33.495  23.283  24.832  1.00  0.00     0.203 C 
ATOM      9  C   UNL A   1      34.041  23.898  26.156  1.00  0.00     0.096 C 
BRANCH   8  10
ATOM     10  C   UNL A   1      33.787  21.766  24.677  1.00  0.00     0.060 A 
ATOM     11  C   UNL A   1      34.380  17.440  24.492  1.00  0.00     0.047 C 
ATOM     12  C   UNL A   1      34.196  18.925  24.509  1.00  0.00    -0.012 A 
ATOM     13  C   UNL A   1      35.237  19.782  24.869  1.00  0.00     0.046 A 
ATOM     14  C   UNL A   1      32.960  19.493  24.234  1.00  0.00     0.126 A 
ATOM     15  C   UNL A   1      35.022  21.166  24.974  1.00  0.00     0.133 A 
ATOM     16  C   UNL A   1      32.772  20.877  24.269  1.00  0.00     0.053 A 
ATOM     17  F   UNL A   1      31.911  18.710  23.946  1.00  0.00    -0.207 F 
ATOM     18  F   UNL A   1      36.070  21.899  25.369  1.00  0.00    -0.206 F 
ENDBRANCH   8  10
BRANCH   8  19
ATOM     19  N   UNL A   1      32.007  23.513  24.855  1.00  0.00    -0.309 N 
ATOM     20  C   UNL A   1      31.302  23.986  26.051  1.00  0.00     0.325 C 
ATOM     21  C   UNL A   1      31.247  23.621  23.618  1.00  0.00     0.325 C 
ATOM     22  H   UNL A   1      32.070  22.515  25.059  1.00  0.00     0.349 HD
ATOM     23  C   UNL A   1      30.331  25.187  25.855  1.00  0.00     0.322 C 
ATOM     24  C   UNL A   1      30.513  24.966  23.476  1.00  0.00     0.322 C 
ATOM     25  N   UNL A   1      29.587  25.219  24.588  1.00  0.00    -0.337 N 
ATOM     26  H   UNL A   1      29.155  26.136  24.470  1.00  0.00     0.346 HD
ATOM     27  H   UNL A   1      28.862  24.502  24.599  1.00  0.00     0.346 HD
ENDBRANCH   8  19
ENDBRANCH   5   8
ENDBRANCH   3   4
ENDBRANCH   2   3
ENDBRANCH   1   2
BRANCH   1  28
ATOM     28  C   UNL A   1      33.638  28.722  27.404  1.00  0.00     0.116 C 
BRANCH  28  29
ATOM     29  N   UNL A   1      33.665  30.095  27.895  1.00  0.00    -0.352 N 
ATOM     30  C   UNL A   1      34.735  30.782  28.428  1.00  0.00     0.251 C 
ATOM     31  H   UNL A   1      32.816  30.591  27.841  1.00  0.00     0.163 HD
ATOM     32  O   UNL A   1      34.594  31.918  28.866  1.00  0.00    -0.269 OA
BRANCH  30  33
ATOM     33  C   UNL A   1      36.044  30.098  28.507  1.00  0.00     0.039 A 
ATOM     34  C   UNL A   1      36.459  29.534  29.712  1.00  0.00     0.014 A 
ATOM     35  C   UNL A   1      36.899  30.124  27.403  1.00  0.00     0.014 A 
ATOM     36  C   UNL A   1      37.791  29.179  29.873  1.00  0.00     0.010 A 
ATOM     37  C   UNL A   1      38.215  29.673  27.542  1.00  0.00     0.010 A 
ATOM     38  C   UNL A   1      38.690  29.254  28.793  1.00  0.00    -0.014 A 
BRANCH  38  39
ATOM     39  C   UNL A   1      40.116  28.901  29.022  1.00  0.00     0.031 A 
ATOM     40  C   UNL A   1      40.662  27.559  28.603  1.00  0.00     0.074 A 
ATOM     41  C   UNL A   1      40.941  29.835  29.540  1.00  0.00     0.049 A 
ATOM     42  N   UNL A   1      41.888  27.108  28.692  1.00  0.00    -0.248 NA
ATOM     43  C   UNL A   1      39.717  26.595  28.014  1.00  0.00     0.031 C 
ATOM     44  C   UNL A   1      40.527  31.168  29.985  1.00  0.00     0.029 A 
ATOM     45  N   UNL A   1      42.297  29.826  29.745  1.00  0.00    -0.354 N 
ATOM     46  C   UNL A   1      41.857  25.809  28.199  1.00  0.00     0.074 A 
ATOM     47  C   UNL A   1      40.488  25.531  27.828  1.00  0.00     0.031 C 
ATOM     48  C   UNL A   1      41.610  31.869  30.348  1.00  0.00     0.029 A 
ATOM     49  C   UNL A   1      42.788  31.016  30.228  1.00  0.00     0.049 A 
ATOM     50  H   UNL A   1      42.865  29.042  29.565  1.00  0.00     0.167 HD
ATOM     51  C   UNL A   1      42.882  24.933  28.058  1.00  0.00     0.037 A 
ATOM     52  C   UNL A   1      44.042  31.382  30.553  1.00  0.00     0.037 A 
ATOM     53  C   UNL A   1      44.252  25.234  28.384  1.00  0.00     0.049 A 
ATOM     54  C   UNL A   1      45.157  30.389  30.388  1.00  0.00     0.074 A 
ATOM     55  C   UNL A   1      45.365  24.423  28.237  1.00  0.00     0.029 A 
ATOM     56  N   UNL A   1      44.700  26.436  28.907  1.00  0.00    -0.354 N 
ATOM     57  N   UNL A   1      45.104  29.169  29.911  1.00  0.00    -0.248 NA
ATOM     58  C   UNL A   1      46.497  30.814  30.815  1.00  0.00     0.031 C 
ATOM     59  C   UNL A   1      46.481  25.123  28.706  1.00  0.00     0.029 A 
ATOM     60  C   UNL A   1      46.070  26.383  29.107  1.00  0.00     0.049 A 
ATOM     61  H   UNL A   1      44.130  27.213  29.108  1.00  0.00     0.167 HD
ATOM     62  C   UNL A   1      46.402  28.680  29.981  1.00  0.00     0.074 A 
ATOM     63  C   UNL A   1      47.224  29.745  30.518  1.00  0.00     0.031 C 
ATOM     64  C   UNL A   1      46.870  27.455  29.641  1.00  0.00     0.037 A 
BRANCH  51  65
ATOM     65  C   UNL A   1      42.584  23.559  27.525  1.00  0.00     0.058 A 
ATOM     66  C   UNL A   1      42.639  23.276  26.153  1.00  0.00     0.135 A 
ATOM     67  C   UNL A   1      42.357  22.489  28.407  1.00  0.00     0.135 A 
ATOM     68  F   UNL A   1      42.836  24.265  25.266  1.00  0.00    -0.206 F 
ATOM     69  C   UNL A   1      42.486  21.979  25.672  1.00  0.00     0.059 A 
ATOM     70  C   UNL A   1      42.221  21.181  27.950  1.00  0.00     0.059 A 
ATOM     71  F   UNL A   1      42.293  22.707  29.730  1.00  0.00    -0.206 F 
ATOM     72  C   UNL A   1      42.288  20.936  26.580  1.00  0.00     0.060 A 
BRANCH  72  73
ATOM     73  S   UNL A   1      42.153  19.253  25.941  1.00  0.00     0.124 S 
ATOM     74  O   UNL A   1      42.662  18.472  27.064  1.00  0.00    -0.237 OA
ATOM     75  O   UNL A   1      40.722  19.133  25.683  1.00  0.00    -0.237 OA
ATOM     76  O   UNL A   1      43.002  19.269  24.754  1.00  0.00    -0.744 OA
ENDBRANCH  72  73
ENDBRANCH  51  65
BRANCH  52  77
ATOM     77  C   UNL A   1      44.302  32.743  31.088  1.00  0.00     0.058 A 
ATOM     78  C   UNL A   1      44.625  33.809  30.238  1.00  0.00     0.135 A 
ATOM     79  C   UNL A   1      44.214  33.007  32.465  1.00  0.00     0.135 A 
ATOM     80  F   UNL A   1      44.724  33.605  28.915  1.00  0.00    -0.206 F 
ATOM     81  C   UNL A   1      44.868  35.086  30.732  1.00  0.00     0.059 A 
ATOM     82  C   UNL A   1      44.425  34.280  32.981  1.00  0.00     0.059 A 
ATOM     83  F   UNL A   1      43.891  32.023  33.319  1.00  0.00    -0.206 F 
ATOM     84  C   UNL A   1      44.764  35.311  32.106  1.00  0.00     0.060 A 
BRANCH  84  85
ATOM     85  S   UNL A   1      45.040  36.980  32.737  1.00  0.00     0.124 S 
ATOM     86  O   UNL A   1      43.674  37.470  32.875  1.00  0.00    -0.237 OA
ATOM     87  O   UNL A   1      45.755  36.723  33.984  1.00  0.00    -0.237 OA
ATOM     88  O   UNL A   1      45.836  37.608  31.687  1.00  0.00    -0.744 OA
ENDBRANCH  84  85
ENDBRANCH  52  77
BRANCH  64  89
ATOM     89  C   UNL A   1      48.335  27.196  29.836  1.00  0.00     0.058 A 
ATOM     90  C   UNL A   1      49.275  27.560  28.860  1.00  0.00     0.135 A 
ATOM     91  C   UNL A   1      48.811  26.648  31.037  1.00  0.00     0.135 A 
ATOM     92  F   UNL A   1      48.868  28.080  27.692  1.00  0.00    -0.206 F 
ATOM     93  C   UNL A   1      50.638  27.381  29.065  1.00  0.00     0.059 A 
ATOM     94  C   UNL A   1      50.172  26.480  31.273  1.00  0.00     0.059 A 
ATOM     95  F   UNL A   1      47.951  26.291  32.005  1.00  0.00    -0.206 F 
ATOM     96  C   UNL A   1      51.077  26.845  30.277  1.00  0.00     0.060 A 
BRANCH  96  97
ATOM     97  S   UNL A   1      52.853  26.669  30.549  1.00  0.00     0.124 S 
ATOM     98  O   UNL A   1      53.204  27.991  31.058  1.00  0.00    -0.237 OA
ATOM     99  O   UNL A   1      52.913  25.579  31.518  1.00  0.00    -0.237 OA
ATOM    100  O   UNL A   1      53.370  26.349  29.222  1.00  0.00    -0.744 OA
ENDBRANCH  96  97
ENDBRANCH  64  89
ENDBRANCH  38  39
ENDBRANCH  30  33
ENDBRANCH  28  29
ENDBRANCH   1  28
TORSDOF 16
ENDMDL
MODEL 2
REMARK VINA RESULT:     -11.7      1.064      2.053
REMARK SMILES Cc1cc(F)c([C@@](C)(C(=O)NCCCCNC(=O)c2ccc(-c3c4nc(c(-c5c(F)cc(S(=O)(=O)[O-])cc5F)c5ccc([nH]5)c(-c5c(F)cc(S(=O)(=O)[O-])cc5F)c5nc(c(-c6c(F)cc(S(=O)(=O)[O-])cc6F)c6ccc3[nH]6)C=C5)C=C4)cc2)[NH+]2CC[NH2+]CC2)cc1F
REMARK SMILES IDX 14 1 13 2 12 3 11 4 9 5 10 6 7 8 8 9 6 10 1 11 2 12 3 13
REMARK SMILES IDX 92 14 4 15 91 16 93 17 5 18 85 19 86 20 90 21 87 23 89 24
REMARK SMILES IDX 88 25 15 28 16 29 17 30 18 32 19 33 20 34 84 35 21 36 83 37
REMARK SMILES IDX 22 38 23 39 24 40 77 41 25 42 82 43 76 44 78 45 26 46 81 47
REMARK SMILES IDX 75 48 74 49 27 51 61 52 40 53 60 54 41 55 44 56 59 57 79 58
REMARK SMILES IDX 42 59 43 60 58 62 80 63 45 64 28 65 29 66 38 67 30 68 31 69
REMARK SMILES IDX 37 70 39 71 32 72 33 73 34 74 35 75 36 76 62 77 63 78 72 79
REMARK SMILES IDX 64 80 65 81 71 82 73 83 66 84 67 85 68 86 69 87 70 88 46 89
REMARK SMILES IDX 47 90 56 91 48 92 49 93 55 94 57 95 50 96 51 97 52 98 53 99
REMARK SMILES IDX 54 100
REMARK H PARENT 11 7 85 22 88 26 88 27 16 31 78 50 44 61
REMARK Flexibility Score: inf
ROOT
ATOM      1  C   UNL A   1      32.260  28.155  26.931  1.00  0.00     0.023 C 
ENDROOT
BRANCH   1   2
ATOM      2  C   UNL A   1      32.191  27.229  25.719  1.00  0.00     0.023 C 
BRANCH   2   3
ATOM      3  C   UNL A   1      32.989  25.939  25.857  1.00  0.00     0.116 C 
BRANCH   3   4
ATOM      4  N   UNL A   1      32.165  24.823  26.272  1.00  0.00    -0.350 N 
ATOM      5  C   UNL A   1      32.111  23.514  25.892  1.00  0.00     0.286 C 
ATOM      6  O   UNL A   1      31.383  22.830  26.629  1.00  0.00    -0.267 OA
ATOM      7  H   UNL A   1      31.511  25.057  26.969  1.00  0.00     0.163 HD
BRANCH   5   8
ATOM      8  C   UNL A   1      32.968  22.875  24.699  1.00  0.00     0.203 C 
ATOM      9  C   UNL A   1      32.347  23.506  23.416  1.00  0.00     0.096 C 
BRANCH   8  10
ATOM     10  C   UNL A   1      32.961  21.323  24.704  1.00  0.00     0.060 A 
ATOM     11  C   UNL A   1      32.598  16.968  24.668  1.00  0.00     0.047 C 
ATOM     12  C   UNL A   1      32.772  18.455  24.671  1.00  0.00    -0.012 A 
ATOM     13  C   UNL A   1      33.208  19.134  25.809  1.00  0.00     0.046 A 
ATOM     14  C   UNL A   1      32.436  19.213  23.558  1.00  0.00     0.126 A 
ATOM     15  C   UNL A   1      33.272  20.537  25.826  1.00  0.00     0.133 A 
ATOM     16  C   UNL A   1      32.572  20.603  23.557  1.00  0.00     0.053 A 
ATOM     17  F   UNL A   1      31.951  18.614  22.460  1.00  0.00    -0.207 F 
ATOM     18  F   UNL A   1      33.659  21.097  26.979  1.00  0.00    -0.206 F 
ENDBRANCH   8  10
BRANCH   8  19
ATOM     19  N   UNL A   1      34.388  23.376  24.756  1.00  0.00    -0.309 N 
ATOM     20  C   UNL A   1      35.231  23.220  25.945  1.00  0.00     0.325 C 
ATOM     21  C   UNL A   1      35.108  23.721  23.539  1.00  0.00     0.325 C 
ATOM     22  H   UNL A   1      33.858  24.210  25.013  1.00  0.00     0.349 HD
ATOM     23  C   UNL A   1      36.656  22.637  25.713  1.00  0.00     0.322 C 
ATOM     24  C   UNL A   1      36.394  22.896  23.346  1.00  0.00     0.322 C 
ATOM     25  N   UNL A   1      37.328  23.042  24.470  1.00  0.00    -0.337 N 
ATOM     26  H   UNL A   1      38.144  22.449  24.314  1.00  0.00     0.346 HD
ATOM     27  H   UNL A   1      37.625  24.015  24.543  1.00  0.00     0.346 HD
ENDBRANCH   8  19
ENDBRANCH   5   8
ENDBRANCH   3   4
ENDBRANCH   2   3
ENDBRANCH   1   2
BRANCH   1  28
ATOM     28  C   UNL A   1      33.645  28.704  27.261  1.00  0.00     0.116 C 
BRANCH  28  29
ATOM     29  N   UNL A   1      33.646  30.056  27.807  1.00  0.00    -0.352 N 
ATOM     30  C   UNL A   1      34.697  30.734  28.387  1.00  0.00     0.251 C 
ATOM     31  H   UNL A   1      32.792  30.544  27.756  1.00  0.00     0.163 HD
ATOM     32  O   UNL A   1      34.534  31.850  28.867  1.00  0.00    -0.269 OA
BRANCH  30  33
ATOM     33  C   UNL A   1      36.012  30.063  28.463  1.00  0.00     0.039 A 
ATOM     34  C   UNL A   1      36.422  29.474  29.659  1.00  0.00     0.014 A 
ATOM     35  C   UNL A   1      36.878  30.125  27.368  1.00  0.00     0.014 A 
ATOM     36  C   UNL A   1      37.756  29.130  29.825  1.00  0.00     0.010 A 
ATOM     37  C   UNL A   1      38.198  29.685  27.510  1.00  0.00     0.010 A 
ATOM     38  C   UNL A   1      38.665  29.241  28.756  1.00  0.00    -0.014 A 
BRANCH  38  39
ATOM     39  C   UNL A   1      40.093  28.899  28.992  1.00  0.00     0.031 A 
ATOM     40  C   UNL A   1      40.649  27.559  28.579  1.00  0.00     0.074 A 
ATOM     41  C   UNL A   1      40.909  29.839  29.510  1.00  0.00     0.049 A 
ATOM     42  N   UNL A   1      41.878  27.116  28.674  1.00  0.00    -0.248 NA
ATOM     43  C   UNL A   1      39.713  26.588  27.989  1.00  0.00     0.031 C 
ATOM     44  C   UNL A   1      40.484  31.171  29.950  1.00  0.00     0.029 A 
ATOM     45  N   UNL A   1      42.264  29.840  29.721  1.00  0.00    -0.354 N 
ATOM     46  C   UNL A   1      41.858  25.816  28.184  1.00  0.00     0.074 A 
ATOM     47  C   UNL A   1      40.492  25.528  27.809  1.00  0.00     0.031 C 
ATOM     48  C   UNL A   1      41.561  31.880  30.315  1.00  0.00     0.029 A 
ATOM     49  C   UNL A   1      42.745  31.035  30.202  1.00  0.00     0.049 A 
ATOM     50  H   UNL A   1      42.838  29.059  29.544  1.00  0.00     0.167 HD
ATOM     51  C   UNL A   1      42.888  24.947  28.050  1.00  0.00     0.037 A 
ATOM     52  C   UNL A   1      43.995  31.410  30.531  1.00  0.00     0.037 A 
ATOM     53  C   UNL A   1      44.255  25.257  28.380  1.00  0.00     0.049 A 
ATOM     54  C   UNL A   1      45.118  30.424  30.372  1.00  0.00     0.074 A 
ATOM     55  C   UNL A   1      45.375  24.454  28.239  1.00  0.00     0.029 A 
ATOM     56  N   UNL A   1      44.693  26.465  28.901  1.00  0.00    -0.354 N 
ATOM     57  N   UNL A   1      45.075  29.202  29.899  1.00  0.00    -0.248 NA
ATOM     58  C   UNL A   1      46.453  30.860  30.803  1.00  0.00     0.031 C 
ATOM     59  C   UNL A   1      46.484  25.163  28.711  1.00  0.00     0.029 A 
ATOM     60  C   UNL A   1      46.062  26.421  29.106  1.00  0.00     0.049 A 
ATOM     61  H   UNL A   1      44.117  27.238  29.098  1.00  0.00     0.167 HD
ATOM     62  C   UNL A   1      46.376  28.723  29.975  1.00  0.00     0.074 A 
ATOM     63  C   UNL A   1      47.188  29.795  30.513  1.00  0.00     0.031 C 
ATOM     64  C   UNL A   1      46.854  27.500  29.641  1.00  0.00     0.037 A 
BRANCH  51  65
ATOM     65  C   UNL A   1      42.602  23.570  27.519  1.00  0.00     0.058 A 
ATOM     66  C   UNL A   1      42.674  23.281  26.149  1.00  0.00     0.135 A 
ATOM     67  C   UNL A   1      42.368  22.502  28.403  1.00  0.00     0.135 A 
ATOM     68  F   UNL A   1      42.879  24.265  25.260  1.00  0.00    -0.206 F 
ATOM     69  C   UNL A   1      42.533  21.981  25.673  1.00  0.00     0.059 A 
ATOM     70  C   UNL A   1      42.242  21.192  27.951  1.00  0.00     0.059 A 
ATOM     71  F   UNL A   1      42.287  22.726  29.724  1.00  0.00    -0.206 F 
ATOM     72  C   UNL A   1      42.327  20.941  26.582  1.00  0.00     0.060 A 
BRANCH  72  73
ATOM     73  S   UNL A   1      42.206  19.254  25.949  1.00  0.00     0.124 S 
ATOM     74  O   UNL A   1      40.775  19.145  25.680  1.00  0.00    -0.237 OA
ATOM     75  O   UNL A   1      43.069  19.302  24.773  1.00  0.00    -0.237 OA
ATOM     76  O   UNL A   1      42.699  18.438  27.054  1.00  0.00    -0.744 OA
ENDBRANCH  72  73
ENDBRANCH  51  65
BRANCH  52  77
ATOM     77  C   UNL A   1      44.244  32.775  31.063  1.00  0.00     0.058 A 
ATOM     78  C   UNL A   1      44.231  33.031  32.441  1.00  0.00     0.135 A 
ATOM     79  C   UNL A   1      44.519  33.847  30.199  1.00  0.00     0.135 A 
ATOM     80  F   UNL A   1      43.970  32.038  33.305  1.00  0.00    -0.206 F 
ATOM     81  C   UNL A   1      44.466  34.306  32.946  1.00  0.00     0.059 A 
ATOM     82  C   UNL A   1      44.783  35.124  30.680  1.00  0.00     0.059 A 
ATOM     83  F   UNL A   1      44.560  33.650  28.872  1.00  0.00    -0.206 F 
ATOM     84  C   UNL A   1      44.742  35.346  32.056  1.00  0.00     0.060 A 
BRANCH  84  85
ATOM     85  S   UNL A   1      45.086  36.990  32.719  1.00  0.00     0.124 S 
ATOM     86  O   UNL A   1      43.841  37.288  33.418  1.00  0.00    -0.237 OA
ATOM     87  O   UNL A   1      46.250  36.743  33.565  1.00  0.00    -0.237 OA
ATOM     88  O   UNL A   1      45.348  37.785  31.524  1.00  0.00    -0.744 OA
ENDBRANCH  84  85
ENDBRANCH  52  77
BRANCH  64  89
ATOM     89  C   UNL A   1      48.320  27.252  29.842  1.00  0.00     0.058 A 
ATOM     90  C   UNL A   1      49.258  27.594  28.857  1.00  0.00     0.135 A 
ATOM     91  C   UNL A   1      48.798  26.735  31.057  1.00  0.00     0.135 A 
ATOM     92  F   UNL A   1      48.849  28.083  27.676  1.00  0.00    -0.206 F 
ATOM     93  C   UNL A   1      50.622  27.426  29.066  1.00  0.00     0.059 A 
ATOM     94  C   UNL A   1      50.159  26.579  31.296  1.00  0.00     0.059 A 
ATOM     95  F   UNL A   1      47.939  26.399  32.033  1.00  0.00    -0.206 F 
ATOM     96  C   UNL A   1      51.062  26.922  30.291  1.00  0.00     0.060 A 
BRANCH  96  97
ATOM     97  S   UNL A   1      52.839  26.759  30.567  1.00  0.00     0.124 S 
ATOM     98  O   UNL A   1      52.885  25.689  31.559  1.00  0.00    -0.237 OA
ATOM     99  O   UNL A   1      53.331  26.412  29.236  1.00  0.00    -0.237 OA
ATOM    100  O   UNL A   1      53.231  28.080  31.049  1.00  0.00    -0.744 OA
ENDBRANCH  96  97
ENDBRANCH  64  89
ENDBRANCH  38  39
ENDBRANCH  30  33
ENDBRANCH  28  29
ENDBRANCH   1  28
TORSDOF 16
ENDMDL
MODEL 3
REMARK VINA RESULT:     -11.6      3.484      9.445
REMARK SMILES Cc1cc(F)c([C@@](C)(C(=O)NCCCCNC(=O)c2ccc(-c3c4nc(c(-c5c(F)cc(S(=O)(=O)[O-])cc5F)c5ccc([nH]5)c(-c5c(F)cc(S(=O)(=O)[O-])cc5F)c5nc(c(-c6c(F)cc(S(=O)(=O)[O-])cc6F)c6ccc3[nH]6)C=C5)C=C4)cc2)[NH+]2CC[NH2+]CC2)cc1F
REMARK SMILES IDX 14 1 13 2 12 3 11 4 9 5 10 6 7 8 8 9 6 10 1 11 2 12 3 13
REMARK SMILES IDX 92 14 4 15 91 16 93 17 5 18 85 19 86 20 90 21 87 23 89 24
REMARK SMILES IDX 88 25 15 28 16 29 17 30 18 32 19 33 20 34 84 35 21 36 83 37
REMARK SMILES IDX 22 38 23 39 24 40 77 41 25 42 82 43 76 44 78 45 26 46 81 47
REMARK SMILES IDX 75 48 74 49 27 51 61 52 40 53 60 54 41 55 44 56 59 57 79 58
REMARK SMILES IDX 42 59 43 60 58 62 80 63 45 64 28 65 29 66 38 67 30 68 31 69
REMARK SMILES IDX 37 70 39 71 32 72 33 73 34 74 35 75 36 76 62 77 63 78 72 79
REMARK SMILES IDX 64 80 65 81 71 82 73 83 66 84 67 85 68 86 69 87 70 88 46 89
REMARK SMILES IDX 47 90 56 91 48 92 49 93 55 94 57 95 50 96 51 97 52 98 53 99
REMARK SMILES IDX 54 100
REMARK H PARENT 11 7 85 22 88 26 88 27 16 31 78 50 44 61
REMARK Flexibility Score: inf
ROOT
ATOM      1  C   UNL A   1      36.085  23.611  25.889  1.00  0.00     0.023 C 
ENDROOT
BRANCH   1   2
ATOM      2  C   UNL A   1      35.143  24.803  25.745  1.00  0.00     0.023 C 
BRANCH   2   3
ATOM      3  C   UNL A   1      33.882  24.524  24.936  1.00  0.00     0.116 C 
BRANCH   3   4
ATOM      4  N   UNL A   1      33.994  24.980  23.567  1.00  0.00    -0.350 N 
ATOM      5  C   UNL A   1      33.304  25.899  22.832  1.00  0.00     0.286 C 
ATOM      6  O   UNL A   1      33.835  26.135  21.736  1.00  0.00    -0.267 OA
ATOM      7  H   UNL A   1      34.713  24.536  23.064  1.00  0.00     0.163 HD
BRANCH   5   8
ATOM      8  C   UNL A   1      32.008  26.689  23.346  1.00  0.00     0.203 C 
ATOM      9  C   UNL A   1      31.325  27.177  22.033  1.00  0.00     0.096 C 
BRANCH   8  10
ATOM     10  C   UNL A   1      32.344  27.831  24.342  1.00  0.00     0.060 A 
ATOM     11  C   UNL A   1      33.297  30.809  27.396  1.00  0.00     0.047 C 
ATOM     12  C   UNL A   1      32.986  29.821  26.315  1.00  0.00    -0.012 A 
ATOM     13  C   UNL A   1      31.779  29.864  25.616  1.00  0.00     0.046 A 
ATOM     14  C   UNL A   1      33.863  28.787  26.022  1.00  0.00     0.126 A 
ATOM     15  C   UNL A   1      31.461  28.874  24.673  1.00  0.00     0.133 A 
ATOM     16  C   UNL A   1      33.573  27.846  25.031  1.00  0.00     0.053 A 
ATOM     17  F   UNL A   1      35.008  28.663  26.709  1.00  0.00    -0.207 F 
ATOM     18  F   UNL A   1      30.261  28.976  24.088  1.00  0.00    -0.206 F 
ENDBRANCH   8  10
BRANCH   8  19
ATOM     19  N   UNL A   1      31.036  25.730  23.982  1.00  0.00    -0.309 N 
ATOM     20  C   UNL A   1      30.732  24.418  23.404  1.00  0.00     0.325 C 
ATOM     21  C   UNL A   1      30.618  25.897  25.367  1.00  0.00     0.325 C 
ATOM     22  H   UNL A   1      30.417  26.324  23.430  1.00  0.00     0.349 HD
ATOM     23  C   UNL A   1      30.799  23.201  24.372  1.00  0.00     0.322 C 
ATOM     24  C   UNL A   1      30.955  24.681  26.249  1.00  0.00     0.322 C 
ATOM     25  N   UNL A   1      30.346  23.442  25.750  1.00  0.00    -0.337 N 
ATOM     26  H   UNL A   1      30.628  22.660  26.342  1.00  0.00     0.346 HD
ATOM     27  H   UNL A   1      29.330  23.528  25.765  1.00  0.00     0.346 HD
ENDBRANCH   8  19
ENDBRANCH   5   8
ENDBRANCH   3   4
ENDBRANCH   2   3
ENDBRANCH   1   2
BRANCH   1  28
ATOM     28  C   UNL A   1      37.258  23.576  24.915  1.00  0.00     0.116 C 
BRANCH  28  29
ATOM     29  N   UNL A   1      38.330  22.662  25.289  1.00  0.00    -0.352 N 
ATOM     30  C   UNL A   1      39.392  22.904  26.134  1.00  0.00     0.251 C 
ATOM     31  H   UNL A   1      38.291  21.763  24.890  1.00  0.00     0.163 HD
ATOM     32  O   UNL A   1      40.262  22.057  26.305  1.00  0.00    -0.269 OA
BRANCH  30  33
ATOM     33  C   UNL A   1      39.486  24.227  26.788  1.00  0.00     0.039 A 
ATOM     34  C   UNL A   1      40.247  25.238  26.201  1.00  0.00     0.014 A 
ATOM     35  C   UNL A   1      38.903  24.414  28.043  1.00  0.00     0.014 A 
ATOM     36  C   UNL A   1      40.590  26.352  26.952  1.00  0.00     0.010 A 
ATOM     37  C   UNL A   1      39.173  25.585  28.758  1.00  0.00     0.010 A 
ATOM     38  C   UNL A   1      40.067  26.537  28.246  1.00  0.00    -0.014 A 
BRANCH  38  39
ATOM     39  C   UNL A   1      40.495  27.726  29.029  1.00  0.00     0.031 A 
ATOM     40  C   UNL A   1      39.567  28.898  29.232  1.00  0.00     0.074 A 
ATOM     41  C   UNL A   1      41.703  27.709  29.628  1.00  0.00     0.049 A 
ATOM     42  N   UNL A   1      39.767  29.993  29.921  1.00  0.00    -0.248 NA
ATOM     43  C   UNL A   1      38.248  28.841  28.579  1.00  0.00     0.031 C 
ATOM     44  C   UNL A   1      42.689  26.632  29.501  1.00  0.00     0.029 A 
ATOM     45  N   UNL A   1      42.296  28.598  30.488  1.00  0.00    -0.354 N 
ATOM     46  C   UNL A   1      38.620  30.762  29.763  1.00  0.00     0.074 A 
ATOM     47  C   UNL A   1      37.730  30.021  28.898  1.00  0.00     0.031 C 
ATOM     48  C   UNL A   1      43.731  26.890  30.304  1.00  0.00     0.029 A 
ATOM     49  C   UNL A   1      43.522  28.182  30.950  1.00  0.00     0.049 A 
ATOM     50  H   UNL A   1      41.883  29.453  30.749  1.00  0.00     0.167 HD
ATOM     51  C   UNL A   1      38.332  31.971  30.303  1.00  0.00     0.037 A 
ATOM     52  C   UNL A   1      44.392  28.774  31.788  1.00  0.00     0.037 A 
ATOM     53  C   UNL A   1      39.202  32.682  31.204  1.00  0.00     0.049 A 
ATOM     54  C   UNL A   1      44.046  30.116  32.370  1.00  0.00     0.074 A 
ATOM     55  C   UNL A   1      38.978  33.895  31.833  1.00  0.00     0.029 A 
ATOM     56  N   UNL A   1      40.451  32.244  31.615  1.00  0.00    -0.354 N 
ATOM     57  N   UNL A   1      42.951  30.819  32.213  1.00  0.00    -0.248 NA
ATOM     58  C   UNL A   1      45.055  30.750  33.229  1.00  0.00     0.031 C 
ATOM     59  C   UNL A   1      40.107  34.208  32.596  1.00  0.00     0.029 A 
ATOM     60  C   UNL A   1      41.017  33.171  32.473  1.00  0.00     0.049 A 
ATOM     61  H   UNL A   1      40.874  31.399  31.337  1.00  0.00     0.167 HD
ATOM     62  C   UNL A   1      43.139  31.979  32.953  1.00  0.00     0.074 A 
ATOM     63  C   UNL A   1      44.439  31.871  33.581  1.00  0.00     0.031 C 
ATOM     64  C   UNL A   1      42.313  33.044  33.091  1.00  0.00     0.037 A 
BRANCH  51  65
ATOM     65  C   UNL A   1      37.023  32.621  29.951  1.00  0.00     0.058 A 
ATOM     66  C   UNL A   1      35.858  32.378  30.693  1.00  0.00     0.135 A 
ATOM     67  C   UNL A   1      36.961  33.588  28.932  1.00  0.00     0.135 A 
ATOM     68  F   UNL A   1      35.858  31.453  31.666  1.00  0.00    -0.206 F 
ATOM     69  C   UNL A   1      34.680  33.074  30.444  1.00  0.00     0.059 A 
ATOM     70  C   UNL A   1      35.798  34.310  28.678  1.00  0.00     0.059 A 
ATOM     71  F   UNL A   1      38.047  33.856  28.190  1.00  0.00    -0.206 F 
ATOM     72  C   UNL A   1      34.662  34.046  29.441  1.00  0.00     0.060 A 
BRANCH  72  73
ATOM     73  S   UNL A   1      33.140  34.981  29.175  1.00  0.00     0.124 S 
ATOM     74  O   UNL A   1      33.664  36.274  28.745  1.00  0.00    -0.237 OA
ATOM     75  O   UNL A   1      32.471  34.195  28.143  1.00  0.00    -0.237 OA
ATOM     76  O   UNL A   1      32.498  34.969  30.485  1.00  0.00    -0.744 OA
ENDBRANCH  72  73
ENDBRANCH  51  65
BRANCH  52  77
ATOM     77  C   UNL A   1      45.683  28.111  32.108  1.00  0.00     0.058 A 
ATOM     78  C   UNL A   1      45.798  27.229  33.191  1.00  0.00     0.135 A 
ATOM     79  C   UNL A   1      46.824  28.336  31.322  1.00  0.00     0.135 A 
ATOM     80  F   UNL A   1      44.735  26.986  33.974  1.00  0.00    -0.206 F 
ATOM     81  C   UNL A   1      47.003  26.604  33.494  1.00  0.00     0.059 A 
ATOM     82  C   UNL A   1      48.032  27.703  31.588  1.00  0.00     0.059 A 
ATOM     83  F   UNL A   1      46.761  29.159  30.263  1.00  0.00    -0.206 F 
ATOM     84  C   UNL A   1      48.114  26.847  32.685  1.00  0.00     0.060 A 
BRANCH  84  85
ATOM     85  S   UNL A   1      49.665  26.001  33.060  1.00  0.00     0.124 S 
ATOM     86  O   UNL A   1      50.592  27.122  33.163  1.00  0.00    -0.237 OA
ATOM     87  O   UNL A   1      49.348  25.317  34.310  1.00  0.00    -0.237 OA
ATOM     88  O   UNL A   1      49.855  25.125  31.907  1.00  0.00    -0.744 OA
ENDBRANCH  84  85
ENDBRANCH  52  77
BRANCH  64  89
ATOM     89  C   UNL A   1      42.784  34.178  33.954  1.00  0.00     0.058 A 
ATOM     90  C   UNL A   1      42.532  34.195  35.334  1.00  0.00     0.135 A 
ATOM     91  C   UNL A   1      43.557  35.217  33.412  1.00  0.00     0.135 A 
ATOM     92  F   UNL A   1      41.791  33.228  35.897  1.00  0.00    -0.206 F 
ATOM     93  C   UNL A   1      43.023  35.210  36.147  1.00  0.00     0.059 A 
ATOM     94  C   UNL A   1      44.077  36.230  34.209  1.00  0.00     0.059 A 
ATOM     95  F   UNL A   1      43.831  35.239  32.097  1.00  0.00    -0.206 F 
ATOM     96  C   UNL A   1      43.799  36.220  35.576  1.00  0.00     0.060 A 
BRANCH  96  97
ATOM     97  S   UNL A   1      44.474  37.502  36.653  1.00  0.00     0.124 S 
ATOM     98  O   UNL A   1      44.060  38.717  35.958  1.00  0.00    -0.237 OA
ATOM     99  O   UNL A   1      43.797  37.234  37.919  1.00  0.00    -0.237 OA
ATOM    100  O   UNL A   1      45.908  37.232  36.646  1.00  0.00    -0.744 OA
ENDBRANCH  96  97
ENDBRANCH  64  89
ENDBRANCH  38  39
ENDBRANCH  30  33
ENDBRANCH  28  29
ENDBRANCH   1  28
TORSDOF 16
ENDMDL
