MODEL 1
REMARK VINA RESULT:     -13.8      0.000      0.000
REMARK SMILES Cc1ccccc1C(=O)Nc1cc(C(=O)NCCCCNC(=O)c2ccc(-c3c4nc(c(-c5c(F)cc(S(=O)(=O)[O-])cc5F)c5ccc([nH]5)c(-c5c(F)cc(S(=O)(=O)[O-])cc5F)c5nc(c(-c6c(F)cc(S(=O)(=O)[O-])cc6F)c6ccc3[nH]6)C=C5)C=C4)cc2)ccc1N1CC[NH+](CC(=O)Nc2ccc(F)cc2)CC1
REMARK SMILES IDX 18 1 17 2 16 3 14 4 15 5 13 7 11 8 12 9 92 10 91 11 90 12
REMARK SMILES IDX 10 13 8 14 9 15 7 17 1 18 2 19 3 20 4 21 6 22 5 23 93 24
REMARK SMILES IDX 94 25 109 26 95 27 108 28 96 29 97 31 98 32 99 33 100 34
REMARK SMILES IDX 101 36 102 37 107 38 103 39 106 40 104 41 105 42 19 43 20 44
REMARK SMILES IDX 21 45 22 46 23 48 24 49 25 50 89 51 26 52 88 53 27 54 28 55
REMARK SMILES IDX 29 56 82 57 30 58 87 59 81 60 83 61 31 62 86 63 80 64 79 65
REMARK SMILES IDX 32 67 66 68 45 69 65 70 46 71 49 72 64 73 84 74 47 75 48 76
REMARK SMILES IDX 63 78 85 79 50 80 33 81 34 82 43 83 35 84 36 85 42 86 44 87
REMARK SMILES IDX 37 88 38 89 39 90 40 91 41 92 67 93 68 94 77 95 69 96 70 97
REMARK SMILES IDX 76 98 78 99 71 100 72 101 73 102 74 103 75 104 51 105 52 106
REMARK SMILES IDX 61 107 53 108 54 109 60 110 62 111 55 112 56 113 57 114
REMARK SMILES IDX 58 115 59 116
REMARK H PARENT 16 6 10 16 96 30 100 35 21 47 83 66 49 77
REMARK Flexibility Score: inf
ROOT
ATOM      1  C   UNL A   1      39.932  23.536  27.429  1.00  0.00     0.023 C 
ENDROOT
BRANCH   1   2
ATOM      2  C   UNL A   1      38.723  23.579  26.475  1.00  0.00     0.116 C 
BRANCH   2   3
ATOM      3  N   UNL A   1      38.210  22.258  26.126  1.00  0.00    -0.352 N 
ATOM      4  C   UNL A   1      37.109  21.813  25.429  1.00  0.00     0.251 C 
ATOM      5  O   UNL A   1      37.026  20.600  25.226  1.00  0.00    -0.269 OA
ATOM      6  H   UNL A   1      38.775  21.525  26.462  1.00  0.00     0.163 HD
BRANCH   4   7
ATOM      7  C   UNL A   1      36.027  22.693  24.892  1.00  0.00     0.042 A 
ATOM      8  C   UNL A   1      34.126  23.145  23.460  1.00  0.00     0.065 A 
ATOM      9  C   UNL A   1      35.193  22.339  23.852  1.00  0.00     0.042 A 
ATOM     10  C   UNL A   1      33.886  24.428  24.016  1.00  0.00     0.061 A 
ATOM     11  C   UNL A   1      34.784  24.812  25.023  1.00  0.00     0.029 A 
ATOM     12  C   UNL A   1      35.814  23.954  25.472  1.00  0.00     0.016 A 
BRANCH   8  13
ATOM     13  N   UNL A   1      33.278  22.614  22.477  1.00  0.00    -0.320 N 
ATOM     14  C   UNL A   1      32.407  21.544  22.624  1.00  0.00     0.255 C 
ATOM     15  O   UNL A   1      31.489  21.427  21.806  1.00  0.00    -0.269 OA
ATOM     16  H   UNL A   1      33.303  23.045  21.593  1.00  0.00     0.170 HD
BRANCH  14  17
ATOM     17  C   UNL A   1      32.521  20.536  23.714  1.00  0.00     0.043 A 
ATOM     18  C   UNL A   1      31.785  21.970  25.750  1.00  0.00     0.045 C 
ATOM     19  C   UNL A   1      32.285  20.715  25.097  1.00  0.00    -0.038 A 
ATOM     20  C   UNL A   1      32.528  19.634  25.971  1.00  0.00     0.004 A 
ATOM     21  C   UNL A   1      32.923  18.393  25.485  1.00  0.00     0.000 A 
ATOM     22  C   UNL A   1      32.877  19.267  23.238  1.00  0.00     0.014 A 
ATOM     23  C   UNL A   1      33.079  18.211  24.118  1.00  0.00     0.001 A 
ENDBRANCH  14  17
ENDBRANCH   8  13
BRANCH  10  24
ATOM     24  N   UNL A   1      32.804  25.221  23.648  1.00  0.00    -0.359 N 
ATOM     25  C   UNL A   1      32.860  26.326  22.660  1.00  0.00     0.178 C 
ATOM     26  C   UNL A   1      31.707  25.428  24.591  1.00  0.00     0.178 C 
ATOM     27  C   UNL A   1      31.421  26.782  22.167  1.00  0.00     0.284 C 
ATOM     28  C   UNL A   1      30.407  25.350  23.793  1.00  0.00     0.284 C 
ATOM     29  N   UNL A   1      30.228  26.580  23.030  1.00  0.00    -0.324 N 
ATOM     30  H   UNL A   1      29.447  26.508  22.379  1.00  0.00     0.348 HD
BRANCH  29  31
ATOM     31  C   UNL A   1      29.747  27.712  23.859  1.00  0.00     0.364 C 
BRANCH  31  32
ATOM     32  C   UNL A   1      30.213  29.123  23.501  1.00  0.00     0.279 C 
ATOM     33  O   UNL A   1      29.748  29.676  22.492  1.00  0.00    -0.268 OA
ATOM     34  N   UNL A   1      31.074  29.879  24.251  1.00  0.00    -0.321 N 
ATOM     35  H   UNL A   1      31.003  30.832  24.018  1.00  0.00     0.170 HD
BRANCH  34  36
ATOM     36  C   UNL A   1      32.037  29.676  25.267  1.00  0.00     0.041 A 
ATOM     37  C   UNL A   1      32.084  30.652  26.280  1.00  0.00     0.029 A 
ATOM     38  C   UNL A   1      33.006  28.677  25.297  1.00  0.00     0.029 A 
ATOM     39  C   UNL A   1      33.088  30.647  27.259  1.00  0.00     0.041 A 
ATOM     40  C   UNL A   1      34.048  28.698  26.239  1.00  0.00     0.041 A 
ATOM     41  C   UNL A   1      34.079  29.681  27.214  1.00  0.00     0.123 A 
ATOM     42  F   UNL A   1      35.061  29.692  28.124  1.00  0.00    -0.207 F 
ENDBRANCH  34  36
ENDBRANCH  31  32
ENDBRANCH  29  31
ENDBRANCH  10  24
ENDBRANCH   4   7
ENDBRANCH   2   3
ENDBRANCH   1   2
BRANCH   1  43
ATOM     43  C   UNL A   1      41.205  24.166  26.862  1.00  0.00     0.023 C 
BRANCH  43  44
ATOM     44  C   UNL A   1      41.061  25.659  26.622  1.00  0.00     0.116 C 
BRANCH  44  45
ATOM     45  N   UNL A   1      42.220  26.320  26.048  1.00  0.00    -0.352 N 
ATOM     46  C   UNL A   1      42.167  27.648  25.609  1.00  0.00     0.251 C 
ATOM     47  H   UNL A   1      43.065  25.820  25.966  1.00  0.00     0.163 HD
ATOM     48  O   UNL A   1      42.521  28.019  24.521  1.00  0.00    -0.269 OA
BRANCH  46  49
ATOM     49  C   UNL A   1      41.708  28.614  26.643  1.00  0.00     0.039 A 
ATOM     50  C   UNL A   1      42.655  29.286  27.423  1.00  0.00     0.014 A 
ATOM     51  C   UNL A   1      40.355  28.657  26.965  1.00  0.00     0.014 A 
ATOM     52  C   UNL A   1      42.260  29.863  28.631  1.00  0.00     0.010 A 
ATOM     53  C   UNL A   1      39.986  29.121  28.206  1.00  0.00     0.010 A 
ATOM     54  C   UNL A   1      40.943  29.694  29.054  1.00  0.00    -0.014 A 
BRANCH  54  55
ATOM     55  C   UNL A   1      40.430  30.024  30.375  1.00  0.00     0.031 A 
ATOM     56  C   UNL A   1      39.745  31.317  30.585  1.00  0.00     0.074 A 
ATOM     57  C   UNL A   1      40.376  29.057  31.314  1.00  0.00     0.049 A 
ATOM     58  N   UNL A   1      39.350  31.754  31.730  1.00  0.00    -0.248 NA
ATOM     59  C   UNL A   1      39.516  32.269  29.502  1.00  0.00     0.031 C 
ATOM     60  C   UNL A   1      39.516  29.001  32.491  1.00  0.00     0.029 A 
ATOM     61  N   UNL A   1      41.272  28.007  31.501  1.00  0.00    -0.354 N 
ATOM     62  C   UNL A   1      38.558  32.858  31.507  1.00  0.00     0.074 A 
ATOM     63  C   UNL A   1      38.818  33.214  30.137  1.00  0.00     0.031 C 
ATOM     64  C   UNL A   1      40.084  28.192  33.399  1.00  0.00     0.029 A 
ATOM     65  C   UNL A   1      41.397  27.834  32.887  1.00  0.00     0.049 A 
ATOM     66  H   UNL A   1      41.728  27.489  30.799  1.00  0.00     0.167 HD
ATOM     67  C   UNL A   1      37.676  33.229  32.480  1.00  0.00     0.037 A 
ATOM     68  C   UNL A   1      42.567  27.958  33.575  1.00  0.00     0.037 A 
ATOM     69  C   UNL A   1      38.012  32.554  33.742  1.00  0.00     0.049 A 
ATOM     70  C   UNL A   1      42.472  29.041  34.626  1.00  0.00     0.074 A 
ATOM     71  C   UNL A   1      37.454  31.491  34.431  1.00  0.00     0.029 A 
ATOM     72  N   UNL A   1      39.265  32.778  34.319  1.00  0.00    -0.354 N 
ATOM     73  N   UNL A   1      41.564  29.982  34.602  1.00  0.00    -0.248 NA
ATOM     74  C   UNL A   1      43.348  29.146  35.787  1.00  0.00     0.031 C 
ATOM     75  C   UNL A   1      38.434  30.999  35.339  1.00  0.00     0.029 A 
ATOM     76  C   UNL A   1      39.565  31.795  35.242  1.00  0.00     0.049 A 
ATOM     77  H   UNL A   1      39.854  33.536  34.098  1.00  0.00     0.167 HD
ATOM     78  C   UNL A   1      41.685  30.770  35.712  1.00  0.00     0.074 A 
ATOM     79  C   UNL A   1      42.827  30.215  36.418  1.00  0.00     0.031 C 
ATOM     80  C   UNL A   1      40.831  31.806  35.970  1.00  0.00     0.037 A 
BRANCH  67  81
ATOM     81  C   UNL A   1      36.380  34.008  32.250  1.00  0.00     0.058 A 
ATOM     82  C   UNL A   1      35.951  34.975  33.192  1.00  0.00     0.135 A 
ATOM     83  C   UNL A   1      35.449  33.782  31.211  1.00  0.00     0.135 A 
ATOM     84  F   UNL A   1      36.718  35.314  34.238  1.00  0.00    -0.206 F 
ATOM     85  C   UNL A   1      34.706  35.619  33.127  1.00  0.00     0.059 A 
ATOM     86  C   UNL A   1      34.214  34.429  31.110  1.00  0.00     0.059 A 
ATOM     87  F   UNL A   1      35.650  32.893  30.237  1.00  0.00    -0.206 F 
ATOM     88  C   UNL A   1      33.836  35.333  32.083  1.00  0.00     0.060 A 
BRANCH  88  89
ATOM     89  S   UNL A   1      32.219  36.124  32.009  1.00  0.00     0.124 S 
ATOM     90  O   UNL A   1      32.104  36.443  30.590  1.00  0.00    -0.237 OA
ATOM     91  O   UNL A   1      31.336  35.074  32.501  1.00  0.00    -0.237 OA
ATOM     92  O   UNL A   1      32.363  37.278  32.893  1.00  0.00    -0.744 OA
ENDBRANCH  88  89
ENDBRANCH  67  81
BRANCH  68  93
ATOM     93  C   UNL A   1      43.768  27.552  32.791  1.00  0.00     0.058 A 
ATOM     94  C   UNL A   1      44.063  26.172  32.777  1.00  0.00     0.135 A 
ATOM     95  C   UNL A   1      44.215  28.320  31.705  1.00  0.00     0.135 A 
ATOM     96  F   UNL A   1      43.694  25.400  33.810  1.00  0.00    -0.206 F 
ATOM     97  C   UNL A   1      44.560  25.544  31.639  1.00  0.00     0.059 A 
ATOM     98  C   UNL A   1      44.728  27.709  30.556  1.00  0.00     0.059 A 
ATOM     99  F   UNL A   1      43.960  29.635  31.659  1.00  0.00    -0.206 F 
ATOM    100  C   UNL A   1      44.802  26.315  30.505  1.00  0.00     0.060 A 
BRANCH 100 101
ATOM    101  S   UNL A   1      45.001  25.456  28.919  1.00  0.00     0.124 S 
ATOM    102  O   UNL A   1      44.655  26.497  27.960  1.00  0.00    -0.237 OA
ATOM    103  O   UNL A   1      46.413  25.074  28.964  1.00  0.00    -0.237 OA
ATOM    104  O   UNL A   1      44.055  24.352  29.025  1.00  0.00    -0.744 OA
ENDBRANCH 100 101
ENDBRANCH  68  93
BRANCH  80 105
ATOM    105  C   UNL A   1      41.065  32.878  37.006  1.00  0.00     0.058 A 
ATOM    106  C   UNL A   1      42.129  33.796  36.945  1.00  0.00     0.135 A 
ATOM    107  C   UNL A   1      40.105  33.120  38.018  1.00  0.00     0.135 A 
ATOM    108  F   UNL A   1      43.046  33.739  35.968  1.00  0.00    -0.206 F 
ATOM    109  C   UNL A   1      42.265  34.843  37.858  1.00  0.00     0.059 A 
ATOM    110  C   UNL A   1      40.192  34.192  38.901  1.00  0.00     0.059 A 
ATOM    111  F   UNL A   1      39.034  32.328  38.170  1.00  0.00    -0.206 F 
ATOM    112  C   UNL A   1      41.289  35.037  38.829  1.00  0.00     0.060 A 
BRANCH 112 113
ATOM    113  S   UNL A   1      41.411  36.438  39.956  1.00  0.00     0.124 S 
ATOM    114  O   UNL A   1      42.851  36.507  40.177  1.00  0.00    -0.237 OA
ATOM    115  O   UNL A   1      40.840  37.534  39.177  1.00  0.00    -0.237 OA
ATOM    116  O   UNL A   1      40.611  36.012  41.100  1.00  0.00    -0.744 OA
ENDBRANCH 112 113
ENDBRANCH  80 105
ENDBRANCH  54  55
ENDBRANCH  46  49
ENDBRANCH  44  45
ENDBRANCH  43  44
ENDBRANCH   1  43
TORSDOF 20
ENDMDL
MODEL 2
REMARK VINA RESULT:     -12.9      3.201      9.649
REMARK SMILES Cc1ccccc1C(=O)Nc1cc(C(=O)NCCCCNC(=O)c2ccc(-c3c4nc(c(-c5c(F)cc(S(=O)(=O)[O-])cc5F)c5ccc([nH]5)c(-c5c(F)cc(S(=O)(=O)[O-])cc5F)c5nc(c(-c6c(F)cc(S(=O)(=O)[O-])cc6F)c6ccc3[nH]6)C=C5)C=C4)cc2)ccc1N1CC[NH+](CC(=O)Nc2ccc(F)cc2)CC1
REMARK SMILES IDX 18 1 17 2 16 3 14 4 15 5 13 7 11 8 12 9 92 10 91 11 90 12
REMARK SMILES IDX 10 13 8 14 9 15 7 17 1 18 2 19 3 20 4 21 6 22 5 23 93 24
REMARK SMILES IDX 94 25 109 26 95 27 108 28 96 29 97 31 98 32 99 33 100 34
REMARK SMILES IDX 101 36 102 37 107 38 103 39 106 40 104 41 105 42 19 43 20 44
REMARK SMILES IDX 21 45 22 46 23 48 24 49 25 50 89 51 26 52 88 53 27 54 28 55
REMARK SMILES IDX 29 56 82 57 30 58 87 59 81 60 83 61 31 62 86 63 80 64 79 65
REMARK SMILES IDX 32 67 66 68 45 69 65 70 46 71 49 72 64 73 84 74 47 75 48 76
REMARK SMILES IDX 63 78 85 79 50 80 33 81 34 82 43 83 35 84 36 85 42 86 44 87
REMARK SMILES IDX 37 88 38 89 39 90 40 91 41 92 67 93 68 94 77 95 69 96 70 97
REMARK SMILES IDX 76 98 78 99 71 100 72 101 73 102 74 103 75 104 51 105 52 106
REMARK SMILES IDX 61 107 53 108 54 109 60 110 62 111 55 112 56 113 57 114
REMARK SMILES IDX 58 115 59 116
REMARK H PARENT 16 6 10 16 96 30 100 35 21 47 83 66 49 77
REMARK Flexibility Score: inf
ROOT
ATOM      1  C   UNL A   1      34.426  32.350  29.036  1.00  0.00     0.023 C 
ENDROOT
BRANCH   1   2
ATOM      2  C   UNL A   1      34.096  31.366  27.896  1.00  0.00     0.116 C 
BRANCH   2   3
ATOM      3  N   UNL A   1      32.925  31.752  27.116  1.00  0.00    -0.352 N 
ATOM      4  C   UNL A   1      31.916  31.050  26.496  1.00  0.00     0.251 C 
ATOM      5  O   UNL A   1      31.001  31.707  25.993  1.00  0.00    -0.269 OA
ATOM      6  H   UNL A   1      32.837  32.727  27.010  1.00  0.00     0.163 HD
BRANCH   4   7
ATOM      7  C   UNL A   1      31.845  29.560  26.404  1.00  0.00     0.042 A 
ATOM      8  C   UNL A   1      31.919  27.468  25.184  1.00  0.00     0.065 A 
ATOM      9  C   UNL A   1      31.874  28.860  25.216  1.00  0.00     0.042 A 
ATOM     10  C   UNL A   1      31.824  26.669  26.354  1.00  0.00     0.061 A 
ATOM     11  C   UNL A   1      31.721  27.388  27.554  1.00  0.00     0.029 A 
ATOM     12  C   UNL A   1      31.759  28.801  27.582  1.00  0.00     0.016 A 
BRANCH   8  13
ATOM     13  N   UNL A   1      32.074  26.882  23.921  1.00  0.00    -0.320 N 
ATOM     14  C   UNL A   1      31.442  27.265  22.746  1.00  0.00     0.255 C 
ATOM     15  O   UNL A   1      31.938  26.902  21.675  1.00  0.00    -0.269 OA
ATOM     16  H   UNL A   1      32.695  26.121  23.860  1.00  0.00     0.170 HD
BRANCH  14  17
ATOM     17  C   UNL A   1      30.203  28.091  22.712  1.00  0.00     0.043 A 
ATOM     18  C   UNL A   1      28.553  26.498  23.930  1.00  0.00     0.045 C 
ATOM     19  C   UNL A   1      28.917  27.755  23.198  1.00  0.00    -0.038 A 
ATOM     20  C   UNL A   1      27.858  28.665  22.994  1.00  0.00     0.004 A 
ATOM     21  C   UNL A   1      28.078  29.900  22.393  1.00  0.00     0.000 A 
ATOM     22  C   UNL A   1      30.415  29.356  22.149  1.00  0.00     0.014 A 
ATOM     23  C   UNL A   1      29.360  30.247  21.989  1.00  0.00     0.001 A 
ENDBRANCH  14  17
ENDBRANCH   8  13
BRANCH  10  24
ATOM     24  N   UNL A   1      31.901  25.280  26.327  1.00  0.00    -0.359 N 
ATOM     25  C   UNL A   1      33.163  24.502  26.276  1.00  0.00     0.178 C 
ATOM     26  C   UNL A   1      30.796  24.507  25.766  1.00  0.00     0.178 C 
ATOM     27  C   UNL A   1      32.955  22.971  26.643  1.00  0.00     0.284 C 
ATOM     28  C   UNL A   1      30.585  23.298  26.675  1.00  0.00     0.284 C 
ATOM     29  N   UNL A   1      31.637  22.316  26.434  1.00  0.00    -0.324 N 
ATOM     30  H   UNL A   1      31.611  21.561  27.119  1.00  0.00     0.348 HD
BRANCH  29  31
ATOM     31  C   UNL A   1      31.421  21.527  25.197  1.00  0.00     0.364 C 
BRANCH  31  32
ATOM     32  C   UNL A   1      32.590  21.365  24.226  1.00  0.00     0.279 C 
ATOM     33  O   UNL A   1      32.908  22.319  23.498  1.00  0.00    -0.268 OA
ATOM     34  N   UNL A   1      33.384  20.254  24.130  1.00  0.00    -0.321 N 
ATOM     35  H   UNL A   1      34.235  20.463  23.683  1.00  0.00     0.170 HD
BRANCH  34  36
ATOM     36  C   UNL A   1      33.325  18.888  24.493  1.00  0.00     0.041 A 
ATOM     37  C   UNL A   1      33.659  17.964  23.485  1.00  0.00     0.029 A 
ATOM     38  C   UNL A   1      32.863  18.374  25.701  1.00  0.00     0.029 A 
ATOM     39  C   UNL A   1      33.498  16.584  23.670  1.00  0.00     0.041 A 
ATOM     40  C   UNL A   1      32.643  16.998  25.874  1.00  0.00     0.041 A 
ATOM     41  C   UNL A   1      32.966  16.113  24.859  1.00  0.00     0.123 A 
ATOM     42  F   UNL A   1      32.775  14.799  25.028  1.00  0.00    -0.207 F 
ENDBRANCH  34  36
ENDBRANCH  31  32
ENDBRANCH  29  31
ENDBRANCH  10  24
ENDBRANCH   4   7
ENDBRANCH   2   3
ENDBRANCH   1   2
BRANCH   1  43
ATOM     43  C   UNL A   1      33.597  33.635  29.019  1.00  0.00     0.023 C 
BRANCH  43  44
ATOM     44  C   UNL A   1      34.223  34.744  29.847  1.00  0.00     0.116 C 
BRANCH  44  45
ATOM     45  N   UNL A   1      33.438  35.206  30.978  1.00  0.00    -0.352 N 
ATOM     46  C   UNL A   1      33.437  34.523  32.201  1.00  0.00     0.251 C 
ATOM     47  H   UNL A   1      32.893  36.021  30.883  1.00  0.00     0.163 HD
ATOM     48  O   UNL A   1      32.444  34.176  32.784  1.00  0.00    -0.269 OA
BRANCH  46  49
ATOM     49  C   UNL A   1      34.788  34.323  32.789  1.00  0.00     0.039 A 
ATOM     50  C   UNL A   1      35.797  35.255  32.522  1.00  0.00     0.014 A 
ATOM     51  C   UNL A   1      35.080  33.106  33.397  1.00  0.00     0.014 A 
ATOM     52  C   UNL A   1      37.131  34.890  32.712  1.00  0.00     0.010 A 
ATOM     53  C   UNL A   1      36.393  32.705  33.475  1.00  0.00     0.010 A 
ATOM     54  C   UNL A   1      37.419  33.584  33.101  1.00  0.00    -0.014 A 
BRANCH  54  55
ATOM     55  C   UNL A   1      38.742  32.978  33.120  1.00  0.00     0.031 A 
ATOM     56  C   UNL A   1      38.991  31.754  32.332  1.00  0.00     0.074 A 
ATOM     57  C   UNL A   1      39.768  33.670  33.659  1.00  0.00     0.049 A 
ATOM     58  N   UNL A   1      40.087  31.078  32.361  1.00  0.00    -0.248 NA
ATOM     59  C   UNL A   1      37.969  31.143  31.487  1.00  0.00     0.031 C 
ATOM     60  C   UNL A   1      41.192  33.508  33.391  1.00  0.00     0.029 A 
ATOM     61  N   UNL A   1      39.726  34.536  34.749  1.00  0.00    -0.354 N 
ATOM     62  C   UNL A   1      40.040  30.158  31.339  1.00  0.00     0.074 A 
ATOM     63  C   UNL A   1      38.660  30.143  30.932  1.00  0.00     0.031 C 
ATOM     64  C   UNL A   1      41.883  33.991  34.435  1.00  0.00     0.029 A 
ATOM     65  C   UNL A   1      40.914  34.331  35.465  1.00  0.00     0.049 A 
ATOM     66  H   UNL A   1      39.005  35.169  34.971  1.00  0.00     0.167 HD
ATOM     67  C   UNL A   1      41.217  29.641  30.879  1.00  0.00     0.037 A 
ATOM     68  C   UNL A   1      40.967  33.913  36.761  1.00  0.00     0.037 A 
ATOM     69  C   UNL A   1      42.295  29.928  31.836  1.00  0.00     0.049 A 
ATOM     70  C   UNL A   1      41.726  32.611  36.885  1.00  0.00     0.074 A 
ATOM     71  C   UNL A   1      43.347  30.829  31.844  1.00  0.00     0.029 A 
ATOM     72  N   UNL A   1      42.197  29.434  33.139  1.00  0.00    -0.354 N 
ATOM     73  N   UNL A   1      41.936  31.808  35.874  1.00  0.00    -0.248 NA
ATOM     74  C   UNL A   1      42.328  32.120  38.118  1.00  0.00     0.031 C 
ATOM     75  C   UNL A   1      43.793  30.965  33.188  1.00  0.00     0.029 A 
ATOM     76  C   UNL A   1      43.053  30.108  33.989  1.00  0.00     0.049 A 
ATOM     77  H   UNL A   1      41.598  28.702  33.415  1.00  0.00     0.167 HD
ATOM     78  C   UNL A   1      42.705  30.751  36.276  1.00  0.00     0.074 A 
ATOM     79  C   UNL A   1      42.913  30.983  37.695  1.00  0.00     0.031 C 
ATOM     80  C   UNL A   1      43.120  29.778  35.410  1.00  0.00     0.037 A 
BRANCH  67  81
ATOM     81  C   UNL A   1      41.452  29.087  29.474  1.00  0.00     0.058 A 
ATOM     82  C   UNL A   1      40.943  27.815  29.112  1.00  0.00     0.135 A 
ATOM     83  C   UNL A   1      42.260  29.676  28.473  1.00  0.00     0.135 A 
ATOM     84  F   UNL A   1      40.153  27.122  29.944  1.00  0.00    -0.206 F 
ATOM     85  C   UNL A   1      41.243  27.179  27.898  1.00  0.00     0.059 A 
ATOM     86  C   UNL A   1      42.552  29.073  27.247  1.00  0.00     0.059 A 
ATOM     87  F   UNL A   1      42.855  30.859  28.625  1.00  0.00    -0.206 F 
ATOM     88  C   UNL A   1      42.059  27.813  26.971  1.00  0.00     0.060 A 
BRANCH  88  89
ATOM     89  S   UNL A   1      42.482  26.991  25.425  1.00  0.00     0.124 S 
ATOM     90  O   UNL A   1      41.341  26.102  25.233  1.00  0.00    -0.237 OA
ATOM     91  O   UNL A   1      42.583  28.109  24.495  1.00  0.00    -0.237 OA
ATOM     92  O   UNL A   1      43.744  26.321  25.729  1.00  0.00    -0.744 OA
ENDBRANCH  88  89
ENDBRANCH  67  81
BRANCH  68  93
ATOM     93  C   UNL A   1      39.819  34.381  37.589  1.00  0.00     0.058 A 
ATOM     94  C   UNL A   1      38.812  33.428  37.850  1.00  0.00     0.135 A 
ATOM     95  C   UNL A   1      39.974  35.428  38.511  1.00  0.00     0.135 A 
ATOM     96  F   UNL A   1      38.595  32.431  36.979  1.00  0.00    -0.206 F 
ATOM     97  C   UNL A   1      38.156  33.377  39.076  1.00  0.00     0.059 A 
ATOM     98  C   UNL A   1      39.314  35.401  39.744  1.00  0.00     0.059 A 
ATOM     99  F   UNL A   1      40.917  36.360  38.322  1.00  0.00    -0.206 F 
ATOM    100  C   UNL A   1      38.485  34.318  40.047  1.00  0.00     0.060 A 
BRANCH 100 101
ATOM    101  S   UNL A   1      37.989  33.983  41.760  1.00  0.00     0.124 S 
ATOM    102  O   UNL A   1      39.241  33.543  42.363  1.00  0.00    -0.237 OA
ATOM    103  O   UNL A   1      37.500  35.294  42.188  1.00  0.00    -0.237 OA
ATOM    104  O   UNL A   1      36.965  32.957  41.608  1.00  0.00    -0.744 OA
ENDBRANCH 100 101
ENDBRANCH  68  93
BRANCH  80 105
ATOM    105  C   UNL A   1      43.719  28.456  35.822  1.00  0.00     0.058 A 
ATOM    106  C   UNL A   1      45.092  28.165  35.731  1.00  0.00     0.135 A 
ATOM    107  C   UNL A   1      42.931  27.488  36.491  1.00  0.00     0.135 A 
ATOM    108  F   UNL A   1      45.960  29.047  35.215  1.00  0.00    -0.206 F 
ATOM    109  C   UNL A   1      45.636  26.974  36.214  1.00  0.00     0.059 A 
ATOM    110  C   UNL A   1      43.464  26.322  37.031  1.00  0.00     0.059 A 
ATOM    111  F   UNL A   1      41.611  27.656  36.660  1.00  0.00    -0.206 F 
ATOM    112  C   UNL A   1      44.816  26.061  36.868  1.00  0.00     0.060 A 
BRANCH 112 113
ATOM    113  S   UNL A   1      45.526  24.562  37.571  1.00  0.00     0.124 S 
ATOM    114  O   UNL A   1      46.944  24.900  37.605  1.00  0.00    -0.237 OA
ATOM    115  O   UNL A   1      44.868  24.469  38.872  1.00  0.00    -0.237 OA
ATOM    116  O   UNL A   1      45.141  23.532  36.610  1.00  0.00    -0.744 OA
ENDBRANCH 112 113
ENDBRANCH  80 105
ENDBRANCH  54  55
ENDBRANCH  46  49
ENDBRANCH  44  45
ENDBRANCH  43  44
ENDBRANCH   1  43
TORSDOF 20
ENDMDL
MODEL 3
REMARK VINA RESULT:     -12.7      3.121      9.522
REMARK SMILES Cc1ccccc1C(=O)Nc1cc(C(=O)NCCCCNC(=O)c2ccc(-c3c4nc(c(-c5c(F)cc(S(=O)(=O)[O-])cc5F)c5ccc([nH]5)c(-c5c(F)cc(S(=O)(=O)[O-])cc5F)c5nc(c(-c6c(F)cc(S(=O)(=O)[O-])cc6F)c6ccc3[nH]6)C=C5)C=C4)cc2)ccc1N1CC[NH+](CC(=O)Nc2ccc(F)cc2)CC1
REMARK SMILES IDX 18 1 17 2 16 3 14 4 15 5 13 7 11 8 12 9 92 10 91 11 90 12
REMARK SMILES IDX 10 13 8 14 9 15 7 17 1 18 2 19 3 20 4 21 6 22 5 23 93 24
REMARK SMILES IDX 94 25 109 26 95 27 108 28 96 29 97 31 98 32 99 33 100 34
REMARK SMILES IDX 101 36 102 37 107 38 103 39 106 40 104 41 105 42 19 43 20 44
REMARK SMILES IDX 21 45 22 46 23 48 24 49 25 50 89 51 26 52 88 53 27 54 28 55
REMARK SMILES IDX 29 56 82 57 30 58 87 59 81 60 83 61 31 62 86 63 80 64 79 65
REMARK SMILES IDX 32 67 66 68 45 69 65 70 46 71 49 72 64 73 84 74 47 75 48 76
REMARK SMILES IDX 63 78 85 79 50 80 33 81 34 82 43 83 35 84 36 85 42 86 44 87
REMARK SMILES IDX 37 88 38 89 39 90 40 91 41 92 67 93 68 94 77 95 69 96 70 97
REMARK SMILES IDX 76 98 78 99 71 100 72 101 73 102 74 103 75 104 51 105 52 106
REMARK SMILES IDX 61 107 53 108 54 109 60 110 62 111 55 112 56 113 57 114
REMARK SMILES IDX 58 115 59 116
REMARK H PARENT 16 6 10 16 96 30 100 35 21 47 83 66 49 77
REMARK Flexibility Score: inf
ROOT
ATOM      1  C   UNL A   1      35.138  32.151  27.866  1.00  0.00     0.023 C 
ENDROOT
BRANCH   1   2
ATOM      2  C   UNL A   1      34.014  31.099  27.802  1.00  0.00     0.116 C 
BRANCH   2   3
ATOM      3  N   UNL A   1      32.853  31.533  27.032  1.00  0.00    -0.352 N 
ATOM      4  C   UNL A   1      31.846  30.872  26.365  1.00  0.00     0.251 C 
ATOM      5  O   UNL A   1      30.941  31.561  25.890  1.00  0.00    -0.269 OA
ATOM      6  H   UNL A   1      32.772  32.513  26.979  1.00  0.00     0.163 HD
BRANCH   4   7
ATOM      7  C   UNL A   1      31.768  29.389  26.192  1.00  0.00     0.042 A 
ATOM      8  C   UNL A   1      31.717  27.374  24.848  1.00  0.00     0.065 A 
ATOM      9  C   UNL A   1      31.673  28.762  24.967  1.00  0.00     0.042 A 
ATOM     10  C   UNL A   1      31.747  26.506  25.971  1.00  0.00     0.061 A 
ATOM     11  C   UNL A   1      31.769  27.152  27.216  1.00  0.00     0.029 A 
ATOM     12  C   UNL A   1      31.808  28.561  27.325  1.00  0.00     0.016 A 
BRANCH   8  13
ATOM     13  N   UNL A   1      31.738  26.866  23.542  1.00  0.00    -0.320 N 
ATOM     14  C   UNL A   1      31.004  27.329  22.459  1.00  0.00     0.255 C 
ATOM     15  O   UNL A   1      31.387  27.027  21.325  1.00  0.00    -0.269 OA
ATOM     16  H   UNL A   1      32.336  26.102  23.375  1.00  0.00     0.170 HD
BRANCH  14  17
ATOM     17  C   UNL A   1      29.783  28.171  22.597  1.00  0.00     0.043 A 
ATOM     18  C   UNL A   1      28.244  26.545  23.913  1.00  0.00     0.045 C 
ATOM     19  C   UNL A   1      28.551  27.830  23.202  1.00  0.00    -0.038 A 
ATOM     20  C   UNL A   1      27.491  28.761  23.154  1.00  0.00     0.004 A 
ATOM     21  C   UNL A   1      27.667  30.020  22.589  1.00  0.00     0.000 A 
ATOM     22  C   UNL A   1      29.955  29.459  22.071  1.00  0.00     0.014 A 
ATOM     23  C   UNL A   1      28.905  30.369  22.065  1.00  0.00     0.001 A 
ENDBRANCH  14  17
ENDBRANCH   8  13
BRANCH  10  24
ATOM     24  N   UNL A   1      31.822  25.122  25.853  1.00  0.00    -0.359 N 
ATOM     25  C   UNL A   1      30.944  24.163  26.567  1.00  0.00     0.178 C 
ATOM     26  C   UNL A   1      33.094  24.495  25.504  1.00  0.00     0.178 C 
ATOM     27  C   UNL A   1      31.003  22.700  25.951  1.00  0.00     0.284 C 
ATOM     28  C   UNL A   1      32.787  23.379  24.508  1.00  0.00     0.284 C 
ATOM     29  N   UNL A   1      32.208  22.240  25.213  1.00  0.00    -0.324 N 
ATOM     30  H   UNL A   1      31.862  21.534  24.565  1.00  0.00     0.348 HD
BRANCH  29  31
ATOM     31  C   UNL A   1      33.220  21.430  25.934  1.00  0.00     0.364 C 
BRANCH  31  32
ATOM     32  C   UNL A   1      34.129  20.511  25.118  1.00  0.00     0.279 C 
ATOM     33  O   UNL A   1      33.677  19.435  24.694  1.00  0.00    -0.268 OA
ATOM     34  N   UNL A   1      35.412  20.806  24.744  1.00  0.00    -0.321 N 
ATOM     35  H   UNL A   1      35.701  20.241  23.992  1.00  0.00     0.170 HD
BRANCH  34  36
ATOM     36  C   UNL A   1      36.442  21.694  25.136  1.00  0.00     0.041 A 
ATOM     37  C   UNL A   1      37.707  21.119  25.352  1.00  0.00     0.029 A 
ATOM     38  C   UNL A   1      36.295  23.046  25.434  1.00  0.00     0.029 A 
ATOM     39  C   UNL A   1      38.771  21.861  25.884  1.00  0.00     0.041 A 
ATOM     40  C   UNL A   1      37.338  23.781  26.022  1.00  0.00     0.041 A 
ATOM     41  C   UNL A   1      38.569  23.184  26.238  1.00  0.00     0.123 A 
ATOM     42  F   UNL A   1      39.569  23.889  26.781  1.00  0.00    -0.207 F 
ENDBRANCH  34  36
ENDBRANCH  31  32
ENDBRANCH  29  31
ENDBRANCH  10  24
ENDBRANCH   4   7
ENDBRANCH   2   3
ENDBRANCH   1   2
BRANCH   1  43
ATOM     43  C   UNL A   1      34.645  33.597  27.937  1.00  0.00     0.023 C 
BRANCH  43  44
ATOM     44  C   UNL A   1      33.890  33.893  29.222  1.00  0.00     0.116 C 
BRANCH  44  45
ATOM     45  N   UNL A   1      34.530  34.831  30.128  1.00  0.00    -0.352 N 
ATOM     46  C   UNL A   1      35.129  34.410  31.321  1.00  0.00     0.251 C 
ATOM     47  H   UNL A   1      34.544  35.788  29.895  1.00  0.00     0.163 HD
ATOM     48  O   UNL A   1      34.901  34.887  32.401  1.00  0.00    -0.269 OA
BRANCH  46  49
ATOM     49  C   UNL A   1      36.162  33.354  31.146  1.00  0.00     0.039 A 
ATOM     50  C   UNL A   1      36.086  32.187  31.914  1.00  0.00     0.014 A 
ATOM     51  C   UNL A   1      37.297  33.645  30.396  1.00  0.00     0.014 A 
ATOM     52  C   UNL A   1      37.225  31.394  32.064  1.00  0.00     0.010 A 
ATOM     53  C   UNL A   1      38.447  32.931  30.636  1.00  0.00     0.010 A 
ATOM     54  C   UNL A   1      38.421  31.825  31.495  1.00  0.00    -0.014 A 
BRANCH  54  55
ATOM     55  C   UNL A   1      39.734  31.249  31.746  1.00  0.00     0.031 A 
ATOM     56  C   UNL A   1      40.082  29.946  31.141  1.00  0.00     0.074 A 
ATOM     57  C   UNL A   1      40.683  32.016  32.322  1.00  0.00     0.049 A 
ATOM     58  N   UNL A   1      41.169  29.298  31.382  1.00  0.00    -0.248 NA
ATOM     59  C   UNL A   1      39.174  29.225  30.254  1.00  0.00     0.031 C 
ATOM     60  C   UNL A   1      42.131  31.849  32.250  1.00  0.00     0.029 A 
ATOM     61  N   UNL A   1      40.505  33.001  33.290  1.00  0.00    -0.354 N 
ATOM     62  C   UNL A   1      41.251  28.266  30.475  1.00  0.00     0.074 A 
ATOM     63  C   UNL A   1      39.932  28.181  29.908  1.00  0.00     0.031 C 
ATOM     64  C   UNL A   1      42.686  32.461  33.308  1.00  0.00     0.029 A 
ATOM     65  C   UNL A   1      41.596  32.900  34.164  1.00  0.00     0.049 A 
ATOM     66  H   UNL A   1      39.760  33.642  33.348  1.00  0.00     0.167 HD
ATOM     67  C   UNL A   1      42.477  27.720  30.226  1.00  0.00     0.037 A 
ATOM     68  C   UNL A   1      41.490  32.634  35.497  1.00  0.00     0.037 A 
ATOM     69  C   UNL A   1      43.428  28.135  31.268  1.00  0.00     0.049 A 
ATOM     70  C   UNL A   1      42.233  31.369  35.863  1.00  0.00     0.074 A 
ATOM     71  C   UNL A   1      44.468  29.049  31.298  1.00  0.00     0.029 A 
ATOM     72  N   UNL A   1      43.172  27.791  32.597  1.00  0.00    -0.354 N 
ATOM     73  N   UNL A   1      42.568  30.459  34.986  1.00  0.00    -0.248 NA
ATOM     74  C   UNL A   1      42.680  31.033  37.209  1.00  0.00     0.031 C 
ATOM     75  C   UNL A   1      44.745  29.345  32.662  1.00  0.00     0.029 A 
ATOM     76  C   UNL A   1      43.914  28.574  33.460  1.00  0.00     0.049 A 
ATOM     77  H   UNL A   1      42.546  27.086  32.881  1.00  0.00     0.167 HD
ATOM     78  C   UNL A   1      43.285  29.468  35.598  1.00  0.00     0.074 A 
ATOM     79  C   UNL A   1      43.316  29.865  36.995  1.00  0.00     0.031 C 
ATOM     80  C   UNL A   1      43.806  28.410  34.908  1.00  0.00     0.037 A 
BRANCH  67  81
ATOM     81  C   UNL A   1      42.885  27.013  28.933  1.00  0.00     0.058 A 
ATOM     82  C   UNL A   1      42.288  25.779  28.575  1.00  0.00     0.135 A 
ATOM     83  C   UNL A   1      43.928  27.408  28.064  1.00  0.00     0.135 A 
ATOM     84  F   UNL A   1      41.279  25.262  29.290  1.00  0.00    -0.206 F 
ATOM     85  C   UNL A   1      42.715  25.001  27.487  1.00  0.00     0.059 A 
ATOM     86  C   UNL A   1      44.353  26.663  26.961  1.00  0.00     0.059 A 
ATOM     87  F   UNL A   1      44.635  28.525  28.240  1.00  0.00    -0.206 F 
ATOM     88  C   UNL A   1      43.758  25.447  26.688  1.00  0.00     0.060 A 
BRANCH  88  89
ATOM     89  S   UNL A   1      44.340  24.440  25.313  1.00  0.00     0.124 S 
ATOM     90  O   UNL A   1      43.090  24.082  24.649  1.00  0.00    -0.237 OA
ATOM     91  O   UNL A   1      45.204  25.367  24.591  1.00  0.00    -0.237 OA
ATOM     92  O   UNL A   1      45.031  23.332  25.969  1.00  0.00    -0.744 OA
ENDBRANCH  88  89
ENDBRANCH  67  81
BRANCH  68  93
ATOM     93  C   UNL A   1      40.248  33.174  36.119  1.00  0.00     0.058 A 
ATOM     94  C   UNL A   1      39.176  32.267  36.254  1.00  0.00     0.135 A 
ATOM     95  C   UNL A   1      40.299  34.253  37.016  1.00  0.00     0.135 A 
ATOM     96  F   UNL A   1      39.057  31.242  35.396  1.00  0.00    -0.206 F 
ATOM     97  C   UNL A   1      38.337  32.288  37.364  1.00  0.00     0.059 A 
ATOM     98  C   UNL A   1      39.457  34.298  38.132  1.00  0.00     0.059 A 
ATOM     99  F   UNL A   1      41.297  35.144  36.942  1.00  0.00    -0.206 F 
ATOM    100  C   UNL A   1      38.549  33.257  38.340  1.00  0.00     0.060 A 
BRANCH 100 101
ATOM    101  S   UNL A   1      37.782  33.010  39.966  1.00  0.00     0.124 S 
ATOM    102  O   UNL A   1      36.378  32.830  39.619  1.00  0.00    -0.237 OA
ATOM    103  O   UNL A   1      38.480  31.816  40.444  1.00  0.00    -0.237 OA
ATOM    104  O   UNL A   1      38.107  34.244  40.671  1.00  0.00    -0.744 OA
ENDBRANCH 100 101
ENDBRANCH  68  93
BRANCH  80 105
ATOM    105  C   UNL A   1      44.355  27.155  35.541  1.00  0.00     0.058 A 
ATOM    106  C   UNL A   1      45.727  26.923  35.740  1.00  0.00     0.135 A 
ATOM    107  C   UNL A   1      43.482  26.207  36.128  1.00  0.00     0.135 A 
ATOM    108  F   UNL A   1      46.652  27.801  35.326  1.00  0.00    -0.206 F 
ATOM    109  C   UNL A   1      46.204  25.801  36.421  1.00  0.00     0.059 A 
ATOM    110  C   UNL A   1      43.935  25.113  36.859  1.00  0.00     0.059 A 
ATOM    111  F   UNL A   1      42.150  26.325  36.025  1.00  0.00    -0.206 F 
ATOM    112  C   UNL A   1      45.301  24.905  36.982  1.00  0.00     0.060 A 
BRANCH 112 113
ATOM    113  S   UNL A   1      45.906  23.501  37.936  1.00  0.00     0.124 S 
ATOM    114  O   UNL A   1      45.169  23.659  39.184  1.00  0.00    -0.237 OA
ATOM    115  O   UNL A   1      45.516  22.357  37.115  1.00  0.00    -0.237 OA
ATOM    116  O   UNL A   1      47.343  23.746  38.009  1.00  0.00    -0.744 OA
ENDBRANCH 112 113
ENDBRANCH  80 105
ENDBRANCH  54  55
ENDBRANCH  46  49
ENDBRANCH  44  45
ENDBRANCH  43  44
ENDBRANCH   1  43
TORSDOF 20
ENDMDL
