MODEL 1
REMARK VINA RESULT:     -10.9      0.000      0.000
REMARK SMILES CC(C)(Cn1cccc1C[NH3+])C(=O)NCCCCNC(=O)c1ccc(-c2c3nc(c(-c4c(F)cc(S(=O)(=O)[O-])cc4F)c4ccc([nH]4)c(-c4c(F)cc(S(=O)(=O)[O-])cc4F)c4nc(c(-c5c(F)cc(S(=O)(=O)[O-])cc5F)c5ccc2[nH]5)C=C4)C=C3)cc1
REMARK SMILES IDX 16 1 15 2 14 3 12 4 13 5 2 7 1 8 3 9 4 10 5 11 6 12 9 13
REMARK SMILES IDX 7 14 8 15 10 16 11 17 17 21 18 22 19 23 20 24 21 26 22 27
REMARK SMILES IDX 23 28 87 29 24 30 86 31 25 32 26 33 27 34 80 35 28 36 85 37
REMARK SMILES IDX 79 38 81 39 29 40 84 41 78 42 77 43 30 45 64 46 43 47 63 48
REMARK SMILES IDX 44 49 47 50 62 51 82 52 45 53 46 54 61 56 83 57 48 58 31 59
REMARK SMILES IDX 32 60 41 61 33 62 34 63 40 64 42 65 35 66 36 67 37 68 38 69
REMARK SMILES IDX 39 70 65 71 66 72 75 73 67 74 68 75 74 76 76 77 69 78 70 79
REMARK SMILES IDX 71 80 72 81 73 82 49 83 50 84 59 85 51 86 52 87 58 88 60 89
REMARK SMILES IDX 53 90 54 91 55 92 56 93 57 94
REMARK H PARENT 14 6 11 18 11 19 11 20 19 25 81 44 47 55
REMARK Flexibility Score: inf
ROOT
ATOM      1  C   UNL A   1      34.926  23.004  25.609  1.00  0.00     0.023 C 
ENDROOT
BRANCH   1   2
ATOM      2  C   UNL A   1      33.498  22.670  25.176  1.00  0.00     0.116 C 
BRANCH   2   3
ATOM      3  N   UNL A   1      32.521  22.919  26.221  1.00  0.00    -0.356 N 
ATOM      4  C   UNL A   1      31.493  23.805  26.355  1.00  0.00     0.227 C 
ATOM      5  O   UNL A   1      30.834  23.709  27.394  1.00  0.00    -0.274 OA
ATOM      6  H   UNL A   1      32.621  22.322  26.997  1.00  0.00     0.163 HD
BRANCH   4   7
ATOM      7  C   UNL A   1      31.154  24.868  25.294  1.00  0.00     0.061 C 
ATOM      8  C   UNL A   1      29.856  25.608  25.708  1.00  0.00     0.023 C 
ATOM      9  C   UNL A   1      30.821  24.169  23.959  1.00  0.00     0.023 C 
BRANCH   7  10
ATOM     10  C   UNL A   1      32.295  25.901  25.126  1.00  0.00     0.138 C 
BRANCH  10  11
ATOM     11  N   UNL A   1      31.876  27.287  24.929  1.00  0.00    -0.346 N 
ATOM     12  C   UNL A   1      31.336  27.755  23.752  1.00  0.00     0.086 A 
ATOM     13  C   UNL A   1      31.907  28.322  25.847  1.00  0.00     0.073 A 
ATOM     14  C   UNL A   1      31.127  29.107  23.868  1.00  0.00     0.020 A 
ATOM     15  C   UNL A   1      31.481  29.464  25.183  1.00  0.00     0.029 A 
BRANCH  13  16
ATOM     16  C   UNL A   1      32.327  28.211  27.274  1.00  0.00     0.314 C 
BRANCH  16  17
ATOM     17  N   UNL A   1      31.167  27.940  28.107  1.00  0.00    -0.353 N 
ATOM     18  H   UNL A   1      30.911  26.956  28.023  1.00  0.00     0.344 HD
ATOM     19  H   UNL A   1      30.386  28.520  27.801  1.00  0.00     0.344 HD
ATOM     20  H   UNL A   1      31.389  28.152  29.079  1.00  0.00     0.344 HD
ENDBRANCH  16  17
ENDBRANCH  13  16
ENDBRANCH  10  11
ENDBRANCH   7  10
ENDBRANCH   4   7
ENDBRANCH   2   3
ENDBRANCH   1   2
BRANCH   1  21
ATOM     21  C   UNL A   1      36.034  22.321  24.795  1.00  0.00     0.023 C 
BRANCH  21  22
ATOM     22  C   UNL A   1      37.400  23.009  24.875  1.00  0.00     0.116 C 
BRANCH  22  23
ATOM     23  N   UNL A   1      38.398  22.123  25.452  1.00  0.00    -0.352 N 
ATOM     24  C   UNL A   1      39.574  22.411  26.095  1.00  0.00     0.251 C 
ATOM     25  H   UNL A   1      38.197  21.163  25.367  1.00  0.00     0.163 HD
ATOM     26  O   UNL A   1      40.431  21.533  26.158  1.00  0.00    -0.269 OA
BRANCH  24  27
ATOM     27  C   UNL A   1      39.848  23.736  26.698  1.00  0.00     0.039 A 
ATOM     28  C   UNL A   1      39.104  24.098  27.829  1.00  0.00     0.014 A 
ATOM     29  C   UNL A   1      40.729  24.659  26.122  1.00  0.00     0.014 A 
ATOM     30  C   UNL A   1      39.288  25.346  28.420  1.00  0.00     0.010 A 
ATOM     31  C   UNL A   1      40.921  25.911  26.715  1.00  0.00     0.010 A 
ATOM     32  C   UNL A   1      40.223  26.242  27.883  1.00  0.00    -0.014 A 
BRANCH  32  33
ATOM     33  C   UNL A   1      40.643  27.397  28.722  1.00  0.00     0.031 A 
ATOM     34  C   UNL A   1      41.905  27.023  29.555  1.00  0.00     0.074 A 
ATOM     35  C   UNL A   1      39.873  28.533  28.689  1.00  0.00     0.049 A 
ATOM     36  N   UNL A   1      42.289  27.431  30.726  1.00  0.00    -0.248 NA
ATOM     37  C   UNL A   1      42.830  25.964  29.050  1.00  0.00     0.031 C 
ATOM     38  C   UNL A   1      38.717  28.744  27.785  1.00  0.00     0.029 A 
ATOM     39  N   UNL A   1      39.882  29.735  29.379  1.00  0.00    -0.354 N 
ATOM     40  C   UNL A   1      43.564  26.865  30.993  1.00  0.00     0.074 A 
ATOM     41  C   UNL A   1      43.780  25.876  29.986  1.00  0.00     0.031 C 
ATOM     42  C   UNL A   1      38.103  29.923  28.039  1.00  0.00     0.029 A 
ATOM     43  C   UNL A   1      38.790  30.618  29.112  1.00  0.00     0.049 A 
ATOM     44  H   UNL A   1      40.597  29.966  30.016  1.00  0.00     0.167 HD
ATOM     45  C   UNL A   1      44.413  27.351  31.952  1.00  0.00     0.037 A 
ATOM     46  C   UNL A   1      38.443  31.794  29.738  1.00  0.00     0.037 A 
ATOM     47  C   UNL A   1      43.788  28.450  32.602  1.00  0.00     0.049 A 
ATOM     48  C   UNL A   1      39.559  32.074  30.650  1.00  0.00     0.074 A 
ATOM     49  C   UNL A   1      42.743  28.525  33.482  1.00  0.00     0.029 A 
ATOM     50  N   UNL A   1      44.025  29.688  32.056  1.00  0.00    -0.354 N 
ATOM     51  N   UNL A   1      40.730  32.502  30.289  1.00  0.00    -0.248 NA
ATOM     52  C   UNL A   1      39.382  31.765  32.077  1.00  0.00     0.031 C 
ATOM     53  C   UNL A   1      42.062  29.680  33.054  1.00  0.00     0.029 A 
ATOM     54  C   UNL A   1      42.850  30.386  32.136  1.00  0.00     0.049 A 
ATOM     55  H   UNL A   1      44.875  30.011  31.680  1.00  0.00     0.167 HD
ATOM     56  C   UNL A   1      41.497  32.184  31.380  1.00  0.00     0.074 A 
ATOM     57  C   UNL A   1      40.599  32.077  32.509  1.00  0.00     0.031 C 
ATOM     58  C   UNL A   1      42.637  31.468  31.206  1.00  0.00     0.037 A 
BRANCH  45  59
ATOM     59  C   UNL A   1      45.879  27.158  32.264  1.00  0.00     0.058 A 
ATOM     60  C   UNL A   1      46.816  27.542  31.266  1.00  0.00     0.135 A 
ATOM     61  C   UNL A   1      46.367  26.306  33.263  1.00  0.00     0.135 A 
ATOM     62  F   UNL A   1      46.482  28.428  30.311  1.00  0.00    -0.206 F 
ATOM     63  C   UNL A   1      48.080  26.976  31.158  1.00  0.00     0.059 A 
ATOM     64  C   UNL A   1      47.658  25.762  33.203  1.00  0.00     0.059 A 
ATOM     65  F   UNL A   1      45.585  25.915  34.278  1.00  0.00    -0.206 F 
ATOM     66  C   UNL A   1      48.479  26.051  32.112  1.00  0.00     0.060 A 
BRANCH  66  67
ATOM     67  S   UNL A   1      50.067  25.225  31.879  1.00  0.00     0.124 S 
ATOM     68  O   UNL A   1      51.002  26.236  32.359  1.00  0.00    -0.237 OA
ATOM     69  O   UNL A   1      49.928  24.043  32.725  1.00  0.00    -0.237 OA
ATOM     70  O   UNL A   1      50.098  24.957  30.444  1.00  0.00    -0.744 OA
ENDBRANCH  66  67
ENDBRANCH  45  59
BRANCH  46  71
ATOM     71  C   UNL A   1      37.259  32.756  29.840  1.00  0.00     0.058 A 
ATOM     72  C   UNL A   1      37.222  34.091  29.415  1.00  0.00     0.135 A 
ATOM     73  C   UNL A   1      35.995  32.278  30.308  1.00  0.00     0.135 A 
ATOM     74  F   UNL A   1      38.349  34.745  29.111  1.00  0.00    -0.206 F 
ATOM     75  C   UNL A   1      36.011  34.813  29.288  1.00  0.00     0.059 A 
ATOM     76  C   UNL A   1      34.784  32.944  30.140  1.00  0.00     0.059 A 
ATOM     77  F   UNL A   1      35.867  31.106  30.946  1.00  0.00    -0.206 F 
ATOM     78  C   UNL A   1      34.791  34.205  29.587  1.00  0.00     0.060 A 
BRANCH  78  79
ATOM     79  S   UNL A   1      33.215  34.972  29.142  1.00  0.00     0.124 S 
ATOM     80  O   UNL A   1      33.637  36.271  28.632  1.00  0.00    -0.237 OA
ATOM     81  O   UNL A   1      32.682  34.040  28.152  1.00  0.00    -0.237 OA
ATOM     82  O   UNL A   1      32.488  34.999  30.408  1.00  0.00    -0.744 OA
ENDBRANCH  78  79
ENDBRANCH  46  71
BRANCH  58  83
ATOM     83  C   UNL A   1      43.333  31.658  29.874  1.00  0.00     0.058 A 
ATOM     84  C   UNL A   1      43.877  32.912  29.554  1.00  0.00     0.135 A 
ATOM     85  C   UNL A   1      43.436  30.671  28.878  1.00  0.00     0.135 A 
ATOM     86  F   UNL A   1      43.818  33.912  30.448  1.00  0.00    -0.206 F 
ATOM     87  C   UNL A   1      44.502  33.166  28.330  1.00  0.00     0.059 A 
ATOM     88  C   UNL A   1      44.060  30.895  27.645  1.00  0.00     0.059 A 
ATOM     89  F   UNL A   1      42.926  29.455  29.075  1.00  0.00    -0.206 F 
ATOM     90  C   UNL A   1      44.598  32.148  27.382  1.00  0.00     0.060 A 
BRANCH  90  91
ATOM     91  S   UNL A   1      45.451  32.485  25.823  1.00  0.00     0.124 S 
ATOM     92  O   UNL A   1      46.005  31.179  25.478  1.00  0.00    -0.237 OA
ATOM     93  O   UNL A   1      44.359  32.950  24.974  1.00  0.00    -0.237 OA
ATOM     94  O   UNL A   1      46.439  33.501  26.180  1.00  0.00    -0.744 OA
ENDBRANCH  90  91
ENDBRANCH  58  83
ENDBRANCH  32  33
ENDBRANCH  24  27
ENDBRANCH  22  23
ENDBRANCH  21  22
ENDBRANCH   1  21
TORSDOF 18
ENDMDL
MODEL 2
REMARK VINA RESULT:     -10.5      3.950      9.254
REMARK SMILES CC(C)(Cn1cccc1C[NH3+])C(=O)NCCCCNC(=O)c1ccc(-c2c3nc(c(-c4c(F)cc(S(=O)(=O)[O-])cc4F)c4ccc([nH]4)c(-c4c(F)cc(S(=O)(=O)[O-])cc4F)c4nc(c(-c5c(F)cc(S(=O)(=O)[O-])cc5F)c5ccc2[nH]5)C=C4)C=C3)cc1
REMARK SMILES IDX 16 1 15 2 14 3 12 4 13 5 2 7 1 8 3 9 4 10 5 11 6 12 9 13
REMARK SMILES IDX 7 14 8 15 10 16 11 17 17 21 18 22 19 23 20 24 21 26 22 27
REMARK SMILES IDX 23 28 87 29 24 30 86 31 25 32 26 33 27 34 80 35 28 36 85 37
REMARK SMILES IDX 79 38 81 39 29 40 84 41 78 42 77 43 30 45 64 46 43 47 63 48
REMARK SMILES IDX 44 49 47 50 62 51 82 52 45 53 46 54 61 56 83 57 48 58 31 59
REMARK SMILES IDX 32 60 41 61 33 62 34 63 40 64 42 65 35 66 36 67 37 68 38 69
REMARK SMILES IDX 39 70 65 71 66 72 75 73 67 74 68 75 74 76 76 77 69 78 70 79
REMARK SMILES IDX 71 80 72 81 73 82 49 83 50 84 59 85 51 86 52 87 58 88 60 89
REMARK SMILES IDX 53 90 54 91 55 92 56 93 57 94
REMARK H PARENT 14 6 11 18 11 19 11 20 19 25 81 44 47 55
REMARK Flexibility Score: inf
ROOT
ATOM      1  C   UNL A   1      32.542  29.156  24.755  1.00  0.00     0.023 C 
ENDROOT
BRANCH   1   2
ATOM      2  C   UNL A   1      31.901  27.899  24.166  1.00  0.00     0.116 C 
BRANCH   2   3
ATOM      3  N   UNL A   1      32.594  27.416  22.984  1.00  0.00    -0.356 N 
ATOM      4  C   UNL A   1      33.251  26.259  22.687  1.00  0.00     0.227 C 
ATOM      5  O   UNL A   1      33.704  26.177  21.542  1.00  0.00    -0.274 OA
ATOM      6  H   UNL A   1      32.588  28.059  22.240  1.00  0.00     0.163 HD
BRANCH   4   7
ATOM      7  C   UNL A   1      33.431  25.110  23.696  1.00  0.00     0.061 C 
ATOM      8  C   UNL A   1      32.057  24.760  24.324  1.00  0.00     0.023 C 
ATOM      9  C   UNL A   1      34.308  25.594  24.871  1.00  0.00     0.023 C 
BRANCH   7  10
ATOM     10  C   UNL A   1      34.022  23.844  23.031  1.00  0.00     0.138 C 
BRANCH  10  11
ATOM     11  N   UNL A   1      33.794  22.586  23.739  1.00  0.00    -0.346 N 
ATOM     12  C   UNL A   1      34.592  22.142  24.770  1.00  0.00     0.086 A 
ATOM     13  C   UNL A   1      32.772  21.674  23.543  1.00  0.00     0.073 A 
ATOM     14  C   UNL A   1      34.159  20.899  25.161  1.00  0.00     0.020 A 
ATOM     15  C   UNL A   1      33.015  20.605  24.395  1.00  0.00     0.029 A 
BRANCH  13  16
ATOM     16  C   UNL A   1      31.637  21.827  22.589  1.00  0.00     0.314 C 
BRANCH  16  17
ATOM     17  N   UNL A   1      31.742  20.829  21.536  1.00  0.00    -0.353 N 
ATOM     18  H   UNL A   1      31.897  21.294  20.641  1.00  0.00     0.344 HD
ATOM     19  H   UNL A   1      30.879  20.289  21.493  1.00  0.00     0.344 HD
ATOM     20  H   UNL A   1      32.525  20.206  21.735  1.00  0.00     0.344 HD
ENDBRANCH  16  17
ENDBRANCH  13  16
ENDBRANCH  10  11
ENDBRANCH   7  10
ENDBRANCH   4   7
ENDBRANCH   2   3
ENDBRANCH   1   2
BRANCH   1  21
ATOM     21  C   UNL A   1      32.278  29.387  26.250  1.00  0.00     0.023 C 
BRANCH  21  22
ATOM     22  C   UNL A   1      33.535  29.404  27.124  1.00  0.00     0.116 C 
BRANCH  22  23
ATOM     23  N   UNL A   1      33.691  30.687  27.790  1.00  0.00    -0.352 N 
ATOM     24  C   UNL A   1      34.650  31.120  28.669  1.00  0.00     0.251 C 
ATOM     25  H   UNL A   1      32.996  31.351  27.575  1.00  0.00     0.163 HD
ATOM     26  O   UNL A   1      34.385  32.079  29.390  1.00  0.00    -0.269 OA
BRANCH  24  27
ATOM     27  C   UNL A   1      35.975  30.468  28.787  1.00  0.00     0.039 A 
ATOM     28  C   UNL A   1      36.797  30.465  27.652  1.00  0.00     0.014 A 
ATOM     29  C   UNL A   1      36.374  29.776  29.936  1.00  0.00     0.014 A 
ATOM     30  C   UNL A   1      38.039  29.835  27.688  1.00  0.00     0.010 A 
ATOM     31  C   UNL A   1      37.622  29.146  29.978  1.00  0.00     0.010 A 
ATOM     32  C   UNL A   1      38.469  29.204  28.863  1.00  0.00    -0.014 A 
BRANCH  32  33
ATOM     33  C   UNL A   1      39.910  28.855  28.980  1.00  0.00     0.031 A 
ATOM     34  C   UNL A   1      40.723  30.092  29.464  1.00  0.00     0.074 A 
ATOM     35  C   UNL A   1      40.301  27.591  28.611  1.00  0.00     0.049 A 
ATOM     36  N   UNL A   1      41.948  30.442  29.214  1.00  0.00    -0.248 NA
ATOM     37  C   UNL A   1      40.041  31.149  30.270  1.00  0.00     0.031 C 
ATOM     38  C   UNL A   1      39.375  26.502  28.217  1.00  0.00     0.029 A 
ATOM     39  N   UNL A   1      41.523  26.949  28.487  1.00  0.00    -0.354 N 
ATOM     40  C   UNL A   1      42.240  31.602  29.980  1.00  0.00     0.074 A 
ATOM     41  C   UNL A   1      40.992  32.057  30.505  1.00  0.00     0.031 C 
ATOM     42  C   UNL A   1      40.054  25.398  27.825  1.00  0.00     0.029 A 
ATOM     43  C   UNL A   1      41.482  25.631  27.935  1.00  0.00     0.049 A 
ATOM     44  H   UNL A   1      42.367  27.373  28.763  1.00  0.00     0.167 HD
ATOM     45  C   UNL A   1      43.517  32.026  30.239  1.00  0.00     0.037 A 
ATOM     46  C   UNL A   1      42.520  24.810  27.553  1.00  0.00     0.037 A 
ATOM     47  C   UNL A   1      44.431  31.142  29.604  1.00  0.00     0.049 A 
ATOM     48  C   UNL A   1      43.731  25.503  28.010  1.00  0.00     0.074 A 
ATOM     49  C   UNL A   1      44.757  30.945  28.290  1.00  0.00     0.029 A 
ATOM     50  N   UNL A   1      44.854  30.071  30.353  1.00  0.00    -0.354 N 
ATOM     51  N   UNL A   1      44.124  25.583  29.245  1.00  0.00    -0.248 NA
ATOM     52  C   UNL A   1      44.522  26.246  27.018  1.00  0.00     0.031 C 
ATOM     53  C   UNL A   1      44.903  29.548  28.214  1.00  0.00     0.029 A 
ATOM     54  C   UNL A   1      44.927  29.000  29.503  1.00  0.00     0.049 A 
ATOM     55  H   UNL A   1      45.064  30.074  31.314  1.00  0.00     0.167 HD
ATOM     56  C   UNL A   1      44.988  26.647  29.199  1.00  0.00     0.074 A 
ATOM     57  C   UNL A   1      45.437  26.764  27.828  1.00  0.00     0.031 C 
ATOM     58  C   UNL A   1      44.824  27.676  30.067  1.00  0.00     0.037 A 
BRANCH  45  59
ATOM     59  C   UNL A   1      44.128  33.007  31.213  1.00  0.00     0.058 A 
ATOM     60  C   UNL A   1      43.941  32.754  32.600  1.00  0.00     0.135 A 
ATOM     61  C   UNL A   1      44.524  34.308  30.877  1.00  0.00     0.135 A 
ATOM     62  F   UNL A   1      43.650  31.518  33.043  1.00  0.00    -0.206 F 
ATOM     63  C   UNL A   1      43.957  33.759  33.559  1.00  0.00     0.059 A 
ATOM     64  C   UNL A   1      44.597  35.327  31.837  1.00  0.00     0.059 A 
ATOM     65  F   UNL A   1      44.773  34.647  29.606  1.00  0.00    -0.206 F 
ATOM     66  C   UNL A   1      44.247  35.055  33.161  1.00  0.00     0.060 A 
BRANCH  66  67
ATOM     67  S   UNL A   1      44.128  36.368  34.395  1.00  0.00     0.124 S 
ATOM     68  O   UNL A   1      43.488  37.434  33.635  1.00  0.00    -0.237 OA
ATOM     69  O   UNL A   1      43.304  35.747  35.429  1.00  0.00    -0.237 OA
ATOM     70  O   UNL A   1      45.519  36.600  34.773  1.00  0.00    -0.744 OA
ENDBRANCH  66  67
ENDBRANCH  45  59
BRANCH  46  71
ATOM     71  C   UNL A   1      42.764  23.539  26.739  1.00  0.00     0.058 A 
ATOM     72  C   UNL A   1      43.271  23.459  25.436  1.00  0.00     0.135 A 
ATOM     73  C   UNL A   1      42.578  22.259  27.351  1.00  0.00     0.135 A 
ATOM     74  F   UNL A   1      43.341  24.548  24.660  1.00  0.00    -0.206 F 
ATOM     75  C   UNL A   1      43.728  22.244  24.873  1.00  0.00     0.059 A 
ATOM     76  C   UNL A   1      43.072  21.059  26.845  1.00  0.00     0.059 A 
ATOM     77  F   UNL A   1      41.914  22.110  28.506  1.00  0.00    -0.206 F 
ATOM     78  C   UNL A   1      43.688  21.063  25.614  1.00  0.00     0.060 A 
BRANCH  78  79
ATOM     79  S   UNL A   1      44.543  19.567  25.062  1.00  0.00     0.124 S 
ATOM     80  O   UNL A   1      45.926  19.849  25.429  1.00  0.00    -0.237 OA
ATOM     81  O   UNL A   1      43.877  18.523  25.835  1.00  0.00    -0.237 OA
ATOM     82  O   UNL A   1      44.267  19.535  23.628  1.00  0.00    -0.744 OA
ENDBRANCH  78  79
ENDBRANCH  46  71
BRANCH  58  83
ATOM     83  C   UNL A   1      44.209  27.314  31.403  1.00  0.00     0.058 A 
ATOM     84  C   UNL A   1      44.883  26.423  32.253  1.00  0.00     0.135 A 
ATOM     85  C   UNL A   1      42.956  27.766  31.854  1.00  0.00     0.135 A 
ATOM     86  F   UNL A   1      46.084  25.941  31.896  1.00  0.00    -0.206 F 
ATOM     87  C   UNL A   1      44.356  26.020  33.483  1.00  0.00     0.059 A 
ATOM     88  C   UNL A   1      42.405  27.383  33.083  1.00  0.00     0.059 A 
ATOM     89  F   UNL A   1      42.225  28.593  31.107  1.00  0.00    -0.206 F 
ATOM     90  C   UNL A   1      43.118  26.512  33.897  1.00  0.00     0.060 A 
BRANCH  90  91
ATOM     91  S   UNL A   1      42.476  26.013  35.512  1.00  0.00     0.124 S 
ATOM     92  O   UNL A   1      43.291  24.844  35.828  1.00  0.00    -0.237 OA
ATOM     93  O   UNL A   1      42.735  27.199  36.322  1.00  0.00    -0.237 OA
ATOM     94  O   UNL A   1      41.065  25.731  35.253  1.00  0.00    -0.744 OA
ENDBRANCH  90  91
ENDBRANCH  58  83
ENDBRANCH  32  33
ENDBRANCH  24  27
ENDBRANCH  22  23
ENDBRANCH  21  22
ENDBRANCH   1  21
TORSDOF 18
ENDMDL
MODEL 3
REMARK VINA RESULT:     -10.4      3.847      8.881
REMARK SMILES CC(C)(Cn1cccc1C[NH3+])C(=O)NCCCCNC(=O)c1ccc(-c2c3nc(c(-c4c(F)cc(S(=O)(=O)[O-])cc4F)c4ccc([nH]4)c(-c4c(F)cc(S(=O)(=O)[O-])cc4F)c4nc(c(-c5c(F)cc(S(=O)(=O)[O-])cc5F)c5ccc2[nH]5)C=C4)C=C3)cc1
REMARK SMILES IDX 16 1 15 2 14 3 12 4 13 5 2 7 1 8 3 9 4 10 5 11 6 12 9 13
REMARK SMILES IDX 7 14 8 15 10 16 11 17 17 21 18 22 19 23 20 24 21 26 22 27
REMARK SMILES IDX 23 28 87 29 24 30 86 31 25 32 26 33 27 34 80 35 28 36 85 37
REMARK SMILES IDX 79 38 81 39 29 40 84 41 78 42 77 43 30 45 64 46 43 47 63 48
REMARK SMILES IDX 44 49 47 50 62 51 82 52 45 53 46 54 61 56 83 57 48 58 31 59
REMARK SMILES IDX 32 60 41 61 33 62 34 63 40 64 42 65 35 66 36 67 37 68 38 69
REMARK SMILES IDX 39 70 65 71 66 72 75 73 67 74 68 75 74 76 76 77 69 78 70 79
REMARK SMILES IDX 71 80 72 81 73 82 49 83 50 84 59 85 51 86 52 87 58 88 60 89
REMARK SMILES IDX 53 90 54 91 55 92 56 93 57 94
REMARK H PARENT 14 6 11 18 11 19 11 20 19 25 81 44 47 55
REMARK Flexibility Score: inf
ROOT
ATOM      1  C   UNL A   1      32.822  29.195  24.793  1.00  0.00     0.023 C 
ENDROOT
BRANCH   1   2
ATOM      2  C   UNL A   1      31.985  28.328  23.851  1.00  0.00     0.116 C 
BRANCH   2   3
ATOM      3  N   UNL A   1      32.783  27.690  22.818  1.00  0.00    -0.356 N 
ATOM      4  C   UNL A   1      33.061  26.391  22.514  1.00  0.00     0.227 C 
ATOM      5  O   UNL A   1      33.771  26.211  21.521  1.00  0.00    -0.274 OA
ATOM      6  H   UNL A   1      33.214  28.331  22.208  1.00  0.00     0.163 HD
BRANCH   4   7
ATOM      7  C   UNL A   1      32.536  25.202  23.340  1.00  0.00     0.061 C 
ATOM      8  C   UNL A   1      33.396  23.948  23.036  1.00  0.00     0.023 C 
ATOM      9  C   UNL A   1      31.109  24.845  22.873  1.00  0.00     0.023 C 
BRANCH   7  10
ATOM     10  C   UNL A   1      32.581  25.490  24.861  1.00  0.00     0.138 C 
BRANCH  10  11
ATOM     11  N   UNL A   1      32.905  24.351  25.717  1.00  0.00    -0.346 N 
ATOM     12  C   UNL A   1      34.151  24.149  26.267  1.00  0.00     0.086 A 
ATOM     13  C   UNL A   1      32.062  23.339  26.139  1.00  0.00     0.073 A 
ATOM     14  C   UNL A   1      34.146  22.956  26.946  1.00  0.00     0.020 A 
ATOM     15  C   UNL A   1      32.835  22.448  26.870  1.00  0.00     0.029 A 
BRANCH  13  16
ATOM     16  C   UNL A   1      30.603  23.240  25.849  1.00  0.00     0.314 C 
BRANCH  16  17
ATOM     17  N   UNL A   1      29.844  23.803  26.954  1.00  0.00    -0.353 N 
ATOM     18  H   UNL A   1      30.462  23.949  27.752  1.00  0.00     0.344 HD
ATOM     19  H   UNL A   1      29.097  23.160  27.216  1.00  0.00     0.344 HD
ATOM     20  H   UNL A   1      29.440  24.695  26.670  1.00  0.00     0.344 HD
ENDBRANCH  16  17
ENDBRANCH  13  16
ENDBRANCH  10  11
ENDBRANCH   7  10
ENDBRANCH   4   7
ENDBRANCH   2   3
ENDBRANCH   1   2
BRANCH   1  21
ATOM     21  C   UNL A   1      32.368  29.193  26.260  1.00  0.00     0.023 C 
BRANCH  21  22
ATOM     22  C   UNL A   1      33.510  29.209  27.280  1.00  0.00     0.116 C 
BRANCH  22  23
ATOM     23  N   UNL A   1      33.700  30.541  27.830  1.00  0.00    -0.352 N 
ATOM     24  C   UNL A   1      34.699  31.037  28.628  1.00  0.00     0.251 C 
ATOM     25  H   UNL A   1      33.000  31.191  27.591  1.00  0.00     0.163 HD
ATOM     26  O   UNL A   1      34.471  32.054  29.278  1.00  0.00    -0.269 OA
BRANCH  24  27
ATOM     27  C   UNL A   1      36.025  30.386  28.743  1.00  0.00     0.039 A 
ATOM     28  C   UNL A   1      36.846  30.388  27.607  1.00  0.00     0.014 A 
ATOM     29  C   UNL A   1      36.426  29.690  29.889  1.00  0.00     0.014 A 
ATOM     30  C   UNL A   1      38.089  29.759  27.639  1.00  0.00     0.010 A 
ATOM     31  C   UNL A   1      37.675  29.062  29.927  1.00  0.00     0.010 A 
ATOM     32  C   UNL A   1      38.520  29.124  28.812  1.00  0.00    -0.014 A 
BRANCH  32  33
ATOM     33  C   UNL A   1      39.962  28.776  28.926  1.00  0.00     0.031 A 
ATOM     34  C   UNL A   1      40.774  30.011  29.417  1.00  0.00     0.074 A 
ATOM     35  C   UNL A   1      40.354  27.515  28.550  1.00  0.00     0.049 A 
ATOM     36  N   UNL A   1      41.998  30.365  29.168  1.00  0.00    -0.248 NA
ATOM     37  C   UNL A   1      40.091  31.063  30.229  1.00  0.00     0.031 C 
ATOM     38  C   UNL A   1      39.430  26.427  28.151  1.00  0.00     0.029 A 
ATOM     39  N   UNL A   1      41.577  26.874  28.422  1.00  0.00    -0.354 N 
ATOM     40  C   UNL A   1      42.289  31.520  29.941  1.00  0.00     0.074 A 
ATOM     41  C   UNL A   1      41.041  31.970  30.468  1.00  0.00     0.031 C 
ATOM     42  C   UNL A   1      40.109  25.326  27.752  1.00  0.00     0.029 A 
ATOM     43  C   UNL A   1      41.537  25.559  27.862  1.00  0.00     0.049 A 
ATOM     44  H   UNL A   1      42.420  27.298  28.699  1.00  0.00     0.167 HD
ATOM     45  C   UNL A   1      43.565  31.945  30.201  1.00  0.00     0.037 A 
ATOM     46  C   UNL A   1      42.575  24.742  27.475  1.00  0.00     0.037 A 
ATOM     47  C   UNL A   1      44.480  31.065  29.561  1.00  0.00     0.049 A 
ATOM     48  C   UNL A   1      43.786  25.434  27.936  1.00  0.00     0.074 A 
ATOM     49  C   UNL A   1      44.806  30.876  28.245  1.00  0.00     0.029 A 
ATOM     50  N   UNL A   1      44.905  29.990  30.303  1.00  0.00    -0.354 N 
ATOM     51  N   UNL A   1      44.180  25.508  29.171  1.00  0.00    -0.248 NA
ATOM     52  C   UNL A   1      44.575  26.183  26.947  1.00  0.00     0.031 C 
ATOM     53  C   UNL A   1      44.953  29.479  28.161  1.00  0.00     0.029 A 
ATOM     54  C   UNL A   1      44.979  28.925  29.447  1.00  0.00     0.049 A 
ATOM     55  H   UNL A   1      45.115  29.988  31.264  1.00  0.00     0.167 HD
ATOM     56  C   UNL A   1      45.043  26.573  29.130  1.00  0.00     0.074 A 
ATOM     57  C   UNL A   1      45.491  26.698  27.760  1.00  0.00     0.031 C 
ATOM     58  C   UNL A   1      44.878  27.597  30.004  1.00  0.00     0.037 A 
BRANCH  45  59
ATOM     59  C   UNL A   1      44.177  32.920  31.180  1.00  0.00     0.058 A 
ATOM     60  C   UNL A   1      44.986  33.960  30.647  1.00  0.00     0.135 A 
ATOM     61  C   UNL A   1      44.324  32.673  32.551  1.00  0.00     0.135 A 
ATOM     62  F   UNL A   1      44.861  34.344  29.364  1.00  0.00    -0.206 F 
ATOM     63  C   UNL A   1      45.999  34.576  31.373  1.00  0.00     0.059 A 
ATOM     64  C   UNL A   1      45.305  33.319  33.315  1.00  0.00     0.059 A 
ATOM     65  F   UNL A   1      43.580  31.747  33.169  1.00  0.00    -0.206 F 
ATOM     66  C   UNL A   1      46.179  34.218  32.700  1.00  0.00     0.060 A 
BRANCH  66  67
ATOM     67  S   UNL A   1      47.585  34.925  33.586  1.00  0.00     0.124 S 
ATOM     68  O   UNL A   1      47.888  33.875  34.551  1.00  0.00    -0.237 OA
ATOM     69  O   UNL A   1      48.565  35.103  32.518  1.00  0.00    -0.237 OA
ATOM     70  O   UNL A   1      47.044  36.164  34.138  1.00  0.00    -0.744 OA
ENDBRANCH  66  67
ENDBRANCH  45  59
BRANCH  46  71
ATOM     71  C   UNL A   1      42.821  23.476  26.654  1.00  0.00     0.058 A 
ATOM     72  C   UNL A   1      43.367  23.401  25.367  1.00  0.00     0.135 A 
ATOM     73  C   UNL A   1      42.591  22.192  27.244  1.00  0.00     0.135 A 
ATOM     74  F   UNL A   1      43.483  24.497  24.606  1.00  0.00    -0.206 F 
ATOM     75  C   UNL A   1      43.819  22.183  24.804  1.00  0.00     0.059 A 
ATOM     76  C   UNL A   1      43.077  20.990  26.740  1.00  0.00     0.059 A 
ATOM     77  F   UNL A   1      41.888  22.044  28.376  1.00  0.00    -0.206 F 
ATOM     78  C   UNL A   1      43.732  20.995  25.529  1.00  0.00     0.060 A 
BRANCH  78  79
ATOM     79  S   UNL A   1      44.575  19.489  24.987  1.00  0.00     0.124 S 
ATOM     80  O   UNL A   1      43.869  18.454  25.733  1.00  0.00    -0.237 OA
ATOM     81  O   UNL A   1      44.347  19.505  23.544  1.00  0.00    -0.237 OA
ATOM     82  O   UNL A   1      45.961  19.720  25.387  1.00  0.00    -0.744 OA
ENDBRANCH  78  79
ENDBRANCH  46  71
BRANCH  58  83
ATOM     83  C   UNL A   1      44.263  27.227  31.339  1.00  0.00     0.058 A 
ATOM     84  C   UNL A   1      44.944  26.339  32.188  1.00  0.00     0.135 A 
ATOM     85  C   UNL A   1      43.006  27.667  31.789  1.00  0.00     0.135 A 
ATOM     86  F   UNL A   1      46.149  25.868  31.831  1.00  0.00    -0.206 F 
ATOM     87  C   UNL A   1      44.418  25.930  33.416  1.00  0.00     0.059 A 
ATOM     88  C   UNL A   1      42.457  27.277  33.016  1.00  0.00     0.059 A 
ATOM     89  F   UNL A   1      42.269  28.490  31.042  1.00  0.00    -0.206 F 
ATOM     90  C   UNL A   1      43.176  26.410  33.829  1.00  0.00     0.060 A 
BRANCH  90  91
ATOM     91  S   UNL A   1      42.536  25.902  35.442  1.00  0.00     0.124 S 
ATOM     92  O   UNL A   1      41.109  26.183  35.317  1.00  0.00    -0.237 OA
ATOM     93  O   UNL A   1      42.899  24.490  35.482  1.00  0.00    -0.237 OA
ATOM     94  O   UNL A   1      43.253  26.758  36.386  1.00  0.00    -0.744 OA
ENDBRANCH  90  91
ENDBRANCH  58  83
ENDBRANCH  32  33
ENDBRANCH  24  27
ENDBRANCH  22  23
ENDBRANCH  21  22
ENDBRANCH   1  21
TORSDOF 18
ENDMDL
