MODEL 1
REMARK VINA RESULT:     -13.2      0.000      0.000
REMARK SMILES O=C(NCCCCNC(=O)c1cc(-c2ccccn2)nc2ccc(F)cc12)c1ccc(-c2c3nc(c(-c4c(F)cc(S(=O)(=O)[O-])cc4F)c4ccc([nH]4)c(-c4c(F)cc(S(=O)(=O)[O-])cc4F)c4nc(c(-c5c(F)cc(S(=O)(=O)[O-])cc5F)c5ccc2[nH]5)C=C4)C=C3)cc1
REMARK SMILES IDX 4 1 3 2 1 3 2 4 28 6 29 7 93 8 30 9 92 10 31 11 32 12 33 13
REMARK SMILES IDX 86 14 34 15 91 16 85 17 87 18 35 19 90 20 84 21 83 22 36 24
REMARK SMILES IDX 70 25 49 26 69 27 50 28 53 29 68 30 88 31 51 32 52 33 67 35
REMARK SMILES IDX 89 36 54 37 37 38 38 39 47 40 39 41 40 42 46 43 48 44 41 45
REMARK SMILES IDX 42 46 43 47 44 48 45 49 71 50 72 51 81 52 73 53 74 54 80 55
REMARK SMILES IDX 82 56 75 57 76 58 77 59 78 60 79 61 55 62 56 63 65 64 57 65
REMARK SMILES IDX 58 66 64 67 66 68 59 69 60 70 61 71 62 72 63 73 5 74 6 75
REMARK SMILES IDX 7 76 8 77 9 78 10 80 11 81 12 82 27 83 13 84 21 85 26 86
REMARK SMILES IDX 20 87 22 88 24 89 23 90 25 91 14 92 15 93 19 94 16 95 18 96
REMARK SMILES IDX 17 97
REMARK H PARENT 3 5 87 23 53 34 8 79
REMARK Flexibility Score: inf
ROOT
ATOM      1  C   UNL A   1      35.101  29.609  27.713  1.00  0.00     0.116 C 
ENDROOT
BRANCH   1   2
ATOM      2  N   UNL A   1      35.157  30.313  28.983  1.00  0.00    -0.352 N 
ATOM      3  O   UNL A   1      36.001  30.993  30.949  1.00  0.00    -0.269 OA
ATOM      4  C   UNL A   1      36.206  30.477  29.853  1.00  0.00     0.251 C 
ATOM      5  H   UNL A   1      34.312  30.735  29.262  1.00  0.00     0.163 HD
BRANCH   4   6
ATOM      6  C   UNL A   1      37.571  30.025  29.493  1.00  0.00     0.039 A 
ATOM      7  C   UNL A   1      38.424  29.592  30.513  1.00  0.00     0.014 A 
ATOM      8  C   UNL A   1      38.032  30.068  28.174  1.00  0.00     0.014 A 
ATOM      9  C   UNL A   1      39.721  29.168  30.207  1.00  0.00     0.010 A 
ATOM     10  C   UNL A   1      39.298  29.576  27.860  1.00  0.00     0.010 A 
ATOM     11  C   UNL A   1      40.164  29.141  28.875  1.00  0.00    -0.014 A 
BRANCH  11  12
ATOM     12  C   UNL A   1      41.552  28.737  28.531  1.00  0.00     0.031 A 
ATOM     13  C   UNL A   1      42.651  29.767  28.539  1.00  0.00     0.074 A 
ATOM     14  C   UNL A   1      41.823  27.465  28.175  1.00  0.00     0.049 A 
ATOM     15  N   UNL A   1      43.904  29.644  28.185  1.00  0.00    -0.248 NA
ATOM     16  C   UNL A   1      42.285  31.123  28.982  1.00  0.00     0.031 C 
ATOM     17  C   UNL A   1      40.844  26.379  28.102  1.00  0.00     0.029 A 
ATOM     18  N   UNL A   1      43.005  26.873  27.804  1.00  0.00    -0.354 N 
ATOM     19  C   UNL A   1      44.466  30.906  28.339  1.00  0.00     0.074 A 
ATOM     20  C   UNL A   1      43.409  31.792  28.773  1.00  0.00     0.031 C 
ATOM     21  C   UNL A   1      41.470  25.248  27.734  1.00  0.00     0.029 A 
ATOM     22  C   UNL A   1      42.885  25.534  27.512  1.00  0.00     0.049 A 
ATOM     23  H   UNL A   1      43.859  27.361  27.752  1.00  0.00     0.167 HD
ATOM     24  C   UNL A   1      45.753  31.288  28.163  1.00  0.00     0.037 A 
ATOM     25  C   UNL A   1      43.809  24.641  27.106  1.00  0.00     0.037 A 
ATOM     26  C   UNL A   1      46.815  30.395  27.783  1.00  0.00     0.049 A 
ATOM     27  C   UNL A   1      45.235  25.087  26.922  1.00  0.00     0.074 A 
ATOM     28  C   UNL A   1      48.162  30.675  27.633  1.00  0.00     0.029 A 
ATOM     29  N   UNL A   1      46.652  29.046  27.505  1.00  0.00    -0.354 N 
ATOM     30  N   UNL A   1      45.754  26.279  27.099  1.00  0.00    -0.248 NA
ATOM     31  C   UNL A   1      46.201  24.070  26.483  1.00  0.00     0.031 C 
ATOM     32  C   UNL A   1      48.810  29.502  27.236  1.00  0.00     0.029 A 
ATOM     33  C   UNL A   1      47.873  28.482  27.174  1.00  0.00     0.049 A 
ATOM     34  H   UNL A   1      45.796  28.560  27.539  1.00  0.00     0.167 HD
ATOM     35  C   UNL A   1      47.109  26.151  26.811  1.00  0.00     0.074 A 
ATOM     36  C   UNL A   1      47.332  24.764  26.460  1.00  0.00     0.031 C 
ATOM     37  C   UNL A   1      48.078  27.098  26.832  1.00  0.00     0.037 A 
BRANCH  24  38
ATOM     38  C   UNL A   1      46.092  32.733  28.400  1.00  0.00     0.058 A 
ATOM     39  C   UNL A   1      46.478  33.196  29.667  1.00  0.00     0.135 A 
ATOM     40  C   UNL A   1      46.071  33.656  27.341  1.00  0.00     0.135 A 
ATOM     41  F   UNL A   1      46.497  32.360  30.716  1.00  0.00    -0.206 F 
ATOM     42  C   UNL A   1      46.813  34.529  29.883  1.00  0.00     0.059 A 
ATOM     43  C   UNL A   1      46.426  34.988  27.529  1.00  0.00     0.059 A 
ATOM     44  F   UNL A   1      45.705  33.265  26.111  1.00  0.00    -0.206 F 
ATOM     45  C   UNL A   1      46.786  35.417  28.806  1.00  0.00     0.060 A 
BRANCH  45  46
ATOM     46  S   UNL A   1      47.238  37.140  29.102  1.00  0.00     0.124 S 
ATOM     47  O   UNL A   1      47.682  37.555  27.775  1.00  0.00    -0.237 OA
ATOM     48  O   UNL A   1      45.979  37.719  29.560  1.00  0.00    -0.237 OA
ATOM     49  O   UNL A   1      48.287  37.048  30.112  1.00  0.00    -0.744 OA
ENDBRANCH  45  46
ENDBRANCH  24  38
BRANCH  25  50
ATOM     50  C   UNL A   1      43.418  23.226  26.869  1.00  0.00     0.058 A 
ATOM     51  C   UNL A   1      43.329  22.716  25.565  1.00  0.00     0.135 A 
ATOM     52  C   UNL A   1      43.148  22.355  27.933  1.00  0.00     0.135 A 
ATOM     53  F   UNL A   1      43.569  23.514  24.514  1.00  0.00    -0.206 F 
ATOM     54  C   UNL A   1      42.980  21.392  25.324  1.00  0.00     0.059 A 
ATOM     55  C   UNL A   1      42.816  21.019  27.718  1.00  0.00     0.059 A 
ATOM     56  F   UNL A   1      43.232  22.792  29.199  1.00  0.00    -0.206 F 
ATOM     57  C   UNL A   1      42.729  20.549  26.408  1.00  0.00     0.060 A 
BRANCH  57  58
ATOM     58  S   UNL A   1      42.336  18.817  26.084  1.00  0.00     0.124 S 
ATOM     59  O   UNL A   1      42.614  18.205  27.377  1.00  0.00    -0.237 OA
ATOM     60  O   UNL A   1      40.929  18.888  25.700  1.00  0.00    -0.237 OA
ATOM     61  O   UNL A   1      43.254  18.460  25.006  1.00  0.00    -0.744 OA
ENDBRANCH  57  58
ENDBRANCH  25  50
BRANCH  37  62
ATOM     62  C   UNL A   1      49.475  26.673  26.481  1.00  0.00     0.058 A 
ATOM     63  C   UNL A   1      50.319  26.081  27.431  1.00  0.00     0.135 A 
ATOM     64  C   UNL A   1      49.942  26.782  25.161  1.00  0.00     0.135 A 
ATOM     65  F   UNL A   1      49.919  25.960  28.708  1.00  0.00    -0.206 F 
ATOM     66  C   UNL A   1      51.585  25.618  27.089  1.00  0.00     0.059 A 
ATOM     67  C   UNL A   1      51.197  26.306  24.790  1.00  0.00     0.059 A 
ATOM     68  F   UNL A   1      49.168  27.332  24.213  1.00  0.00    -0.206 F 
ATOM     69  C   UNL A   1      52.013  25.730  25.764  1.00  0.00     0.060 A 
BRANCH  69  70
ATOM     70  S   UNL A   1      53.637  25.075  25.322  1.00  0.00     0.124 S 
ATOM     71  O   UNL A   1      54.475  25.632  26.378  1.00  0.00    -0.237 OA
ATOM     72  O   UNL A   1      53.418  23.633  25.380  1.00  0.00    -0.237 OA
ATOM     73  O   UNL A   1      53.868  25.614  23.986  1.00  0.00    -0.744 OA
ENDBRANCH  69  70
ENDBRANCH  37  62
ENDBRANCH  11  12
ENDBRANCH   4   6
ENDBRANCH   1   2
BRANCH   1  74
ATOM     74  C   UNL A   1      33.808  29.866  26.946  1.00  0.00     0.023 C 
BRANCH  74  75
ATOM     75  C   UNL A   1      32.664  28.895  27.233  1.00  0.00     0.023 C 
BRANCH  75  76
ATOM     76  C   UNL A   1      32.867  27.468  26.737  1.00  0.00     0.116 C 
BRANCH  76  77
ATOM     77  N   UNL A   1      31.681  26.637  26.884  1.00  0.00    -0.352 N 
ATOM     78  C   UNL A   1      30.703  26.340  25.968  1.00  0.00     0.252 C 
ATOM     79  H   UNL A   1      31.562  26.227  27.772  1.00  0.00     0.163 HD
ATOM     80  O   UNL A   1      29.744  25.639  26.284  1.00  0.00    -0.269 OA
BRANCH  78  81
ATOM     81  C   UNL A   1      30.813  26.850  24.587  1.00  0.00     0.051 A 
ATOM     82  C   UNL A   1      30.238  28.089  24.319  1.00  0.00     0.045 A 
ATOM     83  C   UNL A   1      31.466  26.119  23.573  1.00  0.00     0.016 A 
ATOM     84  C   UNL A   1      30.220  28.540  23.012  1.00  0.00     0.090 A 
ATOM     85  C   UNL A   1      31.433  26.687  22.282  1.00  0.00     0.072 A 
ATOM     86  C   UNL A   1      32.125  24.879  23.766  1.00  0.00     0.050 A 
ATOM     87  N   UNL A   1      30.818  27.851  22.009  1.00  0.00    -0.246 NA
ATOM     88  C   UNL A   1      32.054  26.009  21.238  1.00  0.00     0.032 A 
ATOM     89  C   UNL A   1      32.742  24.238  22.701  1.00  0.00     0.123 A 
ATOM     90  C   UNL A   1      32.712  24.792  21.435  1.00  0.00     0.041 A 
ATOM     91  F   UNL A   1      33.373  23.074  22.900  1.00  0.00    -0.207 F 
BRANCH  84  92
ATOM     92  C   UNL A   1      29.469  29.758  22.662  1.00  0.00     0.089 A 
ATOM     93  C   UNL A   1      28.800  30.509  23.632  1.00  0.00     0.030 A 
ATOM     94  N   UNL A   1      29.345  30.027  21.336  1.00  0.00    -0.255 NA
ATOM     95  C   UNL A   1      27.975  31.556  23.231  1.00  0.00     0.004 A 
ATOM     96  C   UNL A   1      28.544  31.053  20.977  1.00  0.00     0.112 A 
ATOM     97  C   UNL A   1      27.839  31.833  21.877  1.00  0.00     0.020 A 
ENDBRANCH  84  92
ENDBRANCH  78  81
ENDBRANCH  76  77
ENDBRANCH  75  76
ENDBRANCH  74  75
ENDBRANCH   1  74
TORSDOF 15
ENDMDL
MODEL 2
REMARK VINA RESULT:     -13.0      6.885     12.432
REMARK SMILES O=C(NCCCCNC(=O)c1cc(-c2ccccn2)nc2ccc(F)cc12)c1ccc(-c2c3nc(c(-c4c(F)cc(S(=O)(=O)[O-])cc4F)c4ccc([nH]4)c(-c4c(F)cc(S(=O)(=O)[O-])cc4F)c4nc(c(-c5c(F)cc(S(=O)(=O)[O-])cc5F)c5ccc2[nH]5)C=C4)C=C3)cc1
REMARK SMILES IDX 4 1 3 2 1 3 2 4 28 6 29 7 93 8 30 9 92 10 31 11 32 12 33 13
REMARK SMILES IDX 86 14 34 15 91 16 85 17 87 18 35 19 90 20 84 21 83 22 36 24
REMARK SMILES IDX 70 25 49 26 69 27 50 28 53 29 68 30 88 31 51 32 52 33 67 35
REMARK SMILES IDX 89 36 54 37 37 38 38 39 47 40 39 41 40 42 46 43 48 44 41 45
REMARK SMILES IDX 42 46 43 47 44 48 45 49 71 50 72 51 81 52 73 53 74 54 80 55
REMARK SMILES IDX 82 56 75 57 76 58 77 59 78 60 79 61 55 62 56 63 65 64 57 65
REMARK SMILES IDX 58 66 64 67 66 68 59 69 60 70 61 71 62 72 63 73 5 74 6 75
REMARK SMILES IDX 7 76 8 77 9 78 10 80 11 81 12 82 27 83 13 84 21 85 26 86
REMARK SMILES IDX 20 87 22 88 24 89 23 90 25 91 14 92 15 93 19 94 16 95 18 96
REMARK SMILES IDX 17 97
REMARK H PARENT 3 5 87 23 53 34 8 79
REMARK Flexibility Score: inf
ROOT
ATOM      1  C   UNL A   1      41.499  22.825  27.508  1.00  0.00     0.116 C 
ENDROOT
BRANCH   1   2
ATOM      2  N   UNL A   1      41.733  23.585  26.292  1.00  0.00    -0.352 N 
ATOM      3  O   UNL A   1      41.800  25.374  24.937  1.00  0.00    -0.269 OA
ATOM      4  C   UNL A   1      41.710  24.942  26.084  1.00  0.00     0.251 C 
ATOM      5  H   UNL A   1      41.941  23.043  25.496  1.00  0.00     0.163 HD
BRANCH   4   6
ATOM      6  C   UNL A   1      41.560  25.884  27.218  1.00  0.00     0.039 A 
ATOM      7  C   UNL A   1      40.433  25.772  28.038  1.00  0.00     0.014 A 
ATOM      8  C   UNL A   1      42.491  26.900  27.453  1.00  0.00     0.014 A 
ATOM      9  C   UNL A   1      40.258  26.651  29.111  1.00  0.00     0.010 A 
ATOM     10  C   UNL A   1      42.355  27.728  28.566  1.00  0.00     0.010 A 
ATOM     11  C   UNL A   1      41.226  27.628  29.394  1.00  0.00    -0.014 A 
BRANCH  11  12
ATOM     12  C   UNL A   1      41.040  28.601  30.502  1.00  0.00     0.031 A 
ATOM     13  C   UNL A   1      41.928  28.524  31.716  1.00  0.00     0.074 A 
ATOM     14  C   UNL A   1      40.059  29.523  30.441  1.00  0.00     0.049 A 
ATOM     15  N   UNL A   1      41.876  29.214  32.826  1.00  0.00    -0.248 NA
ATOM     16  C   UNL A   1      43.005  27.519  31.688  1.00  0.00     0.031 C 
ATOM     17  C   UNL A   1      39.116  29.686  29.333  1.00  0.00     0.029 A 
ATOM     18  N   UNL A   1      39.691  30.497  31.337  1.00  0.00    -0.354 N 
ATOM     19  C   UNL A   1      42.890  28.713  33.632  1.00  0.00     0.074 A 
ATOM     20  C   UNL A   1      43.514  27.629  32.906  1.00  0.00     0.031 C 
ATOM     21  C   UNL A   1      38.293  30.713  29.604  1.00  0.00     0.029 A 
ATOM     22  C   UNL A   1      38.627  31.260  30.917  1.00  0.00     0.049 A 
ATOM     23  H   UNL A   1      40.147  30.636  32.198  1.00  0.00     0.167 HD
ATOM     24  C   UNL A   1      43.288  29.135  34.856  1.00  0.00     0.037 A 
ATOM     25  C   UNL A   1      37.989  32.282  31.523  1.00  0.00     0.037 A 
ATOM     26  C   UNL A   1      42.701  30.247  35.556  1.00  0.00     0.049 A 
ATOM     27  C   UNL A   1      38.452  32.737  32.882  1.00  0.00     0.074 A 
ATOM     28  C   UNL A   1      43.071  30.786  36.775  1.00  0.00     0.029 A 
ATOM     29  N   UNL A   1      41.632  30.998  35.091  1.00  0.00    -0.354 N 
ATOM     30  N   UNL A   1      39.432  32.269  33.617  1.00  0.00    -0.248 NA
ATOM     31  C   UNL A   1      37.724  33.858  33.493  1.00  0.00     0.031 C 
ATOM     32  C   UNL A   1      42.205  31.846  37.063  1.00  0.00     0.029 A 
ATOM     33  C   UNL A   1      41.320  31.990  36.006  1.00  0.00     0.049 A 
ATOM     34  H   UNL A   1      41.164  30.849  34.238  1.00  0.00     0.167 HD
ATOM     35  C   UNL A   1      39.449  33.048  34.769  1.00  0.00     0.074 A 
ATOM     36  C   UNL A   1      38.390  34.026  34.628  1.00  0.00     0.031 C 
ATOM     37  C   UNL A   1      40.266  32.959  35.846  1.00  0.00     0.037 A 
BRANCH  24  38
ATOM     38  C   UNL A   1      44.425  28.404  35.512  1.00  0.00     0.058 A 
ATOM     39  C   UNL A   1      45.748  28.861  35.405  1.00  0.00     0.135 A 
ATOM     40  C   UNL A   1      44.187  27.259  36.290  1.00  0.00     0.135 A 
ATOM     41  F   UNL A   1      46.033  29.938  34.658  1.00  0.00    -0.206 F 
ATOM     42  C   UNL A   1      46.799  28.197  36.030  1.00  0.00     0.059 A 
ATOM     43  C   UNL A   1      45.219  26.595  36.945  1.00  0.00     0.059 A 
ATOM     44  F   UNL A   1      42.941  26.779  36.422  1.00  0.00    -0.206 F 
ATOM     45  C   UNL A   1      46.524  27.066  36.799  1.00  0.00     0.060 A 
BRANCH  45  46
ATOM     46  S   UNL A   1      47.899  26.227  37.615  1.00  0.00     0.124 S 
ATOM     47  O   UNL A   1      47.495  24.829  37.500  1.00  0.00    -0.237 OA
ATOM     48  O   UNL A   1      49.038  26.628  36.796  1.00  0.00    -0.237 OA
ATOM     49  O   UNL A   1      47.877  26.775  38.968  1.00  0.00    -0.744 OA
ENDBRANCH  45  46
ENDBRANCH  24  38
BRANCH  25  50
ATOM     50  C   UNL A   1      36.858  32.960  30.838  1.00  0.00     0.058 A 
ATOM     51  C   UNL A   1      35.533  32.705  31.219  1.00  0.00     0.135 A 
ATOM     52  C   UNL A   1      37.077  33.887  29.809  1.00  0.00     0.135 A 
ATOM     53  F   UNL A   1      35.273  31.820  32.193  1.00  0.00    -0.206 F 
ATOM     54  C   UNL A   1      34.462  33.342  30.600  1.00  0.00     0.059 A 
ATOM     55  C   UNL A   1      36.023  34.552  29.187  1.00  0.00     0.059 A 
ATOM     56  F   UNL A   1      38.327  34.174  29.416  1.00  0.00    -0.206 F 
ATOM     57  C   UNL A   1      34.717  34.268  29.587  1.00  0.00     0.060 A 
BRANCH  57  58
ATOM     58  S   UNL A   1      33.322  35.132  28.833  1.00  0.00     0.124 S 
ATOM     59  O   UNL A   1      32.579  35.571  30.007  1.00  0.00    -0.237 OA
ATOM     60  O   UNL A   1      33.989  36.181  28.069  1.00  0.00    -0.237 OA
ATOM     61  O   UNL A   1      32.681  34.095  28.030  1.00  0.00    -0.744 OA
ENDBRANCH  57  58
ENDBRANCH  25  50
BRANCH  37  62
ATOM     62  C   UNL A   1      40.064  33.949  36.958  1.00  0.00     0.058 A 
ATOM     63  C   UNL A   1      40.703  35.197  36.948  1.00  0.00     0.135 A 
ATOM     64  C   UNL A   1      39.160  33.679  37.997  1.00  0.00     0.135 A 
ATOM     65  F   UNL A   1      41.581  35.500  35.978  1.00  0.00    -0.206 F 
ATOM     66  C   UNL A   1      40.459  36.145  37.937  1.00  0.00     0.059 A 
ATOM     67  C   UNL A   1      38.883  34.620  38.985  1.00  0.00     0.059 A 
ATOM     68  F   UNL A   1      38.516  32.502  38.045  1.00  0.00    -0.206 F 
ATOM     69  C   UNL A   1      39.542  35.848  38.948  1.00  0.00     0.060 A 
BRANCH  69  70
ATOM     70  S   UNL A   1      39.194  37.108  40.194  1.00  0.00     0.124 S 
ATOM     71  O   UNL A   1      38.367  36.366  41.139  1.00  0.00    -0.237 OA
ATOM     72  O   UNL A   1      40.531  37.462  40.663  1.00  0.00    -0.237 OA
ATOM     73  O   UNL A   1      38.505  38.150  39.439  1.00  0.00    -0.744 OA
ENDBRANCH  69  70
ENDBRANCH  37  62
ENDBRANCH  11  12
ENDBRANCH   4   6
ENDBRANCH   1   2
BRANCH   1  74
ATOM     74  C   UNL A   1      40.198  22.030  27.471  1.00  0.00     0.023 C 
BRANCH  74  75
ATOM     75  C   UNL A   1      39.576  21.839  26.088  1.00  0.00     0.023 C 
BRANCH  75  76
ATOM     76  C   UNL A   1      38.141  22.329  25.935  1.00  0.00     0.116 C 
BRANCH  76  77
ATOM     77  N   UNL A   1      37.826  22.762  24.581  1.00  0.00    -0.352 N 
ATOM     78  C   UNL A   1      36.638  22.693  23.895  1.00  0.00     0.252 C 
ATOM     79  H   UNL A   1      38.575  23.162  24.083  1.00  0.00     0.163 HD
ATOM     80  O   UNL A   1      36.567  23.081  22.731  1.00  0.00    -0.269 OA
BRANCH  78  81
ATOM     81  C   UNL A   1      35.434  22.168  24.568  1.00  0.00     0.051 A 
ATOM     82  C   UNL A   1      35.273  20.785  24.596  1.00  0.00     0.045 A 
ATOM     83  C   UNL A   1      34.477  23.021  25.155  1.00  0.00     0.016 A 
ATOM     84  C   UNL A   1      34.099  20.267  25.111  1.00  0.00     0.090 A 
ATOM     85  C   UNL A   1      33.337  22.392  25.696  1.00  0.00     0.072 A 
ATOM     86  C   UNL A   1      34.585  24.433  25.222  1.00  0.00     0.050 A 
ATOM     87  N   UNL A   1      33.148  21.062  25.662  1.00  0.00    -0.246 NA
ATOM     88  C   UNL A   1      32.353  23.182  26.284  1.00  0.00     0.032 A 
ATOM     89  C   UNL A   1      33.587  25.186  25.825  1.00  0.00     0.123 A 
ATOM     90  C   UNL A   1      32.469  24.572  26.357  1.00  0.00     0.041 A 
ATOM     91  F   UNL A   1      33.708  26.518  25.893  1.00  0.00    -0.207 F 
BRANCH  84  92
ATOM     92  C   UNL A   1      33.817  18.826  24.998  1.00  0.00     0.089 A 
ATOM     93  C   UNL A   1      34.616  17.983  24.224  1.00  0.00     0.030 A 
ATOM     94  N   UNL A   1      32.662  18.394  25.570  1.00  0.00    -0.255 NA
ATOM     95  C   UNL A   1      34.216  16.665  24.021  1.00  0.00     0.004 A 
ATOM     96  C   UNL A   1      32.302  17.109  25.361  1.00  0.00     0.112 A 
ATOM     97  C   UNL A   1      33.034  16.218  24.596  1.00  0.00     0.020 A 
ENDBRANCH  84  92
ENDBRANCH  78  81
ENDBRANCH  76  77
ENDBRANCH  75  76
ENDBRANCH  74  75
ENDBRANCH   1  74
TORSDOF 15
ENDMDL
MODEL 3
REMARK VINA RESULT:     -13.0      6.957     12.512
REMARK SMILES O=C(NCCCCNC(=O)c1cc(-c2ccccn2)nc2ccc(F)cc12)c1ccc(-c2c3nc(c(-c4c(F)cc(S(=O)(=O)[O-])cc4F)c4ccc([nH]4)c(-c4c(F)cc(S(=O)(=O)[O-])cc4F)c4nc(c(-c5c(F)cc(S(=O)(=O)[O-])cc5F)c5ccc2[nH]5)C=C4)C=C3)cc1
REMARK SMILES IDX 4 1 3 2 1 3 2 4 28 6 29 7 93 8 30 9 92 10 31 11 32 12 33 13
REMARK SMILES IDX 86 14 34 15 91 16 85 17 87 18 35 19 90 20 84 21 83 22 36 24
REMARK SMILES IDX 70 25 49 26 69 27 50 28 53 29 68 30 88 31 51 32 52 33 67 35
REMARK SMILES IDX 89 36 54 37 37 38 38 39 47 40 39 41 40 42 46 43 48 44 41 45
REMARK SMILES IDX 42 46 43 47 44 48 45 49 71 50 72 51 81 52 73 53 74 54 80 55
REMARK SMILES IDX 82 56 75 57 76 58 77 59 78 60 79 61 55 62 56 63 65 64 57 65
REMARK SMILES IDX 58 66 64 67 66 68 59 69 60 70 61 71 62 72 63 73 5 74 6 75
REMARK SMILES IDX 7 76 8 77 9 78 10 80 11 81 12 82 27 83 13 84 21 85 26 86
REMARK SMILES IDX 20 87 22 88 24 89 23 90 25 91 14 92 15 93 19 94 16 95 18 96
REMARK SMILES IDX 17 97
REMARK H PARENT 3 5 87 23 53 34 8 79
REMARK Flexibility Score: inf
ROOT
ATOM      1  C   UNL A   1      38.351  24.191  26.339  1.00  0.00     0.116 C 
ENDROOT
BRANCH   1   2
ATOM      2  N   UNL A   1      39.768  23.987  26.092  1.00  0.00    -0.352 N 
ATOM      3  O   UNL A   1      41.971  24.420  26.140  1.00  0.00    -0.269 OA
ATOM      4  C   UNL A   1      40.854  24.666  26.589  1.00  0.00     0.251 C 
ATOM      5  H   UNL A   1      39.982  23.251  25.475  1.00  0.00     0.163 HD
BRANCH   4   6
ATOM      6  C   UNL A   1      40.691  25.697  27.640  1.00  0.00     0.039 A 
ATOM      7  C   UNL A   1      41.583  26.774  27.667  1.00  0.00     0.014 A 
ATOM      8  C   UNL A   1      39.703  25.591  28.623  1.00  0.00     0.014 A 
ATOM      9  C   UNL A   1      41.462  27.758  28.653  1.00  0.00     0.010 A 
ATOM     10  C   UNL A   1      39.536  26.610  29.559  1.00  0.00     0.010 A 
ATOM     11  C   UNL A   1      40.427  27.693  29.598  1.00  0.00    -0.014 A 
BRANCH  11  12
ATOM     12  C   UNL A   1      40.306  28.705  30.681  1.00  0.00     0.031 A 
ATOM     13  C   UNL A   1      41.191  28.604  31.894  1.00  0.00     0.074 A 
ATOM     14  C   UNL A   1      39.382  29.683  30.599  1.00  0.00     0.049 A 
ATOM     15  N   UNL A   1      41.185  29.325  32.986  1.00  0.00    -0.248 NA
ATOM     16  C   UNL A   1      42.204  27.535  31.890  1.00  0.00     0.031 C 
ATOM     17  C   UNL A   1      38.446  29.874  29.489  1.00  0.00     0.029 A 
ATOM     18  N   UNL A   1      39.078  30.700  31.469  1.00  0.00    -0.354 N 
ATOM     19  C   UNL A   1      42.171  28.783  33.803  1.00  0.00     0.074 A 
ATOM     20  C   UNL A   1      42.724  27.645  33.104  1.00  0.00     0.031 C 
ATOM     21  C   UNL A   1      37.689  30.957  29.735  1.00  0.00     0.029 A 
ATOM     22  C   UNL A   1      38.061  31.516  31.032  1.00  0.00     0.049 A 
ATOM     23  H   UNL A   1      39.544  30.833  32.326  1.00  0.00     0.167 HD
ATOM     24  C   UNL A   1      42.598  29.211  35.015  1.00  0.00     0.037 A 
ATOM     25  C   UNL A   1      37.489  32.590  31.614  1.00  0.00     0.037 A 
ATOM     26  C   UNL A   1      42.083  30.375  35.687  1.00  0.00     0.049 A 
ATOM     27  C   UNL A   1      37.984  33.051  32.958  1.00  0.00     0.074 A 
ATOM     28  C   UNL A   1      42.489  30.922  36.891  1.00  0.00     0.029 A 
ATOM     29  N   UNL A   1      41.060  31.178  35.205  1.00  0.00    -0.354 N 
ATOM     30  N   UNL A   1      38.936  32.543  33.704  1.00  0.00    -0.248 NA
ATOM     31  C   UNL A   1      37.328  34.230  33.542  1.00  0.00     0.031 C 
ATOM     32  C   UNL A   1      41.691  32.040  37.154  1.00  0.00     0.029 A 
ATOM     33  C   UNL A   1      40.813  32.210  36.095  1.00  0.00     0.049 A 
ATOM     34  H   UNL A   1      40.581  31.036  34.357  1.00  0.00     0.167 HD
ATOM     35  C   UNL A   1      39.005  33.349  34.835  1.00  0.00     0.074 A 
ATOM     36  C   UNL A   1      38.008  34.386  34.671  1.00  0.00     0.031 C 
ATOM     37  C   UNL A   1      39.819  33.237  35.913  1.00  0.00     0.037 A 
BRANCH  24  38
ATOM     38  C   UNL A   1      43.691  28.429  35.687  1.00  0.00     0.058 A 
ATOM     39  C   UNL A   1      43.402  27.380  36.572  1.00  0.00     0.135 A 
ATOM     40  C   UNL A   1      45.041  28.703  35.410  1.00  0.00     0.135 A 
ATOM     41  F   UNL A   1      42.130  27.089  36.884  1.00  0.00    -0.206 F 
ATOM     42  C   UNL A   1      44.413  26.641  37.178  1.00  0.00     0.059 A 
ATOM     43  C   UNL A   1      46.068  27.961  35.985  1.00  0.00     0.059 A 
ATOM     44  F   UNL A   1      45.371  29.699  34.574  1.00  0.00    -0.206 F 
ATOM     45  C   UNL A   1      45.743  26.938  36.876  1.00  0.00     0.060 A 
BRANCH  45  46
ATOM     46  S   UNL A   1      47.042  25.958  37.660  1.00  0.00     0.124 S 
ATOM     47  O   UNL A   1      48.007  25.832  36.573  1.00  0.00    -0.237 OA
ATOM     48  O   UNL A   1      47.448  26.812  38.772  1.00  0.00    -0.237 OA
ATOM     49  O   UNL A   1      46.358  24.725  38.037  1.00  0.00    -0.744 OA
ENDBRANCH  45  46
ENDBRANCH  24  38
BRANCH  25  50
ATOM     50  C   UNL A   1      36.399  33.319  30.913  1.00  0.00     0.058 A 
ATOM     51  C   UNL A   1      35.073  33.228  31.362  1.00  0.00     0.135 A 
ATOM     52  C   UNL A   1      36.660  34.132  29.801  1.00  0.00     0.135 A 
ATOM     53  F   UNL A   1      34.773  32.456  32.416  1.00  0.00    -0.206 F 
ATOM     54  C   UNL A   1      34.042  33.915  30.729  1.00  0.00     0.059 A 
ATOM     55  C   UNL A   1      35.648  34.845  29.163  1.00  0.00     0.059 A 
ATOM     56  F   UNL A   1      37.914  34.260  29.341  1.00  0.00    -0.206 F 
ATOM     57  C   UNL A   1      34.340  34.725  29.632  1.00  0.00     0.060 A 
BRANCH  57  58
ATOM     58  S   UNL A   1      33.003  35.658  28.857  1.00  0.00     0.124 S 
ATOM     59  O   UNL A   1      33.743  36.668  28.112  1.00  0.00    -0.237 OA
ATOM     60  O   UNL A   1      32.338  34.633  28.058  1.00  0.00    -0.237 OA
ATOM     61  O   UNL A   1      32.233  36.150  29.996  1.00  0.00    -0.744 OA
ENDBRANCH  57  58
ENDBRANCH  25  50
BRANCH  37  62
ATOM     62  C   UNL A   1      39.683  34.267  36.998  1.00  0.00     0.058 A 
ATOM     63  C   UNL A   1      38.938  34.010  38.158  1.00  0.00     0.135 A 
ATOM     64  C   UNL A   1      40.372  35.487  36.913  1.00  0.00     0.135 A 
ATOM     65  F   UNL A   1      38.257  32.859  38.284  1.00  0.00    -0.206 F 
ATOM     66  C   UNL A   1      38.874  34.933  39.197  1.00  0.00     0.059 A 
ATOM     67  C   UNL A   1      40.339  36.416  37.949  1.00  0.00     0.059 A 
ATOM     68  F   UNL A   1      41.106  35.775  35.827  1.00  0.00    -0.206 F 
ATOM     69  C   UNL A   1      39.583  36.131  39.085  1.00  0.00     0.060 A 
BRANCH  69  70
ATOM     70  S   UNL A   1      39.534  37.295  40.465  1.00  0.00     0.124 S 
ATOM     71  O   UNL A   1      38.782  38.404  39.888  1.00  0.00    -0.237 OA
ATOM     72  O   UNL A   1      38.841  36.528  41.496  1.00  0.00    -0.237 OA
ATOM     73  O   UNL A   1      40.943  37.563  40.733  1.00  0.00    -0.744 OA
ENDBRANCH  69  70
ENDBRANCH  37  62
ENDBRANCH  11  12
ENDBRANCH   4   6
ENDBRANCH   1   2
BRANCH   1  74
ATOM     74  C   UNL A   1      37.512  22.949  26.053  1.00  0.00     0.023 C 
BRANCH  74  75
ATOM     75  C   UNL A   1      36.765  22.946  24.721  1.00  0.00     0.023 C 
BRANCH  75  76
ATOM     76  C   UNL A   1      35.664  23.991  24.577  1.00  0.00     0.116 C 
BRANCH  76  77
ATOM     77  N   UNL A   1      35.004  23.951  23.280  1.00  0.00    -0.352 N 
ATOM     78  C   UNL A   1      33.897  23.242  22.883  1.00  0.00     0.252 C 
ATOM     79  H   UNL A   1      35.411  24.517  22.584  1.00  0.00     0.163 HD
ATOM     80  O   UNL A   1      33.498  23.307  21.723  1.00  0.00    -0.269 OA
BRANCH  78  81
ATOM     81  C   UNL A   1      33.170  22.411  23.863  1.00  0.00     0.051 A 
ATOM     82  C   UNL A   1      33.516  21.064  23.934  1.00  0.00     0.045 A 
ATOM     83  C   UNL A   1      32.164  22.946  24.693  1.00  0.00     0.016 A 
ATOM     84  C   UNL A   1      32.774  20.234  24.754  1.00  0.00     0.090 A 
ATOM     85  C   UNL A   1      31.497  22.025  25.529  1.00  0.00     0.072 A 
ATOM     86  C   UNL A   1      31.785  24.311  24.728  1.00  0.00     0.050 A 
ATOM     87  N   UNL A   1      31.784  20.712  25.547  1.00  0.00    -0.246 NA
ATOM     88  C   UNL A   1      30.489  22.492  26.365  1.00  0.00     0.032 A 
ATOM     89  C   UNL A   1      30.780  24.740  25.584  1.00  0.00     0.123 A 
ATOM     90  C   UNL A   1      30.126  23.841  26.405  1.00  0.00     0.041 A 
ATOM     91  F   UNL A   1      30.442  26.035  25.617  1.00  0.00    -0.207 F 
BRANCH  84  92
ATOM     92  C   UNL A   1      32.994  18.778  24.723  1.00  0.00     0.089 A 
ATOM     93  C   UNL A   1      33.563  18.148  23.615  1.00  0.00     0.030 A 
ATOM     94  N   UNL A   1      32.486  18.071  25.767  1.00  0.00    -0.255 NA
ATOM     95  C   UNL A   1      33.602  16.757  23.569  1.00  0.00     0.004 A 
ATOM     96  C   UNL A   1      32.543  16.724  25.700  1.00  0.00     0.112 A 
ATOM     97  C   UNL A   1      33.078  16.028  24.629  1.00  0.00     0.020 A 
ENDBRANCH  84  92
ENDBRANCH  78  81
ENDBRANCH  76  77
ENDBRANCH  75  76
ENDBRANCH  74  75
ENDBRANCH   1  74
TORSDOF 15
ENDMDL
