MODEL 1
REMARK VINA RESULT:     -11.1      0.000      0.000
REMARK SMILES CC[C@H](NC(=O)N1CCO[C@@H](CC(=O)NCCCCNC(=O)c2ccc(-c3c4nc(c(-c5c(F)cc(S(=O)(=O)[O-])cc5F)c5ccc([nH]5)c(-c5c(F)cc(S(=O)(=O)[O-])cc5F)c5nc(c(-c6c(F)cc(S(=O)(=O)[O-])cc6F)c6ccc3[nH]6)C=C5)C=C4)cc2)C1)c1cccs1
REMARK SMILES IDX 17 1 16 2 15 3 13 4 14 5 12 7 11 8 7 9 8 10 89 11 9 12 10 13
REMARK SMILES IDX 5 14 4 15 6 17 3 18 2 19 1 20 90 21 91 22 94 23 92 24 93 25
REMARK SMILES IDX 18 26 19 27 20 28 21 29 22 31 23 32 24 33 88 34 25 35 87 36
REMARK SMILES IDX 26 37 27 38 28 39 81 40 29 41 86 42 80 43 82 44 30 45 85 46
REMARK SMILES IDX 79 47 78 48 31 50 65 51 44 52 64 53 45 54 48 55 63 56 83 57
REMARK SMILES IDX 46 58 47 59 62 61 84 62 49 63 32 64 33 65 42 66 34 67 35 68
REMARK SMILES IDX 41 69 43 70 36 71 37 72 38 73 39 74 40 75 66 76 67 77 76 78
REMARK SMILES IDX 68 79 69 80 75 81 77 82 70 83 71 84 72 85 73 86 74 87 50 88
REMARK SMILES IDX 51 89 60 90 52 91 53 92 59 93 61 94 54 95 55 96 56 97 57 98
REMARK SMILES IDX 58 99
REMARK H PARENT 15 6 4 16 20 30 82 49 48 60
REMARK Flexibility Score: inf
ROOT
ATOM      1  C   UNL A   1      32.843  29.702  25.053  1.00  0.00     0.023 C 
ENDROOT
BRANCH   1   2
ATOM      2  C   UNL A   1      31.336  29.416  25.074  1.00  0.00     0.116 C 
BRANCH   2   3
ATOM      3  N   UNL A   1      30.732  29.714  23.782  1.00  0.00    -0.356 N 
ATOM      4  C   UNL A   1      30.887  29.107  22.566  1.00  0.00     0.222 C 
ATOM      5  O   UNL A   1      30.400  29.646  21.571  1.00  0.00    -0.275 OA
ATOM      6  H   UNL A   1      30.111  30.478  23.784  1.00  0.00     0.163 HD
BRANCH   4   7
ATOM      7  C   UNL A   1      31.649  27.804  22.441  1.00  0.00     0.133 C 
BRANCH   7   8
ATOM      8  C   UNL A   1      30.911  26.576  22.998  1.00  0.00     0.147 C 
ATOM      9  N   UNL A   1      30.891  25.093  25.056  1.00  0.00    -0.320 N 
ATOM     10  C   UNL A   1      29.582  25.639  25.372  1.00  0.00     0.150 C 
ATOM     11  C   UNL A   1      31.646  25.997  24.209  1.00  0.00     0.154 C 
ATOM     12  C   UNL A   1      28.856  26.033  24.087  1.00  0.00     0.182 C 
ATOM     13  O   UNL A   1      29.590  27.038  23.370  1.00  0.00    -0.374 OA
BRANCH   9  14
ATOM     14  C   UNL A   1      31.643  24.591  26.094  1.00  0.00     0.318 C 
ATOM     15  N   UNL A   1      32.885  24.135  25.806  1.00  0.00    -0.330 N 
ATOM     16  H   UNL A   1      33.553  24.286  26.515  1.00  0.00     0.166 HD
ATOM     17  O   UNL A   1      31.281  24.667  27.267  1.00  0.00    -0.249 OA
BRANCH  15  18
ATOM     18  C   UNL A   1      33.400  23.458  24.619  1.00  0.00     0.124 C 
BRANCH  18  19
ATOM     19  C   UNL A   1      34.818  23.948  24.260  1.00  0.00     0.027 C 
ATOM     20  C   UNL A   1      35.572  23.151  23.203  1.00  0.00     0.006 C 
ENDBRANCH  18  19
BRANCH  18  21
ATOM     21  C   UNL A   1      33.125  21.971  24.606  1.00  0.00     0.027 A 
ATOM     22  C   UNL A   1      33.392  21.076  25.633  1.00  0.00     0.017 A 
ATOM     23  S   UNL A   1      32.358  21.166  23.298  1.00  0.00    -0.147 S 
ATOM     24  C   UNL A   1      33.041  19.735  25.309  1.00  0.00     0.012 A 
ATOM     25  C   UNL A   1      32.477  19.643  24.059  1.00  0.00     0.065 A 
ENDBRANCH  18  21
ENDBRANCH  15  18
ENDBRANCH   9  14
ENDBRANCH   7   8
ENDBRANCH   4   7
ENDBRANCH   2   3
ENDBRANCH   1   2
BRANCH   1  26
ATOM     26  C   UNL A   1      33.719  28.681  25.753  1.00  0.00     0.023 C 
BRANCH  26  27
ATOM     27  C   UNL A   1      33.617  28.705  27.265  1.00  0.00     0.116 C 
BRANCH  27  28
ATOM     28  N   UNL A   1      33.601  30.043  27.846  1.00  0.00    -0.352 N 
ATOM     29  C   UNL A   1      34.645  30.726  28.438  1.00  0.00     0.251 C 
ATOM     30  H   UNL A   1      32.739  30.518  27.811  1.00  0.00     0.163 HD
ATOM     31  O   UNL A   1      34.484  31.832  28.921  1.00  0.00    -0.269 OA
BRANCH  29  32
ATOM     32  C   UNL A   1      35.954  30.044  28.529  1.00  0.00     0.039 A 
ATOM     33  C   UNL A   1      36.820  30.104  27.436  1.00  0.00     0.014 A 
ATOM     34  C   UNL A   1      36.368  29.483  29.738  1.00  0.00     0.014 A 
ATOM     35  C   UNL A   1      38.142  29.687  27.591  1.00  0.00     0.010 A 
ATOM     36  C   UNL A   1      37.709  29.175  29.919  1.00  0.00     0.010 A 
ATOM     37  C   UNL A   1      38.610  29.273  28.848  1.00  0.00    -0.014 A 
BRANCH  37  38
ATOM     38  C   UNL A   1      40.036  28.928  29.074  1.00  0.00     0.031 A 
ATOM     39  C   UNL A   1      40.970  29.968  29.633  1.00  0.00     0.074 A 
ATOM     40  C   UNL A   1      40.507  27.722  28.697  1.00  0.00     0.049 A 
ATOM     41  N   UNL A   1      42.264  29.909  29.803  1.00  0.00    -0.248 NA
ATOM     42  C   UNL A   1      40.373  31.261  30.007  1.00  0.00     0.031 C 
ATOM     43  C   UNL A   1      39.716  26.656  28.074  1.00  0.00     0.029 A 
ATOM     44  N   UNL A   1      41.769  27.191  28.773  1.00  0.00    -0.354 N 
ATOM     45  C   UNL A   1      42.638  31.163  30.272  1.00  0.00     0.074 A 
ATOM     46  C   UNL A   1      41.446  31.981  30.299  1.00  0.00     0.031 C 
ATOM     47  C   UNL A   1      40.504  25.590  27.856  1.00  0.00     0.029 A 
ATOM     48  C   UNL A   1      41.861  25.905  28.290  1.00  0.00     0.049 A 
ATOM     49  H   UNL A   1      42.539  27.684  29.140  1.00  0.00     0.167 HD
ATOM     50  C   UNL A   1      43.859  31.587  30.676  1.00  0.00     0.037 A 
ATOM     51  C   UNL A   1      42.920  25.077  28.208  1.00  0.00     0.037 A 
ATOM     52  C   UNL A   1      45.026  30.749  30.703  1.00  0.00     0.049 A 
ATOM     53  C   UNL A   1      44.256  25.553  28.711  1.00  0.00     0.074 A 
ATOM     54  C   UNL A   1      46.292  31.053  31.170  1.00  0.00     0.029 A 
ATOM     55  N   UNL A   1      45.066  29.437  30.254  1.00  0.00    -0.354 N 
ATOM     56  N   UNL A   1      44.578  26.720  29.213  1.00  0.00    -0.248 NA
ATOM     57  C   UNL A   1      45.370  24.597  28.644  1.00  0.00     0.031 C 
ATOM     58  C   UNL A   1      47.106  29.932  30.979  1.00  0.00     0.029 A 
ATOM     59  C   UNL A   1      46.338  28.919  30.426  1.00  0.00     0.049 A 
ATOM     60  H   UNL A   1      44.303  28.948  29.872  1.00  0.00     0.167 HD
ATOM     61  C   UNL A   1      45.926  26.635  29.540  1.00  0.00     0.074 A 
ATOM     62  C   UNL A   1      46.356  25.295  29.191  1.00  0.00     0.031 C 
ATOM     63  C   UNL A   1      46.738  27.579  30.078  1.00  0.00     0.037 A 
BRANCH  50  64
ATOM     64  C   UNL A   1      43.976  33.012  31.138  1.00  0.00     0.058 A 
ATOM     65  C   UNL A   1      44.284  34.052  30.245  1.00  0.00     0.135 A 
ATOM     66  C   UNL A   1      43.775  33.346  32.487  1.00  0.00     0.135 A 
ATOM     67  F   UNL A   1      44.505  33.784  28.947  1.00  0.00    -0.206 F 
ATOM     68  C   UNL A   1      44.425  35.365  30.677  1.00  0.00     0.059 A 
ATOM     69  C   UNL A   1      43.883  34.659  32.936  1.00  0.00     0.059 A 
ATOM     70  F   UNL A   1      43.481  32.392  33.383  1.00  0.00    -0.206 F 
ATOM     71  C   UNL A   1      44.226  35.659  32.026  1.00  0.00     0.060 A 
BRANCH  71  72
ATOM     72  S   UNL A   1      44.418  37.367  32.574  1.00  0.00     0.124 S 
ATOM     73  O   UNL A   1      43.409  37.449  33.625  1.00  0.00    -0.237 OA
ATOM     74  O   UNL A   1      45.805  37.399  33.025  1.00  0.00    -0.237 OA
ATOM     75  O   UNL A   1      44.136  38.143  31.370  1.00  0.00    -0.744 OA
ENDBRANCH  71  72
ENDBRANCH  50  64
BRANCH  51  76
ATOM     76  C   UNL A   1      42.752  23.704  27.663  1.00  0.00     0.058 A 
ATOM     77  C   UNL A   1      42.547  22.613  28.522  1.00  0.00     0.135 A 
ATOM     78  C   UNL A   1      42.775  23.454  26.283  1.00  0.00     0.135 A 
ATOM     79  F   UNL A   1      42.523  22.799  29.850  1.00  0.00    -0.206 F 
ATOM     80  C   UNL A   1      42.385  21.320  28.032  1.00  0.00     0.059 A 
ATOM     81  C   UNL A   1      42.594  22.173  25.769  1.00  0.00     0.059 A 
ATOM     82  F   UNL A   1      42.950  24.467  25.420  1.00  0.00    -0.206 F 
ATOM     83  C   UNL A   1      42.409  21.110  26.653  1.00  0.00     0.060 A 
BRANCH  83  84
ATOM     84  S   UNL A   1      42.143  19.437  26.024  1.00  0.00     0.124 S 
ATOM     85  O   UNL A   1      42.615  18.627  27.140  1.00  0.00    -0.237 OA
ATOM     86  O   UNL A   1      40.704  19.423  25.787  1.00  0.00    -0.237 OA
ATOM     87  O   UNL A   1      42.969  19.399  24.821  1.00  0.00    -0.744 OA
ENDBRANCH  83  84
ENDBRANCH  51  76
BRANCH  63  88
ATOM     88  C   UNL A   1      48.164  27.191  30.342  1.00  0.00     0.058 A 
ATOM     89  C   UNL A   1      49.189  27.508  29.440  1.00  0.00     0.135 A 
ATOM     90  C   UNL A   1      48.514  26.548  31.540  1.00  0.00     0.135 A 
ATOM     91  F   UNL A   1      48.903  28.118  28.278  1.00  0.00    -0.206 F 
ATOM     92  C   UNL A   1      50.514  27.184  29.707  1.00  0.00     0.059 A 
ATOM     93  C   UNL A   1      49.835  26.235  31.839  1.00  0.00     0.059 A 
ATOM     94  F   UNL A   1      47.569  26.234  32.440  1.00  0.00    -0.206 F 
ATOM     95  C   UNL A   1      50.828  26.549  30.910  1.00  0.00     0.060 A 
BRANCH  95  96
ATOM     96  S   UNL A   1      52.557  26.168  31.265  1.00  0.00     0.124 S 
ATOM     97  O   UNL A   1      52.443  24.866  31.912  1.00  0.00    -0.237 OA
ATOM     98  O   UNL A   1      53.158  26.164  29.935  1.00  0.00    -0.237 OA
ATOM     99  O   UNL A   1      52.975  27.267  32.130  1.00  0.00    -0.744 OA
ENDBRANCH  95  96
ENDBRANCH  63  88
ENDBRANCH  37  38
ENDBRANCH  29  32
ENDBRANCH  27  28
ENDBRANCH  26  27
ENDBRANCH   1  26
TORSDOF 19
ENDMDL
MODEL 2
REMARK VINA RESULT:     -10.7      3.384      9.244
REMARK SMILES CC[C@H](NC(=O)N1CCO[C@@H](CC(=O)NCCCCNC(=O)c2ccc(-c3c4nc(c(-c5c(F)cc(S(=O)(=O)[O-])cc5F)c5ccc([nH]5)c(-c5c(F)cc(S(=O)(=O)[O-])cc5F)c5nc(c(-c6c(F)cc(S(=O)(=O)[O-])cc6F)c6ccc3[nH]6)C=C5)C=C4)cc2)C1)c1cccs1
REMARK SMILES IDX 17 1 16 2 15 3 13 4 14 5 12 7 11 8 7 9 8 10 89 11 9 12 10 13
REMARK SMILES IDX 5 14 4 15 6 17 3 18 2 19 1 20 90 21 91 22 94 23 92 24 93 25
REMARK SMILES IDX 18 26 19 27 20 28 21 29 22 31 23 32 24 33 88 34 25 35 87 36
REMARK SMILES IDX 26 37 27 38 28 39 81 40 29 41 86 42 80 43 82 44 30 45 85 46
REMARK SMILES IDX 79 47 78 48 31 50 65 51 44 52 64 53 45 54 48 55 63 56 83 57
REMARK SMILES IDX 46 58 47 59 62 61 84 62 49 63 32 64 33 65 42 66 34 67 35 68
REMARK SMILES IDX 41 69 43 70 36 71 37 72 38 73 39 74 40 75 66 76 67 77 76 78
REMARK SMILES IDX 68 79 69 80 75 81 77 82 70 83 71 84 72 85 73 86 74 87 50 88
REMARK SMILES IDX 51 89 60 90 52 91 53 92 59 93 61 94 54 95 55 96 56 97 57 98
REMARK SMILES IDX 58 99
REMARK H PARENT 15 6 4 16 20 30 82 49 48 60
REMARK Flexibility Score: inf
ROOT
ATOM      1  C   UNL A   1      37.679  21.724  25.051  1.00  0.00     0.023 C 
ENDROOT
BRANCH   1   2
ATOM      2  C   UNL A   1      36.226  21.611  24.573  1.00  0.00     0.116 C 
BRANCH   2   3
ATOM      3  N   UNL A   1      35.327  21.374  25.695  1.00  0.00    -0.356 N 
ATOM      4  C   UNL A   1      34.653  22.253  26.497  1.00  0.00     0.222 C 
ATOM      5  O   UNL A   1      34.081  21.820  27.498  1.00  0.00    -0.275 OA
ATOM      6  H   UNL A   1      35.181  20.424  25.913  1.00  0.00     0.163 HD
BRANCH   4   7
ATOM      7  C   UNL A   1      34.616  23.731  26.167  1.00  0.00     0.133 C 
BRANCH   7   8
ATOM      8  C   UNL A   1      33.343  24.192  25.442  1.00  0.00     0.147 C 
ATOM      9  N   UNL A   1      32.649  25.441  23.344  1.00  0.00    -0.320 N 
ATOM     10  C   UNL A   1      32.112  24.188  22.841  1.00  0.00     0.150 C 
ATOM     11  C   UNL A   1      33.674  25.207  24.345  1.00  0.00     0.154 C 
ATOM     12  C   UNL A   1      31.651  23.311  24.004  1.00  0.00     0.182 C 
ATOM     13  O   UNL A   1      32.748  22.999  24.876  1.00  0.00    -0.374 OA
BRANCH   9  14
ATOM     14  C   UNL A   1      33.018  26.395  22.424  1.00  0.00     0.318 C 
ATOM     15  N   UNL A   1      32.776  27.692  22.733  1.00  0.00    -0.330 N 
ATOM     16  H   UNL A   1      33.452  28.326  22.400  1.00  0.00     0.166 HD
ATOM     17  O   UNL A   1      33.665  26.122  21.415  1.00  0.00    -0.249 OA
BRANCH  15  18
ATOM     18  C   UNL A   1      31.681  28.305  23.480  1.00  0.00     0.124 C 
BRANCH  18  19
ATOM     19  C   UNL A   1      30.308  27.850  22.942  1.00  0.00     0.027 C 
ATOM     20  C   UNL A   1      29.314  28.947  22.584  1.00  0.00     0.006 C 
ENDBRANCH  18  19
BRANCH  18  21
ATOM     21  C   UNL A   1      31.902  28.316  24.976  1.00  0.00     0.027 A 
ATOM     22  C   UNL A   1      31.175  27.607  25.920  1.00  0.00     0.017 A 
ATOM     23  S   UNL A   1      33.173  29.188  25.733  1.00  0.00    -0.147 S 
ATOM     24  C   UNL A   1      31.611  27.845  27.254  1.00  0.00     0.012 A 
ATOM     25  C   UNL A   1      32.687  28.699  27.294  1.00  0.00     0.065 A 
ENDBRANCH  18  21
ENDBRANCH  15  18
ENDBRANCH   9  14
ENDBRANCH   7   8
ENDBRANCH   4   7
ENDBRANCH   2   3
ENDBRANCH   1   2
BRANCH   1  26
ATOM     26  C   UNL A   1      38.328  20.432  25.506  1.00  0.00     0.023 C 
BRANCH  26  27
ATOM     27  C   UNL A   1      39.714  20.605  26.097  1.00  0.00     0.116 C 
BRANCH  27  28
ATOM     28  N   UNL A   1      40.557  19.419  26.012  1.00  0.00    -0.352 N 
ATOM     29  C   UNL A   1      41.931  19.340  26.136  1.00  0.00     0.251 C 
ATOM     30  H   UNL A   1      40.089  18.568  25.846  1.00  0.00     0.163 HD
ATOM     31  O   UNL A   1      42.518  18.281  26.005  1.00  0.00    -0.269 OA
BRANCH  29  32
ATOM     32  C   UNL A   1      42.676  20.595  26.368  1.00  0.00     0.039 A 
ATOM     33  C   UNL A   1      43.140  21.314  25.265  1.00  0.00     0.014 A 
ATOM     34  C   UNL A   1      42.779  21.120  27.657  1.00  0.00     0.014 A 
ATOM     35  C   UNL A   1      43.620  22.611  25.450  1.00  0.00     0.010 A 
ATOM     36  C   UNL A   1      43.151  22.447  27.822  1.00  0.00     0.010 A 
ATOM     37  C   UNL A   1      43.575  23.206  26.721  1.00  0.00    -0.014 A 
BRANCH  37  38
ATOM     38  C   UNL A   1      43.974  24.620  26.934  1.00  0.00     0.031 A 
ATOM     39  C   UNL A   1      45.412  25.021  26.742  1.00  0.00     0.074 A 
ATOM     40  C   UNL A   1      43.071  25.517  27.382  1.00  0.00     0.049 A 
ATOM     41  N   UNL A   1      45.989  26.169  26.980  1.00  0.00    -0.248 NA
ATOM     42  C   UNL A   1      46.332  23.976  26.261  1.00  0.00     0.031 C 
ATOM     43  C   UNL A   1      41.664  25.232  27.678  1.00  0.00     0.029 A 
ATOM     44  N   UNL A   1      43.205  26.849  27.678  1.00  0.00    -0.354 N 
ATOM     45  C   UNL A   1      47.338  25.976  26.710  1.00  0.00     0.074 A 
ATOM     46  C   UNL A   1      47.505  24.584  26.351  1.00  0.00     0.031 C 
ATOM     47  C   UNL A   1      41.060  26.362  28.081  1.00  0.00     0.029 A 
ATOM     48  C   UNL A   1      42.039  27.443  28.105  1.00  0.00     0.049 A 
ATOM     49  H   UNL A   1      44.056  27.336  27.592  1.00  0.00     0.167 HD
ATOM     50  C   UNL A   1      48.343  26.881  26.725  1.00  0.00     0.037 A 
ATOM     51  C   UNL A   1      41.791  28.714  28.474  1.00  0.00     0.037 A 
ATOM     52  C   UNL A   1      48.158  28.275  27.023  1.00  0.00     0.049 A 
ATOM     53  C   UNL A   1      42.914  29.715  28.434  1.00  0.00     0.074 A 
ATOM     54  C   UNL A   1      49.093  29.294  26.988  1.00  0.00     0.029 A 
ATOM     55  N   UNL A   1      46.952  28.847  27.401  1.00  0.00    -0.354 N 
ATOM     56  N   UNL A   1      44.172  29.529  28.112  1.00  0.00    -0.248 NA
ATOM     57  C   UNL A   1      42.584  31.100  28.800  1.00  0.00     0.031 C 
ATOM     58  C   UNL A   1      48.458  30.480  27.370  1.00  0.00     0.029 A 
ATOM     59  C   UNL A   1      47.120  30.205  27.610  1.00  0.00     0.049 A 
ATOM     60  H   UNL A   1      46.104  28.360  27.505  1.00  0.00     0.167 HD
ATOM     61  C   UNL A   1      44.779  30.775  28.217  1.00  0.00     0.074 A 
ATOM     62  C   UNL A   1      43.747  31.710  28.619  1.00  0.00     0.031 C 
ATOM     63  C   UNL A   1      46.074  31.116  28.003  1.00  0.00     0.037 A 
BRANCH  50  64
ATOM     64  C   UNL A   1      49.722  26.388  26.389  1.00  0.00     0.058 A 
ATOM     65  C   UNL A   1      50.192  26.365  25.065  1.00  0.00     0.135 A 
ATOM     66  C   UNL A   1      50.588  25.937  27.398  1.00  0.00     0.135 A 
ATOM     67  F   UNL A   1      49.399  26.767  24.059  1.00  0.00    -0.206 F 
ATOM     68  C   UNL A   1      51.456  25.879  24.749  1.00  0.00     0.059 A 
ATOM     69  C   UNL A   1      51.867  25.473  27.108  1.00  0.00     0.059 A 
ATOM     70  F   UNL A   1      50.189  25.935  28.680  1.00  0.00    -0.206 F 
ATOM     71  C   UNL A   1      52.285  25.431  25.778  1.00  0.00     0.060 A 
BRANCH  71  72
ATOM     72  S   UNL A   1      53.921  24.797  25.353  1.00  0.00     0.124 S 
ATOM     73  O   UNL A   1      54.693  25.178  26.530  1.00  0.00    -0.237 OA
ATOM     74  O   UNL A   1      53.672  23.368  25.194  1.00  0.00    -0.237 OA
ATOM     75  O   UNL A   1      54.252  25.512  24.125  1.00  0.00    -0.744 OA
ENDBRANCH  71  72
ENDBRANCH  50  64
BRANCH  51  76
ATOM     76  C   UNL A   1      40.418  29.120  28.876  1.00  0.00     0.058 A 
ATOM     77  C   UNL A   1      40.077  29.248  30.230  1.00  0.00     0.135 A 
ATOM     78  C   UNL A   1      39.429  29.403  27.922  1.00  0.00     0.135 A 
ATOM     79  F   UNL A   1      40.986  28.982  31.180  1.00  0.00    -0.206 F 
ATOM     80  C   UNL A   1      38.798  29.629  30.628  1.00  0.00     0.059 A 
ATOM     81  C   UNL A   1      38.149  29.807  28.294  1.00  0.00     0.059 A 
ATOM     82  F   UNL A   1      39.711  29.312  26.613  1.00  0.00    -0.206 F 
ATOM     83  C   UNL A   1      37.841  29.907  29.651  1.00  0.00     0.060 A 
BRANCH  83  84
ATOM     84  S   UNL A   1      36.200  30.453  30.175  1.00  0.00     0.124 S 
ATOM     85  O   UNL A   1      36.005  29.672  31.390  1.00  0.00    -0.237 OA
ATOM     86  O   UNL A   1      36.398  31.886  30.362  1.00  0.00    -0.237 OA
ATOM     87  O   UNL A   1      35.351  30.089  29.044  1.00  0.00    -0.744 OA
ENDBRANCH  83  84
ENDBRANCH  51  76
BRANCH  63  88
ATOM     88  C   UNL A   1      46.443  32.560  28.177  1.00  0.00     0.058 A 
ATOM     89  C   UNL A   1      46.289  33.487  27.135  1.00  0.00     0.135 A 
ATOM     90  C   UNL A   1      46.901  33.033  29.417  1.00  0.00     0.135 A 
ATOM     91  F   UNL A   1      45.860  33.082  25.929  1.00  0.00    -0.206 F 
ATOM     92  C   UNL A   1      46.593  34.832  27.312  1.00  0.00     0.059 A 
ATOM     93  C   UNL A   1      47.188  34.377  29.624  1.00  0.00     0.059 A 
ATOM     94  F   UNL A   1      47.055  32.185  30.448  1.00  0.00    -0.206 F 
ATOM     95  C   UNL A   1      47.040  35.268  28.560  1.00  0.00     0.060 A 
BRANCH  95  96
ATOM     96  S   UNL A   1      47.393  37.023  28.791  1.00  0.00     0.124 S 
ATOM     97  O   UNL A   1      46.914  37.586  27.532  1.00  0.00    -0.237 OA
ATOM     98  O   UNL A   1      46.602  37.350  29.972  1.00  0.00    -0.237 OA
ATOM     99  O   UNL A   1      48.840  37.055  28.985  1.00  0.00    -0.744 OA
ENDBRANCH  95  96
ENDBRANCH  63  88
ENDBRANCH  37  38
ENDBRANCH  29  32
ENDBRANCH  27  28
ENDBRANCH  26  27
ENDBRANCH   1  26
TORSDOF 19
ENDMDL
MODEL 3
REMARK VINA RESULT:     -10.6      3.507      8.381
REMARK SMILES CC[C@H](NC(=O)N1CCO[C@@H](CC(=O)NCCCCNC(=O)c2ccc(-c3c4nc(c(-c5c(F)cc(S(=O)(=O)[O-])cc5F)c5ccc([nH]5)c(-c5c(F)cc(S(=O)(=O)[O-])cc5F)c5nc(c(-c6c(F)cc(S(=O)(=O)[O-])cc6F)c6ccc3[nH]6)C=C5)C=C4)cc2)C1)c1cccs1
REMARK SMILES IDX 17 1 16 2 15 3 13 4 14 5 12 7 11 8 7 9 8 10 89 11 9 12 10 13
REMARK SMILES IDX 5 14 4 15 6 17 3 18 2 19 1 20 90 21 91 22 94 23 92 24 93 25
REMARK SMILES IDX 18 26 19 27 20 28 21 29 22 31 23 32 24 33 88 34 25 35 87 36
REMARK SMILES IDX 26 37 27 38 28 39 81 40 29 41 86 42 80 43 82 44 30 45 85 46
REMARK SMILES IDX 79 47 78 48 31 50 65 51 44 52 64 53 45 54 48 55 63 56 83 57
REMARK SMILES IDX 46 58 47 59 62 61 84 62 49 63 32 64 33 65 42 66 34 67 35 68
REMARK SMILES IDX 41 69 43 70 36 71 37 72 38 73 39 74 40 75 66 76 67 77 76 78
REMARK SMILES IDX 68 79 69 80 75 81 77 82 70 83 71 84 72 85 73 86 74 87 50 88
REMARK SMILES IDX 51 89 60 90 52 91 53 92 59 93 61 94 54 95 55 96 56 97 57 98
REMARK SMILES IDX 58 99
REMARK H PARENT 15 6 4 16 20 30 82 49 48 60
REMARK Flexibility Score: inf
ROOT
ATOM      1  C   UNL A   1      38.804  23.270  26.186  1.00  0.00     0.023 C 
ENDROOT
BRANCH   1   2
ATOM      2  C   UNL A   1      37.329  23.672  26.060  1.00  0.00     0.116 C 
BRANCH   2   3
ATOM      3  N   UNL A   1      36.456  22.578  26.468  1.00  0.00    -0.356 N 
ATOM      4  C   UNL A   1      35.333  22.069  25.877  1.00  0.00     0.222 C 
ATOM      5  O   UNL A   1      34.659  21.247  26.501  1.00  0.00    -0.275 OA
ATOM      6  H   UNL A   1      36.717  22.133  27.306  1.00  0.00     0.163 HD
BRANCH   4   7
ATOM      7  C   UNL A   1      34.918  22.511  24.489  1.00  0.00     0.133 C 
BRANCH   7   8
ATOM      8  C   UNL A   1      33.807  23.572  24.463  1.00  0.00     0.147 C 
ATOM      9  N   UNL A   1      32.715  25.198  22.849  1.00  0.00    -0.320 N 
ATOM     10  C   UNL A   1      31.513  24.385  22.927  1.00  0.00     0.150 C 
ATOM     11  C   UNL A   1      33.894  24.425  23.195  1.00  0.00     0.154 C 
ATOM     12  C   UNL A   1      31.428  23.707  24.294  1.00  0.00     0.182 C 
ATOM     13  O   UNL A   1      32.556  22.845  24.509  1.00  0.00    -0.374 OA
BRANCH   9  14
ATOM     14  C   UNL A   1      32.898  25.963  21.719  1.00  0.00     0.318 C 
ATOM     15  N   UNL A   1      32.887  27.310  21.865  1.00  0.00    -0.330 N 
ATOM     16  H   UNL A   1      33.499  27.793  21.263  1.00  0.00     0.166 HD
ATOM     17  O   UNL A   1      33.198  25.472  20.633  1.00  0.00    -0.249 OA
BRANCH  15  18
ATOM     18  C   UNL A   1      32.119  28.164  22.767  1.00  0.00     0.124 C 
BRANCH  18  19
ATOM     19  C   UNL A   1      30.613  28.124  22.436  1.00  0.00     0.027 C 
ATOM     20  C   UNL A   1      29.877  29.458  22.428  1.00  0.00     0.006 C 
ENDBRANCH  18  19
BRANCH  18  21
ATOM     21  C   UNL A   1      32.543  28.048  24.214  1.00  0.00     0.027 A 
ATOM     22  C   UNL A   1      33.789  28.368  24.734  1.00  0.00     0.017 A 
ATOM     23  S   UNL A   1      31.482  27.551  25.469  1.00  0.00    -0.147 S 
ATOM     24  C   UNL A   1      33.888  28.128  26.133  1.00  0.00     0.012 A 
ATOM     25  C   UNL A   1      32.702  27.669  26.657  1.00  0.00     0.065 A 
ENDBRANCH  18  21
ENDBRANCH  15  18
ENDBRANCH   9  14
ENDBRANCH   7   8
ENDBRANCH   4   7
ENDBRANCH   2   3
ENDBRANCH   1   2
BRANCH   1  26
ATOM     26  C   UNL A   1      39.145  21.860  25.744  1.00  0.00     0.023 C 
BRANCH  26  27
ATOM     27  C   UNL A   1      39.794  21.011  26.819  1.00  0.00     0.116 C 
BRANCH  27  28
ATOM     28  N   UNL A   1      40.523  19.853  26.313  1.00  0.00    -0.352 N 
ATOM     29  C   UNL A   1      41.874  19.748  26.047  1.00  0.00     0.251 C 
ATOM     30  H   UNL A   1      39.985  19.046  26.141  1.00  0.00     0.163 HD
ATOM     31  O   UNL A   1      42.350  18.725  25.587  1.00  0.00    -0.269 OA
BRANCH  29  32
ATOM     32  C   UNL A   1      42.718  20.940  26.274  1.00  0.00     0.039 A 
ATOM     33  C   UNL A   1      43.058  21.741  25.182  1.00  0.00     0.014 A 
ATOM     34  C   UNL A   1      43.038  21.334  27.575  1.00  0.00     0.014 A 
ATOM     35  C   UNL A   1      43.635  22.991  25.407  1.00  0.00     0.010 A 
ATOM     36  C   UNL A   1      43.507  22.620  27.798  1.00  0.00     0.010 A 
ATOM     37  C   UNL A   1      43.811  23.462  26.718  1.00  0.00    -0.014 A 
BRANCH  37  38
ATOM     38  C   UNL A   1      44.319  24.830  26.992  1.00  0.00     0.031 A 
ATOM     39  C   UNL A   1      43.368  25.888  27.484  1.00  0.00     0.074 A 
ATOM     40  C   UNL A   1      45.602  25.142  26.717  1.00  0.00     0.049 A 
ATOM     41  N   UNL A   1      43.580  27.163  27.679  1.00  0.00    -0.248 NA
ATOM     42  C   UNL A   1      41.983  25.463  27.748  1.00  0.00     0.031 C 
ATOM     43  C   UNL A   1      46.601  24.222  26.166  1.00  0.00     0.029 A 
ATOM     44  N   UNL A   1      46.284  26.324  26.854  1.00  0.00    -0.354 N 
ATOM     45  C   UNL A   1      42.352  27.694  28.055  1.00  0.00     0.074 A 
ATOM     46  C   UNL A   1      41.387  26.618  28.001  1.00  0.00     0.031 C 
ATOM     47  C   UNL A   1      47.774  24.866  26.043  1.00  0.00     0.029 A 
ATOM     48  C   UNL A   1      47.604  26.250  26.473  1.00  0.00     0.049 A 
ATOM     49  H   UNL A   1      45.868  27.149  27.194  1.00  0.00     0.167 HD
ATOM     50  C   UNL A   1      42.059  28.957  28.445  1.00  0.00     0.037 A 
ATOM     51  C   UNL A   1      48.567  27.193  26.472  1.00  0.00     0.037 A 
ATOM     52  C   UNL A   1      43.036  30.005  28.555  1.00  0.00     0.049 A 
ATOM     53  C   UNL A   1      48.230  28.576  26.958  1.00  0.00     0.074 A 
ATOM     54  C   UNL A   1      42.863  31.297  29.018  1.00  0.00     0.029 A 
ATOM     55  N   UNL A   1      44.373  29.877  28.210  1.00  0.00    -0.354 N 
ATOM     56  N   UNL A   1      47.078  29.045  27.374  1.00  0.00    -0.248 NA
ATOM     57  C   UNL A   1      49.324  29.557  26.983  1.00  0.00     0.031 C 
ATOM     58  C   UNL A   1      44.092  31.960  28.927  1.00  0.00     0.029 A 
ATOM     59  C   UNL A   1      45.037  31.069  28.441  1.00  0.00     0.049 A 
ATOM     60  H   UNL A   1      44.788  29.059  27.854  1.00  0.00     0.167 HD
ATOM     61  C   UNL A   1      47.311  30.369  27.728  1.00  0.00     0.074 A 
ATOM     62  C   UNL A   1      48.718  30.622  27.490  1.00  0.00     0.031 C 
ATOM     63  C   UNL A   1      46.440  31.293  28.204  1.00  0.00     0.037 A 
BRANCH  50  64
ATOM     64  C   UNL A   1      40.630  29.256  28.798  1.00  0.00     0.058 A 
ATOM     65  C   UNL A   1      39.651  29.439  27.807  1.00  0.00     0.135 A 
ATOM     66  C   UNL A   1      40.229  29.357  30.140  1.00  0.00     0.135 A 
ATOM     67  F   UNL A   1      39.984  29.373  26.508  1.00  0.00    -0.206 F 
ATOM     68  C   UNL A   1      38.335  29.749  28.132  1.00  0.00     0.059 A 
ATOM     69  C   UNL A   1      38.911  29.637  30.488  1.00  0.00     0.059 A 
ATOM     70  F   UNL A   1      41.124  29.194  31.126  1.00  0.00    -0.206 F 
ATOM     71  C   UNL A   1      37.975  29.850  29.476  1.00  0.00     0.060 A 
BRANCH  71  72
ATOM     72  S   UNL A   1      36.265  30.256  29.883  1.00  0.00     0.124 S 
ATOM     73  O   UNL A   1      36.327  31.711  29.973  1.00  0.00    -0.237 OA
ATOM     74  O   UNL A   1      35.535  29.724  28.737  1.00  0.00    -0.237 OA
ATOM     75  O   UNL A   1      36.041  29.557  31.144  1.00  0.00    -0.744 OA
ENDBRANCH  71  72
ENDBRANCH  50  64
BRANCH  51  76
ATOM     76  C   UNL A   1      49.945  26.850  26.032  1.00  0.00     0.058 A 
ATOM     77  C   UNL A   1      50.358  27.096  24.714  1.00  0.00     0.135 A 
ATOM     78  C   UNL A   1      50.879  26.290  26.916  1.00  0.00     0.135 A 
ATOM     79  F   UNL A   1      49.499  27.625  23.830  1.00  0.00    -0.206 F 
ATOM     80  C   UNL A   1      51.645  26.786  24.282  1.00  0.00     0.059 A 
ATOM     81  C   UNL A   1      52.178  25.991  26.514  1.00  0.00     0.059 A 
ATOM     82  F   UNL A   1      50.538  26.052  28.193  1.00  0.00    -0.206 F 
ATOM     83  C   UNL A   1      52.548  26.234  25.191  1.00  0.00     0.060 A 
BRANCH  83  84
ATOM     84  S   UNL A   1      54.232  25.884  24.637  1.00  0.00     0.124 S 
ATOM     85  O   UNL A   1      54.150  26.220  23.221  1.00  0.00    -0.237 OA
ATOM     86  O   UNL A   1      55.022  26.790  25.464  1.00  0.00    -0.237 OA
ATOM     87  O   UNL A   1      54.396  24.466  24.943  1.00  0.00    -0.744 OA
ENDBRANCH  83  84
ENDBRANCH  51  76
BRANCH  63  88
ATOM     88  C   UNL A   1      46.988  32.655  28.520  1.00  0.00     0.058 A 
ATOM     89  C   UNL A   1      46.978  33.687  27.571  1.00  0.00     0.135 A 
ATOM     90  C   UNL A   1      47.472  32.945  29.806  1.00  0.00     0.135 A 
ATOM     91  F   UNL A   1      46.530  33.457  26.326  1.00  0.00    -0.206 F 
ATOM     92  C   UNL A   1      47.448  34.959  27.880  1.00  0.00     0.059 A 
ATOM     93  C   UNL A   1      47.924  34.215  30.144  1.00  0.00     0.059 A 
ATOM     94  F   UNL A   1      47.490  31.992  30.752  1.00  0.00    -0.206 F 
ATOM     95  C   UNL A   1      47.918  35.213  29.170  1.00  0.00     0.060 A 
BRANCH  95  96
ATOM     96  S   UNL A   1      48.488  36.878  29.572  1.00  0.00     0.124 S 
ATOM     97  O   UNL A   1      47.889  37.083  30.887  1.00  0.00    -0.237 OA
ATOM     98  O   UNL A   1      49.939  36.727  29.554  1.00  0.00    -0.237 OA
ATOM     99  O   UNL A   1      47.936  37.695  28.496  1.00  0.00    -0.744 OA
ENDBRANCH  95  96
ENDBRANCH  63  88
ENDBRANCH  37  38
ENDBRANCH  29  32
ENDBRANCH  27  28
ENDBRANCH  26  27
ENDBRANCH   1  26
TORSDOF 19
ENDMDL
