MODEL 1
REMARK VINA RESULT:     -11.7      0.000      0.000
REMARK SMILES O=C(CO/N=C\c1ccccc1)Nc1ccccc1C(=O)NCCCCNC(=O)c1ccc(-c2c3nc(c(-c4c(F)cc(S(=O)(=O)[O-])cc4F)c4ccc([nH]4)c(-c4c(F)cc(S(=O)(=O)[O-])cc4F)c4nc(c(-c5c(F)cc(S(=O)(=O)[O-])cc5F)c5ccc2[nH]5)C=C4)C=C3)cc1
REMARK SMILES IDX 23 1 22 2 20 3 21 4 19 6 14 7 15 8 16 9 18 10 17 11 13 12
REMARK SMILES IDX 1 13 2 14 3 16 4 17 5 18 6 19 7 20 8 21 12 22 9 23 11 24
REMARK SMILES IDX 10 25 24 26 25 27 26 28 27 29 28 30 29 32 30 33 31 34 95 35
REMARK SMILES IDX 32 36 94 37 33 38 34 39 35 40 88 41 36 42 93 43 87 44 89 45
REMARK SMILES IDX 37 46 92 47 86 48 85 49 38 51 72 52 51 53 71 54 52 55 55 56
REMARK SMILES IDX 70 57 90 58 53 59 54 60 69 62 91 63 56 64 39 65 40 66 49 67
REMARK SMILES IDX 41 68 42 69 48 70 50 71 43 72 44 73 45 74 46 75 47 76 73 77
REMARK SMILES IDX 74 78 83 79 75 80 76 81 82 82 84 83 77 84 78 85 79 86 80 87
REMARK SMILES IDX 81 88 57 89 58 90 67 91 59 92 60 93 66 94 68 95 61 96 62 97
REMARK SMILES IDX 63 98 64 99 65 100
REMARK H PARENT 22 5 13 15 27 31 89 50 55 61
REMARK Flexibility Score: inf
ROOT
ATOM      1  C   UNL A   1      33.596  28.827  22.817  1.00  0.00     0.116 C 
ENDROOT
BRANCH   1   2
ATOM      2  N   UNL A   1      33.780  27.712  21.923  1.00  0.00    -0.352 N 
ATOM      3  C   UNL A   1      32.973  26.608  21.719  1.00  0.00     0.253 C 
ATOM      4  O   UNL A   1      33.273  25.857  20.786  1.00  0.00    -0.269 OA
ATOM      5  H   UNL A   1      34.598  27.741  21.378  1.00  0.00     0.163 HD
BRANCH   3   6
ATOM      6  C   UNL A   1      31.892  26.174  22.667  1.00  0.00     0.063 A 
ATOM      7  C   UNL A   1      31.761  24.970  23.391  1.00  0.00     0.054 A 
ATOM      8  C   UNL A   1      30.533  24.696  24.034  1.00  0.00     0.027 A 
ATOM      9  C   UNL A   1      29.501  25.635  24.080  1.00  0.00     0.002 A 
ATOM     10  C   UNL A   1      30.841  27.121  22.755  1.00  0.00     0.016 A 
ATOM     11  C   UNL A   1      29.667  26.865  23.465  1.00  0.00     0.001 A 
BRANCH   7  12
ATOM     12  N   UNL A   1      32.745  23.974  23.596  1.00  0.00    -0.322 N 
ATOM     13  O   UNL A   1      34.077  25.014  25.179  1.00  0.00    -0.271 OA
ATOM     14  C   UNL A   1      33.853  24.078  24.417  1.00  0.00     0.265 C 
ATOM     15  H   UNL A   1      32.631  23.127  23.107  1.00  0.00     0.170 HD
BRANCH  14  16
ATOM     16  C   UNL A   1      34.870  22.955  24.195  1.00  0.00     0.363 C 
BRANCH  16  17
ATOM     17  O   UNL A   1      34.322  21.646  24.228  1.00  0.00    -0.386 OA
BRANCH  17  18
ATOM     18  N   UNL A   1      33.409  21.571  25.286  1.00  0.00    -0.094 NA
ATOM     19  C   UNL A   1      32.828  20.411  25.353  1.00  0.00     0.162 C 
BRANCH  19  20
ATOM     20  C   UNL A   1      33.076  19.229  24.515  1.00  0.00    -0.004 A 
ATOM     21  C   UNL A   1      34.175  18.425  24.819  1.00  0.00     0.010 A 
ATOM     22  C   UNL A   1      32.291  18.972  23.390  1.00  0.00     0.010 A 
ATOM     23  C   UNL A   1      34.476  17.335  24.002  1.00  0.00     0.001 A 
ATOM     24  C   UNL A   1      32.604  17.887  22.569  1.00  0.00     0.001 A 
ATOM     25  C   UNL A   1      33.692  17.068  22.877  1.00  0.00     0.000 A 
ENDBRANCH  19  20
ENDBRANCH  17  18
ENDBRANCH  16  17
ENDBRANCH  14  16
ENDBRANCH   7  12
ENDBRANCH   3   6
ENDBRANCH   1   2
BRANCH   1  26
ATOM     26  C   UNL A   1      33.779  28.552  24.304  1.00  0.00     0.023 C 
BRANCH  26  27
ATOM     27  C   UNL A   1      33.339  29.654  25.274  1.00  0.00     0.023 C 
BRANCH  27  28
ATOM     28  C   UNL A   1      33.382  29.366  26.778  1.00  0.00     0.116 C 
BRANCH  28  29
ATOM     29  N   UNL A   1      33.435  30.543  27.635  1.00  0.00    -0.352 N 
ATOM     30  C   UNL A   1      34.474  31.030  28.408  1.00  0.00     0.251 C 
ATOM     31  H   UNL A   1      32.606  31.071  27.670  1.00  0.00     0.163 HD
ATOM     32  O   UNL A   1      34.320  32.060  29.046  1.00  0.00    -0.269 OA
BRANCH  30  33
ATOM     33  C   UNL A   1      35.740  30.265  28.536  1.00  0.00     0.039 A 
ATOM     34  C   UNL A   1      36.626  30.281  27.453  1.00  0.00     0.014 A 
ATOM     35  C   UNL A   1      36.098  29.608  29.715  1.00  0.00     0.014 A 
ATOM     36  C   UNL A   1      37.917  29.771  27.602  1.00  0.00     0.010 A 
ATOM     37  C   UNL A   1      37.409  29.165  29.888  1.00  0.00     0.010 A 
ATOM     38  C   UNL A   1      38.344  29.283  28.847  1.00  0.00    -0.014 A 
BRANCH  38  39
ATOM     39  C   UNL A   1      39.781  28.994  29.100  1.00  0.00     0.031 A 
ATOM     40  C   UNL A   1      40.692  30.048  29.660  1.00  0.00     0.074 A 
ATOM     41  C   UNL A   1      40.278  27.789  28.745  1.00  0.00     0.049 A 
ATOM     42  N   UNL A   1      41.980  29.991  29.882  1.00  0.00    -0.248 NA
ATOM     43  C   UNL A   1      40.082  31.344  29.994  1.00  0.00     0.031 C 
ATOM     44  C   UNL A   1      39.506  26.702  28.133  1.00  0.00     0.029 A 
ATOM     45  N   UNL A   1      41.547  27.275  28.835  1.00  0.00    -0.354 N 
ATOM     46  C   UNL A   1      42.338  31.240  30.374  1.00  0.00     0.074 A 
ATOM     47  C   UNL A   1      41.138  32.050  30.375  1.00  0.00     0.031 C 
ATOM     48  C   UNL A   1      40.309  25.648  27.928  1.00  0.00     0.029 A 
ATOM     49  C   UNL A   1      41.661  25.990  28.356  1.00  0.00     0.049 A 
ATOM     50  H   UNL A   1      42.307  27.778  29.208  1.00  0.00     0.167 HD
ATOM     51  C   UNL A   1      43.550  31.665  30.803  1.00  0.00     0.037 A 
ATOM     52  C   UNL A   1      42.732  25.178  28.267  1.00  0.00     0.037 A 
ATOM     53  C   UNL A   1      44.737  30.849  30.815  1.00  0.00     0.049 A 
ATOM     54  C   UNL A   1      44.065  25.672  28.761  1.00  0.00     0.074 A 
ATOM     55  C   UNL A   1      46.003  31.174  31.269  1.00  0.00     0.029 A 
ATOM     56  N   UNL A   1      44.803  29.542  30.352  1.00  0.00    -0.354 N 
ATOM     57  N   UNL A   1      44.369  26.838  29.277  1.00  0.00    -0.248 NA
ATOM     58  C   UNL A   1      45.198  24.741  28.665  1.00  0.00     0.031 C 
ATOM     59  C   UNL A   1      46.842  30.075  31.056  1.00  0.00     0.029 A 
ATOM     60  C   UNL A   1      46.090  29.051  30.502  1.00  0.00     0.049 A 
ATOM     61  H   UNL A   1      44.047  29.037  29.973  1.00  0.00     0.167 HD
ATOM     62  C   UNL A   1      45.721  26.773  29.590  1.00  0.00     0.074 A 
ATOM     63  C   UNL A   1      46.174  25.448  29.218  1.00  0.00     0.031 C 
ATOM     64  C   UNL A   1      46.518  27.724  30.136  1.00  0.00     0.037 A 
BRANCH  51  65
ATOM     65  C   UNL A   1      43.652  33.077  31.311  1.00  0.00     0.058 A 
ATOM     66  C   UNL A   1      44.113  34.118  30.489  1.00  0.00     0.135 A 
ATOM     67  C   UNL A   1      43.251  33.402  32.618  1.00  0.00     0.135 A 
ATOM     68  F   UNL A   1      44.522  33.859  29.238  1.00  0.00    -0.206 F 
ATOM     69  C   UNL A   1      44.197  35.426  30.952  1.00  0.00     0.059 A 
ATOM     70  C   UNL A   1      43.304  34.709  33.093  1.00  0.00     0.059 A 
ATOM     71  F   UNL A   1      42.802  32.444  33.445  1.00  0.00    -0.206 F 
ATOM     72  C   UNL A   1      43.792  35.712  32.257  1.00  0.00     0.060 A 
BRANCH  72  73
ATOM     73  S   UNL A   1      43.901  37.418  32.839  1.00  0.00     0.124 S 
ATOM     74  O   UNL A   1      45.260  37.458  33.367  1.00  0.00    -0.237 OA
ATOM     75  O   UNL A   1      43.676  38.182  31.615  1.00  0.00    -0.237 OA
ATOM     76  O   UNL A   1      42.837  37.507  33.833  1.00  0.00    -0.744 OA
ENDBRANCH  72  73
ENDBRANCH  51  65
BRANCH  52  77
ATOM     77  C   UNL A   1      42.591  23.807  27.706  1.00  0.00     0.058 A 
ATOM     78  C   UNL A   1      42.465  22.693  28.550  1.00  0.00     0.135 A 
ATOM     79  C   UNL A   1      42.582  23.581  26.321  1.00  0.00     0.135 A 
ATOM     80  F   UNL A   1      42.473  22.858  29.881  1.00  0.00    -0.206 F 
ATOM     81  C   UNL A   1      42.358  21.402  28.043  1.00  0.00     0.059 A 
ATOM     82  C   UNL A   1      42.452  22.301  25.790  1.00  0.00     0.059 A 
ATOM     83  F   UNL A   1      42.680  24.614  25.470  1.00  0.00    -0.206 F 
ATOM     84  C   UNL A   1      42.354  21.216  26.660  1.00  0.00     0.060 A 
BRANCH  84  85
ATOM     85  S   UNL A   1      42.178  19.539  26.009  1.00  0.00     0.124 S 
ATOM     86  O   UNL A   1      43.060  19.583  24.849  1.00  0.00    -0.237 OA
ATOM     87  O   UNL A   1      42.636  18.724  27.130  1.00  0.00    -0.237 OA
ATOM     88  O   UNL A   1      40.752  19.443  25.717  1.00  0.00    -0.744 OA
ENDBRANCH  84  85
ENDBRANCH  52  77
BRANCH  64  89
ATOM     89  C   UNL A   1      47.951  27.357  30.395  1.00  0.00     0.058 A 
ATOM     90  C   UNL A   1      48.346  26.736  31.589  1.00  0.00     0.135 A 
ATOM     91  C   UNL A   1      48.931  27.585  29.415  1.00  0.00     0.135 A 
ATOM     92  F   UNL A   1      47.449  26.504  32.559  1.00  0.00    -0.206 F 
ATOM     93  C   UNL A   1      49.670  26.371  31.812  1.00  0.00     0.059 A 
ATOM     94  C   UNL A   1      50.255  27.207  29.608  1.00  0.00     0.059 A 
ATOM     95  F   UNL A   1      48.602  28.169  28.253  1.00  0.00    -0.206 F 
ATOM     96  C   UNL A   1      50.617  26.609  30.815  1.00  0.00     0.060 A 
BRANCH  96  97
ATOM     97  S   UNL A   1      52.325  26.096  31.099  1.00  0.00     0.124 S 
ATOM     98  O   UNL A   1      52.809  27.161  31.971  1.00  0.00    -0.237 OA
ATOM     99  O   UNL A   1      52.160  24.789  31.727  1.00  0.00    -0.237 OA
ATOM    100  O   UNL A   1      52.899  26.072  29.758  1.00  0.00    -0.744 OA
ENDBRANCH  96  97
ENDBRANCH  64  89
ENDBRANCH  38  39
ENDBRANCH  30  33
ENDBRANCH  28  29
ENDBRANCH  27  28
ENDBRANCH  26  27
ENDBRANCH   1  26
TORSDOF 19
ENDMDL
MODEL 2
REMARK VINA RESULT:     -11.4      2.937      4.886
REMARK SMILES O=C(CO/N=C\c1ccccc1)Nc1ccccc1C(=O)NCCCCNC(=O)c1ccc(-c2c3nc(c(-c4c(F)cc(S(=O)(=O)[O-])cc4F)c4ccc([nH]4)c(-c4c(F)cc(S(=O)(=O)[O-])cc4F)c4nc(c(-c5c(F)cc(S(=O)(=O)[O-])cc5F)c5ccc2[nH]5)C=C4)C=C3)cc1
REMARK SMILES IDX 23 1 22 2 20 3 21 4 19 6 14 7 15 8 16 9 18 10 17 11 13 12
REMARK SMILES IDX 1 13 2 14 3 16 4 17 5 18 6 19 7 20 8 21 12 22 9 23 11 24
REMARK SMILES IDX 10 25 24 26 25 27 26 28 27 29 28 30 29 32 30 33 31 34 95 35
REMARK SMILES IDX 32 36 94 37 33 38 34 39 35 40 88 41 36 42 93 43 87 44 89 45
REMARK SMILES IDX 37 46 92 47 86 48 85 49 38 51 72 52 51 53 71 54 52 55 55 56
REMARK SMILES IDX 70 57 90 58 53 59 54 60 69 62 91 63 56 64 39 65 40 66 49 67
REMARK SMILES IDX 41 68 42 69 48 70 50 71 43 72 44 73 45 74 46 75 47 76 73 77
REMARK SMILES IDX 74 78 83 79 75 80 76 81 82 82 84 83 77 84 78 85 79 86 80 87
REMARK SMILES IDX 81 88 57 89 58 90 67 91 59 92 60 93 66 94 68 95 61 96 62 97
REMARK SMILES IDX 63 98 64 99 65 100
REMARK H PARENT 22 5 13 15 27 31 89 50 55 61
REMARK Flexibility Score: inf
ROOT
ATOM      1  C   UNL A   1      32.148  26.311  26.512  1.00  0.00     0.116 C 
ENDROOT
BRANCH   1   2
ATOM      2  N   UNL A   1      31.154  25.297  26.754  1.00  0.00    -0.352 N 
ATOM      3  C   UNL A   1      31.308  23.928  26.874  1.00  0.00     0.253 C 
ATOM      4  O   UNL A   1      30.318  23.280  27.228  1.00  0.00    -0.269 OA
ATOM      5  H   UNL A   1      30.232  25.626  26.846  1.00  0.00     0.163 HD
BRANCH   3   6
ATOM      6  C   UNL A   1      32.528  23.179  26.420  1.00  0.00     0.063 A 
ATOM      7  C   UNL A   1      32.959  22.871  25.112  1.00  0.00     0.054 A 
ATOM      8  C   UNL A   1      34.015  21.948  24.947  1.00  0.00     0.027 A 
ATOM      9  C   UNL A   1      34.723  21.436  26.036  1.00  0.00     0.002 A 
ATOM     10  C   UNL A   1      33.282  22.670  27.506  1.00  0.00     0.016 A 
ATOM     11  C   UNL A   1      34.375  21.822  27.320  1.00  0.00     0.001 A 
BRANCH   7  12
ATOM     12  N   UNL A   1      32.478  23.409  23.895  1.00  0.00    -0.322 N 
ATOM     13  O   UNL A   1      33.854  25.259  23.677  1.00  0.00    -0.271 OA
ATOM     14  C   UNL A   1      32.907  24.579  23.294  1.00  0.00     0.265 C 
ATOM     15  H   UNL A   1      31.771  22.904  23.433  1.00  0.00     0.170 HD
BRANCH  14  16
ATOM     16  C   UNL A   1      31.994  25.035  22.153  1.00  0.00     0.363 C 
BRANCH  16  17
ATOM     17  O   UNL A   1      31.147  26.128  22.475  1.00  0.00    -0.386 OA
BRANCH  17  18
ATOM     18  N   UNL A   1      30.384  25.786  23.597  1.00  0.00    -0.094 NA
ATOM     19  C   UNL A   1      29.545  26.723  23.925  1.00  0.00     0.162 C 
BRANCH  19  20
ATOM     20  C   UNL A   1      29.296  27.994  23.230  1.00  0.00    -0.004 A 
ATOM     21  C   UNL A   1      27.973  28.403  23.059  1.00  0.00     0.010 A 
ATOM     22  C   UNL A   1      30.347  28.723  22.672  1.00  0.00     0.010 A 
ATOM     23  C   UNL A   1      27.701  29.571  22.345  1.00  0.00     0.001 A 
ATOM     24  C   UNL A   1      30.069  29.883  21.948  1.00  0.00     0.001 A 
ATOM     25  C   UNL A   1      28.749  30.308  21.788  1.00  0.00     0.000 A 
ENDBRANCH  19  20
ENDBRANCH  17  18
ENDBRANCH  16  17
ENDBRANCH  14  16
ENDBRANCH   7  12
ENDBRANCH   3   6
ENDBRANCH   1   2
BRANCH   1  26
ATOM     26  C   UNL A   1      31.776  27.740  26.884  1.00  0.00     0.023 C 
BRANCH  26  27
ATOM     27  C   UNL A   1      32.208  28.846  25.914  1.00  0.00     0.023 C 
BRANCH  27  28
ATOM     28  C   UNL A   1      33.593  29.475  26.090  1.00  0.00     0.116 C 
BRANCH  28  29
ATOM     29  N   UNL A   1      33.607  30.778  26.741  1.00  0.00    -0.352 N 
ATOM     30  C   UNL A   1      34.539  31.327  27.604  1.00  0.00     0.251 C 
ATOM     31  H   UNL A   1      32.838  31.357  26.534  1.00  0.00     0.163 HD
ATOM     32  O   UNL A   1      34.375  32.462  28.027  1.00  0.00    -0.269 OA
BRANCH  30  33
ATOM     33  C   UNL A   1      35.686  30.518  28.088  1.00  0.00     0.039 A 
ATOM     34  C   UNL A   1      36.902  30.635  27.405  1.00  0.00     0.014 A 
ATOM     35  C   UNL A   1      35.605  29.719  29.230  1.00  0.00     0.014 A 
ATOM     36  C   UNL A   1      38.061  30.076  27.948  1.00  0.00     0.010 A 
ATOM     37  C   UNL A   1      36.773  29.223  29.809  1.00  0.00     0.010 A 
ATOM     38  C   UNL A   1      38.018  29.435  29.197  1.00  0.00    -0.014 A 
BRANCH  38  39
ATOM     39  C   UNL A   1      39.272  29.079  29.913  1.00  0.00     0.031 A 
ATOM     40  C   UNL A   1      39.705  29.840  31.133  1.00  0.00     0.074 A 
ATOM     41  C   UNL A   1      40.061  28.107  29.407  1.00  0.00     0.049 A 
ATOM     42  N   UNL A   1      40.796  29.709  31.842  1.00  0.00    -0.248 NA
ATOM     43  C   UNL A   1      38.806  30.904  31.606  1.00  0.00     0.031 C 
ATOM     44  C   UNL A   1      39.779  27.336  28.191  1.00  0.00     0.029 A 
ATOM     45  N   UNL A   1      41.263  27.605  29.838  1.00  0.00    -0.354 N 
ATOM     46  C   UNL A   1      40.722  30.674  32.839  1.00  0.00     0.074 A 
ATOM     47  C   UNL A   1      39.498  31.414  32.615  1.00  0.00     0.031 C 
ATOM     48  C   UNL A   1      40.764  26.447  27.991  1.00  0.00     0.029 A 
ATOM     49  C   UNL A   1      41.767  26.605  29.038  1.00  0.00     0.049 A 
ATOM     50  H   UNL A   1      41.724  27.930  30.646  1.00  0.00     0.167 HD
ATOM     51  C   UNL A   1      41.584  30.907  33.857  1.00  0.00     0.037 A 
ATOM     52  C   UNL A   1      42.909  25.896  29.132  1.00  0.00     0.037 A 
ATOM     53  C   UNL A   1      42.792  30.156  34.083  1.00  0.00     0.049 A 
ATOM     54  C   UNL A   1      43.843  26.169  30.280  1.00  0.00     0.074 A 
ATOM     55  C   UNL A   1      43.710  30.289  35.110  1.00  0.00     0.029 A 
ATOM     56  N   UNL A   1      43.250  29.129  33.269  1.00  0.00    -0.354 N 
ATOM     57  N   UNL A   1      43.725  27.047  31.246  1.00  0.00    -0.248 NA
ATOM     58  C   UNL A   1      45.064  25.353  30.353  1.00  0.00     0.031 C 
ATOM     59  C   UNL A   1      44.738  29.362  34.903  1.00  0.00     0.029 A 
ATOM     60  C   UNL A   1      44.441  28.627  33.766  1.00  0.00     0.049 A 
ATOM     61  H   UNL A   1      42.796  28.806  32.458  1.00  0.00     0.167 HD
ATOM     62  C   UNL A   1      44.840  26.874  32.055  1.00  0.00     0.074 A 
ATOM     63  C   UNL A   1      45.617  25.798  31.473  1.00  0.00     0.031 C 
ATOM     64  C   UNL A   1      45.193  27.546  33.179  1.00  0.00     0.037 A 
BRANCH  51  65
ATOM     65  C   UNL A   1      41.244  32.014  34.816  1.00  0.00     0.058 A 
ATOM     66  C   UNL A   1      41.730  33.319  34.629  1.00  0.00     0.135 A 
ATOM     67  C   UNL A   1      40.395  31.782  35.911  1.00  0.00     0.135 A 
ATOM     68  F   UNL A   1      42.556  33.591  33.608  1.00  0.00    -0.206 F 
ATOM     69  C   UNL A   1      41.407  34.347  35.507  1.00  0.00     0.059 A 
ATOM     70  C   UNL A   1      40.040  32.802  36.788  1.00  0.00     0.059 A 
ATOM     71  F   UNL A   1      39.902  30.553  36.135  1.00  0.00    -0.206 F 
ATOM     72  C   UNL A   1      40.562  34.079  36.586  1.00  0.00     0.060 A 
BRANCH  72  73
ATOM     73  S   UNL A   1      40.148  35.429  37.712  1.00  0.00     0.124 S 
ATOM     74  O   UNL A   1      41.340  35.481  38.553  1.00  0.00    -0.237 OA
ATOM     75  O   UNL A   1      39.969  36.554  36.800  1.00  0.00    -0.237 OA
ATOM     76  O   UNL A   1      38.934  34.961  38.371  1.00  0.00    -0.744 OA
ENDBRANCH  72  73
ENDBRANCH  51  65
BRANCH  52  77
ATOM     77  C   UNL A   1      43.227  24.847  28.127  1.00  0.00     0.058 A 
ATOM     78  C   UNL A   1      42.904  23.502  28.362  1.00  0.00     0.135 A 
ATOM     79  C   UNL A   1      43.861  25.164  26.915  1.00  0.00     0.135 A 
ATOM     80  F   UNL A   1      42.301  23.149  29.507  1.00  0.00    -0.206 F 
ATOM     81  C   UNL A   1      43.217  22.504  27.444  1.00  0.00     0.059 A 
ATOM     82  C   UNL A   1      44.163  24.186  25.971  1.00  0.00     0.059 A 
ATOM     83  F   UNL A   1      44.174  26.438  26.633  1.00  0.00    -0.206 F 
ATOM     84  C   UNL A   1      43.848  22.857  26.251  1.00  0.00     0.060 A 
BRANCH  84  85
ATOM     85  S   UNL A   1      44.220  21.561  25.048  1.00  0.00     0.124 S 
ATOM     86  O   UNL A   1      44.147  22.298  23.792  1.00  0.00    -0.237 OA
ATOM     87  O   UNL A   1      45.553  21.131  25.460  1.00  0.00    -0.237 OA
ATOM     88  O   UNL A   1      43.159  20.585  25.272  1.00  0.00    -0.744 OA
ENDBRANCH  84  85
ENDBRANCH  52  77
BRANCH  64  89
ATOM     89  C   UNL A   1      46.454  27.115  33.872  1.00  0.00     0.058 A 
ATOM     90  C   UNL A   1      46.443  26.133  34.874  1.00  0.00     0.135 A 
ATOM     91  C   UNL A   1      47.693  27.657  33.494  1.00  0.00     0.135 A 
ATOM     92  F   UNL A   1      45.283  25.591  35.276  1.00  0.00    -0.206 F 
ATOM     93  C   UNL A   1      47.617  25.716  35.492  1.00  0.00     0.059 A 
ATOM     94  C   UNL A   1      48.881  27.238  34.082  1.00  0.00     0.059 A 
ATOM     95  F   UNL A   1      47.756  28.594  32.535  1.00  0.00    -0.206 F 
ATOM     96  C   UNL A   1      48.832  26.274  35.089  1.00  0.00     0.060 A 
BRANCH  96  97
ATOM     97  S   UNL A   1      50.354  25.697  35.871  1.00  0.00     0.124 S 
ATOM     98  O   UNL A   1      49.893  25.401  37.223  1.00  0.00    -0.237 OA
ATOM     99  O   UNL A   1      50.709  24.541  35.055  1.00  0.00    -0.237 OA
ATOM    100  O   UNL A   1      51.251  26.842  35.749  1.00  0.00    -0.744 OA
ENDBRANCH  96  97
ENDBRANCH  64  89
ENDBRANCH  38  39
ENDBRANCH  30  33
ENDBRANCH  28  29
ENDBRANCH  27  28
ENDBRANCH  26  27
ENDBRANCH   1  26
TORSDOF 19
ENDMDL
MODEL 3
REMARK VINA RESULT:     -11.2      2.586      3.503
REMARK SMILES O=C(CO/N=C\c1ccccc1)Nc1ccccc1C(=O)NCCCCNC(=O)c1ccc(-c2c3nc(c(-c4c(F)cc(S(=O)(=O)[O-])cc4F)c4ccc([nH]4)c(-c4c(F)cc(S(=O)(=O)[O-])cc4F)c4nc(c(-c5c(F)cc(S(=O)(=O)[O-])cc5F)c5ccc2[nH]5)C=C4)C=C3)cc1
REMARK SMILES IDX 23 1 22 2 20 3 21 4 19 6 14 7 15 8 16 9 18 10 17 11 13 12
REMARK SMILES IDX 1 13 2 14 3 16 4 17 5 18 6 19 7 20 8 21 12 22 9 23 11 24
REMARK SMILES IDX 10 25 24 26 25 27 26 28 27 29 28 30 29 32 30 33 31 34 95 35
REMARK SMILES IDX 32 36 94 37 33 38 34 39 35 40 88 41 36 42 93 43 87 44 89 45
REMARK SMILES IDX 37 46 92 47 86 48 85 49 38 51 72 52 51 53 71 54 52 55 55 56
REMARK SMILES IDX 70 57 90 58 53 59 54 60 69 62 91 63 56 64 39 65 40 66 49 67
REMARK SMILES IDX 41 68 42 69 48 70 50 71 43 72 44 73 45 74 46 75 47 76 73 77
REMARK SMILES IDX 74 78 83 79 75 80 76 81 82 82 84 83 77 84 78 85 79 86 80 87
REMARK SMILES IDX 81 88 57 89 58 90 67 91 59 92 60 93 66 94 68 95 61 96 62 97
REMARK SMILES IDX 63 98 64 99 65 100
REMARK H PARENT 22 5 13 15 27 31 89 50 55 61
REMARK Flexibility Score: inf
ROOT
ATOM      1  C   UNL A   1      33.036  25.594  26.389  1.00  0.00     0.116 C 
ENDROOT
BRANCH   1   2
ATOM      2  N   UNL A   1      31.638  25.518  26.729  1.00  0.00    -0.352 N 
ATOM      3  C   UNL A   1      30.529  25.655  25.915  1.00  0.00     0.253 C 
ATOM      4  O   UNL A   1      29.429  25.402  26.416  1.00  0.00    -0.269 OA
ATOM      5  H   UNL A   1      31.445  25.343  27.678  1.00  0.00     0.163 HD
BRANCH   3   6
ATOM      6  C   UNL A   1      30.566  26.270  24.546  1.00  0.00     0.063 A 
ATOM      7  C   UNL A   1      31.190  25.807  23.368  1.00  0.00     0.054 A 
ATOM      8  C   UNL A   1      31.285  26.682  22.262  1.00  0.00     0.027 A 
ATOM      9  C   UNL A   1      30.670  27.935  22.260  1.00  0.00     0.002 A 
ATOM     10  C   UNL A   1      29.925  27.533  24.506  1.00  0.00     0.016 A 
ATOM     11  C   UNL A   1      29.960  28.350  23.375  1.00  0.00     0.001 A 
BRANCH   7  12
ATOM     12  N   UNL A   1      31.726  24.520  23.123  1.00  0.00    -0.322 N 
ATOM     13  O   UNL A   1      33.921  25.065  22.625  1.00  0.00    -0.271 OA
ATOM     14  C   UNL A   1      33.018  24.239  22.718  1.00  0.00     0.265 C 
ATOM     15  H   UNL A   1      31.123  23.754  23.253  1.00  0.00     0.170 HD
BRANCH  14  16
ATOM     16  C   UNL A   1      33.199  22.790  22.259  1.00  0.00     0.363 C 
BRANCH  16  17
ATOM     17  O   UNL A   1      33.675  21.907  23.263  1.00  0.00    -0.386 OA
BRANCH  17  18
ATOM     18  N   UNL A   1      32.782  21.933  24.340  1.00  0.00    -0.094 NA
ATOM     19  C   UNL A   1      32.412  20.741  24.702  1.00  0.00     0.162 C 
BRANCH  19  20
ATOM     20  C   UNL A   1      32.870  19.453  24.161  1.00  0.00    -0.004 A 
ATOM     21  C   UNL A   1      34.028  18.887  24.696  1.00  0.00     0.010 A 
ATOM     22  C   UNL A   1      32.219  18.858  23.079  1.00  0.00     0.010 A 
ATOM     23  C   UNL A   1      34.525  17.699  24.158  1.00  0.00     0.001 A 
ATOM     24  C   UNL A   1      32.727  17.677  22.537  1.00  0.00     0.001 A 
ATOM     25  C   UNL A   1      33.876  17.097  23.078  1.00  0.00     0.000 A 
ENDBRANCH  19  20
ENDBRANCH  17  18
ENDBRANCH  16  17
ENDBRANCH  14  16
ENDBRANCH   7  12
ENDBRANCH   3   6
ENDBRANCH   1   2
BRANCH   1  26
ATOM     26  C   UNL A   1      33.516  26.885  25.738  1.00  0.00     0.023 C 
BRANCH  26  27
ATOM     27  C   UNL A   1      33.360  28.174  26.552  1.00  0.00     0.023 C 
BRANCH  27  28
ATOM     28  C   UNL A   1      33.975  29.465  26.004  1.00  0.00     0.116 C 
BRANCH  28  29
ATOM     29  N   UNL A   1      33.812  30.640  26.849  1.00  0.00    -0.352 N 
ATOM     30  C   UNL A   1      34.642  31.145  27.835  1.00  0.00     0.251 C 
ATOM     31  H   UNL A   1      32.988  31.155  26.695  1.00  0.00     0.163 HD
ATOM     32  O   UNL A   1      34.330  32.171  28.419  1.00  0.00    -0.269 OA
BRANCH  30  33
ATOM     33  C   UNL A   1      35.860  30.402  28.247  1.00  0.00     0.039 A 
ATOM     34  C   UNL A   1      37.057  30.686  27.578  1.00  0.00     0.014 A 
ATOM     35  C   UNL A   1      35.859  29.501  29.314  1.00  0.00     0.014 A 
ATOM     36  C   UNL A   1      38.264  30.187  28.071  1.00  0.00     0.010 A 
ATOM     37  C   UNL A   1      37.070  29.062  29.848  1.00  0.00     0.010 A 
ATOM     38  C   UNL A   1      38.287  29.438  29.258  1.00  0.00    -0.014 A 
BRANCH  38  39
ATOM     39  C   UNL A   1      39.572  29.134  29.941  1.00  0.00     0.031 A 
ATOM     40  C   UNL A   1      40.027  29.942  31.123  1.00  0.00     0.074 A 
ATOM     41  C   UNL A   1      40.369  28.167  29.437  1.00  0.00     0.049 A 
ATOM     42  N   UNL A   1      41.144  29.858  31.798  1.00  0.00    -0.248 NA
ATOM     43  C   UNL A   1      39.118  30.997  31.595  1.00  0.00     0.031 C 
ATOM     44  C   UNL A   1      40.066  27.353  28.255  1.00  0.00     0.029 A 
ATOM     45  N   UNL A   1      41.597  27.707  29.842  1.00  0.00    -0.354 N 
ATOM     46  C   UNL A   1      41.079  30.850  32.769  1.00  0.00     0.074 A 
ATOM     47  C   UNL A   1      39.830  31.554  32.565  1.00  0.00     0.031 C 
ATOM     48  C   UNL A   1      41.066  26.482  28.047  1.00  0.00     0.029 A 
ATOM     49  C   UNL A   1      42.098  26.695  29.054  1.00  0.00     0.049 A 
ATOM     50  H   UNL A   1      42.075  28.067  30.624  1.00  0.00     0.167 HD
ATOM     51  C   UNL A   1      41.968  31.135  33.749  1.00  0.00     0.037 A 
ATOM     52  C   UNL A   1      43.260  26.018  29.131  1.00  0.00     0.037 A 
ATOM     53  C   UNL A   1      43.201  30.420  33.956  1.00  0.00     0.049 A 
ATOM     54  C   UNL A   1      44.225  26.347  30.237  1.00  0.00     0.074 A 
ATOM     55  C   UNL A   1      44.149  30.605  34.948  1.00  0.00     0.029 A 
ATOM     56  N   UNL A   1      43.657  29.381  33.158  1.00  0.00    -0.354 N 
ATOM     57  N   UNL A   1      44.117  27.251  31.181  1.00  0.00    -0.248 NA
ATOM     58  C   UNL A   1      45.467  25.563  30.293  1.00  0.00     0.031 C 
ATOM     59  C   UNL A   1      45.192  29.697  34.732  1.00  0.00     0.029 A 
ATOM     60  C   UNL A   1      44.877  28.921  33.629  1.00  0.00     0.049 A 
ATOM     61  H   UNL A   1      43.185  29.022  32.372  1.00  0.00     0.167 HD
ATOM     62  C   UNL A   1      45.263  27.129  31.957  1.00  0.00     0.074 A 
ATOM     63  C   UNL A   1      46.046  26.054  31.380  1.00  0.00     0.031 C 
ATOM     64  C   UNL A   1      45.635  27.842  33.047  1.00  0.00     0.037 A 
BRANCH  51  65
ATOM     65  C   UNL A   1      41.632  32.261  34.687  1.00  0.00     0.058 A 
ATOM     66  C   UNL A   1      40.882  32.042  35.854  1.00  0.00     0.135 A 
ATOM     67  C   UNL A   1      42.093  33.565  34.440  1.00  0.00     0.135 A 
ATOM     68  F   UNL A   1      40.405  30.819  36.130  1.00  0.00    -0.206 F 
ATOM     69  C   UNL A   1      40.580  33.079  36.729  1.00  0.00     0.059 A 
ATOM     70  C   UNL A   1      41.823  34.613  35.315  1.00  0.00     0.059 A 
ATOM     71  F   UNL A   1      42.815  33.829  33.339  1.00  0.00    -0.206 F 
ATOM     72  C   UNL A   1      41.053  34.362  36.451  1.00  0.00     0.060 A 
BRANCH  72  73
ATOM     73  S   UNL A   1      40.657  35.696  37.602  1.00  0.00     0.124 S 
ATOM     74  O   UNL A   1      39.939  36.624  36.735  1.00  0.00    -0.237 OA
ATOM     75  O   UNL A   1      39.846  35.013  38.605  1.00  0.00    -0.237 OA
ATOM     76  O   UNL A   1      41.966  36.148  38.062  1.00  0.00    -0.744 OA
ENDBRANCH  72  73
ENDBRANCH  51  65
BRANCH  52  77
ATOM     77  C   UNL A   1      43.571  24.947  28.146  1.00  0.00     0.058 A 
ATOM     78  C   UNL A   1      44.307  25.226  26.985  1.00  0.00     0.135 A 
ATOM     79  C   UNL A   1      43.139  23.625  28.343  1.00  0.00     0.135 A 
ATOM     80  F   UNL A   1      44.739  26.474  26.751  1.00  0.00    -0.206 F 
ATOM     81  C   UNL A   1      44.585  24.242  26.042  1.00  0.00     0.059 A 
ATOM     82  C   UNL A   1      43.426  22.619  27.425  1.00  0.00     0.059 A 
ATOM     83  F   UNL A   1      42.448  23.301  29.447  1.00  0.00    -0.206 F 
ATOM     84  C   UNL A   1      44.138  22.940  26.271  1.00  0.00     0.060 A 
BRANCH  84  85
ATOM     85  S   UNL A   1      44.534  21.659  25.059  1.00  0.00     0.124 S 
ATOM     86  O   UNL A   1      44.368  22.383  23.804  1.00  0.00    -0.237 OA
ATOM     87  O   UNL A   1      45.904  21.308  25.418  1.00  0.00    -0.237 OA
ATOM     88  O   UNL A   1      43.539  20.626  25.330  1.00  0.00    -0.744 OA
ENDBRANCH  84  85
ENDBRANCH  52  77
BRANCH  64  89
ATOM     89  C   UNL A   1      46.929  27.463  33.709  1.00  0.00     0.058 A 
ATOM     90  C   UNL A   1      48.142  28.073  33.356  1.00  0.00     0.135 A 
ATOM     91  C   UNL A   1      46.946  26.512  34.743  1.00  0.00     0.135 A 
ATOM     92  F   UNL A   1      48.179  28.981  32.369  1.00  0.00    -0.206 F 
ATOM     93  C   UNL A   1      49.333  27.739  33.993  1.00  0.00     0.059 A 
ATOM     94  C   UNL A   1      48.121  26.181  35.408  1.00  0.00     0.059 A 
ATOM     95  F   UNL A   1      45.810  25.906  35.122  1.00  0.00    -0.206 F 
ATOM     96  C   UNL A   1      49.312  26.792  35.019  1.00  0.00     0.060 A 
BRANCH  96  97
ATOM     97  S   UNL A   1      50.858  26.395  35.864  1.00  0.00     0.124 S 
ATOM     98  O   UNL A   1      50.416  26.300  37.252  1.00  0.00    -0.237 OA
ATOM     99  O   UNL A   1      51.246  25.137  35.235  1.00  0.00    -0.237 OA
ATOM    100  O   UNL A   1      51.715  27.535  35.555  1.00  0.00    -0.744 OA
ENDBRANCH  96  97
ENDBRANCH  64  89
ENDBRANCH  38  39
ENDBRANCH  30  33
ENDBRANCH  28  29
ENDBRANCH  27  28
ENDBRANCH  26  27
ENDBRANCH   1  26
TORSDOF 19
ENDMDL
