MODEL 1
REMARK VINA RESULT:     -11.8      0.000      0.000
REMARK SMILES COc1ccc(F)cc1[C@@H](C(=O)NCCCCNC(=O)c1ccc(-c2c3nc(c(-c4c(F)cc(S(=O)(=O)[O-])cc4F)c4ccc([nH]4)c(-c4c(F)cc(S(=O)(=O)[O-])cc4F)c4nc(c(-c5c(F)cc(S(=O)(=O)[O-])cc5F)c5ccc2[nH]5)C=C4)C=C3)cc1)[N@@H+](C)CCn1ccnc1C
REMARK SMILES IDX 15 1 14 2 13 3 11 4 12 5 10 7 9 8 3 9 4 10 5 11 8 12 6 13
REMARK SMILES IDX 7 14 2 15 1 16 87 17 88 18 89 20 90 21 91 22 92 23 95 24
REMARK SMILES IDX 93 25 94 26 96 27 16 28 17 29 18 30 19 31 20 33 21 34 22 35
REMARK SMILES IDX 86 36 23 37 85 38 24 39 25 40 26 41 79 42 27 43 84 44 78 45
REMARK SMILES IDX 80 46 28 47 83 48 77 49 76 50 29 52 63 53 42 54 62 55 43 56
REMARK SMILES IDX 46 57 61 58 81 59 44 60 45 61 60 63 82 64 47 65 30 66 31 67
REMARK SMILES IDX 40 68 32 69 33 70 39 71 41 72 34 73 35 74 36 75 37 76 38 77
REMARK SMILES IDX 64 78 65 79 74 80 66 81 67 82 73 83 75 84 68 85 69 86 70 87
REMARK SMILES IDX 71 88 72 89 48 90 49 91 58 92 50 93 51 94 57 95 59 96 52 97
REMARK SMILES IDX 53 98 54 99 55 100 56 101
REMARK H PARENT 13 6 87 19 18 32 80 51 46 62
REMARK Flexibility Score: inf
ROOT
ATOM      1  C   UNL A   1      34.015  30.320  27.637  1.00  0.00     0.023 C 
ENDROOT
BRANCH   1   2
ATOM      2  C   UNL A   1      33.271  29.947  26.366  1.00  0.00     0.116 C 
BRANCH   2   3
ATOM      3  N   UNL A   1      34.096  29.361  25.346  1.00  0.00    -0.351 N 
ATOM      4  C   UNL A   1      33.769  28.510  24.341  1.00  0.00     0.283 C 
ATOM      5  O   UNL A   1      34.251  28.852  23.244  1.00  0.00    -0.268 OA
ATOM      6  H   UNL A   1      35.046  29.618  25.380  1.00  0.00     0.163 HD
BRANCH   4   7
ATOM      7  C   UNL A   1      32.945  27.169  24.445  1.00  0.00     0.309 C 
BRANCH   7   8
ATOM      8  C   UNL A   1      33.632  25.784  24.293  1.00  0.00     0.064 A 
ATOM      9  C   UNL A   1      33.843  25.176  23.034  1.00  0.00     0.128 A 
ATOM     10  C   UNL A   1      34.235  23.825  22.944  1.00  0.00     0.050 A 
ATOM     11  C   UNL A   1      34.552  23.097  24.085  1.00  0.00     0.043 A 
ATOM     12  C   UNL A   1      34.164  25.079  25.389  1.00  0.00     0.053 A 
ATOM     13  C   UNL A   1      34.575  23.753  25.294  1.00  0.00     0.124 A 
ATOM     14  F   UNL A   1      34.985  23.113  26.396  1.00  0.00    -0.207 F 
BRANCH   9  15
ATOM     15  O   UNL A   1      33.700  25.981  21.927  1.00  0.00    -0.496 OA
ATOM     16  C   UNL A   1      32.724  25.591  20.959  1.00  0.00     0.278 C 
ENDBRANCH   9  15
ENDBRANCH   7   8
BRANCH   7  17
ATOM     17  N   UNL A   1      31.673  27.307  23.627  1.00  0.00    -0.322 N 
ATOM     18  C   UNL A   1      30.637  26.346  24.027  1.00  0.00     0.333 C 
ATOM     19  H   UNL A   1      32.049  27.082  22.705  1.00  0.00     0.348 HD
BRANCH  17  20
ATOM     20  C   UNL A   1      31.086  28.646  23.384  1.00  0.00     0.285 C 
BRANCH  20  21
ATOM     21  C   UNL A   1      29.958  28.999  22.390  1.00  0.00     0.184 C 
BRANCH  21  22
ATOM     22  N   UNL A   1      28.891  29.920  22.726  1.00  0.00    -0.330 N 
ATOM     23  C   UNL A   1      29.103  31.283  22.750  1.00  0.00     0.107 A 
ATOM     24  C   UNL A   1      27.626  29.709  23.235  1.00  0.00     0.105 A 
ATOM     25  C   UNL A   1      27.945  31.838  23.225  1.00  0.00     0.131 A 
ATOM     26  N   UNL A   1      27.039  30.862  23.505  1.00  0.00    -0.242 NA
ATOM     27  C   UNL A   1      26.937  28.414  23.436  1.00  0.00     0.087 C 
ENDBRANCH  21  22
ENDBRANCH  20  21
ENDBRANCH  17  20
ENDBRANCH   7  17
ENDBRANCH   4   7
ENDBRANCH   2   3
ENDBRANCH   1   2
BRANCH   1  28
ATOM     28  C   UNL A   1      34.685  31.692  27.606  1.00  0.00     0.023 C 
BRANCH  28  29
ATOM     29  C   UNL A   1      35.805  31.900  28.618  1.00  0.00     0.116 C 
BRANCH  29  30
ATOM     30  N   UNL A   1      35.591  31.164  29.858  1.00  0.00    -0.352 N 
ATOM     31  C   UNL A   1      36.435  30.293  30.503  1.00  0.00     0.251 C 
ATOM     32  H   UNL A   1      34.721  31.311  30.294  1.00  0.00     0.163 HD
ATOM     33  O   UNL A   1      36.025  29.627  31.452  1.00  0.00    -0.269 OA
BRANCH  31  34
ATOM     34  C   UNL A   1      37.828  30.143  30.032  1.00  0.00     0.039 A 
ATOM     35  C   UNL A   1      38.870  30.208  30.959  1.00  0.00     0.014 A 
ATOM     36  C   UNL A   1      38.097  29.896  28.683  1.00  0.00     0.014 A 
ATOM     37  C   UNL A   1      40.176  29.931  30.546  1.00  0.00     0.010 A 
ATOM     38  C   UNL A   1      39.385  29.542  28.291  1.00  0.00     0.010 A 
ATOM     39  C   UNL A   1      40.435  29.545  29.221  1.00  0.00    -0.014 A 
BRANCH  39  40
ATOM     40  C   UNL A   1      41.786  29.100  28.793  1.00  0.00     0.031 A 
ATOM     41  C   UNL A   1      42.930  30.074  28.752  1.00  0.00     0.074 A 
ATOM     42  C   UNL A   1      41.963  27.832  28.371  1.00  0.00     0.049 A 
ATOM     43  N   UNL A   1      44.156  29.889  28.335  1.00  0.00    -0.248 NA
ATOM     44  C   UNL A   1      42.654  31.440  29.225  1.00  0.00     0.031 C 
ATOM     45  C   UNL A   1      40.922  26.802  28.333  1.00  0.00     0.029 A 
ATOM     46  N   UNL A   1      43.079  27.192  27.890  1.00  0.00    -0.354 N 
ATOM     47  C   UNL A   1      44.797  31.111  28.496  1.00  0.00     0.074 A 
ATOM     48  C   UNL A   1      43.807  32.046  28.986  1.00  0.00     0.031 C 
ATOM     49  C   UNL A   1      41.456  25.654  27.892  1.00  0.00     0.029 A 
ATOM     50  C   UNL A   1      42.861  25.874  27.564  1.00  0.00     0.049 A 
ATOM     51  H   UNL A   1      43.952  27.636  27.787  1.00  0.00     0.167 HD
ATOM     52  C   UNL A   1      46.099  31.418  28.279  1.00  0.00     0.037 A 
ATOM     53  C   UNL A   1      43.695  24.947  27.053  1.00  0.00     0.037 A 
ATOM     54  C   UNL A   1      47.076  30.480  27.790  1.00  0.00     0.049 A 
ATOM     55  C   UNL A   1      45.119  25.324  26.757  1.00  0.00     0.074 A 
ATOM     56  C   UNL A   1      48.426  30.683  27.568  1.00  0.00     0.029 A 
ATOM     57  N   UNL A   1      46.807  29.164  27.437  1.00  0.00    -0.354 N 
ATOM     58  N   UNL A   1      45.723  26.472  26.955  1.00  0.00    -0.248 NA
ATOM     59  C   UNL A   1      45.974  24.290  26.159  1.00  0.00     0.031 C 
ATOM     60  C   UNL A   1      48.963  29.509  27.031  1.00  0.00     0.029 A 
ATOM     61  C   UNL A   1      47.960  28.554  26.970  1.00  0.00     0.049 A 
ATOM     62  H   UNL A   1      45.928  28.728  27.510  1.00  0.00     0.167 HD
ATOM     63  C   UNL A   1      47.031  26.295  26.520  1.00  0.00     0.074 A 
ATOM     64  C   UNL A   1      47.136  24.925  26.060  1.00  0.00     0.031 C 
ATOM     65  C   UNL A   1      48.050  27.190  26.504  1.00  0.00     0.037 A 
BRANCH  52  66
ATOM     66  C   UNL A   1      46.540  32.826  28.578  1.00  0.00     0.058 A 
ATOM     67  C   UNL A   1      46.987  33.185  29.859  1.00  0.00     0.135 A 
ATOM     68  C   UNL A   1      46.498  33.831  27.596  1.00  0.00     0.135 A 
ATOM     69  F   UNL A   1      47.051  32.267  30.836  1.00  0.00    -0.206 F 
ATOM     70  C   UNL A   1      47.380  34.486  30.155  1.00  0.00     0.059 A 
ATOM     71  C   UNL A   1      46.915  35.132  27.862  1.00  0.00     0.059 A 
ATOM     72  F   UNL A   1      46.095  33.541  26.349  1.00  0.00    -0.206 F 
ATOM     73  C   UNL A   1      47.347  35.452  29.149  1.00  0.00     0.060 A 
BRANCH  73  74
ATOM     74  S   UNL A   1      47.931  37.117  29.529  1.00  0.00     0.124 S 
ATOM     75  O   UNL A   1      48.651  36.906  30.779  1.00  0.00    -0.237 OA
ATOM     76  O   UNL A   1      48.753  37.427  28.362  1.00  0.00    -0.237 OA
ATOM     77  O   UNL A   1      46.697  37.892  29.636  1.00  0.00    -0.744 OA
ENDBRANCH  73  74
ENDBRANCH  52  66
BRANCH  53  78
ATOM     78  C   UNL A   1      43.196  23.563  26.832  1.00  0.00     0.058 A 
ATOM     79  C   UNL A   1      43.004  22.671  27.900  1.00  0.00     0.135 A 
ATOM     80  C   UNL A   1      42.987  23.081  25.532  1.00  0.00     0.135 A 
ATOM     81  F   UNL A   1      43.197  23.081  29.162  1.00  0.00    -0.206 F 
ATOM     82  C   UNL A   1      42.667  21.339  27.683  1.00  0.00     0.059 A 
ATOM     83  C   UNL A   1      42.625  21.759  25.291  1.00  0.00     0.059 A 
ATOM     84  F   UNL A   1      43.144  23.900  24.481  1.00  0.00    -0.206 F 
ATOM     85  C   UNL A   1      42.493  20.889  26.373  1.00  0.00     0.060 A 
BRANCH  85  86
ATOM     86  S   UNL A   1      42.117  19.143  26.110  1.00  0.00     0.124 S 
ATOM     87  O   UNL A   1      40.674  19.183  25.896  1.00  0.00    -0.237 OA
ATOM     88  O   UNL A   1      42.927  18.830  24.937  1.00  0.00    -0.237 OA
ATOM     89  O   UNL A   1      42.548  18.512  27.354  1.00  0.00    -0.744 OA
ENDBRANCH  85  86
ENDBRANCH  53  78
BRANCH  65  90
ATOM     90  C   UNL A   1      49.380  26.732  25.969  1.00  0.00     0.058 A 
ATOM     91  C   UNL A   1      50.310  26.103  26.811  1.00  0.00     0.135 A 
ATOM     92  C   UNL A   1      49.774  27.017  24.652  1.00  0.00     0.135 A 
ATOM     93  F   UNL A   1      49.986  25.810  28.081  1.00  0.00    -0.206 F 
ATOM     94  C   UNL A   1      51.598  25.806  26.379  1.00  0.00     0.059 A 
ATOM     95  C   UNL A   1      51.049  26.703  24.189  1.00  0.00     0.059 A 
ATOM     96  F   UNL A   1      48.916  27.604  23.803  1.00  0.00    -0.206 F 
ATOM     97  C   UNL A   1      51.961  26.119  25.067  1.00  0.00     0.060 A 
BRANCH  97  98
ATOM     98  S   UNL A   1      53.646  25.755  24.533  1.00  0.00     0.124 S 
ATOM     99  O   UNL A   1      54.429  26.652  25.376  1.00  0.00    -0.237 OA
ATOM    100  O   UNL A   1      53.765  24.333  24.838  1.00  0.00    -0.237 OA
ATOM    101  O   UNL A   1      53.632  26.085  23.111  1.00  0.00    -0.744 OA
ENDBRANCH  97  98
ENDBRANCH  65  90
ENDBRANCH  39  40
ENDBRANCH  31  34
ENDBRANCH  29  30
ENDBRANCH  28  29
ENDBRANCH   1  28
TORSDOF 20
ENDMDL
MODEL 2
REMARK VINA RESULT:     -11.7      2.874      4.006
REMARK SMILES COc1ccc(F)cc1[C@@H](C(=O)NCCCCNC(=O)c1ccc(-c2c3nc(c(-c4c(F)cc(S(=O)(=O)[O-])cc4F)c4ccc([nH]4)c(-c4c(F)cc(S(=O)(=O)[O-])cc4F)c4nc(c(-c5c(F)cc(S(=O)(=O)[O-])cc5F)c5ccc2[nH]5)C=C4)C=C3)cc1)[N@@H+](C)CCn1ccnc1C
REMARK SMILES IDX 15 1 14 2 13 3 11 4 12 5 10 7 9 8 3 9 4 10 5 11 8 12 6 13
REMARK SMILES IDX 7 14 2 15 1 16 87 17 88 18 89 20 90 21 91 22 92 23 95 24
REMARK SMILES IDX 93 25 94 26 96 27 16 28 17 29 18 30 19 31 20 33 21 34 22 35
REMARK SMILES IDX 86 36 23 37 85 38 24 39 25 40 26 41 79 42 27 43 84 44 78 45
REMARK SMILES IDX 80 46 28 47 83 48 77 49 76 50 29 52 63 53 42 54 62 55 43 56
REMARK SMILES IDX 46 57 61 58 81 59 44 60 45 61 60 63 82 64 47 65 30 66 31 67
REMARK SMILES IDX 40 68 32 69 33 70 39 71 41 72 34 73 35 74 36 75 37 76 38 77
REMARK SMILES IDX 64 78 65 79 74 80 66 81 67 82 73 83 75 84 68 85 69 86 70 87
REMARK SMILES IDX 71 88 72 89 48 90 49 91 58 92 50 93 51 94 57 95 59 96 52 97
REMARK SMILES IDX 53 98 54 99 55 100 56 101
REMARK H PARENT 13 6 87 19 18 32 80 51 46 62
REMARK Flexibility Score: inf
ROOT
ATOM      1  C   UNL A   1      31.754  27.104  26.094  1.00  0.00     0.023 C 
ENDROOT
BRANCH   1   2
ATOM      2  C   UNL A   1      32.103  25.668  26.445  1.00  0.00     0.116 C 
BRANCH   2   3
ATOM      3  N   UNL A   1      31.209  24.688  25.894  1.00  0.00    -0.351 N 
ATOM      4  C   UNL A   1      31.467  23.451  25.400  1.00  0.00     0.283 C 
ATOM      5  O   UNL A   1      30.678  22.587  25.830  1.00  0.00    -0.268 OA
ATOM      6  H   UNL A   1      30.261  24.955  25.872  1.00  0.00     0.163 HD
BRANCH   4   7
ATOM      7  C   UNL A   1      32.563  23.046  24.341  1.00  0.00     0.309 C 
BRANCH   7   8
ATOM      8  C   UNL A   1      33.986  22.603  24.779  1.00  0.00     0.064 A 
ATOM      9  C   UNL A   1      34.392  21.249  24.780  1.00  0.00     0.128 A 
ATOM     10  C   UNL A   1      35.589  20.856  25.414  1.00  0.00     0.050 A 
ATOM     11  C   UNL A   1      36.463  21.803  25.935  1.00  0.00     0.043 A 
ATOM     12  C   UNL A   1      34.992  23.524  25.125  1.00  0.00     0.053 A 
ATOM     13  C   UNL A   1      36.185  23.134  25.727  1.00  0.00     0.124 A 
ATOM     14  F   UNL A   1      37.061  24.070  26.115  1.00  0.00    -0.207 F 
BRANCH   9  15
ATOM     15  O   UNL A   1      33.593  20.363  24.092  1.00  0.00    -0.496 OA
ATOM     16  C   UNL A   1      33.561  19.015  24.563  1.00  0.00     0.278 C 
ENDBRANCH   9  15
ENDBRANCH   7   8
BRANCH   7  17
ATOM     17  N   UNL A   1      32.567  24.069  23.218  1.00  0.00    -0.322 N 
ATOM     18  C   UNL A   1      33.171  23.552  21.984  1.00  0.00     0.333 C 
ATOM     19  H   UNL A   1      33.159  24.780  23.649  1.00  0.00     0.348 HD
BRANCH  17  20
ATOM     20  C   UNL A   1      31.343  24.851  22.920  1.00  0.00     0.285 C 
BRANCH  20  21
ATOM     21  C   UNL A   1      31.253  26.162  22.110  1.00  0.00     0.184 C 
BRANCH  21  22
ATOM     22  N   UNL A   1      32.070  27.320  22.419  1.00  0.00    -0.330 N 
ATOM     23  C   UNL A   1      33.446  27.230  22.475  1.00  0.00     0.107 A 
ATOM     24  C   UNL A   1      31.738  28.580  22.871  1.00  0.00     0.105 A 
ATOM     25  C   UNL A   1      33.886  28.450  22.912  1.00  0.00     0.131 A 
ATOM     26  N   UNL A   1      32.829  29.277  23.137  1.00  0.00    -0.242 NA
ATOM     27  C   UNL A   1      30.384  29.159  23.020  1.00  0.00     0.087 C 
ENDBRANCH  21  22
ENDBRANCH  20  21
ENDBRANCH  17  20
ENDBRANCH   7  17
ENDBRANCH   4   7
ENDBRANCH   2   3
ENDBRANCH   1   2
BRANCH   1  28
ATOM     28  C   UNL A   1      31.999  28.114  27.213  1.00  0.00     0.023 C 
BRANCH  28  29
ATOM     29  C   UNL A   1      33.412  28.680  27.292  1.00  0.00     0.116 C 
BRANCH  29  30
ATOM     30  N   UNL A   1      33.439  30.075  27.714  1.00  0.00    -0.352 N 
ATOM     31  C   UNL A   1      34.454  30.775  28.320  1.00  0.00     0.251 C 
ATOM     32  H   UNL A   1      32.617  30.586  27.541  1.00  0.00     0.163 HD
ATOM     33  O   UNL A   1      34.245  31.901  28.765  1.00  0.00    -0.269 OA
BRANCH  31  34
ATOM     34  C   UNL A   1      35.787  30.152  28.459  1.00  0.00     0.039 A 
ATOM     35  C   UNL A   1      36.646  30.131  27.357  1.00  0.00     0.014 A 
ATOM     36  C   UNL A   1      36.204  29.632  29.687  1.00  0.00     0.014 A 
ATOM     37  C   UNL A   1      37.955  29.670  27.513  1.00  0.00     0.010 A 
ATOM     38  C   UNL A   1      37.530  29.250  29.860  1.00  0.00     0.010 A 
ATOM     39  C   UNL A   1      38.423  29.276  28.778  1.00  0.00    -0.014 A 
BRANCH  39  40
ATOM     40  C   UNL A   1      39.849  28.927  29.003  1.00  0.00     0.031 A 
ATOM     41  C   UNL A   1      40.801  29.945  29.564  1.00  0.00     0.074 A 
ATOM     42  C   UNL A   1      40.300  27.713  28.630  1.00  0.00     0.049 A 
ATOM     43  N   UNL A   1      42.092  29.849  29.757  1.00  0.00    -0.248 NA
ATOM     44  C   UNL A   1      40.231  31.248  29.942  1.00  0.00     0.031 C 
ATOM     45  C   UNL A   1      39.480  26.651  28.043  1.00  0.00     0.029 A 
ATOM     46  N   UNL A   1      41.559  27.166  28.685  1.00  0.00    -0.354 N 
ATOM     47  C   UNL A   1      42.487  31.075  30.278  1.00  0.00     0.074 A 
ATOM     48  C   UNL A   1      41.313  31.919  30.309  1.00  0.00     0.031 C 
ATOM     49  C   UNL A   1      40.246  25.572  27.828  1.00  0.00     0.029 A 
ATOM     50  C   UNL A   1      41.622  25.877  28.210  1.00  0.00     0.049 A 
ATOM     51  H   UNL A   1      42.342  27.652  29.031  1.00  0.00     0.167 HD
ATOM     52  C   UNL A   1      43.713  31.452  30.715  1.00  0.00     0.037 A 
ATOM     53  C   UNL A   1      42.667  25.036  28.088  1.00  0.00     0.037 A 
ATOM     54  C   UNL A   1      44.876  30.604  30.678  1.00  0.00     0.049 A 
ATOM     55  C   UNL A   1      44.032  25.497  28.516  1.00  0.00     0.074 A 
ATOM     56  C   UNL A   1      46.155  30.881  31.126  1.00  0.00     0.029 A 
ATOM     57  N   UNL A   1      44.906  29.318  30.156  1.00  0.00    -0.354 N 
ATOM     58  N   UNL A   1      44.384  26.643  29.048  1.00  0.00    -0.248 NA
ATOM     59  C   UNL A   1      45.146  24.558  28.320  1.00  0.00     0.031 C 
ATOM     60  C   UNL A   1      46.970  29.785  30.826  1.00  0.00     0.029 A 
ATOM     61  C   UNL A   1      46.188  28.801  30.241  1.00  0.00     0.049 A 
ATOM     62  H   UNL A   1      44.130  28.843  29.780  1.00  0.00     0.167 HD
ATOM     63  C   UNL A   1      45.754  26.560  29.264  1.00  0.00     0.074 A 
ATOM     64  C   UNL A   1      46.168  25.245  28.816  1.00  0.00     0.031 C 
ATOM     65  C   UNL A   1      46.591  27.492  29.784  1.00  0.00     0.037 A 
BRANCH  52  66
ATOM     66  C   UNL A   1      43.853  32.842  31.276  1.00  0.00     0.058 A 
ATOM     67  C   UNL A   1      44.188  33.923  30.447  1.00  0.00     0.135 A 
ATOM     68  C   UNL A   1      43.678  33.101  32.647  1.00  0.00     0.135 A 
ATOM     69  F   UNL A   1      44.366  33.738  29.129  1.00  0.00    -0.206 F 
ATOM     70  C   UNL A   1      44.341  35.210  30.954  1.00  0.00     0.059 A 
ATOM     71  C   UNL A   1      43.795  34.385  33.170  1.00  0.00     0.059 A 
ATOM     72  F   UNL A   1      43.340  32.107  33.484  1.00  0.00    -0.206 F 
ATOM     73  C   UNL A   1      44.136  35.433  32.316  1.00  0.00     0.060 A 
BRANCH  73  74
ATOM     74  S   UNL A   1      44.263  37.120  32.945  1.00  0.00     0.124 S 
ATOM     75  O   UNL A   1      43.090  37.210  33.806  1.00  0.00    -0.237 OA
ATOM     76  O   UNL A   1      45.555  37.096  33.627  1.00  0.00    -0.237 OA
ATOM     77  O   UNL A   1      44.221  37.936  31.734  1.00  0.00    -0.744 OA
ENDBRANCH  73  74
ENDBRANCH  52  66
BRANCH  53  78
ATOM     78  C   UNL A   1      42.439  23.661  27.570  1.00  0.00     0.058 A 
ATOM     79  C   UNL A   1      42.301  22.563  28.433  1.00  0.00     0.135 A 
ATOM     80  C   UNL A   1      42.442  23.411  26.189  1.00  0.00     0.135 A 
ATOM     81  F   UNL A   1      42.298  22.748  29.762  1.00  0.00    -0.206 F 
ATOM     82  C   UNL A   1      42.221  21.262  27.948  1.00  0.00     0.059 A 
ATOM     83  C   UNL A   1      42.338  22.120  25.679  1.00  0.00     0.059 A 
ATOM     84  F   UNL A   1      42.555  24.431  25.325  1.00  0.00    -0.206 F 
ATOM     85  C   UNL A   1      42.254  21.050  26.569  1.00  0.00     0.060 A 
BRANCH  85  86
ATOM     86  S   UNL A   1      42.212  19.349  25.962  1.00  0.00     0.124 S 
ATOM     87  O   UNL A   1      40.793  19.179  25.667  1.00  0.00    -0.237 OA
ATOM     88  O   UNL A   1      43.100  19.416  24.807  1.00  0.00    -0.237 OA
ATOM     89  O   UNL A   1      42.713  18.574  27.093  1.00  0.00    -0.744 OA
ENDBRANCH  85  86
ENDBRANCH  53  78
BRANCH  65  90
ATOM     90  C   UNL A   1      48.049  27.140  29.902  1.00  0.00     0.058 A 
ATOM     91  C   UNL A   1      48.538  26.501  31.053  1.00  0.00     0.135 A 
ATOM     92  C   UNL A   1      48.978  27.536  28.927  1.00  0.00     0.135 A 
ATOM     93  F   UNL A   1      47.694  26.105  32.019  1.00  0.00    -0.206 F 
ATOM     94  C   UNL A   1      49.900  26.300  31.250  1.00  0.00     0.059 A 
ATOM     95  C   UNL A   1      50.343  27.319  29.090  1.00  0.00     0.059 A 
ATOM     96  F   UNL A   1      48.559  28.136  27.802  1.00  0.00    -0.206 F 
ATOM     97  C   UNL A   1      50.796  26.721  30.265  1.00  0.00     0.060 A 
BRANCH  97  98
ATOM     98  S   UNL A   1      52.562  26.482  30.552  1.00  0.00     0.124 S 
ATOM     99  O   UNL A   1      53.058  26.258  29.199  1.00  0.00    -0.237 OA
ATOM    100  O   UNL A   1      52.947  27.747  31.168  1.00  0.00    -0.237 OA
ATOM    101  O   UNL A   1      52.609  25.322  31.437  1.00  0.00    -0.744 OA
ENDBRANCH  97  98
ENDBRANCH  65  90
ENDBRANCH  39  40
ENDBRANCH  31  34
ENDBRANCH  29  30
ENDBRANCH  28  29
ENDBRANCH   1  28
TORSDOF 20
ENDMDL
MODEL 3
REMARK VINA RESULT:     -11.6      1.658      2.619
REMARK SMILES COc1ccc(F)cc1[C@@H](C(=O)NCCCCNC(=O)c1ccc(-c2c3nc(c(-c4c(F)cc(S(=O)(=O)[O-])cc4F)c4ccc([nH]4)c(-c4c(F)cc(S(=O)(=O)[O-])cc4F)c4nc(c(-c5c(F)cc(S(=O)(=O)[O-])cc5F)c5ccc2[nH]5)C=C4)C=C3)cc1)[N@@H+](C)CCn1ccnc1C
REMARK SMILES IDX 15 1 14 2 13 3 11 4 12 5 10 7 9 8 3 9 4 10 5 11 8 12 6 13
REMARK SMILES IDX 7 14 2 15 1 16 87 17 88 18 89 20 90 21 91 22 92 23 95 24
REMARK SMILES IDX 93 25 94 26 96 27 16 28 17 29 18 30 19 31 20 33 21 34 22 35
REMARK SMILES IDX 86 36 23 37 85 38 24 39 25 40 26 41 79 42 27 43 84 44 78 45
REMARK SMILES IDX 80 46 28 47 83 48 77 49 76 50 29 52 63 53 42 54 62 55 43 56
REMARK SMILES IDX 46 57 61 58 81 59 44 60 45 61 60 63 82 64 47 65 30 66 31 67
REMARK SMILES IDX 40 68 32 69 33 70 39 71 41 72 34 73 35 74 36 75 37 76 38 77
REMARK SMILES IDX 64 78 65 79 74 80 66 81 67 82 73 83 75 84 68 85 69 86 70 87
REMARK SMILES IDX 71 88 72 89 48 90 49 91 58 92 50 93 51 94 57 95 59 96 52 97
REMARK SMILES IDX 53 98 54 99 55 100 56 101
REMARK H PARENT 13 6 87 19 18 32 80 51 46 62
REMARK Flexibility Score: inf
ROOT
ATOM      1  C   UNL A   1      33.395  28.214  26.091  1.00  0.00     0.023 C 
ENDROOT
BRANCH   1   2
ATOM      2  C   UNL A   1      33.531  26.725  25.826  1.00  0.00     0.116 C 
BRANCH   2   3
ATOM      3  N   UNL A   1      32.358  25.956  26.138  1.00  0.00    -0.351 N 
ATOM      4  C   UNL A   1      32.207  24.617  26.291  1.00  0.00     0.283 C 
ATOM      5  O   UNL A   1      31.551  24.319  27.307  1.00  0.00    -0.268 OA
ATOM      6  H   UNL A   1      31.535  26.484  26.260  1.00  0.00     0.163 HD
BRANCH   4   7
ATOM      7  C   UNL A   1      32.696  23.475  25.318  1.00  0.00     0.309 C 
BRANCH   7   8
ATOM      8  C   UNL A   1      34.173  22.995  25.314  1.00  0.00     0.064 A 
ATOM      9  C   UNL A   1      34.530  21.638  25.140  1.00  0.00     0.128 A 
ATOM     10  C   UNL A   1      35.847  21.202  25.389  1.00  0.00     0.050 A 
ATOM     11  C   UNL A   1      36.856  22.112  25.682  1.00  0.00     0.043 A 
ATOM     12  C   UNL A   1      35.259  23.887  25.401  1.00  0.00     0.053 A 
ATOM     13  C   UNL A   1      36.563  23.455  25.622  1.00  0.00     0.124 A 
ATOM     14  F   UNL A   1      37.536  24.361  25.787  1.00  0.00    -0.207 F 
BRANCH   9  15
ATOM     15  O   UNL A   1      33.548  20.797  24.668  1.00  0.00    -0.496 OA
ATOM     16  C   UNL A   1      33.906  19.430  24.461  1.00  0.00     0.278 C 
ENDBRANCH   9  15
ENDBRANCH   7   8
BRANCH   7  17
ATOM     17  N   UNL A   1      32.141  23.738  23.930  1.00  0.00    -0.322 N 
ATOM     18  C   UNL A   1      30.718  24.098  23.949  1.00  0.00     0.333 C 
ATOM     19  H   UNL A   1      32.282  22.813  23.522  1.00  0.00     0.348 HD
BRANCH  17  20
ATOM     20  C   UNL A   1      32.890  24.593  22.978  1.00  0.00     0.285 C 
BRANCH  20  21
ATOM     21  C   UNL A   1      32.297  25.603  21.972  1.00  0.00     0.184 C 
BRANCH  21  22
ATOM     22  N   UNL A   1      31.890  26.938  22.365  1.00  0.00    -0.330 N 
ATOM     23  C   UNL A   1      30.559  27.259  22.536  1.00  0.00     0.107 A 
ATOM     24  C   UNL A   1      32.596  28.119  22.459  1.00  0.00     0.105 A 
ATOM     25  C   UNL A   1      30.523  28.607  22.772  1.00  0.00     0.131 A 
ATOM     26  N   UNL A   1      31.782  29.122  22.739  1.00  0.00    -0.242 NA
ATOM     27  C   UNL A   1      34.058  28.311  22.327  1.00  0.00     0.087 C 
ENDBRANCH  21  22
ENDBRANCH  20  21
ENDBRANCH  17  20
ENDBRANCH   7  17
ENDBRANCH   4   7
ENDBRANCH   2   3
ENDBRANCH   1   2
BRANCH   1  28
ATOM     28  C   UNL A   1      33.905  28.670  27.456  1.00  0.00     0.023 C 
BRANCH  28  29
ATOM     29  C   UNL A   1      34.958  29.771  27.432  1.00  0.00     0.116 C 
BRANCH  29  30
ATOM     30  N   UNL A   1      35.036  30.506  28.689  1.00  0.00    -0.352 N 
ATOM     31  C   UNL A   1      36.056  30.541  29.608  1.00  0.00     0.251 C 
ATOM     32  H   UNL A   1      34.249  31.053  28.910  1.00  0.00     0.163 HD
ATOM     33  O   UNL A   1      35.884  31.080  30.699  1.00  0.00    -0.269 OA
BRANCH  31  34
ATOM     34  C   UNL A   1      37.349  29.901  29.286  1.00  0.00     0.039 A 
ATOM     35  C   UNL A   1      37.813  29.930  27.969  1.00  0.00     0.014 A 
ATOM     36  C   UNL A   1      38.121  29.315  30.292  1.00  0.00     0.014 A 
ATOM     37  C   UNL A   1      39.093  29.451  27.679  1.00  0.00     0.010 A 
ATOM     38  C   UNL A   1      39.424  28.914  30.017  1.00  0.00     0.010 A 
ATOM     39  C   UNL A   1      39.928  28.988  28.710  1.00  0.00    -0.014 A 
BRANCH  39  40
ATOM     40  C   UNL A   1      41.343  28.617  28.453  1.00  0.00     0.031 A 
ATOM     41  C   UNL A   1      42.425  29.658  28.511  1.00  0.00     0.074 A 
ATOM     42  C   UNL A   1      41.641  27.352  28.095  1.00  0.00     0.049 A 
ATOM     43  N   UNL A   1      43.699  29.539  28.242  1.00  0.00    -0.248 NA
ATOM     44  C   UNL A   1      42.017  31.016  28.904  1.00  0.00     0.031 C 
ATOM     45  C   UNL A   1      40.673  26.259  27.972  1.00  0.00     0.029 A 
ATOM     46  N   UNL A   1      42.840  26.770  27.764  1.00  0.00    -0.354 N 
ATOM     47  C   UNL A   1      44.245  30.802  28.434  1.00  0.00     0.074 A 
ATOM     48  C   UNL A   1      43.153  31.686  28.778  1.00  0.00     0.031 C 
ATOM     49  C   UNL A   1      41.321  25.135  27.632  1.00  0.00     0.029 A 
ATOM     50  C   UNL A   1      42.739  25.433  27.459  1.00  0.00     0.049 A 
ATOM     51  H   UNL A   1      43.691  27.264  27.747  1.00  0.00     0.167 HD
ATOM     52  C   UNL A   1      45.543  31.182  28.357  1.00  0.00     0.037 A 
ATOM     53  C   UNL A   1      43.678  24.546  27.076  1.00  0.00     0.037 A 
ATOM     54  C   UNL A   1      46.623  30.294  28.012  1.00  0.00     0.049 A 
ATOM     55  C   UNL A   1      45.103  25.003  26.931  1.00  0.00     0.074 A 
ATOM     56  C   UNL A   1      47.975  30.575  27.938  1.00  0.00     0.029 A 
ATOM     57  N   UNL A   1      46.474  28.956  27.674  1.00  0.00    -0.354 N 
ATOM     58  N   UNL A   1      45.612  26.191  27.159  1.00  0.00    -0.248 NA
ATOM     59  C   UNL A   1      46.080  24.009  26.468  1.00  0.00     0.031 C 
ATOM     60  C   UNL A   1      48.638  29.423  27.504  1.00  0.00     0.029 A 
ATOM     61  C   UNL A   1      47.707  28.407  27.360  1.00  0.00     0.049 A 
ATOM     62  H   UNL A   1      45.620  28.469  27.660  1.00  0.00     0.167 HD
ATOM     63  C   UNL A   1      46.970  26.084  26.881  1.00  0.00     0.074 A 
ATOM     64  C   UNL A   1      47.206  24.712  26.480  1.00  0.00     0.031 C 
ATOM     65  C   UNL A   1      47.930  27.039  26.952  1.00  0.00     0.037 A 
BRANCH  52  66
ATOM     66  C   UNL A   1      45.864  32.622  28.658  1.00  0.00     0.058 A 
ATOM     67  C   UNL A   1      46.141  33.040  29.968  1.00  0.00     0.135 A 
ATOM     68  C   UNL A   1      45.876  33.598  27.646  1.00  0.00     0.135 A 
ATOM     69  F   UNL A   1      46.146  32.153  30.976  1.00  0.00    -0.206 F 
ATOM     70  C   UNL A   1      46.419  34.370  30.266  1.00  0.00     0.059 A 
ATOM     71  C   UNL A   1      46.182  34.928  27.915  1.00  0.00     0.059 A 
ATOM     72  F   UNL A   1      45.636  33.252  26.371  1.00  0.00    -0.206 F 
ATOM     73  C   UNL A   1      46.445  35.306  29.231  1.00  0.00     0.060 A 
BRANCH  73  74
ATOM     74  S   UNL A   1      46.883  37.014  29.621  1.00  0.00     0.124 S 
ATOM     75  O   UNL A   1      48.288  37.060  29.236  1.00  0.00    -0.237 OA
ATOM     76  O   UNL A   1      45.963  37.767  28.772  1.00  0.00    -0.237 OA
ATOM     77  O   UNL A   1      46.619  37.112  31.055  1.00  0.00    -0.744 OA
ENDBRANCH  73  74
ENDBRANCH  52  66
BRANCH  53  78
ATOM     78  C   UNL A   1      43.290  23.129  26.845  1.00  0.00     0.058 A 
ATOM     79  C   UNL A   1      43.104  22.234  27.910  1.00  0.00     0.135 A 
ATOM     80  C   UNL A   1      43.186  22.623  25.540  1.00  0.00     0.135 A 
ATOM     81  F   UNL A   1      43.200  22.667  29.177  1.00  0.00    -0.206 F 
ATOM     82  C   UNL A   1      42.872  20.881  27.691  1.00  0.00     0.059 A 
ATOM     83  C   UNL A   1      42.930  21.277  25.296  1.00  0.00     0.059 A 
ATOM     84  F   UNL A   1      43.341  23.444  24.490  1.00  0.00    -0.206 F 
ATOM     85  C   UNL A   1      42.801  20.409  26.379  1.00  0.00     0.060 A 
BRANCH  85  86
ATOM     86  S   UNL A   1      42.563  18.639  26.117  1.00  0.00     0.124 S 
ATOM     87  O   UNL A   1      41.161  18.589  25.714  1.00  0.00    -0.237 OA
ATOM     88  O   UNL A   1      43.537  18.352  25.069  1.00  0.00    -0.237 OA
ATOM     89  O   UNL A   1      42.860  18.059  27.423  1.00  0.00    -0.744 OA
ENDBRANCH  85  86
ENDBRANCH  53  78
BRANCH  65  90
ATOM     90  C   UNL A   1      49.336  26.651  26.586  1.00  0.00     0.058 A 
ATOM     91  C   UNL A   1      49.815  26.848  25.281  1.00  0.00     0.135 A 
ATOM     92  C   UNL A   1      50.170  25.982  27.496  1.00  0.00     0.135 A 
ATOM     93  F   UNL A   1      49.057  27.480  24.369  1.00  0.00    -0.206 F 
ATOM     94  C   UNL A   1      51.055  26.364  24.879  1.00  0.00     0.059 A 
ATOM     95  C   UNL A   1      51.426  25.513  27.124  1.00  0.00     0.059 A 
ATOM     96  F   UNL A   1      49.765  25.782  28.760  1.00  0.00    -0.206 F 
ATOM     97  C   UNL A   1      51.850  25.688  25.807  1.00  0.00     0.060 A 
BRANCH  97  98
ATOM     98  S   UNL A   1      53.443  25.038  25.261  1.00  0.00     0.124 S 
ATOM     99  O   UNL A   1      53.250  23.601  25.417  1.00  0.00    -0.237 OA
ATOM    100  O   UNL A   1      53.516  25.522  23.886  1.00  0.00    -0.237 OA
ATOM    101  O   UNL A   1      54.395  25.647  26.183  1.00  0.00    -0.744 OA
ENDBRANCH  97  98
ENDBRANCH  65  90
ENDBRANCH  39  40
ENDBRANCH  31  34
ENDBRANCH  29  30
ENDBRANCH  28  29
ENDBRANCH   1  28
TORSDOF 20
ENDMDL
