MODEL 1
REMARK VINA RESULT:     -11.6      0.000      0.000
REMARK SMILES COc1ccc(-c2c(C)n[nH]c2C)c(C(=O)NCCCCNC(=O)c2ccc(-c3c4nc(c(-c5c(F)cc(S(=O)(=O)[O-])cc5F)c5ccc([nH]5)c(-c5c(F)cc(S(=O)(=O)[O-])cc5F)c5nc(c(-c6c(F)cc(S(=O)(=O)[O-])cc6F)c6ccc3[nH]6)C=C5)C=C4)cc2)c1
REMARK SMILES IDX 20 1 19 2 18 3 17 4 15 5 16 6 14 8 3 9 4 10 91 11 5 12 6 13
REMARK SMILES IDX 2 14 1 15 7 16 8 17 12 18 9 19 10 20 11 21 13 22 21 24 22 25
REMARK SMILES IDX 23 26 24 28 25 29 26 30 90 31 27 32 89 33 28 34 29 35 30 36
REMARK SMILES IDX 83 37 31 38 88 39 82 40 84 41 32 42 87 43 81 44 80 45 33 47
REMARK SMILES IDX 67 48 46 49 66 50 47 51 50 52 65 53 85 54 48 55 49 56 64 58
REMARK SMILES IDX 86 59 51 60 34 61 35 62 44 63 36 64 37 65 43 66 45 67 38 68
REMARK SMILES IDX 39 69 40 70 41 71 42 72 68 73 69 74 78 75 70 76 71 77 77 78
REMARK SMILES IDX 79 79 72 80 73 81 74 82 75 83 76 84 52 85 53 86 62 87 54 88
REMARK SMILES IDX 55 89 61 90 63 91 56 92 57 93 58 94 59 95 60 96
REMARK H PARENT 17 7 11 23 22 27 84 46 50 57
REMARK Flexibility Score: inf
ROOT
ATOM      1  C   UNL A   1      33.650  28.240  25.815  1.00  0.00     0.023 C 
ENDROOT
BRANCH   1   2
ATOM      2  C   UNL A   1      33.996  26.806  25.437  1.00  0.00     0.023 C 
BRANCH   2   3
ATOM      3  C   UNL A   1      33.256  26.199  24.252  1.00  0.00     0.116 C 
BRANCH   3   4
ATOM      4  N   UNL A   1      33.953  25.132  23.549  1.00  0.00    -0.352 N 
ATOM      5  C   UNL A   1      34.125  23.795  23.863  1.00  0.00     0.252 C 
ATOM      6  O   UNL A   1      34.621  23.065  23.009  1.00  0.00    -0.269 OA
ATOM      7  H   UNL A   1      34.375  25.410  22.704  1.00  0.00     0.163 HD
BRANCH   5   8
ATOM      8  C   UNL A   1      33.747  23.260  25.206  1.00  0.00     0.051 A 
ATOM      9  C   UNL A   1      32.064  23.127  26.968  1.00  0.00     0.119 A 
ATOM     10  C   UNL A   1      33.010  22.575  27.825  1.00  0.00     0.047 A 
ATOM     11  C   UNL A   1      32.422  23.410  25.651  1.00  0.00     0.060 A 
ATOM     12  C   UNL A   1      34.293  22.285  27.359  1.00  0.00     0.013 A 
ATOM     13  C   UNL A   1      34.668  22.600  26.041  1.00  0.00    -0.002 A 
BRANCH   9  14
ATOM     14  O   UNL A   1      30.830  23.342  27.514  1.00  0.00    -0.497 OA
ATOM     15  C   UNL A   1      29.753  22.609  26.939  1.00  0.00     0.278 C 
ENDBRANCH   9  14
BRANCH  13  16
ATOM     16  C   UNL A   1      35.931  22.051  25.583  1.00  0.00     0.026 A 
ATOM     17  C   UNL A   1      36.181  20.741  25.080  1.00  0.00     0.067 A 
ATOM     18  C   UNL A   1      37.167  22.664  25.605  1.00  0.00     0.040 A 
ATOM     19  C   UNL A   1      35.195  19.653  24.856  1.00  0.00     0.069 C 
ATOM     20  N   UNL A   1      37.480  20.547  24.824  1.00  0.00    -0.180 NA
ATOM     21  N   UNL A   1      38.035  21.740  25.083  1.00  0.00    -0.282 N 
ATOM     22  C   UNL A   1      37.622  24.007  26.024  1.00  0.00     0.067 C 
ATOM     23  H   UNL A   1      38.985  21.935  24.915  1.00  0.00     0.190 HD
ENDBRANCH  13  16
ENDBRANCH   5   8
ENDBRANCH   3   4
ENDBRANCH   2   3
ENDBRANCH   1   2
BRANCH   1  24
ATOM     24  C   UNL A   1      33.343  28.507  27.283  1.00  0.00     0.116 C 
BRANCH  24  25
ATOM     25  N   UNL A   1      33.345  29.917  27.644  1.00  0.00    -0.352 N 
ATOM     26  C   UNL A   1      34.363  30.700  28.147  1.00  0.00     0.251 C 
ATOM     27  H   UNL A   1      32.488  30.383  27.510  1.00  0.00     0.163 HD
ATOM     28  O   UNL A   1      34.140  31.867  28.439  1.00  0.00    -0.269 OA
BRANCH  26  29
ATOM     29  C   UNL A   1      35.706  30.116  28.378  1.00  0.00     0.039 A 
ATOM     30  C   UNL A   1      36.625  30.111  27.323  1.00  0.00     0.014 A 
ATOM     31  C   UNL A   1      36.073  29.610  29.625  1.00  0.00     0.014 A 
ATOM     32  C   UNL A   1      37.939  29.692  27.549  1.00  0.00     0.010 A 
ATOM     33  C   UNL A   1      37.402  29.270  29.870  1.00  0.00     0.010 A 
ATOM     34  C   UNL A   1      38.352  29.317  28.838  1.00  0.00    -0.014 A 
BRANCH  34  35
ATOM     35  C   UNL A   1      39.772  28.993  29.133  1.00  0.00     0.031 A 
ATOM     36  C   UNL A   1      40.683  30.037  29.717  1.00  0.00     0.074 A 
ATOM     37  C   UNL A   1      40.265  27.786  28.791  1.00  0.00     0.049 A 
ATOM     38  N   UNL A   1      41.968  29.975  29.953  1.00  0.00    -0.248 NA
ATOM     39  C   UNL A   1      40.073  31.335  30.046  1.00  0.00     0.031 C 
ATOM     40  C   UNL A   1      39.502  26.709  28.155  1.00  0.00     0.029 A 
ATOM     41  N   UNL A   1      41.531  27.268  28.910  1.00  0.00    -0.354 N 
ATOM     42  C   UNL A   1      42.324  31.226  30.441  1.00  0.00     0.074 A 
ATOM     43  C   UNL A   1      41.130  32.043  30.413  1.00  0.00     0.031 C 
ATOM     44  C   UNL A   1      40.312  25.657  27.950  1.00  0.00     0.029 A 
ATOM     45  C   UNL A   1      41.656  25.994  28.409  1.00  0.00     0.049 A 
ATOM     46  H   UNL A   1      42.279  27.763  29.317  1.00  0.00     0.167 HD
ATOM     47  C   UNL A   1      43.529  31.649  30.894  1.00  0.00     0.037 A 
ATOM     48  C   UNL A   1      42.733  25.189  28.319  1.00  0.00     0.037 A 
ATOM     49  C   UNL A   1      44.710  30.828  30.939  1.00  0.00     0.049 A 
ATOM     50  C   UNL A   1      44.054  25.664  28.856  1.00  0.00     0.074 A 
ATOM     51  C   UNL A   1      45.963  31.145  31.431  1.00  0.00     0.029 A 
ATOM     52  N   UNL A   1      44.782  29.523  30.473  1.00  0.00    -0.354 N 
ATOM     53  N   UNL A   1      44.358  26.829  29.376  1.00  0.00    -0.248 NA
ATOM     54  C   UNL A   1      45.175  24.715  28.804  1.00  0.00     0.031 C 
ATOM     55  C   UNL A   1      46.803  30.042  31.234  1.00  0.00     0.029 A 
ATOM     56  C   UNL A   1      46.063  29.024  30.654  1.00  0.00     0.049 A 
ATOM     57  H   UNL A   1      44.035  29.024  30.071  1.00  0.00     0.167 HD
ATOM     58  C   UNL A   1      45.701  26.749  29.729  1.00  0.00     0.074 A 
ATOM     59  C   UNL A   1      46.145  25.416  29.375  1.00  0.00     0.031 C 
ATOM     60  C   UNL A   1      46.491  27.695  30.295  1.00  0.00     0.037 A 
BRANCH  47  61
ATOM     61  C   UNL A   1      43.614  33.071  31.380  1.00  0.00     0.058 A 
ATOM     62  C   UNL A   1      43.844  34.136  30.494  1.00  0.00     0.135 A 
ATOM     63  C   UNL A   1      43.482  33.373  32.745  1.00  0.00     0.135 A 
ATOM     64  F   UNL A   1      43.992  33.902  29.180  1.00  0.00    -0.206 F 
ATOM     65  C   UNL A   1      43.993  35.442  30.947  1.00  0.00     0.059 A 
ATOM     66  C   UNL A   1      43.598  34.677  33.218  1.00  0.00     0.059 A 
ATOM     67  F   UNL A   1      43.256  32.395  33.636  1.00  0.00    -0.206 F 
ATOM     68  C   UNL A   1      43.879  35.701  32.314  1.00  0.00     0.060 A 
BRANCH  68  69
ATOM     69  S   UNL A   1      44.116  37.393  32.895  1.00  0.00     0.124 S 
ATOM     70  O   UNL A   1      42.969  37.558  33.781  1.00  0.00    -0.237 OA
ATOM     71  O   UNL A   1      45.418  37.323  33.552  1.00  0.00    -0.237 OA
ATOM     72  O   UNL A   1      44.080  38.181  31.666  1.00  0.00    -0.744 OA
ENDBRANCH  68  69
ENDBRANCH  47  61
BRANCH  48  73
ATOM     73  C   UNL A   1      42.586  23.838  27.717  1.00  0.00     0.058 A 
ATOM     74  C   UNL A   1      42.671  23.654  26.329  1.00  0.00     0.135 A 
ATOM     75  C   UNL A   1      42.418  22.699  28.519  1.00  0.00     0.135 A 
ATOM     76  F   UNL A   1      42.827  24.714  25.521  1.00  0.00    -0.206 F 
ATOM     77  C   UNL A   1      42.595  22.389  25.756  1.00  0.00     0.059 A 
ATOM     78  C   UNL A   1      42.358  21.421  27.971  1.00  0.00     0.059 A 
ATOM     79  F   UNL A   1      42.348  22.822  29.854  1.00  0.00    -0.206 F 
ATOM     80  C   UNL A   1      42.447  21.277  26.587  1.00  0.00     0.060 A 
BRANCH  80  81
ATOM     81  S   UNL A   1      42.442  19.632  25.841  1.00  0.00     0.124 S 
ATOM     82  O   UNL A   1      41.049  19.498  25.433  1.00  0.00    -0.237 OA
ATOM     83  O   UNL A   1      43.412  19.781  24.760  1.00  0.00    -0.237 OA
ATOM     84  O   UNL A   1      42.867  18.767  26.937  1.00  0.00    -0.744 OA
ENDBRANCH  80  81
ENDBRANCH  48  73
BRANCH  60  85
ATOM     85  C   UNL A   1      47.916  27.318  30.586  1.00  0.00     0.058 A 
ATOM     86  C   UNL A   1      48.275  26.651  31.767  1.00  0.00     0.135 A 
ATOM     87  C   UNL A   1      48.927  27.578  29.644  1.00  0.00     0.135 A 
ATOM     88  F   UNL A   1      47.349  26.386  32.701  1.00  0.00    -0.206 F 
ATOM     89  C   UNL A   1      49.591  26.271  32.015  1.00  0.00     0.059 A 
ATOM     90  C   UNL A   1      50.243  27.186  29.862  1.00  0.00     0.059 A 
ATOM     91  F   UNL A   1      48.633  28.205  28.494  1.00  0.00    -0.206 F 
ATOM     92  C   UNL A   1      50.568  26.543  31.055  1.00  0.00     0.060 A 
BRANCH  92  93
ATOM     93  S   UNL A   1      52.265  26.012  31.370  1.00  0.00     0.124 S 
ATOM     94  O   UNL A   1      52.850  26.092  30.036  1.00  0.00    -0.237 OA
ATOM     95  O   UNL A   1      52.734  27.008  32.328  1.00  0.00    -0.237 OA
ATOM     96  O   UNL A   1      52.104  24.664  31.907  1.00  0.00    -0.744 OA
ENDBRANCH  92  93
ENDBRANCH  60  85
ENDBRANCH  34  35
ENDBRANCH  26  29
ENDBRANCH  24  25
ENDBRANCH   1  24
TORSDOF 16
ENDMDL
MODEL 2
REMARK VINA RESULT:     -11.5      4.673     10.558
REMARK SMILES COc1ccc(-c2c(C)n[nH]c2C)c(C(=O)NCCCCNC(=O)c2ccc(-c3c4nc(c(-c5c(F)cc(S(=O)(=O)[O-])cc5F)c5ccc([nH]5)c(-c5c(F)cc(S(=O)(=O)[O-])cc5F)c5nc(c(-c6c(F)cc(S(=O)(=O)[O-])cc6F)c6ccc3[nH]6)C=C5)C=C4)cc2)c1
REMARK SMILES IDX 20 1 19 2 18 3 17 4 15 5 16 6 14 8 3 9 4 10 91 11 5 12 6 13
REMARK SMILES IDX 2 14 1 15 7 16 8 17 12 18 9 19 10 20 11 21 13 22 21 24 22 25
REMARK SMILES IDX 23 26 24 28 25 29 26 30 90 31 27 32 89 33 28 34 29 35 30 36
REMARK SMILES IDX 83 37 31 38 88 39 82 40 84 41 32 42 87 43 81 44 80 45 33 47
REMARK SMILES IDX 67 48 46 49 66 50 47 51 50 52 65 53 85 54 48 55 49 56 64 58
REMARK SMILES IDX 86 59 51 60 34 61 35 62 44 63 36 64 37 65 43 66 45 67 38 68
REMARK SMILES IDX 39 69 40 70 41 71 42 72 68 73 69 74 78 75 70 76 71 77 77 78
REMARK SMILES IDX 79 79 72 80 73 81 74 82 75 83 76 84 52 85 53 86 62 87 54 88
REMARK SMILES IDX 55 89 61 90 63 91 56 92 57 93 58 94 59 95 60 96
REMARK H PARENT 17 7 11 23 22 27 84 46 50 57
REMARK Flexibility Score: inf
ROOT
ATOM      1  C   UNL A   1      37.153  23.675  25.234  1.00  0.00     0.023 C 
ENDROOT
BRANCH   1   2
ATOM      2  C   UNL A   1      35.673  23.465  25.524  1.00  0.00     0.023 C 
BRANCH   2   3
ATOM      3  C   UNL A   1      34.804  24.709  25.659  1.00  0.00     0.116 C 
BRANCH   3   4
ATOM      4  N   UNL A   1      34.359  25.309  24.411  1.00  0.00    -0.352 N 
ATOM      5  C   UNL A   1      33.782  26.539  24.147  1.00  0.00     0.252 C 
ATOM      6  O   UNL A   1      33.651  26.870  22.971  1.00  0.00    -0.269 OA
ATOM      7  H   UNL A   1      34.492  24.742  23.616  1.00  0.00     0.163 HD
BRANCH   5   8
ATOM      8  C   UNL A   1      33.307  27.426  25.252  1.00  0.00     0.051 A 
ATOM      9  C   UNL A   1      33.892  29.013  27.011  1.00  0.00     0.119 A 
ATOM     10  C   UNL A   1      32.607  28.903  27.532  1.00  0.00     0.047 A 
ATOM     11  C   UNL A   1      34.214  28.321  25.844  1.00  0.00     0.060 A 
ATOM     12  C   UNL A   1      31.649  28.131  26.876  1.00  0.00     0.013 A 
ATOM     13  C   UNL A   1      31.979  27.404  25.718  1.00  0.00    -0.002 A 
BRANCH   9  14
ATOM     14  O   UNL A   1      34.745  29.820  27.711  1.00  0.00    -0.497 OA
ATOM     15  C   UNL A   1      34.325  31.168  27.894  1.00  0.00     0.278 C 
ENDBRANCH   9  14
BRANCH  13  16
ATOM     16  C   UNL A   1      30.870  26.827  24.982  1.00  0.00     0.026 A 
ATOM     17  C   UNL A   1      30.027  27.470  24.029  1.00  0.00     0.067 A 
ATOM     18  C   UNL A   1      30.358  25.552  25.104  1.00  0.00     0.040 A 
ATOM     19  C   UNL A   1      30.124  28.864  23.529  1.00  0.00     0.069 C 
ATOM     20  N   UNL A   1      29.051  26.660  23.603  1.00  0.00    -0.180 NA
ATOM     21  N   UNL A   1      29.318  25.495  24.213  1.00  0.00    -0.282 N 
ATOM     22  C   UNL A   1      30.740  24.383  25.925  1.00  0.00     0.067 C 
ATOM     23  H   UNL A   1      28.808  24.671  24.038  1.00  0.00     0.190 HD
ENDBRANCH  13  16
ENDBRANCH   5   8
ENDBRANCH   3   4
ENDBRANCH   2   3
ENDBRANCH   1   2
BRANCH   1  24
ATOM     24  C   UNL A   1      38.046  24.004  26.423  1.00  0.00     0.116 C 
BRANCH  24  25
ATOM     25  N   UNL A   1      39.466  23.812  26.173  1.00  0.00    -0.352 N 
ATOM     26  C   UNL A   1      40.550  24.526  26.638  1.00  0.00     0.251 C 
ATOM     27  H   UNL A   1      39.687  23.058  25.580  1.00  0.00     0.163 HD
ATOM     28  O   UNL A   1      41.676  24.230  26.260  1.00  0.00    -0.269 OA
BRANCH  26  29
ATOM     29  C   UNL A   1      40.348  25.676  27.551  1.00  0.00     0.039 A 
ATOM     30  C   UNL A   1      39.439  25.542  28.605  1.00  0.00     0.014 A 
ATOM     31  C   UNL A   1      41.068  26.861  27.397  1.00  0.00     0.014 A 
ATOM     32  C   UNL A   1      39.328  26.557  29.560  1.00  0.00     0.010 A 
ATOM     33  C   UNL A   1      41.017  27.836  28.391  1.00  0.00     0.010 A 
ATOM     34  C   UNL A   1      40.154  27.691  29.488  1.00  0.00    -0.014 A 
BRANCH  34  35
ATOM     35  C   UNL A   1      40.150  28.722  30.558  1.00  0.00     0.031 A 
ATOM     36  C   UNL A   1      41.047  28.577  31.756  1.00  0.00     0.074 A 
ATOM     37  C   UNL A   1      39.271  29.742  30.497  1.00  0.00     0.049 A 
ATOM     38  N   UNL A   1      41.116  29.318  32.832  1.00  0.00    -0.248 NA
ATOM     39  C   UNL A   1      41.965  27.427  31.757  1.00  0.00     0.031 C 
ATOM     40  C   UNL A   1      38.298  29.958  29.423  1.00  0.00     0.029 A 
ATOM     41  N   UNL A   1      39.037  30.779  31.367  1.00  0.00    -0.354 N 
ATOM     42  C   UNL A   1      42.070  28.716  33.644  1.00  0.00     0.074 A 
ATOM     43  C   UNL A   1      42.509  27.519  32.961  1.00  0.00     0.031 C 
ATOM     44  C   UNL A   1      37.581  31.062  29.693  1.00  0.00     0.029 A 
ATOM     45  C   UNL A   1      38.019  31.613  30.971  1.00  0.00     0.049 A 
ATOM     46  H   UNL A   1      39.551  30.911  32.196  1.00  0.00     0.167 HD
ATOM     47  C   UNL A   1      42.553  29.134  34.839  1.00  0.00     0.037 A 
ATOM     48  C   UNL A   1      37.490  32.697  31.572  1.00  0.00     0.037 A 
ATOM     49  C   UNL A   1      42.127  30.336  35.508  1.00  0.00     0.049 A 
ATOM     50  C   UNL A   1      38.060  33.164  32.882  1.00  0.00     0.074 A 
ATOM     51  C   UNL A   1      42.594  30.875  36.693  1.00  0.00     0.029 A 
ATOM     52  N   UNL A   1      41.132  31.186  35.047  1.00  0.00    -0.354 N 
ATOM     53  N   UNL A   1      39.009  32.619  33.606  1.00  0.00    -0.248 NA
ATOM     54  C   UNL A   1      37.497  34.396  33.453  1.00  0.00     0.031 C 
ATOM     55  C   UNL A   1      41.860  32.036  36.965  1.00  0.00     0.029 A 
ATOM     56  C   UNL A   1      40.961  32.240  35.930  1.00  0.00     0.049 A 
ATOM     57  H   UNL A   1      40.620  31.058  34.215  1.00  0.00     0.167 HD
ATOM     58  C   UNL A   1      39.169  33.450  34.710  1.00  0.00     0.074 A 
ATOM     59  C   UNL A   1      38.229  34.541  34.550  1.00  0.00     0.031 C 
ATOM     60  C   UNL A   1      40.019  33.318  35.758  1.00  0.00     0.037 A 
BRANCH  47  61
ATOM     61  C   UNL A   1      43.603  28.274  35.490  1.00  0.00     0.058 A 
ATOM     62  C   UNL A   1      44.964  28.415  35.174  1.00  0.00     0.135 A 
ATOM     63  C   UNL A   1      43.247  27.289  36.425  1.00  0.00     0.135 A 
ATOM     64  F   UNL A   1      45.358  29.332  34.276  1.00  0.00    -0.206 F 
ATOM     65  C   UNL A   1      45.929  27.575  35.720  1.00  0.00     0.059 A 
ATOM     66  C   UNL A   1      44.199  26.457  37.006  1.00  0.00     0.059 A 
ATOM     67  F   UNL A   1      41.961  27.115  36.768  1.00  0.00    -0.206 F 
ATOM     68  C   UNL A   1      45.534  26.592  36.628  1.00  0.00     0.060 A 
BRANCH  68  69
ATOM     69  S   UNL A   1      46.791  25.482  37.298  1.00  0.00     0.124 S 
ATOM     70  O   UNL A   1      45.979  24.337  37.700  1.00  0.00    -0.237 OA
ATOM     71  O   UNL A   1      47.665  25.264  36.150  1.00  0.00    -0.237 OA
ATOM     72  O   UNL A   1      47.376  26.253  38.391  1.00  0.00    -0.744 OA
ENDBRANCH  68  69
ENDBRANCH  47  61
BRANCH  48  73
ATOM     73  C   UNL A   1      36.372  33.424  30.915  1.00  0.00     0.058 A 
ATOM     74  C   UNL A   1      35.084  33.420  31.470  1.00  0.00     0.135 A 
ATOM     75  C   UNL A   1      36.582  34.183  29.753  1.00  0.00     0.135 A 
ATOM     76  F   UNL A   1      34.834  32.705  32.577  1.00  0.00    -0.206 F 
ATOM     77  C   UNL A   1      34.043  34.145  30.899  1.00  0.00     0.059 A 
ATOM     78  C   UNL A   1      35.562  34.931  29.174  1.00  0.00     0.059 A 
ATOM     79  F   UNL A   1      37.802  34.231  29.194  1.00  0.00    -0.206 F 
ATOM     80  C   UNL A   1      34.294  34.903  29.755  1.00  0.00     0.060 A 
BRANCH  80  81
ATOM     81  S   UNL A   1      32.960  35.913  29.074  1.00  0.00     0.124 S 
ATOM     82  O   UNL A   1      32.174  36.206  30.266  1.00  0.00    -0.237 OA
ATOM     83  O   UNL A   1      33.689  37.038  28.496  1.00  0.00    -0.237 OA
ATOM     84  O   UNL A   1      32.329  35.023  28.103  1.00  0.00    -0.744 OA
ENDBRANCH  80  81
ENDBRANCH  48  73
BRANCH  60  85
ATOM     85  C   UNL A   1      39.986  34.391  36.810  1.00  0.00     0.058 A 
ATOM     86  C   UNL A   1      39.112  34.321  37.905  1.00  0.00     0.135 A 
ATOM     87  C   UNL A   1      40.879  35.474  36.750  1.00  0.00     0.135 A 
ATOM     88  F   UNL A   1      38.235  33.310  38.006  1.00  0.00    -0.206 F 
ATOM     89  C   UNL A   1      39.110  35.298  38.897  1.00  0.00     0.059 A 
ATOM     90  C   UNL A   1      40.910  36.449  37.741  1.00  0.00     0.059 A 
ATOM     91  F   UNL A   1      41.742  35.583  35.727  1.00  0.00    -0.206 F 
ATOM     92  C   UNL A   1      40.014  36.358  38.806  1.00  0.00     0.060 A 
BRANCH  92  93
ATOM     93  S   UNL A   1      40.029  37.600  40.117  1.00  0.00     0.124 S 
ATOM     94  O   UNL A   1      40.489  36.817  41.258  1.00  0.00    -0.237 OA
ATOM     95  O   UNL A   1      40.973  38.588  39.604  1.00  0.00    -0.237 OA
ATOM     96  O   UNL A   1      38.640  38.044  40.178  1.00  0.00    -0.744 OA
ENDBRANCH  92  93
ENDBRANCH  60  85
ENDBRANCH  34  35
ENDBRANCH  26  29
ENDBRANCH  24  25
ENDBRANCH   1  24
TORSDOF 16
ENDMDL
MODEL 3
REMARK VINA RESULT:     -11.5      3.402      4.595
REMARK SMILES COc1ccc(-c2c(C)n[nH]c2C)c(C(=O)NCCCCNC(=O)c2ccc(-c3c4nc(c(-c5c(F)cc(S(=O)(=O)[O-])cc5F)c5ccc([nH]5)c(-c5c(F)cc(S(=O)(=O)[O-])cc5F)c5nc(c(-c6c(F)cc(S(=O)(=O)[O-])cc6F)c6ccc3[nH]6)C=C5)C=C4)cc2)c1
REMARK SMILES IDX 20 1 19 2 18 3 17 4 15 5 16 6 14 8 3 9 4 10 91 11 5 12 6 13
REMARK SMILES IDX 2 14 1 15 7 16 8 17 12 18 9 19 10 20 11 21 13 22 21 24 22 25
REMARK SMILES IDX 23 26 24 28 25 29 26 30 90 31 27 32 89 33 28 34 29 35 30 36
REMARK SMILES IDX 83 37 31 38 88 39 82 40 84 41 32 42 87 43 81 44 80 45 33 47
REMARK SMILES IDX 67 48 46 49 66 50 47 51 50 52 65 53 85 54 48 55 49 56 64 58
REMARK SMILES IDX 86 59 51 60 34 61 35 62 44 63 36 64 37 65 43 66 45 67 38 68
REMARK SMILES IDX 39 69 40 70 41 71 42 72 68 73 69 74 78 75 70 76 71 77 77 78
REMARK SMILES IDX 79 79 72 80 73 81 74 82 75 83 76 84 52 85 53 86 62 87 54 88
REMARK SMILES IDX 55 89 61 90 63 91 56 92 57 93 58 94 59 95 60 96
REMARK H PARENT 17 7 11 23 22 27 84 46 50 57
REMARK Flexibility Score: inf
ROOT
ATOM      1  C   UNL A   1      34.756  29.372  27.050  1.00  0.00     0.023 C 
ENDROOT
BRANCH   1   2
ATOM      2  C   UNL A   1      33.236  29.455  27.037  1.00  0.00     0.023 C 
BRANCH   2   3
ATOM      3  C   UNL A   1      32.571  29.878  25.734  1.00  0.00     0.116 C 
BRANCH   3   4
ATOM      4  N   UNL A   1      33.255  29.475  24.514  1.00  0.00    -0.352 N 
ATOM      5  C   UNL A   1      32.765  28.997  23.310  1.00  0.00     0.252 C 
ATOM      6  O   UNL A   1      33.553  28.887  22.375  1.00  0.00    -0.269 OA
ATOM      7  H   UNL A   1      34.236  29.557  24.552  1.00  0.00     0.163 HD
BRANCH   5   8
ATOM      8  C   UNL A   1      31.332  28.602  23.159  1.00  0.00     0.051 A 
ATOM      9  C   UNL A   1      29.047  29.300  22.663  1.00  0.00     0.119 A 
ATOM     10  C   UNL A   1      28.577  28.076  23.125  1.00  0.00     0.047 A 
ATOM     11  C   UNL A   1      30.421  29.532  22.629  1.00  0.00     0.060 A 
ATOM     12  C   UNL A   1      29.475  27.084  23.521  1.00  0.00     0.013 A 
ATOM     13  C   UNL A   1      30.860  27.326  23.520  1.00  0.00    -0.002 A 
BRANCH   9  14
ATOM     14  O   UNL A   1      28.087  30.189  22.269  1.00  0.00    -0.497 OA
ATOM     15  C   UNL A   1      27.653  31.122  23.253  1.00  0.00     0.278 C 
ENDBRANCH   9  14
BRANCH  13  16
ATOM     16  C   UNL A   1      31.715  26.171  23.720  1.00  0.00     0.026 A 
ATOM     17  C   UNL A   1      32.354  25.376  22.724  1.00  0.00     0.067 A 
ATOM     18  C   UNL A   1      32.031  25.561  24.917  1.00  0.00     0.040 A 
ATOM     19  C   UNL A   1      32.337  25.580  21.254  1.00  0.00     0.069 C 
ATOM     20  N   UNL A   1      33.005  24.337  23.260  1.00  0.00    -0.180 NA
ATOM     21  N   UNL A   1      32.850  24.514  24.581  1.00  0.00    -0.282 N 
ATOM     22  C   UNL A   1      31.684  25.854  26.324  1.00  0.00     0.067 C 
ATOM     23  H   UNL A   1      33.287  23.941  25.252  1.00  0.00     0.190 HD
ENDBRANCH  13  16
ENDBRANCH   5   8
ENDBRANCH   3   4
ENDBRANCH   2   3
ENDBRANCH   1   2
BRANCH   1  24
ATOM     24  C   UNL A   1      35.496  30.463  27.813  1.00  0.00     0.116 C 
BRANCH  24  25
ATOM     25  N   UNL A   1      35.352  30.381  29.259  1.00  0.00    -0.352 N 
ATOM     26  C   UNL A   1      36.307  30.183  30.233  1.00  0.00     0.251 C 
ATOM     27  H   UNL A   1      34.431  30.483  29.593  1.00  0.00     0.163 HD
ATOM     28  O   UNL A   1      35.966  30.092  31.405  1.00  0.00    -0.269 OA
BRANCH  26  29
ATOM     29  C   UNL A   1      37.733  30.033  29.858  1.00  0.00     0.039 A 
ATOM     30  C   UNL A   1      38.675  29.828  30.872  1.00  0.00     0.014 A 
ATOM     31  C   UNL A   1      38.140  30.057  28.523  1.00  0.00     0.014 A 
ATOM     32  C   UNL A   1      40.004  29.548  30.539  1.00  0.00     0.010 A 
ATOM     33  C   UNL A   1      39.444  29.699  28.190  1.00  0.00     0.010 A 
ATOM     34  C   UNL A   1      40.388  29.430  29.193  1.00  0.00    -0.014 A 
BRANCH  34  35
ATOM     35  C   UNL A   1      41.761  29.006  28.813  1.00  0.00     0.031 A 
ATOM     36  C   UNL A   1      42.873  30.016  28.737  1.00  0.00     0.074 A 
ATOM     37  C   UNL A   1      41.986  27.729  28.448  1.00  0.00     0.049 A 
ATOM     38  N   UNL A   1      44.107  29.857  28.334  1.00  0.00    -0.248 NA
ATOM     39  C   UNL A   1      42.541  31.393  29.134  1.00  0.00     0.031 C 
ATOM     40  C   UNL A   1      40.977  26.667  28.412  1.00  0.00     0.029 A 
ATOM     41  N   UNL A   1      43.133  27.108  28.016  1.00  0.00    -0.354 N 
ATOM     42  C   UNL A   1      44.694  31.114  28.412  1.00  0.00     0.074 A 
ATOM     43  C   UNL A   1      43.665  32.033  28.847  1.00  0.00     0.031 C 
ATOM     44  C   UNL A   1      41.551  25.528  27.992  1.00  0.00     0.029 A 
ATOM     45  C   UNL A   1      42.958  25.783  27.698  1.00  0.00     0.049 A 
ATOM     46  H   UNL A   1      43.999  27.571  27.941  1.00  0.00     0.167 HD
ATOM     47  C   UNL A   1      45.980  31.467  28.168  1.00  0.00     0.037 A 
ATOM     48  C   UNL A   1      43.828  24.874  27.216  1.00  0.00     0.037 A 
ATOM     49  C   UNL A   1      47.006  30.547  27.754  1.00  0.00     0.049 A 
ATOM     50  C   UNL A   1      45.258  25.276  26.981  1.00  0.00     0.074 A 
ATOM     51  C   UNL A   1      48.350  30.794  27.536  1.00  0.00     0.029 A 
ATOM     52  N   UNL A   1      46.802  29.199  27.497  1.00  0.00    -0.354 N 
ATOM     53  N   UNL A   1      45.813  26.456  27.125  1.00  0.00    -0.248 NA
ATOM     54  C   UNL A   1      46.180  24.225  26.531  1.00  0.00     0.031 C 
ATOM     55  C   UNL A   1      48.952  29.602  27.115  1.00  0.00     0.029 A 
ATOM     56  C   UNL A   1      47.992  28.603  27.109  1.00  0.00     0.049 A 
ATOM     57  H   UNL A   1      45.938  28.733  27.576  1.00  0.00     0.167 HD
ATOM     58  C   UNL A   1      47.154  26.287  26.797  1.00  0.00     0.074 A 
ATOM     59  C   UNL A   1      47.327  24.888  26.463  1.00  0.00     0.031 C 
ATOM     60  C   UNL A   1      48.149  27.209  26.778  1.00  0.00     0.037 A 
BRANCH  47  61
ATOM     61  C   UNL A   1      46.335  32.917  28.351  1.00  0.00     0.058 A 
ATOM     62  C   UNL A   1      46.797  33.409  29.582  1.00  0.00     0.135 A 
ATOM     63  C   UNL A   1      46.199  33.830  27.292  1.00  0.00     0.135 A 
ATOM     64  F   UNL A   1      46.933  32.584  30.632  1.00  0.00    -0.206 F 
ATOM     65  C   UNL A   1      47.060  34.762  29.775  1.00  0.00     0.059 A 
ATOM     66  C   UNL A   1      46.484  35.183  27.453  1.00  0.00     0.059 A 
ATOM     67  F   UNL A   1      45.767  33.413  26.091  1.00  0.00    -0.206 F 
ATOM     68  C   UNL A   1      46.890  35.642  28.706  1.00  0.00     0.060 A 
BRANCH  68  69
ATOM     69  S   UNL A   1      47.194  37.401  28.979  1.00  0.00     0.124 S 
ATOM     70  O   UNL A   1      46.517  37.616  30.254  1.00  0.00    -0.237 OA
ATOM     71  O   UNL A   1      48.651  37.467  29.017  1.00  0.00    -0.237 OA
ATOM     72  O   UNL A   1      46.570  38.036  27.821  1.00  0.00    -0.744 OA
ENDBRANCH  68  69
ENDBRANCH  47  61
BRANCH  48  73
ATOM     73  C   UNL A   1      43.365  23.487  26.952  1.00  0.00     0.058 A 
ATOM     74  C   UNL A   1      43.197  23.020  25.641  1.00  0.00     0.135 A 
ATOM     75  C   UNL A   1      43.138  22.584  28.003  1.00  0.00     0.135 A 
ATOM     76  F   UNL A   1      43.397  23.848  24.604  1.00  0.00    -0.206 F 
ATOM     77  C   UNL A   1      42.821  21.707  25.377  1.00  0.00     0.059 A 
ATOM     78  C   UNL A   1      42.780  21.261  27.765  1.00  0.00     0.059 A 
ATOM     79  F   UNL A   1      43.302  22.979  29.275  1.00  0.00    -0.206 F 
ATOM     80  C   UNL A   1      42.622  20.832  26.447  1.00  0.00     0.060 A 
BRANCH  80  81
ATOM     81  S   UNL A   1      42.225  19.106  26.093  1.00  0.00     0.124 S 
ATOM     82  O   UNL A   1      40.800  19.187  25.797  1.00  0.00    -0.237 OA
ATOM     83  O   UNL A   1      43.097  18.815  24.959  1.00  0.00    -0.237 OA
ATOM     84  O   UNL A   1      42.575  18.421  27.334  1.00  0.00    -0.744 OA
ENDBRANCH  80  81
ENDBRANCH  48  73
BRANCH  60  85
ATOM     85  C   UNL A   1      49.522  26.731  26.398  1.00  0.00     0.058 A 
ATOM     86  C   UNL A   1      50.382  26.142  27.337  1.00  0.00     0.135 A 
ATOM     87  C   UNL A   1      49.961  26.815  25.066  1.00  0.00     0.135 A 
ATOM     88  F   UNL A   1      50.013  26.045  28.623  1.00  0.00    -0.206 F 
ATOM     89  C   UNL A   1      51.639  25.668  26.972  1.00  0.00     0.059 A 
ATOM     90  C   UNL A   1      51.203  26.326  24.676  1.00  0.00     0.059 A 
ATOM     91  F   UNL A   1      49.172  27.362  24.128  1.00  0.00    -0.206 F 
ATOM     92  C   UNL A   1      52.040  25.764  25.639  1.00  0.00     0.060 A 
BRANCH  92  93
ATOM     93  S   UNL A   1      53.658  25.112  25.170  1.00  0.00     0.124 S 
ATOM     94  O   UNL A   1      53.396  23.677  25.134  1.00  0.00    -0.237 OA
ATOM     95  O   UNL A   1      53.890  25.746  23.876  1.00  0.00    -0.237 OA
ATOM     96  O   UNL A   1      54.531  25.565  26.248  1.00  0.00    -0.744 OA
ENDBRANCH  92  93
ENDBRANCH  60  85
ENDBRANCH  34  35
ENDBRANCH  26  29
ENDBRANCH  24  25
ENDBRANCH   1  24
TORSDOF 16
ENDMDL
