MODEL 1
REMARK VINA RESULT:     -12.5      0.000      0.000
REMARK SMILES CC(C)c1noc(C[N@@H+]2[C@@H](C(=O)NCCCCNC(=O)c3ccc(-c4c5nc(c(-c6c(F)cc(S(=O)(=O)[O-])cc6F)c6ccc([nH]6)c(-c6c(F)cc(S(=O)(=O)[O-])cc6F)c6nc(c(-c7c(F)cc(S(=O)(=O)[O-])cc7F)c7ccc4[nH]7)C=C6)C=C5)cc3)C[C@H]3CCCC[C@@H]32)n1
REMARK SMILES IDX 15 1 14 2 13 3 11 4 12 5 10 7 9 8 93 9 87 11 88 12 92 13
REMARK SMILES IDX 89 14 91 15 90 16 8 17 7 18 4 19 5 20 94 21 6 22 2 23 1 24
REMARK SMILES IDX 3 25 16 26 17 27 18 28 19 29 20 31 21 32 22 33 86 34 23 35
REMARK SMILES IDX 85 36 24 37 25 38 26 39 79 40 27 41 84 42 78 43 80 44 28 45
REMARK SMILES IDX 83 46 77 47 76 48 29 50 63 51 42 52 62 53 43 54 46 55 61 56
REMARK SMILES IDX 81 57 44 58 45 59 60 61 82 62 47 63 30 64 31 65 40 66 32 67
REMARK SMILES IDX 33 68 39 69 41 70 34 71 35 72 36 73 37 74 38 75 64 76 65 77
REMARK SMILES IDX 74 78 66 79 67 80 73 81 75 82 68 83 69 84 70 85 71 86 72 87
REMARK SMILES IDX 48 88 49 89 58 90 50 91 51 92 57 93 59 94 52 95 53 96 54 97
REMARK SMILES IDX 55 98 56 99
REMARK H PARENT 13 6 9 10 18 30 80 49 46 60
REMARK Flexibility Score: inf
ROOT
ATOM      1  C   UNL A   1      34.595  30.510  27.678  1.00  0.00     0.023 C 
ENDROOT
BRANCH   1   2
ATOM      2  C   UNL A   1      33.364  30.326  26.796  1.00  0.00     0.116 C 
BRANCH   2   3
ATOM      3  N   UNL A   1      32.380  29.465  27.428  1.00  0.00    -0.351 N 
ATOM      4  C   UNL A   1      31.932  28.233  27.025  1.00  0.00     0.278 C 
ATOM      5  O   UNL A   1      31.066  27.680  27.703  1.00  0.00    -0.268 OA
ATOM      6  H   UNL A   1      31.981  29.812  28.258  1.00  0.00     0.163 HD
BRANCH   4   7
ATOM      7  C   UNL A   1      32.585  27.604  25.776  1.00  0.00     0.275 C 
ATOM      8  N   UNL A   1      31.560  27.040  24.853  1.00  0.00    -0.314 N 
ATOM      9  C   UNL A   1      31.563  25.592  25.093  1.00  0.00     0.188 C 
ATOM     10  H   UNL A   1      30.618  27.383  25.043  1.00  0.00     0.349 HD
ATOM     11  C   UNL A   1      33.479  26.432  26.228  1.00  0.00     0.085 C 
ATOM     12  C   UNL A   1      33.028  25.269  25.367  1.00  0.00     0.054 C 
ATOM     13  C   UNL A   1      30.962  24.615  24.081  1.00  0.00     0.065 C 
ATOM     14  C   UNL A   1      33.179  23.876  25.953  1.00  0.00     0.010 C 
ATOM     15  C   UNL A   1      31.187  23.161  24.527  1.00  0.00     0.006 C 
ATOM     16  C   UNL A   1      32.634  22.862  24.944  1.00  0.00     0.001 C 
BRANCH   8  17
ATOM     17  C   UNL A   1      31.695  27.520  23.464  1.00  0.00     0.364 C 
BRANCH  17  18
ATOM     18  C   UNL A   1      30.777  28.616  23.031  1.00  0.00     0.281 A 
ATOM     19  C   UNL A   1      29.446  30.230  22.914  1.00  0.00     0.174 A 
ATOM     20  N   UNL A   1      29.084  29.459  21.878  1.00  0.00    -0.062 NA
ATOM     21  N   UNL A   1      30.535  29.773  23.607  1.00  0.00    -0.191 NA
ATOM     22  O   UNL A   1      29.968  28.378  21.956  1.00  0.00    -0.333 OA
BRANCH  19  23
ATOM     23  C   UNL A   1      28.728  31.484  23.311  1.00  0.00     0.055 C 
ATOM     24  C   UNL A   1      28.695  32.531  22.193  1.00  0.00     0.016 C 
ATOM     25  C   UNL A   1      27.288  31.198  23.758  1.00  0.00     0.016 C 
ENDBRANCH  19  23
ENDBRANCH  17  18
ENDBRANCH   8  17
ENDBRANCH   4   7
ENDBRANCH   2   3
ENDBRANCH   1   2
BRANCH   1  26
ATOM     26  C   UNL A   1      34.983  31.969  27.923  1.00  0.00     0.023 C 
BRANCH  26  27
ATOM     27  C   UNL A   1      36.007  32.191  29.032  1.00  0.00     0.116 C 
BRANCH  27  28
ATOM     28  N   UNL A   1      35.745  31.385  30.215  1.00  0.00    -0.352 N 
ATOM     29  C   UNL A   1      36.551  30.448  30.817  1.00  0.00     0.251 C 
ATOM     30  H   UNL A   1      34.870  31.528  30.642  1.00  0.00     0.163 HD
ATOM     31  O   UNL A   1      36.108  29.756  31.730  1.00  0.00    -0.269 OA
BRANCH  29  32
ATOM     32  C   UNL A   1      37.937  30.256  30.341  1.00  0.00     0.039 A 
ATOM     33  C   UNL A   1      38.972  30.203  31.278  1.00  0.00     0.014 A 
ATOM     34  C   UNL A   1      38.213  30.106  28.979  1.00  0.00     0.014 A 
ATOM     35  C   UNL A   1      40.274  29.924  30.855  1.00  0.00     0.010 A 
ATOM     36  C   UNL A   1      39.496  29.758  28.568  1.00  0.00     0.010 A 
ATOM     37  C   UNL A   1      40.540  29.658  29.501  1.00  0.00    -0.014 A 
BRANCH  37  38
ATOM     38  C   UNL A   1      41.895  29.257  29.045  1.00  0.00     0.031 A 
ATOM     39  C   UNL A   1      42.988  30.282  28.916  1.00  0.00     0.074 A 
ATOM     40  C   UNL A   1      42.119  27.982  28.665  1.00  0.00     0.049 A 
ATOM     41  N   UNL A   1      44.204  30.140  28.455  1.00  0.00    -0.248 NA
ATOM     42  C   UNL A   1      42.660  31.655  29.332  1.00  0.00     0.031 C 
ATOM     43  C   UNL A   1      41.124  26.907  28.687  1.00  0.00     0.029 A 
ATOM     44  N   UNL A   1      43.246  27.378  28.167  1.00  0.00    -0.354 N 
ATOM     45  C   UNL A   1      44.779  31.404  28.507  1.00  0.00     0.074 A 
ATOM     46  C   UNL A   1      43.764  32.309  28.999  1.00  0.00     0.031 C 
ATOM     47  C   UNL A   1      41.687  25.777  28.233  1.00  0.00     0.029 A 
ATOM     48  C   UNL A   1      43.069  26.051  27.852  1.00  0.00     0.049 A 
ATOM     49  H   UNL A   1      44.102  27.851  28.049  1.00  0.00     0.167 HD
ATOM     50  C   UNL A   1      46.044  31.772  28.189  1.00  0.00     0.037 A 
ATOM     51  C   UNL A   1      43.916  25.160  27.300  1.00  0.00     0.037 A 
ATOM     52  C   UNL A   1      47.056  30.859  27.725  1.00  0.00     0.049 A 
ATOM     53  C   UNL A   1      45.318  25.588  26.965  1.00  0.00     0.074 A 
ATOM     54  C   UNL A   1      48.389  31.119  27.458  1.00  0.00     0.029 A 
ATOM     55  N   UNL A   1      46.848  29.517  27.446  1.00  0.00    -0.354 N 
ATOM     56  N   UNL A   1      45.873  26.768  27.103  1.00  0.00    -0.248 NA
ATOM     57  C   UNL A   1      46.212  24.564  26.406  1.00  0.00     0.031 C 
ATOM     58  C   UNL A   1      48.974  29.946  26.970  1.00  0.00     0.029 A 
ATOM     59  C   UNL A   1      48.019  28.941  26.981  1.00  0.00     0.049 A 
ATOM     60  H   UNL A   1      45.993  29.042  27.562  1.00  0.00     0.167 HD
ATOM     61  C   UNL A   1      47.184  26.627  26.663  1.00  0.00     0.074 A 
ATOM     62  C   UNL A   1      47.344  25.242  26.271  1.00  0.00     0.031 C 
ATOM     63  C   UNL A   1      48.165  27.560  26.590  1.00  0.00     0.037 A 
BRANCH  50  64
ATOM     64  C   UNL A   1      46.402  33.227  28.329  1.00  0.00     0.058 A 
ATOM     65  C   UNL A   1      46.907  33.754  29.529  1.00  0.00     0.135 A 
ATOM     66  C   UNL A   1      46.265  34.102  27.239  1.00  0.00     0.135 A 
ATOM     67  F   UNL A   1      47.047  32.965  30.607  1.00  0.00    -0.206 F 
ATOM     68  C   UNL A   1      47.227  35.101  29.655  1.00  0.00     0.059 A 
ATOM     69  C   UNL A   1      46.607  35.448  27.333  1.00  0.00     0.059 A 
ATOM     70  F   UNL A   1      45.790  33.652  26.066  1.00  0.00    -0.206 F 
ATOM     71  C   UNL A   1      47.071  35.941  28.551  1.00  0.00     0.060 A 
BRANCH  71  72
ATOM     72  S   UNL A   1      47.483  37.690  28.733  1.00  0.00     0.124 S 
ATOM     73  O   UNL A   1      47.824  37.762  30.151  1.00  0.00    -0.237 OA
ATOM     74  O   UNL A   1      48.599  37.846  27.805  1.00  0.00    -0.237 OA
ATOM     75  O   UNL A   1      46.251  38.372  28.349  1.00  0.00    -0.744 OA
ENDBRANCH  71  72
ENDBRANCH  50  64
BRANCH  51  76
ATOM     76  C   UNL A   1      43.454  23.770  27.039  1.00  0.00     0.058 A 
ATOM     77  C   UNL A   1      43.348  22.834  28.079  1.00  0.00     0.135 A 
ATOM     78  C   UNL A   1      43.077  23.360  25.750  1.00  0.00     0.135 A 
ATOM     79  F   UNL A   1      43.705  23.176  29.326  1.00  0.00    -0.206 F 
ATOM     80  C   UNL A   1      42.892  21.540  27.850  1.00  0.00     0.059 A 
ATOM     81  C   UNL A   1      42.594  22.079  25.501  1.00  0.00     0.059 A 
ATOM     82  F   UNL A   1      43.144  24.223  24.724  1.00  0.00    -0.206 F 
ATOM     83  C   UNL A   1      42.511  21.174  26.558  1.00  0.00     0.060 A 
BRANCH  83  84
ATOM     84  S   UNL A   1      41.856  19.513  26.286  1.00  0.00     0.124 S 
ATOM     85  O   UNL A   1      42.557  19.115  25.071  1.00  0.00    -0.237 OA
ATOM     86  O   UNL A   1      42.255  18.823  27.510  1.00  0.00    -0.237 OA
ATOM     87  O   UNL A   1      40.421  19.738  26.143  1.00  0.00    -0.744 OA
ENDBRANCH  83  84
ENDBRANCH  51  76
BRANCH  63  88
ATOM     88  C   UNL A   1      49.509  27.116  26.082  1.00  0.00     0.058 A 
ATOM     89  C   UNL A   1      50.498  26.622  26.947  1.00  0.00     0.135 A 
ATOM     90  C   UNL A   1      49.789  27.126  24.706  1.00  0.00     0.135 A 
ATOM     91  F   UNL A   1      50.285  26.598  28.272  1.00  0.00    -0.206 F 
ATOM     92  C   UNL A   1      51.723  26.169  26.468  1.00  0.00     0.059 A 
ATOM     93  C   UNL A   1      50.996  26.654  24.202  1.00  0.00     0.059 A 
ATOM     94  F   UNL A   1      48.875  27.581  23.833  1.00  0.00    -0.206 F 
ATOM     95  C   UNL A   1      51.962  26.186  25.093  1.00  0.00     0.060 A 
BRANCH  95  96
ATOM     96  S   UNL A   1      53.539  25.556  24.480  1.00  0.00     0.124 S 
ATOM     97  O   UNL A   1      53.430  24.135  24.792  1.00  0.00    -0.237 OA
ATOM     98  O   UNL A   1      53.483  25.900  23.062  1.00  0.00    -0.237 OA
ATOM     99  O   UNL A   1      54.527  26.296  25.259  1.00  0.00    -0.744 OA
ENDBRANCH  95  96
ENDBRANCH  63  88
ENDBRANCH  37  38
ENDBRANCH  29  32
ENDBRANCH  27  28
ENDBRANCH  26  27
ENDBRANCH   1  26
TORSDOF 17
ENDMDL
MODEL 2
REMARK VINA RESULT:     -12.4      3.058      4.422
REMARK SMILES CC(C)c1noc(C[N@@H+]2[C@@H](C(=O)NCCCCNC(=O)c3ccc(-c4c5nc(c(-c6c(F)cc(S(=O)(=O)[O-])cc6F)c6ccc([nH]6)c(-c6c(F)cc(S(=O)(=O)[O-])cc6F)c6nc(c(-c7c(F)cc(S(=O)(=O)[O-])cc7F)c7ccc4[nH]7)C=C6)C=C5)cc3)C[C@H]3CCCC[C@@H]32)n1
REMARK SMILES IDX 15 1 14 2 13 3 11 4 12 5 10 7 9 8 93 9 87 11 88 12 92 13
REMARK SMILES IDX 89 14 91 15 90 16 8 17 7 18 4 19 5 20 94 21 6 22 2 23 1 24
REMARK SMILES IDX 3 25 16 26 17 27 18 28 19 29 20 31 21 32 22 33 86 34 23 35
REMARK SMILES IDX 85 36 24 37 25 38 26 39 79 40 27 41 84 42 78 43 80 44 28 45
REMARK SMILES IDX 83 46 77 47 76 48 29 50 63 51 42 52 62 53 43 54 46 55 61 56
REMARK SMILES IDX 81 57 44 58 45 59 60 61 82 62 47 63 30 64 31 65 40 66 32 67
REMARK SMILES IDX 33 68 39 69 41 70 34 71 35 72 36 73 37 74 38 75 64 76 65 77
REMARK SMILES IDX 74 78 66 79 67 80 73 81 75 82 68 83 69 84 70 85 71 86 72 87
REMARK SMILES IDX 48 88 49 89 58 90 50 91 51 92 57 93 59 94 52 95 53 96 54 97
REMARK SMILES IDX 55 98 56 99
REMARK H PARENT 13 6 9 10 18 30 80 49 46 60
REMARK Flexibility Score: inf
ROOT
ATOM      1  C   UNL A   1      31.665  26.825  26.460  1.00  0.00     0.023 C 
ENDROOT
BRANCH   1   2
ATOM      2  C   UNL A   1      32.289  25.447  26.252  1.00  0.00     0.116 C 
BRANCH   2   3
ATOM      3  N   UNL A   1      31.319  24.386  26.457  1.00  0.00    -0.351 N 
ATOM      4  C   UNL A   1      31.338  23.102  25.979  1.00  0.00     0.278 C 
ATOM      5  O   UNL A   1      30.393  22.365  26.257  1.00  0.00    -0.268 OA
ATOM      6  H   UNL A   1      30.543  24.622  27.015  1.00  0.00     0.163 HD
BRANCH   4   7
ATOM      7  C   UNL A   1      32.574  22.654  25.170  1.00  0.00     0.275 C 
ATOM      8  N   UNL A   1      32.197  22.240  23.788  1.00  0.00    -0.314 N 
ATOM      9  C   UNL A   1      32.175  20.772  23.806  1.00  0.00     0.188 C 
ATOM     10  H   UNL A   1      31.268  22.560  23.514  1.00  0.00     0.349 HD
ATOM     11  C   UNL A   1      33.193  21.422  25.858  1.00  0.00     0.085 C 
ATOM     12  C   UNL A   1      33.318  20.400  24.745  1.00  0.00     0.054 C 
ATOM     13  C   UNL A   1      32.235  19.958  22.512  1.00  0.00     0.065 C 
ATOM     14  C   UNL A   1      33.244  18.935  25.140  1.00  0.00     0.010 C 
ATOM     15  C   UNL A   1      32.300  18.453  22.819  1.00  0.00     0.006 C 
ATOM     16  C   UNL A   1      33.353  18.084  23.873  1.00  0.00     0.001 C 
BRANCH   8  17
ATOM     17  C   UNL A   1      32.984  22.915  22.738  1.00  0.00     0.364 C 
BRANCH  17  18
ATOM     18  C   UNL A   1      32.826  24.397  22.617  1.00  0.00     0.281 A 
ATOM     19  C   UNL A   1      32.134  26.355  22.340  1.00  0.00     0.174 A 
ATOM     20  N   UNL A   1      33.395  26.408  21.886  1.00  0.00    -0.062 NA
ATOM     21  N   UNL A   1      31.772  25.142  22.864  1.00  0.00    -0.191 NA
ATOM     22  O   UNL A   1      33.858  25.101  22.066  1.00  0.00    -0.333 OA
BRANCH  19  23
ATOM     23  C   UNL A   1      31.176  27.505  22.278  1.00  0.00     0.055 C 
ATOM     24  C   UNL A   1      29.976  27.331  23.216  1.00  0.00     0.016 C 
ATOM     25  C   UNL A   1      31.864  28.837  22.605  1.00  0.00     0.016 C 
ENDBRANCH  19  23
ENDBRANCH  17  18
ENDBRANCH   8  17
ENDBRANCH   4   7
ENDBRANCH   2   3
ENDBRANCH   1   2
BRANCH   1  26
ATOM     26  C   UNL A   1      32.591  27.994  26.120  1.00  0.00     0.023 C 
BRANCH  26  27
ATOM     27  C   UNL A   1      33.573  28.385  27.221  1.00  0.00     0.116 C 
BRANCH  27  28
ATOM     28  N   UNL A   1      33.504  29.797  27.567  1.00  0.00    -0.352 N 
ATOM     29  C   UNL A   1      34.461  30.592  28.149  1.00  0.00     0.251 C 
ATOM     30  H   UNL A   1      32.652  30.244  27.356  1.00  0.00     0.163 HD
ATOM     31  O   UNL A   1      34.178  31.734  28.501  1.00  0.00    -0.269 OA
BRANCH  29  32
ATOM     32  C   UNL A   1      35.820  30.057  28.378  1.00  0.00     0.039 A 
ATOM     33  C   UNL A   1      36.744  30.088  27.331  1.00  0.00     0.014 A 
ATOM     34  C   UNL A   1      36.190  29.548  29.627  1.00  0.00     0.014 A 
ATOM     35  C   UNL A   1      38.060  29.678  27.556  1.00  0.00     0.010 A 
ATOM     36  C   UNL A   1      37.518  29.209  29.869  1.00  0.00     0.010 A 
ATOM     37  C   UNL A   1      38.469  29.274  28.839  1.00  0.00    -0.014 A 
BRANCH  37  38
ATOM     38  C   UNL A   1      39.886  28.935  29.127  1.00  0.00     0.031 A 
ATOM     39  C   UNL A   1      40.818  29.979  29.679  1.00  0.00     0.074 A 
ATOM     40  C   UNL A   1      40.355  27.711  28.811  1.00  0.00     0.049 A 
ATOM     41  N   UNL A   1      42.103  29.897  29.913  1.00  0.00    -0.248 NA
ATOM     42  C   UNL A   1      40.236  31.296  29.979  1.00  0.00     0.031 C 
ATOM     43  C   UNL A   1      39.565  26.631  28.215  1.00  0.00     0.029 A 
ATOM     44  N   UNL A   1      41.613  27.174  28.927  1.00  0.00    -0.354 N 
ATOM     45  C   UNL A   1      42.486  31.153  30.367  1.00  0.00     0.074 A 
ATOM     46  C   UNL A   1      41.307  31.991  30.332  1.00  0.00     0.031 C 
ATOM     47  C   UNL A   1      40.352  25.561  28.027  1.00  0.00     0.029 A 
ATOM     48  C   UNL A   1      41.711  25.887  28.451  1.00  0.00     0.049 A 
ATOM     49  H   UNL A   1      42.373  27.664  29.316  1.00  0.00     0.167 HD
ATOM     50  C   UNL A   1      43.705  31.565  30.793  1.00  0.00     0.037 A 
ATOM     51  C   UNL A   1      42.775  25.067  28.349  1.00  0.00     0.037 A 
ATOM     52  C   UNL A   1      44.867  30.716  30.850  1.00  0.00     0.049 A 
ATOM     53  C   UNL A   1      44.116  25.541  28.837  1.00  0.00     0.074 A 
ATOM     54  C   UNL A   1      46.124  31.014  31.344  1.00  0.00     0.029 A 
ATOM     55  N   UNL A   1      44.919  29.409  30.388  1.00  0.00    -0.354 N 
ATOM     56  N   UNL A   1      44.443  26.705  29.348  1.00  0.00    -0.248 NA
ATOM     57  C   UNL A   1      45.234  24.591  28.743  1.00  0.00     0.031 C 
ATOM     58  C   UNL A   1      46.951  29.906  31.135  1.00  0.00     0.029 A 
ATOM     59  C   UNL A   1      46.196  28.898  30.557  1.00  0.00     0.049 A 
ATOM     60  H   UNL A   1      44.161  28.918  29.997  1.00  0.00     0.167 HD
ATOM     61  C   UNL A   1      45.797  26.623  29.649  1.00  0.00     0.074 A 
ATOM     62  C   UNL A   1      46.226  25.290  29.280  1.00  0.00     0.031 C 
ATOM     63  C   UNL A   1      46.611  27.568  30.182  1.00  0.00     0.037 A 
BRANCH  50  64
ATOM     64  C   UNL A   1      43.845  32.999  31.225  1.00  0.00     0.058 A 
ATOM     65  C   UNL A   1      44.112  34.027  30.307  1.00  0.00     0.135 A 
ATOM     66  C   UNL A   1      43.682  33.355  32.574  1.00  0.00     0.135 A 
ATOM     67  F   UNL A   1      44.288  33.743  29.006  1.00  0.00    -0.206 F 
ATOM     68  C   UNL A   1      44.249  35.350  30.714  1.00  0.00     0.059 A 
ATOM     69  C   UNL A   1      43.786  34.676  33.000  1.00  0.00     0.059 A 
ATOM     70  F   UNL A   1      43.424  32.414  33.496  1.00  0.00    -0.206 F 
ATOM     71  C   UNL A   1      44.087  35.664  32.064  1.00  0.00     0.060 A 
BRANCH  71  72
ATOM     72  S   UNL A   1      44.278  37.385  32.578  1.00  0.00     0.124 S 
ATOM     73  O   UNL A   1      45.591  37.353  33.216  1.00  0.00    -0.237 OA
ATOM     74  O   UNL A   1      44.208  38.100  31.307  1.00  0.00    -0.237 OA
ATOM     75  O   UNL A   1      43.149  37.599  33.477  1.00  0.00    -0.744 OA
ENDBRANCH  71  72
ENDBRANCH  50  64
BRANCH  51  76
ATOM     76  C   UNL A   1      42.606  23.710  27.766  1.00  0.00     0.058 A 
ATOM     77  C   UNL A   1      42.655  23.505  26.380  1.00  0.00     0.135 A 
ATOM     78  C   UNL A   1      42.428  22.585  28.587  1.00  0.00     0.135 A 
ATOM     79  F   UNL A   1      42.815  24.550  25.554  1.00  0.00    -0.206 F 
ATOM     80  C   UNL A   1      42.525  22.236  25.825  1.00  0.00     0.059 A 
ATOM     81  C   UNL A   1      42.321  21.302  28.058  1.00  0.00     0.059 A 
ATOM     82  F   UNL A   1      42.391  22.724  29.922  1.00  0.00    -0.206 F 
ATOM     83  C   UNL A   1      42.364  21.139  26.674  1.00  0.00     0.060 A 
BRANCH  83  84
ATOM     84  S   UNL A   1      42.266  19.489  25.947  1.00  0.00     0.124 S 
ATOM     85  O   UNL A   1      42.746  18.655  27.044  1.00  0.00    -0.237 OA
ATOM     86  O   UNL A   1      40.845  19.377  25.634  1.00  0.00    -0.237 OA
ATOM     87  O   UNL A   1      43.150  19.579  24.789  1.00  0.00    -0.744 OA
ENDBRANCH  83  84
ENDBRANCH  51  76
BRANCH  63  88
ATOM     88  C   UNL A   1      48.049  27.193  30.416  1.00  0.00     0.058 A 
ATOM     89  C   UNL A   1      49.029  27.377  29.428  1.00  0.00     0.135 A 
ATOM     90  C   UNL A   1      48.463  26.702  31.665  1.00  0.00     0.135 A 
ATOM     91  F   UNL A   1      48.686  27.835  28.214  1.00  0.00    -0.206 F 
ATOM     92  C   UNL A   1      50.365  27.071  29.663  1.00  0.00     0.059 A 
ATOM     93  C   UNL A   1      49.798  26.415  31.932  1.00  0.00     0.059 A 
ATOM     94  F   UNL A   1      47.568  26.516  32.649  1.00  0.00    -0.206 F 
ATOM     95  C   UNL A   1      50.741  26.594  30.920  1.00  0.00     0.060 A 
BRANCH  95  96
ATOM     96  S   UNL A   1      52.485  26.241  31.227  1.00  0.00     0.124 S 
ATOM     97  O   UNL A   1      53.032  26.269  29.875  1.00  0.00    -0.237 OA
ATOM     98  O   UNL A   1      52.879  27.349  32.094  1.00  0.00    -0.237 OA
ATOM     99  O   UNL A   1      52.460  24.930  31.868  1.00  0.00    -0.744 OA
ENDBRANCH  95  96
ENDBRANCH  63  88
ENDBRANCH  37  38
ENDBRANCH  29  32
ENDBRANCH  27  28
ENDBRANCH  26  27
ENDBRANCH   1  26
TORSDOF 17
ENDMDL
MODEL 3
REMARK VINA RESULT:     -11.8      0.532      8.149
REMARK SMILES CC(C)c1noc(C[N@@H+]2[C@@H](C(=O)NCCCCNC(=O)c3ccc(-c4c5nc(c(-c6c(F)cc(S(=O)(=O)[O-])cc6F)c6ccc([nH]6)c(-c6c(F)cc(S(=O)(=O)[O-])cc6F)c6nc(c(-c7c(F)cc(S(=O)(=O)[O-])cc7F)c7ccc4[nH]7)C=C6)C=C5)cc3)C[C@H]3CCCC[C@@H]32)n1
REMARK SMILES IDX 15 1 14 2 13 3 11 4 12 5 10 7 9 8 93 9 87 11 88 12 92 13
REMARK SMILES IDX 89 14 91 15 90 16 8 17 7 18 4 19 5 20 94 21 6 22 2 23 1 24
REMARK SMILES IDX 3 25 16 26 17 27 18 28 19 29 20 31 21 32 22 33 86 34 23 35
REMARK SMILES IDX 85 36 24 37 25 38 26 39 79 40 27 41 84 42 78 43 80 44 28 45
REMARK SMILES IDX 83 46 77 47 76 48 29 50 63 51 42 52 62 53 43 54 46 55 61 56
REMARK SMILES IDX 81 57 44 58 45 59 60 61 82 62 47 63 30 64 31 65 40 66 32 67
REMARK SMILES IDX 33 68 39 69 41 70 34 71 35 72 36 73 37 74 38 75 64 76 65 77
REMARK SMILES IDX 74 78 66 79 67 80 73 81 75 82 68 83 69 84 70 85 71 86 72 87
REMARK SMILES IDX 48 88 49 89 58 90 50 91 51 92 57 93 59 94 52 95 53 96 54 97
REMARK SMILES IDX 55 98 56 99
REMARK H PARENT 13 6 9 10 18 30 80 49 46 60
REMARK Flexibility Score: inf
ROOT
ATOM      1  C   UNL A   1      34.341  30.325  27.434  1.00  0.00     0.023 C 
ENDROOT
BRANCH   1   2
ATOM      2  C   UNL A   1      32.995  30.278  26.717  1.00  0.00     0.116 C 
BRANCH   2   3
ATOM      3  N   UNL A   1      32.087  29.337  27.349  1.00  0.00    -0.351 N 
ATOM      4  C   UNL A   1      31.734  28.077  26.938  1.00  0.00     0.278 C 
ATOM      5  O   UNL A   1      30.921  27.452  27.618  1.00  0.00    -0.268 OA
ATOM      6  H   UNL A   1      31.670  29.645  28.185  1.00  0.00     0.163 HD
BRANCH   4   7
ATOM      7  C   UNL A   1      32.425  27.512  25.679  1.00  0.00     0.275 C 
ATOM      8  N   UNL A   1      31.435  26.914  24.739  1.00  0.00    -0.314 N 
ATOM      9  C   UNL A   1      31.517  25.463  24.947  1.00  0.00     0.188 C 
ATOM     10  H   UNL A   1      30.476  27.201  24.933  1.00  0.00     0.349 HD
ATOM     11  C   UNL A   1      33.380  26.380  26.109  1.00  0.00     0.085 C 
ATOM     12  C   UNL A   1      32.996  25.214  25.221  1.00  0.00     0.054 C 
ATOM     13  C   UNL A   1      30.973  24.477  23.912  1.00  0.00     0.065 C 
ATOM     14  C   UNL A   1      33.221  23.818  25.777  1.00  0.00     0.010 C 
ATOM     15  C   UNL A   1      31.276  23.028  24.327  1.00  0.00     0.006 C 
ATOM     16  C   UNL A   1      32.735  22.799  24.744  1.00  0.00     0.001 C 
BRANCH   8  17
ATOM     17  C   UNL A   1      31.549  27.430  23.362  1.00  0.00     0.364 C 
BRANCH  17  18
ATOM     18  C   UNL A   1      30.715  28.621  23.011  1.00  0.00     0.281 A 
ATOM     19  C   UNL A   1      29.451  30.292  23.009  1.00  0.00     0.174 A 
ATOM     20  N   UNL A   1      29.187  29.706  21.832  1.00  0.00    -0.062 NA
ATOM     21  N   UNL A   1      30.443  29.685  23.734  1.00  0.00    -0.191 NA
ATOM     22  O   UNL A   1      30.026  28.587  21.833  1.00  0.00    -0.333 OA
BRANCH  19  23
ATOM     23  C   UNL A   1      28.729  31.501  23.520  1.00  0.00     0.055 C 
ATOM     24  C   UNL A   1      28.810  32.693  22.561  1.00  0.00     0.016 C 
ATOM     25  C   UNL A   1      27.251  31.201  23.806  1.00  0.00     0.016 C 
ENDBRANCH  19  23
ENDBRANCH  17  18
ENDBRANCH   8  17
ENDBRANCH   4   7
ENDBRANCH   2   3
ENDBRANCH   1   2
BRANCH   1  26
ATOM     26  C   UNL A   1      34.793  31.730  27.834  1.00  0.00     0.023 C 
BRANCH  26  27
ATOM     27  C   UNL A   1      36.021  31.784  28.739  1.00  0.00     0.116 C 
BRANCH  27  28
ATOM     28  N   UNL A   1      35.770  31.245  30.067  1.00  0.00    -0.352 N 
ATOM     29  C   UNL A   1      36.505  30.328  30.781  1.00  0.00     0.251 C 
ATOM     30  H   UNL A   1      34.962  31.582  30.517  1.00  0.00     0.163 HD
ATOM     31  O   UNL A   1      36.065  29.878  31.835  1.00  0.00    -0.269 OA
BRANCH  29  32
ATOM     32  C   UNL A   1      37.808  29.865  30.258  1.00  0.00     0.039 A 
ATOM     33  C   UNL A   1      37.979  29.748  28.877  1.00  0.00     0.014 A 
ATOM     34  C   UNL A   1      38.864  29.569  31.125  1.00  0.00     0.014 A 
ATOM     35  C   UNL A   1      39.231  29.408  28.361  1.00  0.00     0.010 A 
ATOM     36  C   UNL A   1      40.128  29.301  30.608  1.00  0.00     0.010 A 
ATOM     37  C   UNL A   1      40.327  29.221  29.221  1.00  0.00    -0.014 A 
BRANCH  37  38
ATOM     38  C   UNL A   1      41.690  28.963  28.690  1.00  0.00     0.031 A 
ATOM     39  C   UNL A   1      42.070  27.588  28.212  1.00  0.00     0.074 A 
ATOM     40  C   UNL A   1      42.613  29.946  28.717  1.00  0.00     0.049 A 
ATOM     41  N   UNL A   1      43.232  27.150  27.797  1.00  0.00    -0.248 NA
ATOM     42  C   UNL A   1      41.014  26.564  28.231  1.00  0.00     0.031 C 
ATOM     43  C   UNL A   1      42.384  31.306  29.213  1.00  0.00     0.029 A 
ATOM     44  N   UNL A   1      43.932  29.951  28.341  1.00  0.00    -0.354 N 
ATOM     45  C   UNL A   1      43.051  25.799  27.526  1.00  0.00     0.074 A 
ATOM     46  C   UNL A   1      41.683  25.480  27.867  1.00  0.00     0.031 C 
ATOM     47  C   UNL A   1      43.519  32.013  29.100  1.00  0.00     0.029 A 
ATOM     48  C   UNL A   1      44.567  31.150  28.563  1.00  0.00     0.049 A 
ATOM     49  H   UNL A   1      44.382  29.168  27.947  1.00  0.00     0.167 HD
ATOM     50  C   UNL A   1      43.942  24.911  27.021  1.00  0.00     0.037 A 
ATOM     51  C   UNL A   1      45.851  31.512  28.374  1.00  0.00     0.037 A 
ATOM     52  C   UNL A   1      45.295  25.244  26.659  1.00  0.00     0.049 A 
ATOM     53  C   UNL A   1      46.819  30.513  27.803  1.00  0.00     0.074 A 
ATOM     54  C   UNL A   1      46.248  24.438  26.061  1.00  0.00     0.029 A 
ATOM     55  N   UNL A   1      45.893  26.478  26.870  1.00  0.00    -0.354 N 
ATOM     56  N   UNL A   1      46.610  29.262  27.468  1.00  0.00    -0.248 NA
ATOM     57  C   UNL A   1      48.197  30.973  27.576  1.00  0.00     0.031 C 
ATOM     58  C   UNL A   1      47.436  25.167  25.958  1.00  0.00     0.029 A 
ATOM     59  C   UNL A   1      47.211  26.446  26.443  1.00  0.00     0.049 A 
ATOM     60  H   UNL A   1      45.447  27.261  27.266  1.00  0.00     0.167 HD
ATOM     61  C   UNL A   1      47.822  28.790  26.978  1.00  0.00     0.074 A 
ATOM     62  C   UNL A   1      48.756  29.895  27.043  1.00  0.00     0.031 C 
ATOM     63  C   UNL A   1      48.133  27.553  26.517  1.00  0.00     0.037 A 
BRANCH  50  64
ATOM     64  C   UNL A   1      43.481  23.491  26.835  1.00  0.00     0.058 A 
ATOM     65  C   UNL A   1      43.197  22.964  25.565  1.00  0.00     0.135 A 
ATOM     66  C   UNL A   1      43.346  22.636  27.941  1.00  0.00     0.135 A 
ATOM     67  F   UNL A   1      43.297  23.740  24.473  1.00  0.00    -0.206 F 
ATOM     68  C   UNL A   1      42.763  21.653  25.401  1.00  0.00     0.059 A 
ATOM     69  C   UNL A   1      42.941  21.311  27.798  1.00  0.00     0.059 A 
ATOM     70  F   UNL A   1      43.606  23.085  29.180  1.00  0.00    -0.206 F 
ATOM     71  C   UNL A   1      42.634  20.835  26.524  1.00  0.00     0.060 A 
BRANCH  71  72
ATOM     72  S   UNL A   1      42.060  19.139  26.295  1.00  0.00     0.124 S 
ATOM     73  O   UNL A   1      42.242  18.588  27.635  1.00  0.00    -0.237 OA
ATOM     74  O   UNL A   1      40.676  19.332  25.873  1.00  0.00    -0.237 OA
ATOM     75  O   UNL A   1      42.957  18.611  25.273  1.00  0.00    -0.744 OA
ENDBRANCH  71  72
ENDBRANCH  50  64
BRANCH  51  76
ATOM     76  C   UNL A   1      46.287  32.890  28.724  1.00  0.00     0.058 A 
ATOM     77  C   UNL A   1      46.667  33.220  30.034  1.00  0.00     0.135 A 
ATOM     78  C   UNL A   1      46.366  33.896  27.748  1.00  0.00     0.135 A 
ATOM     79  F   UNL A   1      46.601  32.295  31.002  1.00  0.00    -0.206 F 
ATOM     80  C   UNL A   1      47.102  34.499  30.366  1.00  0.00     0.059 A 
ATOM     81  C   UNL A   1      46.822  35.176  28.050  1.00  0.00     0.059 A 
ATOM     82  F   UNL A   1      46.030  33.628  26.476  1.00  0.00    -0.206 F 
ATOM     83  C   UNL A   1      47.182  35.469  29.365  1.00  0.00     0.060 A 
BRANCH  83  84
ATOM     84  S   UNL A   1      47.814  37.105  29.794  1.00  0.00     0.124 S 
ATOM     85  O   UNL A   1      47.112  37.373  31.043  1.00  0.00    -0.237 OA
ATOM     86  O   UNL A   1      49.249  36.859  29.906  1.00  0.00    -0.237 OA
ATOM     87  O   UNL A   1      47.415  37.927  28.655  1.00  0.00    -0.744 OA
ENDBRANCH  83  84
ENDBRANCH  51  76
BRANCH  63  88
ATOM     88  C   UNL A   1      49.538  27.326  26.030  1.00  0.00     0.058 A 
ATOM     89  C   UNL A   1      50.582  27.011  26.913  1.00  0.00     0.135 A 
ATOM     90  C   UNL A   1      49.830  27.363  24.657  1.00  0.00     0.135 A 
ATOM     91  F   UNL A   1      50.359  26.971  28.236  1.00  0.00    -0.206 F 
ATOM     92  C   UNL A   1      51.871  26.758  26.454  1.00  0.00     0.059 A 
ATOM     93  C   UNL A   1      51.104  27.087  24.173  1.00  0.00     0.059 A 
ATOM     94  F   UNL A   1      48.865  27.651  23.767  1.00  0.00    -0.206 F 
ATOM     95  C   UNL A   1      52.122  26.795  25.081  1.00  0.00     0.060 A 
BRANCH  95  96
ATOM     96  S   UNL A   1      53.788  26.423  24.495  1.00  0.00     0.124 S 
ATOM     97  O   UNL A   1      54.608  26.987  25.562  1.00  0.00    -0.237 OA
ATOM     98  O   UNL A   1      53.771  24.965  24.412  1.00  0.00    -0.237 OA
ATOM     99  O   UNL A   1      53.861  27.116  23.213  1.00  0.00    -0.744 OA
ENDBRANCH  95  96
ENDBRANCH  63  88
ENDBRANCH  37  38
ENDBRANCH  29  32
ENDBRANCH  27  28
ENDBRANCH  26  27
ENDBRANCH   1  26
TORSDOF 17
ENDMDL
