MODEL 1
REMARK VINA RESULT:     -12.1      0.000      0.000
REMARK SMILES C[C@@H]1CC[C@@](C(=O)NCCCCNC(=O)c2ccc(-c3c4nc(c(-c5c(F)cc(S(=O)(=O)[O-])cc5F)c5ccc([nH]5)c(-c5c(F)cc(S(=O)(=O)[O-])cc5F)c5nc(c(-c6c(F)cc(S(=O)(=O)[O-])cc6F)c6ccc3[nH]6)C=C5)C=C4)cc2)([C@@H]2CCC[C@H](S(C)(=O)=O)C2)C1
REMARK SMILES IDX 11 1 10 2 9 3 8 4 6 5 7 6 5 8 1 9 2 10 3 11 92 12 4 13 82 14
REMARK SMILES IDX 83 15 91 16 84 17 86 18 85 19 87 20 88 21 89 22 90 23 12 24
REMARK SMILES IDX 13 25 14 26 15 28 16 29 17 30 81 31 18 32 80 33 19 34 20 35
REMARK SMILES IDX 21 36 74 37 22 38 79 39 73 40 75 41 23 42 78 43 72 44 71 45
REMARK SMILES IDX 24 47 58 48 37 49 57 50 38 51 41 52 56 53 76 54 39 55 40 56
REMARK SMILES IDX 55 58 77 59 42 60 25 61 26 62 35 63 27 64 28 65 34 66 36 67
REMARK SMILES IDX 29 68 30 69 31 70 32 71 33 72 59 73 60 74 69 75 61 76 62 77
REMARK SMILES IDX 68 78 70 79 63 80 64 81 65 82 66 83 67 84 43 85 44 86 53 87
REMARK SMILES IDX 45 88 46 89 52 90 54 91 47 92 48 93 49 94 50 95 51 96
REMARK H PARENT 8 7 13 27 75 46 41 57
REMARK Flexibility Score: inf
ROOT
ATOM      1  C   UNL A   1      34.390  30.197  26.875  1.00  0.00     0.023 C 
ENDROOT
BRANCH   1   2
ATOM      2  C   UNL A   1      32.864  30.136  26.821  1.00  0.00     0.023 C 
BRANCH   2   3
ATOM      3  C   UNL A   1      32.286  29.864  25.438  1.00  0.00     0.116 C 
BRANCH   3   4
ATOM      4  N   UNL A   1      33.290  29.492  24.465  1.00  0.00    -0.356 N 
ATOM      5  C   UNL A   1      33.383  28.464  23.582  1.00  0.00     0.226 C 
ATOM      6  O   UNL A   1      34.267  28.591  22.726  1.00  0.00    -0.274 OA
ATOM      7  H   UNL A   1      34.058  30.106  24.437  1.00  0.00     0.163 HD
BRANCH   5   8
ATOM      8  C   UNL A   1      32.404  27.251  23.526  1.00  0.00     0.052 C 
ATOM      9  C   UNL A   1      29.288  28.992  23.040  1.00  0.00     0.007 C 
ATOM     10  C   UNL A   1      29.961  27.620  23.119  1.00  0.00    -0.013 C 
ATOM     11  C   UNL A   1      30.146  27.086  24.538  1.00  0.00     0.004 C 
ATOM     12  C   UNL A   1      31.338  27.596  22.452  1.00  0.00     0.020 C 
ATOM     13  C   UNL A   1      31.640  26.978  24.833  1.00  0.00     0.017 C 
BRANCH   8  14
ATOM     14  C   UNL A   1      33.244  25.966  23.101  1.00  0.00     0.006 C 
ATOM     15  C   UNL A   1      32.434  24.908  22.312  1.00  0.00     0.005 C 
ATOM     16  C   UNL A   1      33.922  25.275  24.318  1.00  0.00     0.024 C 
ATOM     17  C   UNL A   1      33.298  23.717  21.903  1.00  0.00     0.002 C 
ATOM     18  C   UNL A   1      34.783  24.071  23.909  1.00  0.00     0.108 C 
ATOM     19  C   UNL A   1      33.962  23.061  23.107  1.00  0.00     0.020 C 
BRANCH  18  20
ATOM     20  S   UNL A   1      35.511  23.317  25.383  1.00  0.00     0.150 S 
ATOM     21  C   UNL A   1      34.228  23.403  26.610  1.00  0.00     0.158 C 
ATOM     22  O   UNL A   1      35.725  21.909  25.110  1.00  0.00    -0.229 OA
ATOM     23  O   UNL A   1      36.602  24.156  25.841  1.00  0.00    -0.229 OA
ENDBRANCH  18  20
ENDBRANCH   8  14
ENDBRANCH   5   8
ENDBRANCH   3   4
ENDBRANCH   2   3
ENDBRANCH   1   2
BRANCH   1  24
ATOM     24  C   UNL A   1      35.032  29.580  28.115  1.00  0.00     0.116 C 
BRANCH  24  25
ATOM     25  N   UNL A   1      35.258  30.526  29.201  1.00  0.00    -0.352 N 
ATOM     26  C   UNL A   1      36.423  30.766  29.898  1.00  0.00     0.251 C 
ATOM     27  H   UNL A   1      34.478  31.063  29.472  1.00  0.00     0.163 HD
ATOM     28  O   UNL A   1      36.447  31.565  30.824  1.00  0.00    -0.269 OA
BRANCH  26  29
ATOM     29  C   UNL A   1      37.629  29.996  29.533  1.00  0.00     0.039 A 
ATOM     30  C   UNL A   1      38.033  29.976  28.196  1.00  0.00     0.014 A 
ATOM     31  C   UNL A   1      38.414  29.414  30.529  1.00  0.00     0.014 A 
ATOM     32  C   UNL A   1      39.288  29.460  27.871  1.00  0.00     0.010 A 
ATOM     33  C   UNL A   1      39.690  28.963  30.211  1.00  0.00     0.010 A 
ATOM     34  C   UNL A   1      40.149  29.006  28.884  1.00  0.00    -0.014 A 
BRANCH  34  35
ATOM     35  C   UNL A   1      41.553  28.622  28.595  1.00  0.00     0.031 A 
ATOM     36  C   UNL A   1      42.626  29.672  28.556  1.00  0.00     0.074 A 
ATOM     37  C   UNL A   1      41.837  27.348  28.254  1.00  0.00     0.049 A 
ATOM     38  N   UNL A   1      43.873  29.564  28.180  1.00  0.00    -0.248 NA
ATOM     39  C   UNL A   1      42.232  31.031  28.958  1.00  0.00     0.031 C 
ATOM     40  C   UNL A   1      40.870  26.250  28.191  1.00  0.00     0.029 A 
ATOM     41  N   UNL A   1      43.020  26.767  27.872  1.00  0.00    -0.354 N 
ATOM     42  C   UNL A   1      44.405  30.844  28.265  1.00  0.00     0.074 A 
ATOM     43  C   UNL A   1      43.335  31.718  28.698  1.00  0.00     0.031 C 
ATOM     44  C   UNL A   1      41.500  25.128  27.806  1.00  0.00     0.029 A 
ATOM     45  C   UNL A   1      42.906  25.433  27.561  1.00  0.00     0.049 A 
ATOM     46  H   UNL A   1      43.871  27.260  27.825  1.00  0.00     0.167 HD
ATOM     47  C   UNL A   1      45.673  31.250  28.018  1.00  0.00     0.037 A 
ATOM     48  C   UNL A   1      43.826  24.555  27.117  1.00  0.00     0.037 A 
ATOM     49  C   UNL A   1      46.743  30.370  27.633  1.00  0.00     0.049 A 
ATOM     50  C   UNL A   1      45.241  25.018  26.906  1.00  0.00     0.074 A 
ATOM     51  C   UNL A   1      48.078  30.674  27.431  1.00  0.00     0.029 A 
ATOM     52  N   UNL A   1      46.601  29.010  27.398  1.00  0.00    -0.354 N 
ATOM     53  N   UNL A   1      45.741  26.222  27.048  1.00  0.00    -0.248 NA
ATOM     54  C   UNL A   1      46.218  24.005  26.482  1.00  0.00     0.031 C 
ATOM     55  C   UNL A   1      48.740  29.499  27.055  1.00  0.00     0.029 A 
ATOM     56  C   UNL A   1      47.823  28.461  27.050  1.00  0.00     0.049 A 
ATOM     57  H   UNL A   1      45.757  28.509  27.467  1.00  0.00     0.167 HD
ATOM     58  C   UNL A   1      47.093  26.108  26.751  1.00  0.00     0.074 A 
ATOM     59  C   UNL A   1      47.336  24.716  26.430  1.00  0.00     0.031 C 
ATOM     60  C   UNL A   1      48.048  27.070  26.747  1.00  0.00     0.037 A 
BRANCH  47  61
ATOM     61  C   UNL A   1      45.966  32.716  28.165  1.00  0.00     0.058 A 
ATOM     62  C   UNL A   1      45.746  33.617  27.112  1.00  0.00     0.135 A 
ATOM     63  C   UNL A   1      46.464  33.226  29.375  1.00  0.00     0.135 A 
ATOM     64  F   UNL A   1      45.288  33.177  25.930  1.00  0.00    -0.206 F 
ATOM     65  C   UNL A   1      46.045  34.969  27.240  1.00  0.00     0.059 A 
ATOM     66  C   UNL A   1      46.747  34.579  29.533  1.00  0.00     0.059 A 
ATOM     67  F   UNL A   1      46.692  32.405  30.413  1.00  0.00    -0.206 F 
ATOM     68  C   UNL A   1      46.552  35.439  28.453  1.00  0.00     0.060 A 
BRANCH  68  69
ATOM     69  S   UNL A   1      46.950  37.194  28.604  1.00  0.00     0.124 S 
ATOM     70  O   UNL A   1      46.484  37.479  29.958  1.00  0.00    -0.237 OA
ATOM     71  O   UNL A   1      48.398  37.208  28.417  1.00  0.00    -0.237 OA
ATOM     72  O   UNL A   1      46.179  37.809  27.529  1.00  0.00    -0.744 OA
ENDBRANCH  68  69
ENDBRANCH  47  61
BRANCH  48  73
ATOM     73  C   UNL A   1      43.442  23.141  26.870  1.00  0.00     0.058 A 
ATOM     74  C   UNL A   1      43.381  22.634  25.565  1.00  0.00     0.135 A 
ATOM     75  C   UNL A   1      43.156  22.266  27.929  1.00  0.00     0.135 A 
ATOM     76  F   UNL A   1      43.641  23.435  24.521  1.00  0.00    -0.206 F 
ATOM     77  C   UNL A   1      43.040  21.308  25.315  1.00  0.00     0.059 A 
ATOM     78  C   UNL A   1      42.831  20.933  27.705  1.00  0.00     0.059 A 
ATOM     79  F   UNL A   1      43.219  22.703  29.197  1.00  0.00    -0.206 F 
ATOM     80  C   UNL A   1      42.768  20.464  26.393  1.00  0.00     0.060 A 
BRANCH  80  81
ATOM     81  S   UNL A   1      42.386  18.730  26.062  1.00  0.00     0.124 S 
ATOM     82  O   UNL A   1      40.974  18.804  25.708  1.00  0.00    -0.237 OA
ATOM     83  O   UNL A   1      43.303  18.413  24.971  1.00  0.00    -0.237 OA
ATOM     84  O   UNL A   1      42.687  18.076  27.332  1.00  0.00    -0.744 OA
ENDBRANCH  80  81
ENDBRANCH  48  73
BRANCH  60  85
ATOM     85  C   UNL A   1      49.450  26.649  26.418  1.00  0.00     0.058 A 
ATOM     86  C   UNL A   1      50.274  26.033  27.370  1.00  0.00     0.135 A 
ATOM     87  C   UNL A   1      49.950  26.805  25.115  1.00  0.00     0.135 A 
ATOM     88  F   UNL A   1      49.843  25.867  28.631  1.00  0.00    -0.206 F 
ATOM     89  C   UNL A   1      51.554  25.594  27.046  1.00  0.00     0.059 A 
ATOM     90  C   UNL A   1      51.219  26.358  24.763  1.00  0.00     0.059 A 
ATOM     91  F   UNL A   1      49.196  27.384  24.167  1.00  0.00    -0.206 F 
ATOM     92  C   UNL A   1      52.017  25.760  25.738  1.00  0.00     0.060 A 
BRANCH  92  93
ATOM     93  S   UNL A   1      53.659  25.143  25.311  1.00  0.00     0.124 S 
ATOM     94  O   UNL A   1      53.451  23.699  25.356  1.00  0.00    -0.237 OA
ATOM     95  O   UNL A   1      53.875  25.711  23.984  1.00  0.00    -0.237 OA
ATOM     96  O   UNL A   1      54.509  25.689  26.364  1.00  0.00    -0.744 OA
ENDBRANCH  92  93
ENDBRANCH  60  85
ENDBRANCH  34  35
ENDBRANCH  26  29
ENDBRANCH  24  25
ENDBRANCH   1  24
TORSDOF 16
ENDMDL
MODEL 2
REMARK VINA RESULT:     -11.9      6.650     12.208
REMARK SMILES C[C@@H]1CC[C@@](C(=O)NCCCCNC(=O)c2ccc(-c3c4nc(c(-c5c(F)cc(S(=O)(=O)[O-])cc5F)c5ccc([nH]5)c(-c5c(F)cc(S(=O)(=O)[O-])cc5F)c5nc(c(-c6c(F)cc(S(=O)(=O)[O-])cc6F)c6ccc3[nH]6)C=C5)C=C4)cc2)([C@@H]2CCC[C@H](S(C)(=O)=O)C2)C1
REMARK SMILES IDX 11 1 10 2 9 3 8 4 6 5 7 6 5 8 1 9 2 10 3 11 92 12 4 13 82 14
REMARK SMILES IDX 83 15 91 16 84 17 86 18 85 19 87 20 88 21 89 22 90 23 12 24
REMARK SMILES IDX 13 25 14 26 15 28 16 29 17 30 81 31 18 32 80 33 19 34 20 35
REMARK SMILES IDX 21 36 74 37 22 38 79 39 73 40 75 41 23 42 78 43 72 44 71 45
REMARK SMILES IDX 24 47 58 48 37 49 57 50 38 51 41 52 56 53 76 54 39 55 40 56
REMARK SMILES IDX 55 58 77 59 42 60 25 61 26 62 35 63 27 64 28 65 34 66 36 67
REMARK SMILES IDX 29 68 30 69 31 70 32 71 33 72 59 73 60 74 69 75 61 76 62 77
REMARK SMILES IDX 68 78 70 79 63 80 64 81 65 82 66 83 67 84 43 85 44 86 53 87
REMARK SMILES IDX 45 88 46 89 52 90 54 91 47 92 48 93 49 94 50 95 51 96
REMARK H PARENT 8 7 13 27 75 46 41 57
REMARK Flexibility Score: inf
ROOT
ATOM      1  C   UNL A   1      37.404  23.410  25.260  1.00  0.00     0.023 C 
ENDROOT
BRANCH   1   2
ATOM      2  C   UNL A   1      37.295  21.885  25.261  1.00  0.00     0.023 C 
BRANCH   2   3
ATOM      3  C   UNL A   1      35.898  21.347  25.540  1.00  0.00     0.116 C 
BRANCH   3   4
ATOM      4  N   UNL A   1      35.240  22.015  26.643  1.00  0.00    -0.356 N 
ATOM      5  C   UNL A   1      34.059  22.679  26.748  1.00  0.00     0.226 C 
ATOM      6  O   UNL A   1      33.695  22.912  27.908  1.00  0.00    -0.274 OA
ATOM      7  H   UNL A   1      35.750  21.982  27.483  1.00  0.00     0.163 HD
BRANCH   5   8
ATOM      8  C   UNL A   1      33.132  23.036  25.546  1.00  0.00     0.052 C 
ATOM      9  C   UNL A   1      32.808  19.785  24.026  1.00  0.00     0.007 C 
ATOM     10  C   UNL A   1      32.345  21.244  23.985  1.00  0.00    -0.013 C 
ATOM     11  C   UNL A   1      33.278  22.183  23.222  1.00  0.00     0.004 C 
ATOM     12  C   UNL A   1      32.152  21.844  25.378  1.00  0.00     0.020 C 
ATOM     13  C   UNL A   1      33.857  23.202  24.200  1.00  0.00     0.017 C 
BRANCH   8  14
ATOM     14  C   UNL A   1      32.347  24.371  25.916  1.00  0.00     0.006 C 
ATOM     15  C   UNL A   1      30.813  24.281  25.726  1.00  0.00     0.005 C 
ATOM     16  C   UNL A   1      32.879  25.605  25.136  1.00  0.00     0.024 C 
ATOM     17  C   UNL A   1      30.111  25.577  26.128  1.00  0.00     0.002 C 
ATOM     18  C   UNL A   1      32.168  26.907  25.532  1.00  0.00     0.108 C 
ATOM     19  C   UNL A   1      30.654  26.775  25.360  1.00  0.00     0.020 C 
BRANCH  18  20
ATOM     20  S   UNL A   1      32.830  28.281  24.560  1.00  0.00     0.150 S 
ATOM     21  C   UNL A   1      31.597  28.587  23.318  1.00  0.00     0.158 C 
ATOM     22  O   UNL A   1      32.862  29.458  25.407  1.00  0.00    -0.229 OA
ATOM     23  O   UNL A   1      34.027  27.829  23.876  1.00  0.00    -0.229 OA
ENDBRANCH  18  20
ENDBRANCH   8  14
ENDBRANCH   5   8
ENDBRANCH   3   4
ENDBRANCH   2   3
ENDBRANCH   1   2
BRANCH   1  24
ATOM     24  C   UNL A   1      38.231  24.014  26.392  1.00  0.00     0.116 C 
BRANCH  24  25
ATOM     25  N   UNL A   1      39.653  23.699  26.324  1.00  0.00    -0.352 N 
ATOM     26  C   UNL A   1      40.708  24.387  26.882  1.00  0.00     0.251 C 
ATOM     27  H   UNL A   1      39.890  22.891  25.814  1.00  0.00     0.163 HD
ATOM     28  O   UNL A   1      41.863  24.023  26.699  1.00  0.00    -0.269 OA
BRANCH  26  29
ATOM     29  C   UNL A   1      40.416  25.604  27.665  1.00  0.00     0.039 A 
ATOM     30  C   UNL A   1      39.413  25.554  28.635  1.00  0.00     0.014 A 
ATOM     31  C   UNL A   1      41.220  26.737  27.521  1.00  0.00     0.014 A 
ATOM     32  C   UNL A   1      39.285  26.608  29.539  1.00  0.00     0.010 A 
ATOM     33  C   UNL A   1      41.134  27.754  28.465  1.00  0.00     0.010 A 
ATOM     34  C   UNL A   1      40.184  27.688  29.497  1.00  0.00    -0.014 A 
BRANCH  34  35
ATOM     35  C   UNL A   1      40.193  28.732  30.552  1.00  0.00     0.031 A 
ATOM     36  C   UNL A   1      41.092  28.588  31.745  1.00  0.00     0.074 A 
ATOM     37  C   UNL A   1      39.306  29.748  30.489  1.00  0.00     0.049 A 
ATOM     38  N   UNL A   1      41.139  29.308  32.835  1.00  0.00    -0.248 NA
ATOM     39  C   UNL A   1      42.038  27.461  31.725  1.00  0.00     0.031 C 
ATOM     40  C   UNL A   1      38.335  29.961  29.413  1.00  0.00     0.029 A 
ATOM     41  N   UNL A   1      39.063  30.778  31.361  1.00  0.00    -0.354 N 
ATOM     42  C   UNL A   1      42.091  28.704  33.646  1.00  0.00     0.074 A 
ATOM     43  C   UNL A   1      42.575  27.539  32.934  1.00  0.00     0.031 C 
ATOM     44  C   UNL A   1      37.610  31.059  29.684  1.00  0.00     0.029 A 
ATOM     45  C   UNL A   1      38.039  31.607  30.967  1.00  0.00     0.049 A 
ATOM     46  H   UNL A   1      39.573  30.911  32.193  1.00  0.00     0.167 HD
ATOM     47  C   UNL A   1      42.532  29.093  34.865  1.00  0.00     0.037 A 
ATOM     48  C   UNL A   1      37.499  32.681  31.574  1.00  0.00     0.037 A 
ATOM     49  C   UNL A   1      42.082  30.276  35.547  1.00  0.00     0.049 A 
ATOM     50  C   UNL A   1      38.045  33.126  32.901  1.00  0.00     0.074 A 
ATOM     51  C   UNL A   1      42.522  30.795  36.753  1.00  0.00     0.029 A 
ATOM     52  N   UNL A   1      41.094  31.130  35.080  1.00  0.00    -0.354 N 
ATOM     53  N   UNL A   1      38.989  32.577  33.628  1.00  0.00    -0.248 NA
ATOM     54  C   UNL A   1      37.462  34.341  33.489  1.00  0.00     0.031 C 
ATOM     55  C   UNL A   1      41.784  31.953  37.024  1.00  0.00     0.029 A 
ATOM     56  C   UNL A   1      40.907  32.170  35.974  1.00  0.00     0.049 A 
ATOM     57  H   UNL A   1      40.598  31.013  34.238  1.00  0.00     0.167 HD
ATOM     58  C   UNL A   1      39.126  33.388  34.747  1.00  0.00     0.074 A 
ATOM     59  C   UNL A   1      38.175  34.471  34.599  1.00  0.00     0.031 C 
ATOM     60  C   UNL A   1      39.966  33.248  35.802  1.00  0.00     0.037 A 
BRANCH  47  61
ATOM     61  C   UNL A   1      43.560  28.225  35.533  1.00  0.00     0.058 A 
ATOM     62  C   UNL A   1      43.194  27.213  36.433  1.00  0.00     0.135 A 
ATOM     63  C   UNL A   1      44.927  28.403  35.265  1.00  0.00     0.135 A 
ATOM     64  F   UNL A   1      41.902  27.014  36.737  1.00  0.00    -0.206 F 
ATOM     65  C   UNL A   1      44.148  26.429  37.073  1.00  0.00     0.059 A 
ATOM     66  C   UNL A   1      45.898  27.615  35.875  1.00  0.00     0.059 A 
ATOM     67  F   UNL A   1      45.330  29.359  34.411  1.00  0.00    -0.206 F 
ATOM     68  C   UNL A   1      45.499  26.643  36.792  1.00  0.00     0.060 A 
BRANCH  68  69
ATOM     69  S   UNL A   1      46.731  25.631  37.638  1.00  0.00     0.124 S 
ATOM     70  O   UNL A   1      46.872  26.346  38.903  1.00  0.00    -0.237 OA
ATOM     71  O   UNL A   1      46.073  24.330  37.717  1.00  0.00    -0.237 OA
ATOM     72  O   UNL A   1      47.886  25.691  36.749  1.00  0.00    -0.744 OA
ENDBRANCH  68  69
ENDBRANCH  47  61
BRANCH  48  73
ATOM     73  C   UNL A   1      36.394  33.425  30.915  1.00  0.00     0.058 A 
ATOM     74  C   UNL A   1      36.637  34.202  29.774  1.00  0.00     0.135 A 
ATOM     75  C   UNL A   1      35.077  33.353  31.393  1.00  0.00     0.135 A 
ATOM     76  F   UNL A   1      37.881  34.304  29.284  1.00  0.00    -0.206 F 
ATOM     77  C   UNL A   1      35.613  34.892  29.132  1.00  0.00     0.059 A 
ATOM     78  C   UNL A   1      34.034  34.019  30.758  1.00  0.00     0.059 A 
ATOM     79  F   UNL A   1      34.794  32.607  32.472  1.00  0.00    -0.206 F 
ATOM     80  C   UNL A   1      34.313  34.793  29.632  1.00  0.00     0.060 A 
BRANCH  80  81
ATOM     81  S   UNL A   1      32.980  35.643  28.758  1.00  0.00     0.124 S 
ATOM     82  O   UNL A   1      32.409  34.557  27.970  1.00  0.00    -0.237 OA
ATOM     83  O   UNL A   1      32.155  36.137  29.857  1.00  0.00    -0.237 OA
ATOM     84  O   UNL A   1      33.683  36.674  28.001  1.00  0.00    -0.744 OA
ENDBRANCH  80  81
ENDBRANCH  48  73
BRANCH  60  85
ATOM     85  C   UNL A   1      39.921  34.307  36.864  1.00  0.00     0.058 A 
ATOM     86  C   UNL A   1      40.726  35.453  36.792  1.00  0.00     0.135 A 
ATOM     87  C   UNL A   1      39.015  34.203  37.932  1.00  0.00     0.135 A 
ATOM     88  F   UNL A   1      41.613  35.594  35.794  1.00  0.00    -0.206 F 
ATOM     89  C   UNL A   1      40.643  36.458  37.750  1.00  0.00     0.059 A 
ATOM     90  C   UNL A   1      38.901  35.204  38.891  1.00  0.00     0.059 A 
ATOM     91  F   UNL A   1      38.218  33.127  38.040  1.00  0.00    -0.206 F 
ATOM     92  C   UNL A   1      39.725  36.326  38.795  1.00  0.00     0.060 A 
BRANCH  92  93
ATOM     93  S   UNL A   1      39.586  37.658  40.006  1.00  0.00     0.124 S 
ATOM     94  O   UNL A   1      38.328  38.283  39.611  1.00  0.00    -0.237 OA
ATOM     95  O   UNL A   1      39.564  36.931  41.273  1.00  0.00    -0.237 OA
ATOM     96  O   UNL A   1      40.786  38.454  39.771  1.00  0.00    -0.744 OA
ENDBRANCH  92  93
ENDBRANCH  60  85
ENDBRANCH  34  35
ENDBRANCH  26  29
ENDBRANCH  24  25
ENDBRANCH   1  24
TORSDOF 16
ENDMDL
MODEL 3
REMARK VINA RESULT:     -11.9      4.867     10.534
REMARK SMILES C[C@@H]1CC[C@@](C(=O)NCCCCNC(=O)c2ccc(-c3c4nc(c(-c5c(F)cc(S(=O)(=O)[O-])cc5F)c5ccc([nH]5)c(-c5c(F)cc(S(=O)(=O)[O-])cc5F)c5nc(c(-c6c(F)cc(S(=O)(=O)[O-])cc6F)c6ccc3[nH]6)C=C5)C=C4)cc2)([C@@H]2CCC[C@H](S(C)(=O)=O)C2)C1
REMARK SMILES IDX 11 1 10 2 9 3 8 4 6 5 7 6 5 8 1 9 2 10 3 11 92 12 4 13 82 14
REMARK SMILES IDX 83 15 91 16 84 17 86 18 85 19 87 20 88 21 89 22 90 23 12 24
REMARK SMILES IDX 13 25 14 26 15 28 16 29 17 30 81 31 18 32 80 33 19 34 20 35
REMARK SMILES IDX 21 36 74 37 22 38 79 39 73 40 75 41 23 42 78 43 72 44 71 45
REMARK SMILES IDX 24 47 58 48 37 49 57 50 38 51 41 52 56 53 76 54 39 55 40 56
REMARK SMILES IDX 55 58 77 59 42 60 25 61 26 62 35 63 27 64 28 65 34 66 36 67
REMARK SMILES IDX 29 68 30 69 31 70 32 71 33 72 59 73 60 74 69 75 61 76 62 77
REMARK SMILES IDX 68 78 70 79 63 80 64 81 65 82 66 83 67 84 43 85 44 86 53 87
REMARK SMILES IDX 45 88 46 89 52 90 54 91 47 92 48 93 49 94 50 95 51 96
REMARK H PARENT 8 7 13 27 75 46 41 57
REMARK Flexibility Score: inf
ROOT
ATOM      1  C   UNL A   1      35.926  23.160  26.120  1.00  0.00     0.023 C 
ENDROOT
BRANCH   1   2
ATOM      2  C   UNL A   1      35.507  21.691  26.160  1.00  0.00     0.023 C 
BRANCH   2   3
ATOM      3  C   UNL A   1      34.014  21.449  25.974  1.00  0.00     0.116 C 
BRANCH   3   4
ATOM      4  N   UNL A   1      33.191  22.351  26.749  1.00  0.00    -0.356 N 
ATOM      5  C   UNL A   1      32.315  23.330  26.402  1.00  0.00     0.226 C 
ATOM      6  O   UNL A   1      31.597  23.737  27.323  1.00  0.00    -0.274 OA
ATOM      7  H   UNL A   1      33.283  22.232  27.721  1.00  0.00     0.163 HD
BRANCH   5   8
ATOM      8  C   UNL A   1      32.101  23.854  24.948  1.00  0.00     0.052 C 
ATOM      9  C   UNL A   1      32.301  20.748  23.134  1.00  0.00     0.007 C 
ATOM     10  C   UNL A   1      32.022  22.249  23.028  1.00  0.00    -0.013 C 
ATOM     11  C   UNL A   1      33.272  23.117  22.890  1.00  0.00     0.004 C 
ATOM     12  C   UNL A   1      31.234  22.791  24.221  1.00  0.00     0.020 C 
ATOM     13  C   UNL A   1      33.389  24.010  24.122  1.00  0.00     0.017 C 
BRANCH   8  14
ATOM     14  C   UNL A   1      31.335  25.247  25.040  1.00  0.00     0.006 C 
ATOM     15  C   UNL A   1      30.350  25.511  23.874  1.00  0.00     0.005 C 
ATOM     16  C   UNL A   1      32.310  26.451  25.157  1.00  0.00     0.024 C 
ATOM     17  C   UNL A   1      29.621  26.844  24.033  1.00  0.00     0.002 C 
ATOM     18  C   UNL A   1      31.579  27.793  25.307  1.00  0.00     0.108 C 
ATOM     19  C   UNL A   1      30.594  28.009  24.157  1.00  0.00     0.020 C 
BRANCH  18  20
ATOM     20  S   UNL A   1      32.786  29.135  25.411  1.00  0.00     0.150 S 
ATOM     21  C   UNL A   1      31.858  30.528  26.011  1.00  0.00     0.158 C 
ATOM     22  O   UNL A   1      33.743  28.802  26.448  1.00  0.00    -0.229 OA
ATOM     23  O   UNL A   1      33.232  29.461  24.069  1.00  0.00    -0.229 OA
ENDBRANCH  18  20
ENDBRANCH   8  14
ENDBRANCH   5   8
ENDBRANCH   3   4
ENDBRANCH   2   3
ENDBRANCH   1   2
BRANCH   1  24
ATOM     24  C   UNL A   1      37.093  23.489  25.192  1.00  0.00     0.116 C 
BRANCH  24  25
ATOM     25  N   UNL A   1      38.275  22.663  25.406  1.00  0.00    -0.352 N 
ATOM     26  C   UNL A   1      39.418  22.973  26.110  1.00  0.00     0.251 C 
ATOM     27  H   UNL A   1      38.253  21.768  24.996  1.00  0.00     0.163 HD
ATOM     28  O   UNL A   1      40.355  22.187  26.164  1.00  0.00    -0.269 OA
BRANCH  26  29
ATOM     29  C   UNL A   1      39.507  24.298  26.754  1.00  0.00     0.039 A 
ATOM     30  C   UNL A   1      38.949  24.467  28.023  1.00  0.00     0.014 A 
ATOM     31  C   UNL A   1      40.250  25.318  26.155  1.00  0.00     0.014 A 
ATOM     32  C   UNL A   1      39.228  25.629  28.742  1.00  0.00     0.010 A 
ATOM     33  C   UNL A   1      40.581  26.444  26.900  1.00  0.00     0.010 A 
ATOM     34  C   UNL A   1      40.094  26.598  28.209  1.00  0.00    -0.014 A 
BRANCH  34  35
ATOM     35  C   UNL A   1      40.556  27.755  29.016  1.00  0.00     0.031 A 
ATOM     36  C   UNL A   1      41.867  27.687  29.745  1.00  0.00     0.074 A 
ATOM     37  C   UNL A   1      39.740  28.816  29.185  1.00  0.00     0.049 A 
ATOM     38  N   UNL A   1      42.373  28.524  30.612  1.00  0.00    -0.248 NA
ATOM     39  C   UNL A   1      42.701  26.502  29.491  1.00  0.00     0.031 C 
ATOM     40  C   UNL A   1      38.413  28.971  28.582  1.00  0.00     0.029 A 
ATOM     41  N   UNL A   1      39.897  29.955  29.934  1.00  0.00    -0.354 N 
ATOM     42  C   UNL A   1      43.566  27.953  31.036  1.00  0.00     0.074 A 
ATOM     43  C   UNL A   1      43.693  26.683  30.352  1.00  0.00     0.031 C 
ATOM     44  C   UNL A   1      37.884  30.140  28.976  1.00  0.00     0.029 A 
ATOM     45  C   UNL A   1      38.815  30.802  29.885  1.00  0.00     0.049 A 
ATOM     46  H   UNL A   1      40.707  30.147  30.457  1.00  0.00     0.167 HD
ATOM     47  C   UNL A   1      44.479  28.449  31.903  1.00  0.00     0.037 A 
ATOM     48  C   UNL A   1      38.592  31.974  30.509  1.00  0.00     0.037 A 
ATOM     49  C   UNL A   1      44.372  29.732  32.544  1.00  0.00     0.049 A 
ATOM     50  C   UNL A   1      39.647  32.532  31.423  1.00  0.00     0.074 A 
ATOM     51  C   UNL A   1      45.280  30.355  33.382  1.00  0.00     0.029 A 
ATOM     52  N   UNL A   1      43.292  30.593  32.411  1.00  0.00    -0.354 N 
ATOM     53  N   UNL A   1      40.797  32.005  31.767  1.00  0.00    -0.248 NA
ATOM     54  C   UNL A   1      39.379  33.845  32.029  1.00  0.00     0.031 C 
ATOM     55  C   UNL A   1      44.740  31.586  33.772  1.00  0.00     0.029 A 
ATOM     56  C   UNL A   1      43.509  31.740  33.155  1.00  0.00     0.049 A 
ATOM     57  H   UNL A   1      42.490  30.414  31.869  1.00  0.00     0.167 HD
ATOM     58  C   UNL A   1      41.400  32.930  32.612  1.00  0.00     0.074 A 
ATOM     59  C   UNL A   1      40.490  34.052  32.721  1.00  0.00     0.031 C 
ATOM     60  C   UNL A   1      42.599  32.854  33.239  1.00  0.00     0.037 A 
BRANCH  47  61
ATOM     61  C   UNL A   1      45.678  27.595  32.202  1.00  0.00     0.058 A 
ATOM     62  C   UNL A   1      45.646  26.608  33.200  1.00  0.00     0.135 A 
ATOM     63  C   UNL A   1      46.870  27.760  31.479  1.00  0.00     0.135 A 
ATOM     64  F   UNL A   1      44.536  26.423  33.932  1.00  0.00    -0.206 F 
ATOM     65  C   UNL A   1      46.765  25.837  33.495  1.00  0.00     0.059 A 
ATOM     66  C   UNL A   1      47.995  26.983  31.741  1.00  0.00     0.059 A 
ATOM     67  F   UNL A   1      46.953  28.690  30.514  1.00  0.00    -0.206 F 
ATOM     68  C   UNL A   1      47.938  26.038  32.764  1.00  0.00     0.060 A 
BRANCH  68  69
ATOM     69  S   UNL A   1      49.390  25.043  33.165  1.00  0.00     0.124 S 
ATOM     70  O   UNL A   1      50.164  25.977  33.977  1.00  0.00    -0.237 OA
ATOM     71  O   UNL A   1      48.811  23.911  33.882  1.00  0.00    -0.237 OA
ATOM     72  O   UNL A   1      49.955  24.727  31.857  1.00  0.00    -0.744 OA
ENDBRANCH  68  69
ENDBRANCH  47  61
BRANCH  48  73
ATOM     73  C   UNL A   1      37.325  32.713  30.266  1.00  0.00     0.058 A 
ATOM     74  C   UNL A   1      37.201  33.579  29.170  1.00  0.00     0.135 A 
ATOM     75  C   UNL A   1      36.211  32.548  31.102  1.00  0.00     0.135 A 
ATOM     76  F   UNL A   1      38.242  33.771  28.347  1.00  0.00    -0.206 F 
ATOM     77  C   UNL A   1      36.019  34.266  28.916  1.00  0.00     0.059 A 
ATOM     78  C   UNL A   1      35.012  33.209  30.858  1.00  0.00     0.059 A 
ATOM     79  F   UNL A   1      36.277  31.716  32.153  1.00  0.00    -0.206 F 
ATOM     80  C   UNL A   1      34.928  34.073  29.765  1.00  0.00     0.060 A 
BRANCH  80  81
ATOM     81  S   UNL A   1      33.377  34.921  29.393  1.00  0.00     0.124 S 
ATOM     82  O   UNL A   1      33.858  36.201  28.886  1.00  0.00    -0.237 OA
ATOM     83  O   UNL A   1      32.767  34.032  28.408  1.00  0.00    -0.237 OA
ATOM     84  O   UNL A   1      32.704  34.965  30.687  1.00  0.00    -0.744 OA
ENDBRANCH  80  81
ENDBRANCH  48  73
BRANCH  60  85
ATOM     85  C   UNL A   1      43.015  34.030  34.073  1.00  0.00     0.058 A 
ATOM     86  C   UNL A   1      43.591  35.171  33.497  1.00  0.00     0.135 A 
ATOM     87  C   UNL A   1      42.776  34.039  35.457  1.00  0.00     0.135 A 
ATOM     88  F   UNL A   1      43.846  35.208  32.180  1.00  0.00    -0.206 F 
ATOM     89  C   UNL A   1      43.926  36.281  34.266  1.00  0.00     0.059 A 
ATOM     90  C   UNL A   1      43.086  35.143  36.243  1.00  0.00     0.059 A 
ATOM     91  F   UNL A   1      42.221  32.971  36.053  1.00  0.00    -0.206 F 
ATOM     92  C   UNL A   1      43.667  36.258  35.639  1.00  0.00     0.060 A 
BRANCH  92  93
ATOM     93  S   UNL A   1      44.058  37.721  36.623  1.00  0.00     0.124 S 
ATOM     94  O   UNL A   1      45.385  37.388  37.129  1.00  0.00    -0.237 OA
ATOM     95  O   UNL A   1      44.007  38.792  35.632  1.00  0.00    -0.237 OA
ATOM     96  O   UNL A   1      42.993  37.750  37.621  1.00  0.00    -0.744 OA
ENDBRANCH  92  93
ENDBRANCH  60  85
ENDBRANCH  34  35
ENDBRANCH  26  29
ENDBRANCH  24  25
ENDBRANCH   1  24
TORSDOF 16
ENDMDL
