MODEL 1
REMARK VINA RESULT:     -12.2      0.000      0.000
REMARK SMILES Cc1cc(C(=O)N2[C@@H](C(=O)NCCCCNC(=O)c3ccc(-c4c5nc(c(-c6c(F)cc(S(=O)(=O)[O-])cc6F)c6ccc([nH]6)c(-c6c(F)cc(S(=O)(=O)[O-])cc6F)c6nc(c(-c7c(F)cc(S(=O)(=O)[O-])cc7F)c7ccc4[nH]7)C=C6)C=C5)cc3)C[C@H]3CCCC[C@H]32)c(C)s1
REMARK SMILES IDX 14 1 13 2 12 3 11 4 9 5 10 6 8 8 7 9 91 10 85 11 86 12 90 13
REMARK SMILES IDX 87 14 89 15 88 16 5 17 6 18 4 19 1 20 2 21 3 22 94 23 92 24
REMARK SMILES IDX 93 25 15 26 16 27 17 28 18 30 19 31 20 32 84 33 21 34 83 35
REMARK SMILES IDX 22 36 23 37 24 38 77 39 25 40 82 41 76 42 78 43 26 44 81 45
REMARK SMILES IDX 75 46 74 47 27 49 61 50 40 51 60 52 41 53 44 54 59 55 79 56
REMARK SMILES IDX 42 57 43 58 58 60 80 61 45 62 28 63 29 64 38 65 30 66 31 67
REMARK SMILES IDX 37 68 39 69 32 70 33 71 34 72 35 73 36 74 62 75 63 76 72 77
REMARK SMILES IDX 64 78 65 79 71 80 73 81 66 82 67 83 68 84 69 85 70 86 46 87
REMARK SMILES IDX 47 88 56 89 48 90 49 91 55 92 57 93 50 94 51 95 52 96 53 97
REMARK SMILES IDX 54 98
REMARK H PARENT 11 7 16 29 78 48 44 59
REMARK Flexibility Score: inf
ROOT
ATOM      1  C   UNL A   1      32.376  28.423  26.278  1.00  0.00     0.023 C 
ENDROOT
BRANCH   1   2
ATOM      2  C   UNL A   1      31.352  27.456  26.853  1.00  0.00     0.023 C 
BRANCH   2   3
ATOM      3  C   UNL A   1      30.882  26.351  25.908  1.00  0.00     0.116 C 
BRANCH   3   4
ATOM      4  N   UNL A   1      30.277  25.233  26.603  1.00  0.00    -0.354 N 
ATOM      5  C   UNL A   1      30.511  23.895  26.578  1.00  0.00     0.242 C 
ATOM      6  O   UNL A   1      29.882  23.223  27.409  1.00  0.00    -0.273 OA
ATOM      7  H   UNL A   1      29.552  25.496  27.216  1.00  0.00     0.163 HD
BRANCH   5   8
ATOM      8  C   UNL A   1      31.380  23.147  25.530  1.00  0.00     0.175 C 
ATOM      9  N   UNL A   1      32.848  23.160  25.589  1.00  0.00    -0.323 N 
ATOM     10  C   UNL A   1      33.417  23.881  24.453  1.00  0.00     0.089 C 
ATOM     11  C   UNL A   1      31.057  23.736  24.136  1.00  0.00     0.041 C 
ATOM     12  C   UNL A   1      32.377  23.617  23.363  1.00  0.00     0.014 C 
ATOM     13  C   UNL A   1      33.604  25.373  24.740  1.00  0.00     0.025 C 
ATOM     14  C   UNL A   1      32.503  24.522  22.142  1.00  0.00     0.006 C 
ATOM     15  C   UNL A   1      33.846  26.187  23.476  1.00  0.00     0.002 C 
ATOM     16  C   UNL A   1      32.705  25.996  22.483  1.00  0.00     0.000 C 
BRANCH   9  17
ATOM     17  C   UNL A   1      33.675  22.423  26.427  1.00  0.00     0.255 C 
ATOM     18  O   UNL A   1      33.316  22.104  27.558  1.00  0.00    -0.269 OA
BRANCH  17  19
ATOM     19  C   UNL A   1      35.016  22.085  25.948  1.00  0.00     0.053 A 
ATOM     20  C   UNL A   1      38.772  22.669  25.976  1.00  0.00     0.056 C 
ATOM     21  C   UNL A   1      37.362  22.224  25.797  1.00  0.00     0.003 A 
ATOM     22  C   UNL A   1      36.214  22.812  26.279  1.00  0.00     0.029 A 
ATOM     23  S   UNL A   1      37.012  20.792  24.943  1.00  0.00    -0.145 S 
ATOM     24  C   UNL A   1      35.329  20.927  25.249  1.00  0.00     0.014 A 
ATOM     25  C   UNL A   1      34.429  19.828  24.784  1.00  0.00     0.057 C 
ENDBRANCH  17  19
ENDBRANCH   9  17
ENDBRANCH   5   8
ENDBRANCH   3   4
ENDBRANCH   2   3
ENDBRANCH   1   2
BRANCH   1  26
ATOM     26  C   UNL A   1      33.551  28.750  27.188  1.00  0.00     0.116 C 
BRANCH  26  27
ATOM     27  N   UNL A   1      33.527  30.103  27.730  1.00  0.00    -0.352 N 
ATOM     28  C   UNL A   1      34.547  30.796  28.342  1.00  0.00     0.251 C 
ATOM     29  H   UNL A   1      32.671  30.583  27.647  1.00  0.00     0.163 HD
ATOM     30  O   UNL A   1      34.353  31.914  28.808  1.00  0.00    -0.269 OA
BRANCH  28  31
ATOM     31  C   UNL A   1      35.864  30.145  28.472  1.00  0.00     0.039 A 
ATOM     32  C   UNL A   1      36.723  30.131  27.372  1.00  0.00     0.014 A 
ATOM     33  C   UNL A   1      36.281  29.650  29.710  1.00  0.00     0.014 A 
ATOM     34  C   UNL A   1      38.042  29.707  27.539  1.00  0.00     0.010 A 
ATOM     35  C   UNL A   1      37.616  29.313  29.893  1.00  0.00     0.010 A 
ATOM     36  C   UNL A   1      38.512  29.345  28.813  1.00  0.00    -0.014 A 
BRANCH  36  37
ATOM     37  C   UNL A   1      39.936  29.000  29.047  1.00  0.00     0.031 A 
ATOM     38  C   UNL A   1      40.874  30.041  29.591  1.00  0.00     0.074 A 
ATOM     39  C   UNL A   1      40.401  27.788  28.684  1.00  0.00     0.049 A 
ATOM     40  N   UNL A   1      42.170  29.980  29.756  1.00  0.00    -0.248 NA
ATOM     41  C   UNL A   1      40.282  31.337  29.962  1.00  0.00     0.031 C 
ATOM     42  C   UNL A   1      39.602  26.716  28.083  1.00  0.00     0.029 A 
ATOM     43  N   UNL A   1      41.664  27.256  28.755  1.00  0.00    -0.354 N 
ATOM     44  C   UNL A   1      42.551  31.233  30.220  1.00  0.00     0.074 A 
ATOM     45  C   UNL A   1      41.357  32.050  30.261  1.00  0.00     0.031 C 
ATOM     46  C   UNL A   1      40.389  25.649  27.865  1.00  0.00     0.029 A 
ATOM     47  C   UNL A   1      41.751  25.969  28.278  1.00  0.00     0.049 A 
ATOM     48  H   UNL A   1      42.436  27.750  29.114  1.00  0.00     0.167 HD
ATOM     49  C   UNL A   1      43.777  31.657  30.602  1.00  0.00     0.037 A 
ATOM     50  C   UNL A   1      42.810  25.143  28.184  1.00  0.00     0.037 A 
ATOM     51  C   UNL A   1      44.950  30.824  30.609  1.00  0.00     0.049 A 
ATOM     52  C   UNL A   1      44.155  25.620  28.661  1.00  0.00     0.074 A 
ATOM     53  C   UNL A   1      46.226  31.136  31.041  1.00  0.00     0.029 A 
ATOM     54  N   UNL A   1      44.985  29.509  30.171  1.00  0.00    -0.354 N 
ATOM     55  N   UNL A   1      44.486  26.792  29.148  1.00  0.00    -0.248 NA
ATOM     56  C   UNL A   1      45.266  24.663  28.583  1.00  0.00     0.031 C 
ATOM     57  C   UNL A   1      47.040  30.014  30.845  1.00  0.00     0.029 A 
ATOM     58  C   UNL A   1      46.261  28.995  30.320  1.00  0.00     0.049 A 
ATOM     59  H   UNL A   1      44.215  29.013  29.808  1.00  0.00     0.167 HD
ATOM     60  C   UNL A   1      45.838  26.705  29.457  1.00  0.00     0.074 A 
ATOM     61  C   UNL A   1      46.261  25.364  29.111  1.00  0.00     0.031 C 
ATOM     62  C   UNL A   1      46.656  27.651  29.981  1.00  0.00     0.037 A 
BRANCH  49  63
ATOM     63  C   UNL A   1      43.902  33.082  31.062  1.00  0.00     0.058 A 
ATOM     64  C   UNL A   1      43.736  33.435  32.410  1.00  0.00     0.135 A 
ATOM     65  C   UNL A   1      44.198  34.106  30.148  1.00  0.00     0.135 A 
ATOM     66  F   UNL A   1      43.432  32.497  33.322  1.00  0.00    -0.206 F 
ATOM     67  C   UNL A   1      43.822  34.758  32.832  1.00  0.00     0.059 A 
ATOM     68  C   UNL A   1      44.316  35.433  30.552  1.00  0.00     0.059 A 
ATOM     69  F   UNL A   1      44.365  33.823  28.846  1.00  0.00    -0.206 F 
ATOM     70  C   UNL A   1      44.107  35.750  31.894  1.00  0.00     0.060 A 
BRANCH  70  71
ATOM     71  S   UNL A   1      44.210  37.463  32.453  1.00  0.00     0.124 S 
ATOM     72  O   UNL A   1      43.854  38.186  31.236  1.00  0.00    -0.237 OA
ATOM     73  O   UNL A   1      43.222  37.505  33.527  1.00  0.00    -0.237 OA
ATOM     74  O   UNL A   1      45.600  37.597  32.880  1.00  0.00    -0.744 OA
ENDBRANCH  70  71
ENDBRANCH  49  63
BRANCH  50  75
ATOM     75  C   UNL A   1      42.634  23.767  27.650  1.00  0.00     0.058 A 
ATOM     76  C   UNL A   1      42.434  22.683  28.518  1.00  0.00     0.135 A 
ATOM     77  C   UNL A   1      42.648  23.507  26.272  1.00  0.00     0.135 A 
ATOM     78  F   UNL A   1      42.418  22.881  29.845  1.00  0.00    -0.206 F 
ATOM     79  C   UNL A   1      42.266  21.387  28.041  1.00  0.00     0.059 A 
ATOM     80  C   UNL A   1      42.462  22.223  25.768  1.00  0.00     0.059 A 
ATOM     81  F   UNL A   1      42.819  24.514  25.401  1.00  0.00    -0.206 F 
ATOM     82  C   UNL A   1      42.281  21.168  26.662  1.00  0.00     0.060 A 
BRANCH  82  83
ATOM     83  S   UNL A   1      42.010  19.491  26.048  1.00  0.00     0.124 S 
ATOM     84  O   UNL A   1      42.442  18.687  27.185  1.00  0.00    -0.237 OA
ATOM     85  O   UNL A   1      40.576  19.490  25.772  1.00  0.00    -0.237 OA
ATOM     86  O   UNL A   1      42.865  19.427  24.866  1.00  0.00    -0.744 OA
ENDBRANCH  82  83
ENDBRANCH  50  75
BRANCH  62  87
ATOM     87  C   UNL A   1      48.082  27.260  30.241  1.00  0.00     0.058 A 
ATOM     88  C   UNL A   1      49.092  27.492  29.295  1.00  0.00     0.135 A 
ATOM     89  C   UNL A   1      48.450  26.701  31.476  1.00  0.00     0.135 A 
ATOM     90  F   UNL A   1      48.788  28.019  28.098  1.00  0.00    -0.206 F 
ATOM     91  C   UNL A   1      50.418  27.167  29.557  1.00  0.00     0.059 A 
ATOM     92  C   UNL A   1      49.773  26.388  31.767  1.00  0.00     0.059 A 
ATOM     93  F   UNL A   1      47.521  26.470  32.416  1.00  0.00    -0.206 F 
ATOM     94  C   UNL A   1      50.749  26.616  30.797  1.00  0.00     0.060 A 
BRANCH  94  95
ATOM     95  S   UNL A   1      52.479  26.235  31.143  1.00  0.00     0.124 S 
ATOM     96  O   UNL A   1      52.878  27.387  31.945  1.00  0.00    -0.237 OA
ATOM     97  O   UNL A   1      52.385  24.966  31.858  1.00  0.00    -0.237 OA
ATOM     98  O   UNL A   1      53.080  26.155  29.815  1.00  0.00    -0.744 OA
ENDBRANCH  94  95
ENDBRANCH  62  87
ENDBRANCH  36  37
ENDBRANCH  28  31
ENDBRANCH  26  27
ENDBRANCH   1  26
TORSDOF 16
ENDMDL
MODEL 2
REMARK VINA RESULT:     -11.8      3.525      9.646
REMARK SMILES Cc1cc(C(=O)N2[C@@H](C(=O)NCCCCNC(=O)c3ccc(-c4c5nc(c(-c6c(F)cc(S(=O)(=O)[O-])cc6F)c6ccc([nH]6)c(-c6c(F)cc(S(=O)(=O)[O-])cc6F)c6nc(c(-c7c(F)cc(S(=O)(=O)[O-])cc7F)c7ccc4[nH]7)C=C6)C=C5)cc3)C[C@H]3CCCC[C@H]32)c(C)s1
REMARK SMILES IDX 14 1 13 2 12 3 11 4 9 5 10 6 8 8 7 9 91 10 85 11 86 12 90 13
REMARK SMILES IDX 87 14 89 15 88 16 5 17 6 18 4 19 1 20 2 21 3 22 94 23 92 24
REMARK SMILES IDX 93 25 15 26 16 27 17 28 18 30 19 31 20 32 84 33 21 34 83 35
REMARK SMILES IDX 22 36 23 37 24 38 77 39 25 40 82 41 76 42 78 43 26 44 81 45
REMARK SMILES IDX 75 46 74 47 27 49 61 50 40 51 60 52 41 53 44 54 59 55 79 56
REMARK SMILES IDX 42 57 43 58 58 60 80 61 45 62 28 63 29 64 38 65 30 66 31 67
REMARK SMILES IDX 37 68 39 69 32 70 33 71 34 72 35 73 36 74 62 75 63 76 72 77
REMARK SMILES IDX 64 78 65 79 71 80 73 81 66 82 67 83 68 84 69 85 70 86 46 87
REMARK SMILES IDX 47 88 56 89 48 90 49 91 55 92 57 93 50 94 51 95 52 96 53 97
REMARK SMILES IDX 54 98
REMARK H PARENT 11 7 16 29 78 48 44 59
REMARK Flexibility Score: inf
ROOT
ATOM      1  C   UNL A   1      35.742  22.618  26.191  1.00  0.00     0.023 C 
ENDROOT
BRANCH   1   2
ATOM      2  C   UNL A   1      34.401  23.334  26.118  1.00  0.00     0.023 C 
BRANCH   2   3
ATOM      3  C   UNL A   1      33.673  23.238  24.779  1.00  0.00     0.116 C 
BRANCH   3   4
ATOM      4  N   UNL A   1      34.018  24.313  23.870  1.00  0.00    -0.354 N 
ATOM      5  C   UNL A   1      33.504  25.555  23.673  1.00  0.00     0.242 C 
ATOM      6  O   UNL A   1      34.131  26.278  22.885  1.00  0.00    -0.273 OA
ATOM      7  H   UNL A   1      34.776  24.101  23.279  1.00  0.00     0.163 HD
BRANCH   5   8
ATOM      8  C   UNL A   1      32.155  26.077  24.238  1.00  0.00     0.175 C 
ATOM      9  N   UNL A   1      31.545  27.326  23.762  1.00  0.00    -0.323 N 
ATOM     10  C   UNL A   1      31.529  28.343  24.812  1.00  0.00     0.089 C 
ATOM     11  C   UNL A   1      32.331  26.305  25.759  1.00  0.00     0.041 C 
ATOM     12  C   UNL A   1      31.404  27.486  26.073  1.00  0.00     0.014 C 
ATOM     13  C   UNL A   1      32.794  29.206  24.811  1.00  0.00     0.025 C 
ATOM     14  C   UNL A   1      31.708  28.229  27.369  1.00  0.00     0.006 C 
ATOM     15  C   UNL A   1      32.956  30.009  26.094  1.00  0.00     0.002 C 
ATOM     16  C   UNL A   1      32.967  29.088  27.309  1.00  0.00     0.000 C 
BRANCH   9  17
ATOM     17  C   UNL A   1      30.842  27.538  22.583  1.00  0.00     0.255 C 
ATOM     18  O   UNL A   1      31.138  26.943  21.548  1.00  0.00    -0.269 OA
BRANCH  17  19
ATOM     19  C   UNL A   1      29.772  28.536  22.588  1.00  0.00     0.053 A 
ATOM     20  C   UNL A   1      28.348  31.850  21.388  1.00  0.00     0.056 C 
ATOM     21  C   UNL A   1      28.658  30.522  21.987  1.00  0.00     0.003 A 
ATOM     22  C   UNL A   1      29.838  29.815  21.929  1.00  0.00     0.029 A 
ATOM     23  S   UNL A   1      27.458  29.655  22.831  1.00  0.00    -0.145 S 
ATOM     24  C   UNL A   1      28.496  28.314  23.088  1.00  0.00     0.014 A 
ATOM     25  C   UNL A   1      27.940  27.099  23.759  1.00  0.00     0.057 C 
ENDBRANCH  17  19
ENDBRANCH   9  17
ENDBRANCH   5   8
ENDBRANCH   3   4
ENDBRANCH   2   3
ENDBRANCH   1   2
BRANCH   1  26
ATOM     26  C   UNL A   1      36.925  23.384  25.615  1.00  0.00     0.116 C 
BRANCH  26  27
ATOM     27  N   UNL A   1      38.174  22.632  25.608  1.00  0.00    -0.352 N 
ATOM     28  C   UNL A   1      39.396  23.003  26.122  1.00  0.00     0.251 C 
ATOM     29  H   UNL A   1      38.138  21.745  25.182  1.00  0.00     0.163 HD
ATOM     30  O   UNL A   1      40.379  22.284  25.981  1.00  0.00    -0.269 OA
BRANCH  28  31
ATOM     31  C   UNL A   1      39.510  24.309  26.799  1.00  0.00     0.039 A 
ATOM     32  C   UNL A   1      38.985  24.452  28.085  1.00  0.00     0.014 A 
ATOM     33  C   UNL A   1      40.229  25.347  26.202  1.00  0.00     0.014 A 
ATOM     34  C   UNL A   1      39.266  25.608  28.814  1.00  0.00     0.010 A 
ATOM     35  C   UNL A   1      40.580  26.456  26.962  1.00  0.00     0.010 A 
ATOM     36  C   UNL A   1      40.110  26.595  28.277  1.00  0.00    -0.014 A 
BRANCH  36  37
ATOM     37  C   UNL A   1      40.521  27.780  29.069  1.00  0.00     0.031 A 
ATOM     38  C   UNL A   1      41.840  27.772  29.790  1.00  0.00     0.074 A 
ATOM     39  C   UNL A   1      39.672  28.818  29.213  1.00  0.00     0.049 A 
ATOM     40  N   UNL A   1      42.330  28.652  30.624  1.00  0.00    -0.248 NA
ATOM     41  C   UNL A   1      42.705  26.600  29.576  1.00  0.00     0.031 C 
ATOM     42  C   UNL A   1      38.337  28.913  28.617  1.00  0.00     0.029 A 
ATOM     43  N   UNL A   1      39.802  29.987  29.919  1.00  0.00    -0.354 N 
ATOM     44  C   UNL A   1      43.543  28.127  31.056  1.00  0.00     0.074 A 
ATOM     45  C   UNL A   1      43.689  26.830  30.432  1.00  0.00     0.031 C 
ATOM     46  C   UNL A   1      37.783  30.088  28.961  1.00  0.00     0.029 A 
ATOM     47  C   UNL A   1      38.706  30.813  29.828  1.00  0.00     0.049 A 
ATOM     48  H   UNL A   1      40.604  30.214  30.443  1.00  0.00     0.167 HD
ATOM     49  C   UNL A   1      44.463  28.686  31.876  1.00  0.00     0.037 A 
ATOM     50  C   UNL A   1      38.473  32.019  30.382  1.00  0.00     0.037 A 
ATOM     51  C   UNL A   1      44.335  29.998  32.451  1.00  0.00     0.049 A 
ATOM     52  C   UNL A   1      39.531  32.642  31.250  1.00  0.00     0.074 A 
ATOM     53  C   UNL A   1      45.241  30.684  33.240  1.00  0.00     0.029 A 
ATOM     54  N   UNL A   1      43.235  30.826  32.289  1.00  0.00    -0.354 N 
ATOM     55  N   UNL A   1      40.697  32.154  31.604  1.00  0.00    -0.248 NA
ATOM     56  C   UNL A   1      39.248  33.978  31.788  1.00  0.00     0.031 C 
ATOM     57  C   UNL A   1      44.678  31.922  33.573  1.00  0.00     0.029 A 
ATOM     58  C   UNL A   1      43.436  32.017  32.965  1.00  0.00     0.049 A 
ATOM     59  H   UNL A   1      42.429  30.601  31.769  1.00  0.00     0.167 HD
ATOM     60  C   UNL A   1      41.296  33.134  32.386  1.00  0.00     0.074 A 
ATOM     61  C   UNL A   1      40.368  34.246  32.446  1.00  0.00     0.031 C 
ATOM     62  C   UNL A   1      42.504  33.116  33.000  1.00  0.00     0.037 A 
BRANCH  49  63
ATOM     63  C   UNL A   1      45.694  27.881  32.179  1.00  0.00     0.058 A 
ATOM     64  C   UNL A   1      46.847  27.976  31.384  1.00  0.00     0.135 A 
ATOM     65  C   UNL A   1      45.728  27.011  33.282  1.00  0.00     0.135 A 
ATOM     66  F   UNL A   1      46.861  28.778  30.308  1.00  0.00    -0.206 F 
ATOM     67  C   UNL A   1      47.978  27.210  31.647  1.00  0.00     0.059 A 
ATOM     68  C   UNL A   1      46.858  26.255  33.580  1.00  0.00     0.059 A 
ATOM     69  F   UNL A   1      44.652  26.882  34.074  1.00  0.00    -0.206 F 
ATOM     70  C   UNL A   1      47.971  26.348  32.745  1.00  0.00     0.060 A 
BRANCH  70  71
ATOM     71  S   UNL A   1      49.442  25.355  33.071  1.00  0.00     0.124 S 
ATOM     72  O   UNL A   1      50.301  26.323  33.745  1.00  0.00    -0.237 OA
ATOM     73  O   UNL A   1      48.919  24.281  33.910  1.00  0.00    -0.237 OA
ATOM     74  O   UNL A   1      49.879  24.948  31.739  1.00  0.00    -0.744 OA
ENDBRANCH  70  71
ENDBRANCH  49  63
BRANCH  50  75
ATOM     75  C   UNL A   1      37.200  32.732  30.100  1.00  0.00     0.058 A 
ATOM     76  C   UNL A   1      37.124  33.683  29.071  1.00  0.00     0.135 A 
ATOM     77  C   UNL A   1      36.035  32.473  30.837  1.00  0.00     0.135 A 
ATOM     78  F   UNL A   1      38.214  33.968  28.342  1.00  0.00    -0.206 F 
ATOM     79  C   UNL A   1      35.943  34.361  28.789  1.00  0.00     0.059 A 
ATOM     80  C   UNL A   1      34.836  33.124  30.562  1.00  0.00     0.059 A 
ATOM     81  F   UNL A   1      36.052  31.560  31.821  1.00  0.00    -0.206 F 
ATOM     82  C   UNL A   1      34.803  34.074  29.541  1.00  0.00     0.060 A 
BRANCH  82  83
ATOM     83  S   UNL A   1      33.260  34.921  29.136  1.00  0.00     0.124 S 
ATOM     84  O   UNL A   1      33.749  36.209  28.656  1.00  0.00    -0.237 OA
ATOM     85  O   UNL A   1      32.679  34.041  28.126  1.00  0.00    -0.237 OA
ATOM     86  O   UNL A   1      32.550  34.949  30.412  1.00  0.00    -0.744 OA
ENDBRANCH  82  83
ENDBRANCH  50  75
BRANCH  62  87
ATOM     87  C   UNL A   1      42.909  34.345  33.761  1.00  0.00     0.058 A 
ATOM     88  C   UNL A   1      42.677  34.463  35.140  1.00  0.00     0.135 A 
ATOM     89  C   UNL A   1      43.587  35.390  33.114  1.00  0.00     0.135 A 
ATOM     90  F   UNL A   1      42.028  33.492  35.802  1.00  0.00    -0.206 F 
ATOM     91  C   UNL A   1      43.091  35.584  35.850  1.00  0.00     0.059 A 
ATOM     92  C   UNL A   1      44.028  36.511  33.808  1.00  0.00     0.059 A 
ATOM     93  F   UNL A   1      43.839  35.318  31.798  1.00  0.00    -0.206 F 
ATOM     94  C   UNL A   1      43.767  36.603  35.175  1.00  0.00     0.060 A 
BRANCH  94  95
ATOM     95  S   UNL A   1      44.336  38.038  36.113  1.00  0.00     0.124 S 
ATOM     96  O   UNL A   1      43.969  39.134  35.222  1.00  0.00    -0.237 OA
ATOM     97  O   UNL A   1      43.561  37.935  37.345  1.00  0.00    -0.237 OA
ATOM     98  O   UNL A   1      45.768  37.798  36.259  1.00  0.00    -0.744 OA
ENDBRANCH  94  95
ENDBRANCH  62  87
ENDBRANCH  36  37
ENDBRANCH  28  31
ENDBRANCH  26  27
ENDBRANCH   1  26
TORSDOF 16
ENDMDL
MODEL 3
REMARK VINA RESULT:     -11.8      5.138     10.666
REMARK SMILES Cc1cc(C(=O)N2[C@@H](C(=O)NCCCCNC(=O)c3ccc(-c4c5nc(c(-c6c(F)cc(S(=O)(=O)[O-])cc6F)c6ccc([nH]6)c(-c6c(F)cc(S(=O)(=O)[O-])cc6F)c6nc(c(-c7c(F)cc(S(=O)(=O)[O-])cc7F)c7ccc4[nH]7)C=C6)C=C5)cc3)C[C@H]3CCCC[C@H]32)c(C)s1
REMARK SMILES IDX 14 1 13 2 12 3 11 4 9 5 10 6 8 8 7 9 91 10 85 11 86 12 90 13
REMARK SMILES IDX 87 14 89 15 88 16 5 17 6 18 4 19 1 20 2 21 3 22 94 23 92 24
REMARK SMILES IDX 93 25 15 26 16 27 17 28 18 30 19 31 20 32 84 33 21 34 83 35
REMARK SMILES IDX 22 36 23 37 24 38 77 39 25 40 82 41 76 42 78 43 26 44 81 45
REMARK SMILES IDX 75 46 74 47 27 49 61 50 40 51 60 52 41 53 44 54 59 55 79 56
REMARK SMILES IDX 42 57 43 58 58 60 80 61 45 62 28 63 29 64 38 65 30 66 31 67
REMARK SMILES IDX 37 68 39 69 32 70 33 71 34 72 35 73 36 74 62 75 63 76 72 77
REMARK SMILES IDX 64 78 65 79 71 80 73 81 66 82 67 83 68 84 69 85 70 86 46 87
REMARK SMILES IDX 47 88 56 89 48 90 49 91 55 92 57 93 50 94 51 95 52 96 53 97
REMARK SMILES IDX 54 98
REMARK H PARENT 11 7 16 29 78 48 44 59
REMARK Flexibility Score: inf
ROOT
ATOM      1  C   UNL A   1      37.221  23.328  25.342  1.00  0.00     0.023 C 
ENDROOT
BRANCH   1   2
ATOM      2  C   UNL A   1      35.840  22.987  25.883  1.00  0.00     0.023 C 
BRANCH   2   3
ATOM      3  C   UNL A   1      34.773  24.064  25.696  1.00  0.00     0.116 C 
BRANCH   3   4
ATOM      4  N   UNL A   1      34.643  24.496  24.319  1.00  0.00    -0.354 N 
ATOM      5  C   UNL A   1      33.769  25.325  23.691  1.00  0.00     0.242 C 
ATOM      6  O   UNL A   1      34.027  25.580  22.505  1.00  0.00    -0.273 OA
ATOM      7  H   UNL A   1      35.324  24.113  23.720  1.00  0.00     0.163 HD
BRANCH   5   8
ATOM      8  C   UNL A   1      32.437  25.857  24.287  1.00  0.00     0.175 C 
ATOM      9  N   UNL A   1      31.807  27.091  23.798  1.00  0.00    -0.323 N 
ATOM     10  C   UNL A   1      31.821  28.135  24.820  1.00  0.00     0.089 C 
ATOM     11  C   UNL A   1      32.663  26.126  25.794  1.00  0.00     0.041 C 
ATOM     12  C   UNL A   1      31.741  27.312  26.107  1.00  0.00     0.014 C 
ATOM     13  C   UNL A   1      33.080  29.003  24.754  1.00  0.00     0.025 C 
ATOM     14  C   UNL A   1      32.085  28.090  27.373  1.00  0.00     0.006 C 
ATOM     15  C   UNL A   1      33.281  29.840  26.010  1.00  0.00     0.002 C 
ATOM     16  C   UNL A   1      33.337  28.952  27.248  1.00  0.00     0.000 C 
BRANCH   9  17
ATOM     17  C   UNL A   1      31.064  27.269  22.638  1.00  0.00     0.255 C 
ATOM     18  O   UNL A   1      31.355  26.680  21.598  1.00  0.00    -0.269 OA
BRANCH  17  19
ATOM     19  C   UNL A   1      29.955  28.224  22.668  1.00  0.00     0.053 A 
ATOM     20  C   UNL A   1      28.377  31.480  21.505  1.00  0.00     0.056 C 
ATOM     21  C   UNL A   1      28.752  30.165  22.094  1.00  0.00     0.003 A 
ATOM     22  C   UNL A   1      29.957  29.505  22.010  1.00  0.00     0.029 A 
ATOM     23  S   UNL A   1      27.605  29.251  22.963  1.00  0.00    -0.145 S 
ATOM     24  C   UNL A   1      28.700  27.951  23.195  1.00  0.00     0.014 A 
ATOM     25  C   UNL A   1      28.207  26.715  23.876  1.00  0.00     0.057 C 
ENDBRANCH  17  19
ENDBRANCH   9  17
ENDBRANCH   5   8
ENDBRANCH   3   4
ENDBRANCH   2   3
ENDBRANCH   1   2
BRANCH   1  26
ATOM     26  C   UNL A   1      38.112  24.132  26.279  1.00  0.00     0.116 C 
BRANCH  26  27
ATOM     27  N   UNL A   1      39.531  23.820  26.165  1.00  0.00    -0.352 N 
ATOM     28  C   UNL A   1      40.597  24.472  26.741  1.00  0.00     0.251 C 
ATOM     29  H   UNL A   1      39.755  23.042  25.604  1.00  0.00     0.163 HD
ATOM     30  O   UNL A   1      41.748  24.127  26.497  1.00  0.00    -0.269 OA
BRANCH  28  31
ATOM     31  C   UNL A   1      40.327  25.629  27.616  1.00  0.00     0.039 A 
ATOM     32  C   UNL A   1      39.386  25.498  28.639  1.00  0.00     0.014 A 
ATOM     33  C   UNL A   1      41.085  26.795  27.488  1.00  0.00     0.014 A 
ATOM     34  C   UNL A   1      39.272  26.506  29.597  1.00  0.00     0.010 A 
ATOM     35  C   UNL A   1      41.031  27.755  28.491  1.00  0.00     0.010 A 
ATOM     36  C   UNL A   1      40.131  27.617  29.559  1.00  0.00    -0.014 A 
BRANCH  36  37
ATOM     37  C   UNL A   1      40.114  28.648  30.626  1.00  0.00     0.031 A 
ATOM     38  C   UNL A   1      41.027  28.507  31.812  1.00  0.00     0.074 A 
ATOM     39  C   UNL A   1      39.219  29.655  30.572  1.00  0.00     0.049 A 
ATOM     40  N   UNL A   1      41.084  29.229  32.901  1.00  0.00    -0.248 NA
ATOM     41  C   UNL A   1      41.974  27.380  31.789  1.00  0.00     0.031 C 
ATOM     42  C   UNL A   1      38.235  29.861  29.505  1.00  0.00     0.029 A 
ATOM     43  N   UNL A   1      38.980  30.687  31.444  1.00  0.00    -0.354 N 
ATOM     44  C   UNL A   1      42.048  28.628  33.702  1.00  0.00     0.074 A 
ATOM     45  C   UNL A   1      42.512  27.453  32.997  1.00  0.00     0.031 C 
ATOM     46  C   UNL A   1      37.519  30.966  29.774  1.00  0.00     0.029 A 
ATOM     47  C   UNL A   1      37.967  31.527  31.044  1.00  0.00     0.049 A 
ATOM     48  H   UNL A   1      39.487  30.815  32.278  1.00  0.00     0.167 HD
ATOM     49  C   UNL A   1      42.522  29.033  34.903  1.00  0.00     0.037 A 
ATOM     50  C   UNL A   1      37.457  32.624  31.636  1.00  0.00     0.037 A 
ATOM     51  C   UNL A   1      42.093  30.230  35.574  1.00  0.00     0.049 A 
ATOM     52  C   UNL A   1      38.034  33.082  32.948  1.00  0.00     0.074 A 
ATOM     53  C   UNL A   1      42.559  30.765  36.762  1.00  0.00     0.029 A 
ATOM     54  N   UNL A   1      41.104  31.084  35.109  1.00  0.00    -0.354 N 
ATOM     55  N   UNL A   1      38.984  32.531  33.665  1.00  0.00    -0.248 NA
ATOM     56  C   UNL A   1      37.477  34.311  33.526  1.00  0.00     0.031 C 
ATOM     57  C   UNL A   1      41.836  31.935  37.026  1.00  0.00     0.029 A 
ATOM     58  C   UNL A   1      40.943  32.142  35.987  1.00  0.00     0.049 A 
ATOM     59  H   UNL A   1      40.593  30.957  34.278  1.00  0.00     0.167 HD
ATOM     60  C   UNL A   1      39.155  33.360  34.767  1.00  0.00     0.074 A 
ATOM     61  C   UNL A   1      38.217  34.454  34.618  1.00  0.00     0.031 C 
ATOM     62  C   UNL A   1      40.011  33.228  35.810  1.00  0.00     0.037 A 
BRANCH  49  63
ATOM     63  C   UNL A   1      43.572  28.178  35.552  1.00  0.00     0.058 A 
ATOM     64  C   UNL A   1      43.234  27.165  36.465  1.00  0.00     0.135 A 
ATOM     65  C   UNL A   1      44.932  28.364  35.256  1.00  0.00     0.135 A 
ATOM     66  F   UNL A   1      41.950  26.958  36.797  1.00  0.00    -0.206 F 
ATOM     67  C   UNL A   1      44.207  26.393  37.089  1.00  0.00     0.059 A 
ATOM     68  C   UNL A   1      45.922  27.585  35.848  1.00  0.00     0.059 A 
ATOM     69  F   UNL A   1      45.311  29.320  34.392  1.00  0.00    -0.206 F 
ATOM     70  C   UNL A   1      45.549  26.614  36.778  1.00  0.00     0.060 A 
BRANCH  70  71
ATOM     71  S   UNL A   1      46.803  25.609  37.599  1.00  0.00     0.124 S 
ATOM     72  O   UNL A   1      46.836  24.429  36.740  1.00  0.00    -0.237 OA
ATOM     73  O   UNL A   1      47.983  26.467  37.543  1.00  0.00    -0.237 OA
ATOM     74  O   UNL A   1      46.248  25.399  38.933  1.00  0.00    -0.744 OA
ENDBRANCH  70  71
ENDBRANCH  49  63
BRANCH  50  75
ATOM     75  C   UNL A   1      36.366  33.386  30.975  1.00  0.00     0.058 A 
ATOM     76  C   UNL A   1      35.060  33.359  31.490  1.00  0.00     0.135 A 
ATOM     77  C   UNL A   1      36.602  34.164  29.832  1.00  0.00     0.135 A 
ATOM     78  F   UNL A   1      34.785  32.626  32.578  1.00  0.00    -0.206 F 
ATOM     79  C   UNL A   1      34.025  34.066  30.887  1.00  0.00     0.059 A 
ATOM     80  C   UNL A   1      35.587  34.896  29.223  1.00  0.00     0.059 A 
ATOM     81  F   UNL A   1      37.838  34.236  29.313  1.00  0.00    -0.206 F 
ATOM     82  C   UNL A   1      34.299  34.832  29.754  1.00  0.00     0.060 A 
BRANCH  82  83
ATOM     83  S   UNL A   1      32.959  35.788  29.008  1.00  0.00     0.124 S 
ATOM     84  O   UNL A   1      32.373  34.812  28.098  1.00  0.00    -0.237 OA
ATOM     85  O   UNL A   1      32.151  36.147  30.170  1.00  0.00    -0.237 OA
ATOM     86  O   UNL A   1      33.658  36.904  28.376  1.00  0.00    -0.744 OA
ENDBRANCH  82  83
ENDBRANCH  50  75
BRANCH  62  87
ATOM     87  C   UNL A   1      39.998  34.307  36.854  1.00  0.00     0.058 A 
ATOM     88  C   UNL A   1      40.831  35.432  36.757  1.00  0.00     0.135 A 
ATOM     89  C   UNL A   1      39.100  34.241  37.931  1.00  0.00     0.135 A 
ATOM     90  F   UNL A   1      41.709  35.537  35.747  1.00  0.00    -0.206 F 
ATOM     91  C   UNL A   1      40.785  36.449  37.703  1.00  0.00     0.059 A 
ATOM     92  C   UNL A   1      39.023  35.256  38.877  1.00  0.00     0.059 A 
ATOM     93  F   UNL A   1      38.277  33.188  38.061  1.00  0.00    -0.206 F 
ATOM     94  C   UNL A   1      39.877  36.353  38.760  1.00  0.00     0.060 A 
BRANCH  94  95
ATOM     95  S   UNL A   1      39.797  37.699  39.961  1.00  0.00     0.124 S 
ATOM     96  O   UNL A   1      40.994  38.462  39.626  1.00  0.00    -0.237 OA
ATOM     97  O   UNL A   1      38.525  38.337  39.634  1.00  0.00    -0.237 OA
ATOM     98  O   UNL A   1      39.831  37.006  41.246  1.00  0.00    -0.744 OA
ENDBRANCH  94  95
ENDBRANCH  62  87
ENDBRANCH  36  37
ENDBRANCH  28  31
ENDBRANCH  26  27
ENDBRANCH   1  26
TORSDOF 16
ENDMDL
