MODEL 1
REMARK VINA RESULT:     -11.1      0.000      0.000
REMARK SMILES Cc1cc(Br)cnc1Sc1nc(CC(=O)NCCCCNC(=O)c2ccc(-c3c4nc(c(-c5c(F)cc(S(=O)(=O)[O-])cc5F)c5ccc([nH]5)c(-c5c(F)cc(S(=O)(=O)[O-])cc5F)c5nc(c(-c6c(F)cc(S(=O)(=O)[O-])cc6F)c6ccc3[nH]6)C=C5)C=C4)cc2)cs1
REMARK SMILES IDX 18 1 17 2 16 3 14 4 15 5 13 7 12 8 10 9 11 10 91 11 90 12
REMARK SMILES IDX 9 13 8 14 1 15 2 16 3 17 4 18 7 19 5 20 6 21 19 22 20 23
REMARK SMILES IDX 21 24 22 25 23 27 24 28 25 29 89 30 26 31 88 32 27 33 28 34
REMARK SMILES IDX 29 35 82 36 30 37 87 38 81 39 83 40 31 41 86 42 80 43 79 44
REMARK SMILES IDX 32 46 66 47 45 48 65 49 46 50 49 51 64 52 84 53 47 54 48 55
REMARK SMILES IDX 63 57 85 58 50 59 33 60 34 61 43 62 35 63 36 64 42 65 44 66
REMARK SMILES IDX 37 67 38 68 39 69 40 70 41 71 67 72 68 73 77 74 69 75 70 76
REMARK SMILES IDX 76 77 78 78 71 79 72 80 73 81 74 82 75 83 51 84 52 85 61 86
REMARK SMILES IDX 53 87 54 88 60 89 62 90 55 91 56 92 57 93 58 94 59 95
REMARK H PARENT 16 6 21 26 83 45 49 56
REMARK Flexibility Score: inf
ROOT
ATOM      1  C   UNL A   1      33.818  28.934  24.629  1.00  0.00     0.023 C 
ENDROOT
BRANCH   1   2
ATOM      2  C   UNL A   1      33.179  28.802  23.246  1.00  0.00     0.116 C 
BRANCH   2   3
ATOM      3  N   UNL A   1      33.722  27.676  22.507  1.00  0.00    -0.356 N 
ATOM      4  C   UNL A   1      33.056  26.590  22.013  1.00  0.00     0.226 C 
ATOM      5  O   UNL A   1      33.704  25.679  21.495  1.00  0.00    -0.275 OA
ATOM      6  H   UNL A   1      34.693  27.699  22.342  1.00  0.00     0.163 HD
BRANCH   4   7
ATOM      7  C   UNL A   1      31.544  26.540  22.075  1.00  0.00     0.157 C 
BRANCH   7   8
ATOM      8  C   UNL A   1      31.040  26.022  23.380  1.00  0.00     0.062 A 
ATOM      9  C   UNL A   1      30.907  24.459  24.951  1.00  0.00     0.156 A 
ATOM     10  N   UNL A   1      31.384  24.727  23.756  1.00  0.00    -0.234 NA
ATOM     11  S   UNL A   1      29.942  25.698  25.649  1.00  0.00    -0.116 S 
ATOM     12  C   UNL A   1      30.255  26.697  24.296  1.00  0.00     0.092 A 
BRANCH   9  13
ATOM     13  S   UNL A   1      31.144  22.944  25.754  1.00  0.00    -0.039 SA
BRANCH  13  14
ATOM     14  C   UNL A   1      32.845  22.479  25.523  1.00  0.00     0.106 A 
ATOM     15  C   UNL A   1      32.691  20.455  23.915  1.00  0.00     0.047 C 
ATOM     16  C   UNL A   1      33.425  21.477  24.729  1.00  0.00    -0.017 A 
ATOM     17  C   UNL A   1      34.835  21.383  24.697  1.00  0.00     0.023 A 
ATOM     18  C   UNL A   1      35.623  22.286  25.390  1.00  0.00     0.036 A 
ATOM     19  N   UNL A   1      33.640  23.359  26.204  1.00  0.00    -0.248 NA
ATOM     20  Br  UNL A   1      37.501  22.198  25.305  1.00  0.00    -0.049 Br
ATOM     21  C   UNL A   1      34.985  23.255  26.126  1.00  0.00     0.128 A 
ENDBRANCH  13  14
ENDBRANCH   9  13
ENDBRANCH   7   8
ENDBRANCH   4   7
ENDBRANCH   2   3
ENDBRANCH   1   2
BRANCH   1  22
ATOM     22  C   UNL A   1      33.120  28.142  25.736  1.00  0.00     0.023 C 
BRANCH  22  23
ATOM     23  C   UNL A   1      33.642  28.398  27.144  1.00  0.00     0.116 C 
BRANCH  23  24
ATOM     24  N   UNL A   1      33.533  29.790  27.550  1.00  0.00    -0.352 N 
ATOM     25  C   UNL A   1      34.482  30.586  28.144  1.00  0.00     0.251 C 
ATOM     26  H   UNL A   1      32.665  30.219  27.376  1.00  0.00     0.163 HD
ATOM     27  O   UNL A   1      34.187  31.716  28.527  1.00  0.00    -0.269 OA
BRANCH  25  28
ATOM     28  C   UNL A   1      35.848  30.062  28.354  1.00  0.00     0.039 A 
ATOM     29  C   UNL A   1      36.762  30.122  27.298  1.00  0.00     0.014 A 
ATOM     30  C   UNL A   1      36.234  29.542  29.592  1.00  0.00     0.014 A 
ATOM     31  C   UNL A   1      38.084  29.726  27.507  1.00  0.00     0.010 A 
ATOM     32  C   UNL A   1      37.568  29.212  29.818  1.00  0.00     0.010 A 
ATOM     33  C   UNL A   1      38.507  29.303  28.778  1.00  0.00    -0.014 A 
BRANCH  33  34
ATOM     34  C   UNL A   1      39.927  28.960  29.044  1.00  0.00     0.031 A 
ATOM     35  C   UNL A   1      40.861  29.996  29.607  1.00  0.00     0.074 A 
ATOM     36  C   UNL A   1      40.391  27.739  28.713  1.00  0.00     0.049 A 
ATOM     37  N   UNL A   1      42.147  29.914  29.831  1.00  0.00    -0.248 NA
ATOM     38  C   UNL A   1      40.278  31.307  29.937  1.00  0.00     0.031 C 
ATOM     39  C   UNL A   1      39.595  26.666  28.111  1.00  0.00     0.029 A 
ATOM     40  N   UNL A   1      41.647  27.197  28.820  1.00  0.00    -0.354 N 
ATOM     41  C   UNL A   1      42.529  31.162  30.309  1.00  0.00     0.074 A 
ATOM     42  C   UNL A   1      41.350  31.998  30.300  1.00  0.00     0.031 C 
ATOM     43  C   UNL A   1      40.378  25.591  27.919  1.00  0.00     0.029 A 
ATOM     44  C   UNL A   1      41.737  25.908  28.349  1.00  0.00     0.049 A 
ATOM     45  H   UNL A   1      42.414  27.686  29.199  1.00  0.00     0.167 HD
ATOM     46  C   UNL A   1      43.748  31.566  30.739  1.00  0.00     0.037 A 
ATOM     47  C   UNL A   1      42.795  25.078  28.264  1.00  0.00     0.037 A 
ATOM     48  C   UNL A   1      44.912  30.719  30.778  1.00  0.00     0.049 A 
ATOM     49  C   UNL A   1      44.136  25.547  28.761  1.00  0.00     0.074 A 
ATOM     50  C   UNL A   1      46.176  31.016  31.255  1.00  0.00     0.029 A 
ATOM     51  N   UNL A   1      44.954  29.409  30.323  1.00  0.00    -0.354 N 
ATOM     52  N   UNL A   1      44.464  26.710  29.270  1.00  0.00    -0.248 NA
ATOM     53  C   UNL A   1      45.248  24.590  28.677  1.00  0.00     0.031 C 
ATOM     54  C   UNL A   1      46.994  29.897  31.055  1.00  0.00     0.029 A 
ATOM     55  C   UNL A   1      46.227  28.889  30.495  1.00  0.00     0.049 A 
ATOM     56  H   UNL A   1      44.192  28.920  29.937  1.00  0.00     0.167 HD
ATOM     57  C   UNL A   1      45.814  26.616  29.593  1.00  0.00     0.074 A 
ATOM     58  C   UNL A   1      46.236  25.278  29.231  1.00  0.00     0.031 C 
ATOM     59  C   UNL A   1      46.629  27.551  30.140  1.00  0.00     0.037 A 
BRANCH  46  60
ATOM     60  C   UNL A   1      43.886  32.985  31.215  1.00  0.00     0.058 A 
ATOM     61  C   UNL A   1      44.332  34.008  30.362  1.00  0.00     0.135 A 
ATOM     62  C   UNL A   1      43.530  33.337  32.527  1.00  0.00     0.135 A 
ATOM     63  F   UNL A   1      44.701  33.724  29.103  1.00  0.00    -0.206 F 
ATOM     64  C   UNL A   1      44.442  35.323  30.799  1.00  0.00     0.059 A 
ATOM     65  C   UNL A   1      43.607  34.652  32.978  1.00  0.00     0.059 A 
ATOM     66  F   UNL A   1      43.099  32.398  33.386  1.00  0.00    -0.206 F 
ATOM     67  C   UNL A   1      44.077  35.635  32.110  1.00  0.00     0.060 A 
BRANCH  67  68
ATOM     68  S   UNL A   1      44.213  37.350  32.657  1.00  0.00     0.124 S 
ATOM     69  O   UNL A   1      43.890  38.072  31.430  1.00  0.00    -0.237 OA
ATOM     70  O   UNL A   1      43.211  37.422  33.715  1.00  0.00    -0.237 OA
ATOM     71  O   UNL A   1      45.598  37.458  33.101  1.00  0.00    -0.744 OA
ENDBRANCH  67  68
ENDBRANCH  46  60
BRANCH  47  72
ATOM     72  C   UNL A   1      42.626  23.711  27.704  1.00  0.00     0.058 A 
ATOM     73  C   UNL A   1      42.447  22.603  28.547  1.00  0.00     0.135 A 
ATOM     74  C   UNL A   1      42.641  23.483  26.320  1.00  0.00     0.135 A 
ATOM     75  F   UNL A   1      42.433  22.770  29.878  1.00  0.00    -0.206 F 
ATOM     76  C   UNL A   1      42.309  21.316  28.039  1.00  0.00     0.059 A 
ATOM     77  C   UNL A   1      42.479  22.207  25.788  1.00  0.00     0.059 A 
ATOM     78  F   UNL A   1      42.791  24.511  25.471  1.00  0.00    -0.206 F 
ATOM     79  C   UNL A   1      42.327  21.128  26.657  1.00  0.00     0.060 A 
BRANCH  79  80
ATOM     80  S   UNL A   1      42.109  19.458  26.006  1.00  0.00     0.124 S 
ATOM     81  O   UNL A   1      42.594  18.645  27.115  1.00  0.00    -0.237 OA
ATOM     82  O   UNL A   1      40.672  19.408  25.757  1.00  0.00    -0.237 OA
ATOM     83  O   UNL A   1      42.944  19.455  24.808  1.00  0.00    -0.744 OA
ENDBRANCH  79  80
ENDBRANCH  47  72
BRANCH  59  84
ATOM     84  C   UNL A   1      48.051  27.154  30.415  1.00  0.00     0.058 A 
ATOM     85  C   UNL A   1      49.086  27.448  29.514  1.00  0.00     0.135 A 
ATOM     86  C   UNL A   1      48.390  26.520  31.621  1.00  0.00     0.135 A 
ATOM     87  F   UNL A   1      48.815  28.048  28.345  1.00  0.00    -0.206 F 
ATOM     88  C   UNL A   1      50.407  27.107  29.790  1.00  0.00     0.059 A 
ATOM     89  C   UNL A   1      49.707  26.192  31.929  1.00  0.00     0.059 A 
ATOM     90  F   UNL A   1      47.438  26.225  32.520  1.00  0.00    -0.206 F 
ATOM     91  C   UNL A   1      50.707  26.480  31.002  1.00  0.00     0.060 A 
BRANCH  91  92
ATOM     92  S   UNL A   1      52.429  26.076  31.364  1.00  0.00     0.124 S 
ATOM     93  O   UNL A   1      52.299  24.755  31.968  1.00  0.00    -0.237 OA
ATOM     94  O   UNL A   1      53.046  26.112  30.041  1.00  0.00    -0.237 OA
ATOM     95  O   UNL A   1      52.844  27.143  32.270  1.00  0.00    -0.744 OA
ENDBRANCH  91  92
ENDBRANCH  59  84
ENDBRANCH  33  34
ENDBRANCH  25  28
ENDBRANCH  23  24
ENDBRANCH  22  23
ENDBRANCH   1  22
TORSDOF 17
ENDMDL
MODEL 2
REMARK VINA RESULT:     -10.8      2.755      3.503
REMARK SMILES Cc1cc(Br)cnc1Sc1nc(CC(=O)NCCCCNC(=O)c2ccc(-c3c4nc(c(-c5c(F)cc(S(=O)(=O)[O-])cc5F)c5ccc([nH]5)c(-c5c(F)cc(S(=O)(=O)[O-])cc5F)c5nc(c(-c6c(F)cc(S(=O)(=O)[O-])cc6F)c6ccc3[nH]6)C=C5)C=C4)cc2)cs1
REMARK SMILES IDX 18 1 17 2 16 3 14 4 15 5 13 7 12 8 10 9 11 10 91 11 90 12
REMARK SMILES IDX 9 13 8 14 1 15 2 16 3 17 4 18 7 19 5 20 6 21 19 22 20 23
REMARK SMILES IDX 21 24 22 25 23 27 24 28 25 29 89 30 26 31 88 32 27 33 28 34
REMARK SMILES IDX 29 35 82 36 30 37 87 38 81 39 83 40 31 41 86 42 80 43 79 44
REMARK SMILES IDX 32 46 66 47 45 48 65 49 46 50 49 51 64 52 84 53 47 54 48 55
REMARK SMILES IDX 63 57 85 58 50 59 33 60 34 61 43 62 35 63 36 64 42 65 44 66
REMARK SMILES IDX 37 67 38 68 39 69 40 70 41 71 67 72 68 73 77 74 69 75 70 76
REMARK SMILES IDX 76 77 78 78 71 79 72 80 73 81 74 82 75 83 51 84 52 85 61 86
REMARK SMILES IDX 53 87 54 88 60 89 62 90 55 91 56 92 57 93 58 94 59 95
REMARK H PARENT 16 6 21 26 83 45 49 56
REMARK Flexibility Score: inf
ROOT
ATOM      1  C   UNL A   1      33.553  28.362  25.807  1.00  0.00     0.023 C 
ENDROOT
BRANCH   1   2
ATOM      2  C   UNL A   1      32.095  28.268  25.356  1.00  0.00     0.116 C 
BRANCH   2   3
ATOM      3  N   UNL A   1      31.360  27.272  26.115  1.00  0.00    -0.356 N 
ATOM      4  C   UNL A   1      30.511  26.311  25.645  1.00  0.00     0.226 C 
ATOM      5  O   UNL A   1      29.895  25.613  26.453  1.00  0.00    -0.275 OA
ATOM      6  H   UNL A   1      31.490  27.294  27.092  1.00  0.00     0.163 HD
BRANCH   4   7
ATOM      7  C   UNL A   1      30.369  26.093  24.154  1.00  0.00     0.157 C 
BRANCH   7   8
ATOM      8  C   UNL A   1      31.377  25.134  23.616  1.00  0.00     0.062 A 
ATOM      9  C   UNL A   1      32.597  23.285  23.759  1.00  0.00     0.156 A 
ATOM     10  N   UNL A   1      31.751  24.052  24.408  1.00  0.00    -0.234 NA
ATOM     11  S   UNL A   1      33.069  23.860  22.210  1.00  0.00    -0.116 S 
ATOM     12  C   UNL A   1      32.000  25.185  22.383  1.00  0.00     0.092 A 
BRANCH   9  13
ATOM     13  S   UNL A   1      33.274  21.836  24.424  1.00  0.00    -0.039 SA
BRANCH  13  14
ATOM     14  C   UNL A   1      34.941  22.206  24.920  1.00  0.00     0.106 A 
ATOM     15  C   UNL A   1      34.777  24.650  25.763  1.00  0.00     0.047 C 
ATOM     16  C   UNL A   1      35.494  23.360  25.498  1.00  0.00    -0.017 A 
ATOM     17  C   UNL A   1      36.862  23.341  25.849  1.00  0.00     0.023 A 
ATOM     18  C   UNL A   1      37.625  22.199  25.673  1.00  0.00     0.036 A 
ATOM     19  N   UNL A   1      35.711  21.089  24.751  1.00  0.00    -0.248 NA
ATOM     20  Br  UNL A   1      39.434  22.153  26.191  1.00  0.00    -0.049 Br
ATOM     21  C   UNL A   1      37.010  21.100  25.124  1.00  0.00     0.128 A 
ENDBRANCH  13  14
ENDBRANCH   9  13
ENDBRANCH   7   8
ENDBRANCH   4   7
ENDBRANCH   2   3
ENDBRANCH   1   2
BRANCH   1  22
ATOM     22  C   UNL A   1      33.749  28.834  27.248  1.00  0.00     0.023 C 
BRANCH  22  23
ATOM     23  C   UNL A   1      35.151  29.327  27.584  1.00  0.00     0.116 C 
BRANCH  23  24
ATOM     24  N   UNL A   1      35.193  30.170  28.769  1.00  0.00    -0.352 N 
ATOM     25  C   UNL A   1      36.249  30.407  29.615  1.00  0.00     0.251 C 
ATOM     26  H   UNL A   1      34.354  30.631  28.994  1.00  0.00     0.163 HD
ATOM     27  O   UNL A   1      36.081  31.062  30.641  1.00  0.00    -0.269 OA
BRANCH  25  28
ATOM     28  C   UNL A   1      37.577  29.838  29.302  1.00  0.00     0.039 A 
ATOM     29  C   UNL A   1      37.986  29.776  27.967  1.00  0.00     0.014 A 
ATOM     30  C   UNL A   1      38.426  29.399  30.321  1.00  0.00     0.014 A 
ATOM     31  C   UNL A   1      39.275  29.337  27.661  1.00  0.00     0.010 A 
ATOM     32  C   UNL A   1      39.733  29.026  30.019  1.00  0.00     0.010 A 
ATOM     33  C   UNL A   1      40.171  28.994  28.686  1.00  0.00    -0.014 A 
BRANCH  33  34
ATOM     34  C   UNL A   1      41.574  28.608  28.387  1.00  0.00     0.031 A 
ATOM     35  C   UNL A   1      42.655  29.654  28.358  1.00  0.00     0.074 A 
ATOM     36  C   UNL A   1      41.860  27.329  28.072  1.00  0.00     0.049 A 
ATOM     37  N   UNL A   1      43.917  29.528  28.039  1.00  0.00    -0.248 NA
ATOM     38  C   UNL A   1      42.259  31.028  28.708  1.00  0.00     0.031 C 
ATOM     39  C   UNL A   1      40.889  26.234  28.013  1.00  0.00     0.029 A 
ATOM     40  N   UNL A   1      43.048  26.735  27.726  1.00  0.00    -0.354 N 
ATOM     41  C   UNL A   1      44.461  30.803  28.133  1.00  0.00     0.074 A 
ATOM     42  C   UNL A   1      43.383  31.697  28.493  1.00  0.00     0.031 C 
ATOM     43  C   UNL A   1      41.523  25.100  27.671  1.00  0.00     0.029 A 
ATOM     44  C   UNL A   1      42.936  25.392  27.450  1.00  0.00     0.049 A 
ATOM     45  H   UNL A   1      43.902  27.224  27.680  1.00  0.00     0.167 HD
ATOM     46  C   UNL A   1      45.747  31.190  27.957  1.00  0.00     0.037 A 
ATOM     47  C   UNL A   1      43.864  24.499  27.055  1.00  0.00     0.037 A 
ATOM     48  C   UNL A   1      46.823  30.290  27.632  1.00  0.00     0.049 A 
ATOM     49  C   UNL A   1      45.289  24.951  26.880  1.00  0.00     0.074 A 
ATOM     50  C   UNL A   1      48.170  30.574  27.496  1.00  0.00     0.029 A 
ATOM     51  N   UNL A   1      46.675  28.931  27.393  1.00  0.00    -0.354 N 
ATOM     52  N   UNL A   1      45.797  26.151  27.035  1.00  0.00    -0.248 NA
ATOM     53  C   UNL A   1      46.267  23.929  26.481  1.00  0.00     0.031 C 
ATOM     54  C   UNL A   1      48.833  29.394  27.138  1.00  0.00     0.029 A 
ATOM     55  C   UNL A   1      47.904  28.366  27.095  1.00  0.00     0.049 A 
ATOM     56  H   UNL A   1      45.822  28.441  27.431  1.00  0.00     0.167 HD
ATOM     57  C   UNL A   1      47.158  26.022  26.781  1.00  0.00     0.074 A 
ATOM     58  C   UNL A   1      47.395  24.627  26.472  1.00  0.00     0.031 C 
ATOM     59  C   UNL A   1      48.125  26.973  26.802  1.00  0.00     0.037 A 
BRANCH  46  60
ATOM     60  C   UNL A   1      46.067  32.649  28.125  1.00  0.00     0.058 A 
ATOM     61  C   UNL A   1      45.939  33.558  27.062  1.00  0.00     0.135 A 
ATOM     62  C   UNL A   1      46.468  33.154  29.373  1.00  0.00     0.135 A 
ATOM     63  F   UNL A   1      45.576  33.126  25.844  1.00  0.00    -0.206 F 
ATOM     64  C   UNL A   1      46.219  34.910  27.224  1.00  0.00     0.059 A 
ATOM     65  C   UNL A   1      46.727  34.509  29.564  1.00  0.00     0.059 A 
ATOM     66  F   UNL A   1      46.608  32.329  30.423  1.00  0.00    -0.206 F 
ATOM     67  C   UNL A   1      46.612  35.376  28.479  1.00  0.00     0.060 A 
BRANCH  67  68
ATOM     68  S   UNL A   1      46.958  37.137  28.675  1.00  0.00     0.124 S 
ATOM     69  O   UNL A   1      46.006  37.726  27.738  1.00  0.00    -0.237 OA
ATOM     70  O   UNL A   1      46.673  37.357  30.089  1.00  0.00    -0.237 OA
ATOM     71  O   UNL A   1      48.363  37.253  28.297  1.00  0.00    -0.744 OA
ENDBRANCH  67  68
ENDBRANCH  46  60
BRANCH  47  72
ATOM     72  C   UNL A   1      43.481  23.082  26.817  1.00  0.00     0.058 A 
ATOM     73  C   UNL A   1      43.175  22.228  27.888  1.00  0.00     0.135 A 
ATOM     74  C   UNL A   1      43.412  22.553  25.519  1.00  0.00     0.135 A 
ATOM     75  F   UNL A   1      43.234  22.686  29.147  1.00  0.00    -0.206 F 
ATOM     76  C   UNL A   1      42.836  20.895  27.682  1.00  0.00     0.059 A 
ATOM     77  C   UNL A   1      43.050  21.230  25.287  1.00  0.00     0.059 A 
ATOM     78  F   UNL A   1      43.677  23.334  24.460  1.00  0.00    -0.206 F 
ATOM     79  C   UNL A   1      42.777  20.405  26.377  1.00  0.00     0.060 A 
BRANCH  79  80
ATOM     80  S   UNL A   1      42.298  18.683  26.119  1.00  0.00     0.124 S 
ATOM     81  O   UNL A   1      40.889  18.819  25.768  1.00  0.00    -0.237 OA
ATOM     82  O   UNL A   1      43.189  18.275  25.037  1.00  0.00    -0.237 OA
ATOM     83  O   UNL A   1      42.571  18.062  27.412  1.00  0.00    -0.744 OA
ENDBRANCH  79  80
ENDBRANCH  47  72
BRANCH  59  84
ATOM     84  C   UNL A   1      49.533  26.534  26.518  1.00  0.00     0.058 A 
ATOM     85  C   UNL A   1      50.344  25.969  27.514  1.00  0.00     0.135 A 
ATOM     86  C   UNL A   1      50.059  26.631  25.220  1.00  0.00     0.135 A 
ATOM     87  F   UNL A   1      49.892  25.859  28.773  1.00  0.00    -0.206 F 
ATOM     88  C   UNL A   1      51.637  25.534  27.238  1.00  0.00     0.059 A 
ATOM     89  C   UNL A   1      51.339  26.179  24.915  1.00  0.00     0.059 A 
ATOM     90  F   UNL A   1      49.320  27.156  24.229  1.00  0.00    -0.206 F 
ATOM     91  C   UNL A   1      52.124  25.642  25.933  1.00  0.00     0.060 A 
BRANCH  91  92
ATOM     92  S   UNL A   1      53.789  25.040  25.578  1.00  0.00     0.124 S 
ATOM     93  O   UNL A   1      53.532  23.642  25.253  1.00  0.00    -0.237 OA
ATOM     94  O   UNL A   1      54.198  25.887  24.461  1.00  0.00    -0.237 OA
ATOM     95  O   UNL A   1      54.508  25.274  26.828  1.00  0.00    -0.744 OA
ENDBRANCH  91  92
ENDBRANCH  59  84
ENDBRANCH  33  34
ENDBRANCH  25  28
ENDBRANCH  23  24
ENDBRANCH  22  23
ENDBRANCH   1  22
TORSDOF 17
ENDMDL
MODEL 3
REMARK VINA RESULT:     -10.8      2.837      3.734
REMARK SMILES Cc1cc(Br)cnc1Sc1nc(CC(=O)NCCCCNC(=O)c2ccc(-c3c4nc(c(-c5c(F)cc(S(=O)(=O)[O-])cc5F)c5ccc([nH]5)c(-c5c(F)cc(S(=O)(=O)[O-])cc5F)c5nc(c(-c6c(F)cc(S(=O)(=O)[O-])cc6F)c6ccc3[nH]6)C=C5)C=C4)cc2)cs1
REMARK SMILES IDX 18 1 17 2 16 3 14 4 15 5 13 7 12 8 10 9 11 10 91 11 90 12
REMARK SMILES IDX 9 13 8 14 1 15 2 16 3 17 4 18 7 19 5 20 6 21 19 22 20 23
REMARK SMILES IDX 21 24 22 25 23 27 24 28 25 29 89 30 26 31 88 32 27 33 28 34
REMARK SMILES IDX 29 35 82 36 30 37 87 38 81 39 83 40 31 41 86 42 80 43 79 44
REMARK SMILES IDX 32 46 66 47 45 48 65 49 46 50 49 51 64 52 84 53 47 54 48 55
REMARK SMILES IDX 63 57 85 58 50 59 33 60 34 61 43 62 35 63 36 64 42 65 44 66
REMARK SMILES IDX 37 67 38 68 39 69 40 70 41 71 67 72 68 73 77 74 69 75 70 76
REMARK SMILES IDX 76 77 78 78 71 79 72 80 73 81 74 82 75 83 51 84 52 85 61 86
REMARK SMILES IDX 53 87 54 88 60 89 62 90 55 91 56 92 57 93 58 94 59 95
REMARK H PARENT 16 6 21 26 83 45 49 56
REMARK Flexibility Score: inf
ROOT
ATOM      1  C   UNL A   1      33.713  29.296  26.153  1.00  0.00     0.023 C 
ENDROOT
BRANCH   1   2
ATOM      2  C   UNL A   1      33.603  28.358  24.950  1.00  0.00     0.116 C 
BRANCH   2   3
ATOM      3  N   UNL A   1      32.296  28.439  24.323  1.00  0.00    -0.356 N 
ATOM      4  C   UNL A   1      31.165  27.741  24.639  1.00  0.00     0.226 C 
ATOM      5  O   UNL A   1      30.167  27.869  23.926  1.00  0.00    -0.275 OA
ATOM      6  H   UNL A   1      32.216  29.075  23.576  1.00  0.00     0.163 HD
BRANCH   4   7
ATOM      7  C   UNL A   1      31.140  26.859  25.869  1.00  0.00     0.157 C 
BRANCH   7   8
ATOM      8  C   UNL A   1      31.385  25.423  25.550  1.00  0.00     0.062 A 
ATOM      9  C   UNL A   1      32.459  23.808  24.469  1.00  0.00     0.156 A 
ATOM     10  N   UNL A   1      32.332  25.111  24.578  1.00  0.00    -0.234 NA
ATOM     11  S   UNL A   1      31.389  22.882  25.445  1.00  0.00    -0.116 S 
ATOM     12  C   UNL A   1      30.772  24.326  26.127  1.00  0.00     0.092 A 
BRANCH   9  13
ATOM     13  S   UNL A   1      33.555  23.047  23.366  1.00  0.00    -0.039 SA
BRANCH  13  14
ATOM     14  C   UNL A   1      35.014  22.608  24.284  1.00  0.00     0.106 A 
ATOM     15  C   UNL A   1      34.642  20.100  24.817  1.00  0.00     0.047 C 
ATOM     16  C   UNL A   1      35.427  21.378  24.821  1.00  0.00    -0.017 A 
ATOM     17  C   UNL A   1      36.687  21.316  25.457  1.00  0.00     0.023 A 
ATOM     18  C   UNL A   1      37.513  22.427  25.505  1.00  0.00     0.036 A 
ATOM     19  N   UNL A   1      35.842  23.694  24.345  1.00  0.00    -0.248 NA
ATOM     20  Br  UNL A   1      39.216  22.333  26.303  1.00  0.00    -0.049 Br
ATOM     21  C   UNL A   1      37.053  23.589  24.937  1.00  0.00     0.128 A 
ENDBRANCH  13  14
ENDBRANCH   9  13
ENDBRANCH   7   8
ENDBRANCH   4   7
ENDBRANCH   2   3
ENDBRANCH   1   2
BRANCH   1  22
ATOM     22  C   UNL A   1      34.694  28.839  27.235  1.00  0.00     0.023 C 
BRANCH  22  23
ATOM     23  C   UNL A   1      35.600  29.930  27.791  1.00  0.00     0.116 C 
BRANCH  23  24
ATOM     24  N   UNL A   1      35.451  30.122  29.224  1.00  0.00    -0.352 N 
ATOM     25  C   UNL A   1      36.410  30.045  30.204  1.00  0.00     0.251 C 
ATOM     26  H   UNL A   1      34.541  30.335  29.534  1.00  0.00     0.163 HD
ATOM     27  O   UNL A   1      36.091  30.124  31.388  1.00  0.00    -0.269 OA
BRANCH  25  28
ATOM     28  C   UNL A   1      37.823  29.828  29.827  1.00  0.00     0.039 A 
ATOM     29  C   UNL A   1      38.727  29.415  30.809  1.00  0.00     0.014 A 
ATOM     30  C   UNL A   1      38.247  30.001  28.506  1.00  0.00     0.014 A 
ATOM     31  C   UNL A   1      40.041  29.108  30.452  1.00  0.00     0.010 A 
ATOM     32  C   UNL A   1      39.538  29.629  28.140  1.00  0.00     0.010 A 
ATOM     33  C   UNL A   1      40.447  29.176  29.109  1.00  0.00    -0.014 A 
BRANCH  33  34
ATOM     34  C   UNL A   1      41.815  28.770  28.695  1.00  0.00     0.031 A 
ATOM     35  C   UNL A   1      42.909  29.797  28.598  1.00  0.00     0.074 A 
ATOM     36  C   UNL A   1      42.051  27.492  28.338  1.00  0.00     0.049 A 
ATOM     37  N   UNL A   1      44.140  29.655  28.178  1.00  0.00    -0.248 NA
ATOM     38  C   UNL A   1      42.568  31.172  28.999  1.00  0.00     0.031 C 
ATOM     39  C   UNL A   1      41.058  26.415  28.340  1.00  0.00     0.029 A 
ATOM     40  N   UNL A   1      43.197  26.883  27.892  1.00  0.00    -0.354 N 
ATOM     41  C   UNL A   1      44.713  30.919  28.249  1.00  0.00     0.074 A 
ATOM     42  C   UNL A   1      43.683  31.826  28.706  1.00  0.00     0.031 C 
ATOM     43  C   UNL A   1      41.641  25.277  27.931  1.00  0.00     0.029 A 
ATOM     44  C   UNL A   1      43.038  25.548  27.604  1.00  0.00     0.049 A 
ATOM     45  H   UNL A   1      44.053  27.359  27.786  1.00  0.00     0.167 HD
ATOM     46  C   UNL A   1      45.988  31.286  27.978  1.00  0.00     0.037 A 
ATOM     47  C   UNL A   1      43.916  24.645  27.124  1.00  0.00     0.037 A 
ATOM     48  C   UNL A   1      47.018  30.373  27.556  1.00  0.00     0.049 A 
ATOM     49  C   UNL A   1      45.330  25.075  26.844  1.00  0.00     0.074 A 
ATOM     50  C   UNL A   1      48.356  30.635  27.319  1.00  0.00     0.029 A 
ATOM     51  N   UNL A   1      46.826  29.021  27.309  1.00  0.00    -0.354 N 
ATOM     52  N   UNL A   1      45.871  26.263  26.978  1.00  0.00    -0.248 NA
ATOM     53  C   UNL A   1      46.255  24.043  26.354  1.00  0.00     0.031 C 
ATOM     54  C   UNL A   1      48.966  29.450  26.892  1.00  0.00     0.029 A 
ATOM     55  C   UNL A   1      48.018  28.440  26.906  1.00  0.00     0.049 A 
ATOM     56  H   UNL A   1      45.970  28.545  27.405  1.00  0.00     0.167 HD
ATOM     57  C   UNL A   1      47.206  26.115  26.615  1.00  0.00     0.074 A 
ATOM     58  C   UNL A   1      47.392  24.721  26.267  1.00  0.00     0.031 C 
ATOM     59  C   UNL A   1      48.189  27.048  26.575  1.00  0.00     0.037 A 
BRANCH  46  60
ATOM     60  C   UNL A   1      46.348  32.736  28.143  1.00  0.00     0.058 A 
ATOM     61  C   UNL A   1      46.841  33.239  29.359  1.00  0.00     0.135 A 
ATOM     62  C   UNL A   1      46.239  33.627  27.063  1.00  0.00     0.135 A 
ATOM     63  F   UNL A   1      46.950  32.434  30.427  1.00  0.00    -0.206 F 
ATOM     64  C   UNL A   1      47.190  34.577  29.504  1.00  0.00     0.059 A 
ATOM     65  C   UNL A   1      46.608  34.965  27.179  1.00  0.00     0.059 A 
ATOM     66  F   UNL A   1      45.772  33.200  25.879  1.00  0.00    -0.206 F 
ATOM     67  C   UNL A   1      47.070  35.432  28.408  1.00  0.00     0.060 A 
BRANCH  67  68
ATOM     68  S   UNL A   1      47.541  37.163  28.610  1.00  0.00     0.124 S 
ATOM     69  O   UNL A   1      47.502  37.307  30.062  1.00  0.00    -0.237 OA
ATOM     70  O   UNL A   1      48.869  37.199  28.006  1.00  0.00    -0.237 OA
ATOM     71  O   UNL A   1      46.504  37.886  27.880  1.00  0.00    -0.744 OA
ENDBRANCH  67  68
ENDBRANCH  46  60
BRANCH  47  72
ATOM     72  C   UNL A   1      43.488  23.239  26.895  1.00  0.00     0.058 A 
ATOM     73  C   UNL A   1      43.305  22.743  25.596  1.00  0.00     0.135 A 
ATOM     74  C   UNL A   1      43.256  22.364  27.967  1.00  0.00     0.135 A 
ATOM     75  F   UNL A   1      43.508  23.544  24.538  1.00  0.00    -0.206 F 
ATOM     76  C   UNL A   1      42.885  21.437  25.367  1.00  0.00     0.059 A 
ATOM     77  C   UNL A   1      42.861  21.046  27.763  1.00  0.00     0.059 A 
ATOM     78  F   UNL A   1      43.436  22.785  29.229  1.00  0.00    -0.206 F 
ATOM     79  C   UNL A   1      42.665  20.596  26.458  1.00  0.00     0.060 A 
BRANCH  79  80
ATOM     80  S   UNL A   1      42.157  18.890  26.149  1.00  0.00     0.124 S 
ATOM     81  O   UNL A   1      43.077  18.498  25.087  1.00  0.00    -0.237 OA
ATOM     82  O   UNL A   1      42.377  18.264  27.448  1.00  0.00    -0.237 OA
ATOM     83  O   UNL A   1      40.757  19.024  25.756  1.00  0.00    -0.744 OA
ENDBRANCH  79  80
ENDBRANCH  47  72
BRANCH  59  84
ATOM     84  C   UNL A   1      49.562  26.590  26.174  1.00  0.00     0.058 A 
ATOM     85  C   UNL A   1      50.029  26.722  24.858  1.00  0.00     0.135 A 
ATOM     86  C   UNL A   1      50.442  26.061  27.133  1.00  0.00     0.135 A 
ATOM     87  F   UNL A   1      49.226  27.216  23.902  1.00  0.00    -0.206 F 
ATOM     88  C   UNL A   1      51.314  26.326  24.500  1.00  0.00     0.059 A 
ATOM     89  C   UNL A   1      51.739  25.683  26.804  1.00  0.00     0.059 A 
ATOM     90  F   UNL A   1      50.047  25.923  28.408  1.00  0.00    -0.206 F 
ATOM     91  C   UNL A   1      52.162  25.808  25.481  1.00  0.00     0.060 A 
BRANCH  91  92
ATOM     92  S   UNL A   1      53.840  25.333  25.013  1.00  0.00     0.124 S 
ATOM     93  O   UNL A   1      53.707  23.887  24.873  1.00  0.00    -0.237 OA
ATOM     94  O   UNL A   1      54.042  26.075  23.771  1.00  0.00    -0.237 OA
ATOM     95  O   UNL A   1      54.648  25.784  26.141  1.00  0.00    -0.744 OA
ENDBRANCH  91  92
ENDBRANCH  59  84
ENDBRANCH  33  34
ENDBRANCH  25  28
ENDBRANCH  23  24
ENDBRANCH  22  23
ENDBRANCH   1  22
TORSDOF 17
ENDMDL
