MODEL 1
REMARK VINA RESULT:     -12.2      0.000      0.000
REMARK SMILES CCC[C@H](Oc1ccccc1C)C(=O)NCCCCNC(=O)c1ccc(-c2c3nc(c(-c4c(F)cc(S(=O)(=O)[O-])cc4F)c4ccc([nH]4)c(-c4c(F)cc(S(=O)(=O)[O-])cc4F)c4nc(c(-c5c(F)cc(S(=O)(=O)[O-])cc5F)c5ccc2[nH]5)C=C4)C=C3)cc1
REMARK SMILES IDX 18 1 17 2 16 3 15 4 13 5 14 6 4 8 3 9 2 10 1 11 5 12 6 13
REMARK SMILES IDX 7 14 11 15 8 16 10 17 12 18 9 19 19 20 20 21 21 22 22 24
REMARK SMILES IDX 23 25 24 26 88 27 25 28 87 29 26 30 27 31 28 32 81 33 29 34
REMARK SMILES IDX 86 35 80 36 82 37 30 38 85 39 79 40 78 41 31 43 65 44 44 45
REMARK SMILES IDX 64 46 45 47 48 48 63 49 83 50 46 51 47 52 62 54 84 55 49 56
REMARK SMILES IDX 32 57 33 58 42 59 34 60 35 61 41 62 43 63 36 64 37 65 38 66
REMARK SMILES IDX 39 67 40 68 66 69 67 70 76 71 68 72 69 73 75 74 77 75 70 76
REMARK SMILES IDX 71 77 72 78 73 79 74 80 50 81 51 82 60 83 52 84 53 85 59 86
REMARK SMILES IDX 61 87 54 88 55 89 56 90 57 91 58 92
REMARK H PARENT 15 7 20 23 82 42 48 53
REMARK Flexibility Score: inf
ROOT
ATOM      1  C   UNL A   1      33.295  29.867  26.383  1.00  0.00     0.023 C 
ENDROOT
BRANCH   1   2
ATOM      2  C   UNL A   1      31.946  29.395  26.924  1.00  0.00     0.023 C 
BRANCH   2   3
ATOM      3  C   UNL A   1      31.986  28.085  27.714  1.00  0.00     0.116 C 
BRANCH   3   4
ATOM      4  N   UNL A   1      31.279  27.007  27.035  1.00  0.00    -0.353 N 
ATOM      5  C   UNL A   1      31.749  26.056  26.177  1.00  0.00     0.261 C 
ATOM      6  O   UNL A   1      30.930  25.273  25.681  1.00  0.00    -0.271 OA
ATOM      7  H   UNL A   1      30.314  26.958  27.225  1.00  0.00     0.163 HD
BRANCH   5   8
ATOM      8  C   UNL A   1      33.244  25.942  25.841  1.00  0.00     0.261 C 
BRANCH   8   9
ATOM      9  C   UNL A   1      33.733  26.882  24.719  1.00  0.00     0.055 C 
BRANCH   9  10
ATOM     10  C   UNL A   1      32.845  27.093  23.487  1.00  0.00     0.001 C 
ATOM     11  C   UNL A   1      33.482  26.723  22.158  1.00  0.00     0.004 C 
ENDBRANCH   9  10
ENDBRANCH   8   9
BRANCH   8  12
ATOM     12  O   UNL A   1      33.416  24.552  25.522  1.00  0.00    -0.480 OA
BRANCH  12  13
ATOM     13  C   UNL A   1      34.595  24.049  25.060  1.00  0.00     0.123 A 
ATOM     14  C   UNL A   1      35.829  24.153  25.702  1.00  0.00     0.047 A 
ATOM     15  C   UNL A   1      34.516  23.388  23.819  1.00  0.00    -0.009 A 
ATOM     16  C   UNL A   1      36.984  23.653  25.095  1.00  0.00     0.004 A 
ATOM     17  C   UNL A   1      35.682  22.895  23.216  1.00  0.00     0.007 A 
ATOM     18  C   UNL A   1      33.200  23.236  23.107  1.00  0.00     0.048 C 
ATOM     19  C   UNL A   1      36.913  23.033  23.850  1.00  0.00     0.001 A 
ENDBRANCH  12  13
ENDBRANCH   8  12
ENDBRANCH   5   8
ENDBRANCH   3   4
ENDBRANCH   2   3
ENDBRANCH   1   2
BRANCH   1  20
ATOM     20  C   UNL A   1      34.465  29.609  27.325  1.00  0.00     0.116 C 
BRANCH  20  21
ATOM     21  N   UNL A   1      35.058  30.818  27.856  1.00  0.00    -0.352 N 
ATOM     22  C   UNL A   1      36.279  30.949  28.521  1.00  0.00     0.251 C 
ATOM     23  H   UNL A   1      34.539  31.647  27.733  1.00  0.00     0.163 HD
ATOM     24  O   UNL A   1      36.617  31.978  29.049  1.00  0.00    -0.269 OA
BRANCH  22  25
ATOM     25  C   UNL A   1      37.183  29.776  28.472  1.00  0.00     0.039 A 
ATOM     26  C   UNL A   1      37.315  29.019  29.639  1.00  0.00     0.014 A 
ATOM     27  C   UNL A   1      38.047  29.597  27.396  1.00  0.00     0.014 A 
ATOM     28  C   UNL A   1      38.434  28.204  29.801  1.00  0.00     0.010 A 
ATOM     29  C   UNL A   1      39.195  28.847  27.586  1.00  0.00     0.010 A 
ATOM     30  C   UNL A   1      39.415  28.196  28.809  1.00  0.00    -0.014 A 
BRANCH  30  31
ATOM     31  C   UNL A   1      40.748  27.633  29.007  1.00  0.00     0.031 A 
ATOM     32  C   UNL A   1      41.029  26.219  28.660  1.00  0.00     0.074 A 
ATOM     33  C   UNL A   1      41.753  28.416  29.458  1.00  0.00     0.049 A 
ATOM     34  N   UNL A   1      42.088  25.582  29.034  1.00  0.00    -0.248 NA
ATOM     35  C   UNL A   1      40.085  25.370  27.934  1.00  0.00     0.031 C 
ATOM     36  C   UNL A   1      43.187  28.149  29.367  1.00  0.00     0.029 A 
ATOM     37  N   UNL A   1      41.663  29.522  30.305  1.00  0.00    -0.354 N 
ATOM     38  C   UNL A   1      42.119  24.388  28.358  1.00  0.00     0.074 A 
ATOM     39  C   UNL A   1      40.793  24.240  27.815  1.00  0.00     0.031 C 
ATOM     40  C   UNL A   1      43.829  28.887  30.283  1.00  0.00     0.029 A 
ATOM     41  C   UNL A   1      42.824  29.540  31.100  1.00  0.00     0.049 A 
ATOM     42  H   UNL A   1      40.924  30.171  30.339  1.00  0.00     0.167 HD
ATOM     43  C   UNL A   1      43.311  23.743  28.213  1.00  0.00     0.037 A 
ATOM     44  C   UNL A   1      42.762  29.448  32.461  1.00  0.00     0.037 A 
ATOM     45  C   UNL A   1      44.302  24.261  29.158  1.00  0.00     0.049 A 
ATOM     46  C   UNL A   1      43.462  28.242  33.043  1.00  0.00     0.074 A 
ATOM     47  C   UNL A   1      45.437  25.042  29.029  1.00  0.00     0.029 A 
ATOM     48  N   UNL A   1      44.045  24.165  30.526  1.00  0.00    -0.354 N 
ATOM     49  N   UNL A   1      43.868  27.221  32.339  1.00  0.00    -0.248 NA
ATOM     50  C   UNL A   1      43.742  28.078  34.467  1.00  0.00     0.031 C 
ATOM     51  C   UNL A   1      45.799  25.500  30.326  1.00  0.00     0.029 A 
ATOM     52  C   UNL A   1      44.916  24.957  31.246  1.00  0.00     0.049 A 
ATOM     53  H   UNL A   1      43.338  23.607  30.923  1.00  0.00     0.167 HD
ATOM     54  C   UNL A   1      44.392  26.263  33.170  1.00  0.00     0.074 A 
ATOM     55  C   UNL A   1      44.330  26.867  34.488  1.00  0.00     0.031 C 
ATOM     56  C   UNL A   1      44.808  25.048  32.698  1.00  0.00     0.037 A 
BRANCH  43  57
ATOM     57  C   UNL A   1      43.654  22.784  27.080  1.00  0.00     0.058 A 
ATOM     58  C   UNL A   1      43.026  21.519  27.000  1.00  0.00     0.135 A 
ATOM     59  C   UNL A   1      44.691  22.974  26.139  1.00  0.00     0.135 A 
ATOM     60  F   UNL A   1      42.031  21.185  27.836  1.00  0.00    -0.206 F 
ATOM     61  C   UNL A   1      43.413  20.526  26.088  1.00  0.00     0.059 A 
ATOM     62  C   UNL A   1      45.060  22.019  25.189  1.00  0.00     0.059 A 
ATOM     63  F   UNL A   1      45.462  24.065  26.126  1.00  0.00    -0.206 F 
ATOM     64  C   UNL A   1      44.439  20.784  25.188  1.00  0.00     0.060 A 
BRANCH  64  65
ATOM     65  S   UNL A   1      44.985  19.502  24.045  1.00  0.00     0.124 S 
ATOM     66  O   UNL A   1      44.299  18.324  24.567  1.00  0.00    -0.237 OA
ATOM     67  O   UNL A   1      44.508  20.000  22.760  1.00  0.00    -0.237 OA
ATOM     68  O   UNL A   1      46.437  19.499  24.207  1.00  0.00    -0.744 OA
ENDBRANCH  64  65
ENDBRANCH  43  57
BRANCH  44  69
ATOM     69  C   UNL A   1      41.577  30.130  33.043  1.00  0.00     0.058 A 
ATOM     70  C   UNL A   1      41.669  31.521  33.241  1.00  0.00     0.135 A 
ATOM     71  C   UNL A   1      40.295  29.568  32.953  1.00  0.00     0.135 A 
ATOM     72  F   UNL A   1      42.874  32.103  33.354  1.00  0.00    -0.206 F 
ATOM     73  C   UNL A   1      40.551  32.342  33.168  1.00  0.00     0.059 A 
ATOM     74  C   UNL A   1      39.158  30.375  32.883  1.00  0.00     0.059 A 
ATOM     75  F   UNL A   1      40.148  28.247  32.769  1.00  0.00    -0.206 F 
ATOM     76  C   UNL A   1      39.311  31.762  32.912  1.00  0.00     0.060 A 
BRANCH  76  77
ATOM     77  S   UNL A   1      37.966  32.859  32.405  1.00  0.00     0.124 S 
ATOM     78  O   UNL A   1      38.491  33.435  31.172  1.00  0.00    -0.237 OA
ATOM     79  O   UNL A   1      36.866  31.909  32.241  1.00  0.00    -0.237 OA
ATOM     80  O   UNL A   1      37.841  33.778  33.529  1.00  0.00    -0.744 OA
ENDBRANCH  76  77
ENDBRANCH  44  69
BRANCH  56  81
ATOM     81  C   UNL A   1      45.219  23.857  33.542  1.00  0.00     0.058 A 
ATOM     82  C   UNL A   1      46.515  23.644  34.046  1.00  0.00     0.135 A 
ATOM     83  C   UNL A   1      44.243  22.928  33.984  1.00  0.00     0.135 A 
ATOM     84  F   UNL A   1      47.507  24.514  33.812  1.00  0.00    -0.206 F 
ATOM     85  C   UNL A   1      46.837  22.553  34.860  1.00  0.00     0.059 A 
ATOM     86  C   UNL A   1      44.531  21.867  34.841  1.00  0.00     0.059 A 
ATOM     87  F   UNL A   1      42.960  23.030  33.605  1.00  0.00    -0.206 F 
ATOM     88  C   UNL A   1      45.840  21.668  35.253  1.00  0.00     0.060 A 
BRANCH  88  89
ATOM     89  S   UNL A   1      46.228  20.293  36.352  1.00  0.00     0.124 S 
ATOM     90  O   UNL A   1      45.498  19.199  35.720  1.00  0.00    -0.237 OA
ATOM     91  O   UNL A   1      47.683  20.207  36.269  1.00  0.00    -0.237 OA
ATOM     92  O   UNL A   1      45.708  20.742  37.640  1.00  0.00    -0.744 OA
ENDBRANCH  88  89
ENDBRANCH  56  81
ENDBRANCH  30  31
ENDBRANCH  22  25
ENDBRANCH  20  21
ENDBRANCH   1  20
TORSDOF 18
ENDMDL
MODEL 2
REMARK VINA RESULT:     -11.7      4.898     11.498
REMARK SMILES CCC[C@H](Oc1ccccc1C)C(=O)NCCCCNC(=O)c1ccc(-c2c3nc(c(-c4c(F)cc(S(=O)(=O)[O-])cc4F)c4ccc([nH]4)c(-c4c(F)cc(S(=O)(=O)[O-])cc4F)c4nc(c(-c5c(F)cc(S(=O)(=O)[O-])cc5F)c5ccc2[nH]5)C=C4)C=C3)cc1
REMARK SMILES IDX 18 1 17 2 16 3 15 4 13 5 14 6 4 8 3 9 2 10 1 11 5 12 6 13
REMARK SMILES IDX 7 14 11 15 8 16 10 17 12 18 9 19 19 20 20 21 21 22 22 24
REMARK SMILES IDX 23 25 24 26 88 27 25 28 87 29 26 30 27 31 28 32 81 33 29 34
REMARK SMILES IDX 86 35 80 36 82 37 30 38 85 39 79 40 78 41 31 43 65 44 44 45
REMARK SMILES IDX 64 46 45 47 48 48 63 49 83 50 46 51 47 52 62 54 84 55 49 56
REMARK SMILES IDX 32 57 33 58 42 59 34 60 35 61 41 62 43 63 36 64 37 65 38 66
REMARK SMILES IDX 39 67 40 68 66 69 67 70 76 71 68 72 69 73 75 74 77 75 70 76
REMARK SMILES IDX 71 77 72 78 73 79 74 80 50 81 51 82 60 83 52 84 53 85 59 86
REMARK SMILES IDX 61 87 54 88 55 89 56 90 57 91 58 92
REMARK H PARENT 15 7 20 23 82 42 48 53
REMARK Flexibility Score: inf
ROOT
ATOM      1  C   UNL A   1      37.108  22.113  25.719  1.00  0.00     0.023 C 
ENDROOT
BRANCH   1   2
ATOM      2  C   UNL A   1      36.644  22.159  24.264  1.00  0.00     0.023 C 
BRANCH   2   3
ATOM      3  C   UNL A   1      35.892  23.431  23.863  1.00  0.00     0.116 C 
BRANCH   3   4
ATOM      4  N   UNL A   1      34.873  23.177  22.853  1.00  0.00    -0.353 N 
ATOM      5  C   UNL A   1      33.513  23.168  22.965  1.00  0.00     0.261 C 
ATOM      6  O   UNL A   1      32.855  22.866  21.962  1.00  0.00    -0.271 OA
ATOM      7  H   UNL A   1      35.219  22.982  21.953  1.00  0.00     0.163 HD
BRANCH   5   8
ATOM      8  C   UNL A   1      32.810  23.533  24.281  1.00  0.00     0.261 C 
BRANCH   8   9
ATOM      9  C   UNL A   1      31.701  22.553  24.721  1.00  0.00     0.055 C 
BRANCH   9  10
ATOM     10  C   UNL A   1      32.101  21.177  25.266  1.00  0.00     0.001 C 
ATOM     11  C   UNL A   1      33.468  21.114  25.926  1.00  0.00     0.004 C 
ENDBRANCH   9  10
ENDBRANCH   8   9
BRANCH   8  12
ATOM     12  O   UNL A   1      32.321  24.864  24.049  1.00  0.00    -0.480 OA
BRANCH  12  13
ATOM     13  C   UNL A   1      32.518  25.879  24.935  1.00  0.00     0.123 A 
ATOM     14  C   UNL A   1      33.755  26.399  25.313  1.00  0.00     0.047 A 
ATOM     15  C   UNL A   1      31.343  26.409  25.505  1.00  0.00    -0.009 A 
ATOM     16  C   UNL A   1      33.832  27.400  26.287  1.00  0.00     0.004 A 
ATOM     17  C   UNL A   1      31.432  27.408  26.484  1.00  0.00     0.007 A 
ATOM     18  C   UNL A   1      29.989  25.889  25.106  1.00  0.00     0.048 C 
ATOM     19  C   UNL A   1      32.673  27.897  26.878  1.00  0.00     0.001 A 
ENDBRANCH  12  13
ENDBRANCH   8  12
ENDBRANCH   5   8
ENDBRANCH   3   4
ENDBRANCH   2   3
ENDBRANCH   1   2
BRANCH   1  20
ATOM     20  C   UNL A   1      37.982  23.293  26.128  1.00  0.00     0.116 C 
BRANCH  20  21
ATOM     21  N   UNL A   1      39.202  22.903  26.801  1.00  0.00    -0.352 N 
ATOM     22  C   UNL A   1      40.114  23.729  27.462  1.00  0.00     0.251 C 
ATOM     23  H   UNL A   1      39.415  21.941  26.792  1.00  0.00     0.163 HD
ATOM     24  O   UNL A   1      41.174  23.323  27.867  1.00  0.00    -0.269 OA
BRANCH  22  25
ATOM     25  C   UNL A   1      39.675  25.122  27.716  1.00  0.00     0.039 A 
ATOM     26  C   UNL A   1      40.185  26.117  26.879  1.00  0.00     0.014 A 
ATOM     27  C   UNL A   1      38.994  25.443  28.886  1.00  0.00     0.014 A 
ATOM     28  C   UNL A   1      40.174  27.443  27.310  1.00  0.00     0.010 A 
ATOM     29  C   UNL A   1      39.050  26.747  29.348  1.00  0.00     0.010 A 
ATOM     30  C   UNL A   1      39.689  27.736  28.585  1.00  0.00    -0.014 A 
BRANCH  30  31
ATOM     31  C   UNL A   1      39.910  29.018  29.250  1.00  0.00     0.031 A 
ATOM     32  C   UNL A   1      38.928  30.120  29.109  1.00  0.00     0.074 A 
ATOM     33  C   UNL A   1      40.989  29.189  30.046  1.00  0.00     0.049 A 
ATOM     34  N   UNL A   1      39.166  31.344  29.446  1.00  0.00    -0.248 NA
ATOM     35  C   UNL A   1      37.617  29.950  28.485  1.00  0.00     0.031 C 
ATOM     36  C   UNL A   1      41.180  30.226  31.058  1.00  0.00     0.029 A 
ATOM     37  N   UNL A   1      42.241  28.582  29.936  1.00  0.00    -0.354 N 
ATOM     38  C   UNL A   1      37.980  32.032  29.384  1.00  0.00     0.074 A 
ATOM     39  C   UNL A   1      37.095  31.172  28.643  1.00  0.00     0.031 C 
ATOM     40  C   UNL A   1      42.490  30.353  31.312  1.00  0.00     0.029 A 
ATOM     41  C   UNL A   1      43.201  29.515  30.367  1.00  0.00     0.049 A 
ATOM     42  H   UNL A   1      42.418  27.668  29.616  1.00  0.00     0.167 HD
ATOM     43  C   UNL A   1      37.849  33.183  30.102  1.00  0.00     0.037 A 
ATOM     44  C   UNL A   1      44.189  29.962  29.535  1.00  0.00     0.037 A 
ATOM     45  C   UNL A   1      39.159  33.692  30.515  1.00  0.00     0.049 A 
ATOM     46  C   UNL A   1      44.166  31.450  29.273  1.00  0.00     0.074 A 
ATOM     47  C   UNL A   1      39.823  33.767  31.726  1.00  0.00     0.029 A 
ATOM     48  N   UNL A   1      40.093  34.026  29.535  1.00  0.00    -0.354 N 
ATOM     49  N   UNL A   1      43.163  32.230  29.572  1.00  0.00    -0.248 NA
ATOM     50  C   UNL A   1      45.260  32.177  28.634  1.00  0.00     0.031 C 
ATOM     51  C   UNL A   1      41.191  34.047  31.456  1.00  0.00     0.029 A 
ATOM     52  C   UNL A   1      41.346  34.193  30.087  1.00  0.00     0.049 A 
ATOM     53  H   UNL A   1      39.885  34.130  28.578  1.00  0.00     0.167 HD
ATOM     54  C   UNL A   1      43.421  33.505  29.137  1.00  0.00     0.074 A 
ATOM     55  C   UNL A   1      44.766  33.428  28.596  1.00  0.00     0.031 C 
ATOM     56  C   UNL A   1      42.494  34.505  29.241  1.00  0.00     0.037 A 
BRANCH  43  57
ATOM     57  C   UNL A   1      36.531  33.749  30.614  1.00  0.00     0.058 A 
ATOM     58  C   UNL A   1      35.577  34.273  29.709  1.00  0.00     0.135 A 
ATOM     59  C   UNL A   1      36.204  33.949  31.975  1.00  0.00     0.135 A 
ATOM     60  F   UNL A   1      35.753  34.171  28.383  1.00  0.00    -0.206 F 
ATOM     61  C   UNL A   1      34.424  34.957  30.119  1.00  0.00     0.059 A 
ATOM     62  C   UNL A   1      35.038  34.583  32.407  1.00  0.00     0.059 A 
ATOM     63  F   UNL A   1      37.028  33.612  32.971  1.00  0.00    -0.206 F 
ATOM     64  C   UNL A   1      34.165  35.114  31.475  1.00  0.00     0.060 A 
BRANCH  64  65
ATOM     65  S   UNL A   1      32.716  36.036  32.019  1.00  0.00     0.124 S 
ATOM     66  O   UNL A   1      32.302  36.699  30.786  1.00  0.00    -0.237 OA
ATOM     67  O   UNL A   1      31.833  34.981  32.503  1.00  0.00    -0.237 OA
ATOM     68  O   UNL A   1      33.246  36.921  33.054  1.00  0.00    -0.744 OA
ENDBRANCH  64  65
ENDBRANCH  43  57
BRANCH  44  69
ATOM     69  C   UNL A   1      44.682  28.921  28.596  1.00  0.00     0.058 A 
ATOM     70  C   UNL A   1      44.123  28.904  27.305  1.00  0.00     0.135 A 
ATOM     71  C   UNL A   1      45.934  28.315  28.772  1.00  0.00     0.135 A 
ATOM     72  F   UNL A   1      42.917  29.453  27.089  1.00  0.00    -0.206 F 
ATOM     73  C   UNL A   1      44.851  28.473  26.202  1.00  0.00     0.059 A 
ATOM     74  C   UNL A   1      46.680  27.870  27.679  1.00  0.00     0.059 A 
ATOM     75  F   UNL A   1      46.512  28.298  29.984  1.00  0.00    -0.206 F 
ATOM     76  C   UNL A   1      46.157  28.030  26.395  1.00  0.00     0.060 A 
BRANCH  76  77
ATOM     77  S   UNL A   1      47.212  27.882  24.934  1.00  0.00     0.124 S 
ATOM     78  O   UNL A   1      48.531  28.180  25.480  1.00  0.00    -0.237 OA
ATOM     79  O   UNL A   1      46.985  26.488  24.555  1.00  0.00    -0.237 OA
ATOM     80  O   UNL A   1      46.664  28.879  24.023  1.00  0.00    -0.744 OA
ENDBRANCH  76  77
ENDBRANCH  44  69
BRANCH  56  81
ATOM     81  C   UNL A   1      42.599  35.887  28.626  1.00  0.00     0.058 A 
ATOM     82  C   UNL A   1      42.157  36.221  27.332  1.00  0.00     0.135 A 
ATOM     83  C   UNL A   1      43.052  36.981  29.405  1.00  0.00     0.135 A 
ATOM     84  F   UNL A   1      41.588  35.309  26.532  1.00  0.00    -0.206 F 
ATOM     85  C   UNL A   1      42.231  37.521  26.822  1.00  0.00     0.059 A 
ATOM     86  C   UNL A   1      43.081  38.293  28.936  1.00  0.00     0.059 A 
ATOM     87  F   UNL A   1      43.474  36.811  30.667  1.00  0.00    -0.206 F 
ATOM     88  C   UNL A   1      42.695  38.553  27.630  1.00  0.00     0.060 A 
BRANCH  88  89
ATOM     89  S   UNL A   1      42.739  40.244  27.008  1.00  0.00     0.124 S 
ATOM     90  O   UNL A   1      43.624  40.109  25.856  1.00  0.00    -0.237 OA
ATOM     91  O   UNL A   1      41.338  40.514  26.695  1.00  0.00    -0.237 OA
ATOM     92  O   UNL A   1      43.275  40.998  28.137  1.00  0.00    -0.744 OA
ENDBRANCH  88  89
ENDBRANCH  56  81
ENDBRANCH  30  31
ENDBRANCH  22  25
ENDBRANCH  20  21
ENDBRANCH   1  20
TORSDOF 18
ENDMDL
MODEL 3
REMARK VINA RESULT:     -11.5      1.602      2.382
REMARK SMILES CCC[C@H](Oc1ccccc1C)C(=O)NCCCCNC(=O)c1ccc(-c2c3nc(c(-c4c(F)cc(S(=O)(=O)[O-])cc4F)c4ccc([nH]4)c(-c4c(F)cc(S(=O)(=O)[O-])cc4F)c4nc(c(-c5c(F)cc(S(=O)(=O)[O-])cc5F)c5ccc2[nH]5)C=C4)C=C3)cc1
REMARK SMILES IDX 18 1 17 2 16 3 15 4 13 5 14 6 4 8 3 9 2 10 1 11 5 12 6 13
REMARK SMILES IDX 7 14 11 15 8 16 10 17 12 18 9 19 19 20 20 21 21 22 22 24
REMARK SMILES IDX 23 25 24 26 88 27 25 28 87 29 26 30 27 31 28 32 81 33 29 34
REMARK SMILES IDX 86 35 80 36 82 37 30 38 85 39 79 40 78 41 31 43 65 44 44 45
REMARK SMILES IDX 64 46 45 47 48 48 63 49 83 50 46 51 47 52 62 54 84 55 49 56
REMARK SMILES IDX 32 57 33 58 42 59 34 60 35 61 41 62 43 63 36 64 37 65 38 66
REMARK SMILES IDX 39 67 40 68 66 69 67 70 76 71 68 72 69 73 75 74 77 75 70 76
REMARK SMILES IDX 71 77 72 78 73 79 74 80 50 81 51 82 60 83 52 84 53 85 59 86
REMARK SMILES IDX 61 87 54 88 55 89 56 90 57 91 58 92
REMARK H PARENT 15 7 20 23 82 42 48 53
REMARK Flexibility Score: inf
ROOT
ATOM      1  C   UNL A   1      32.205  30.043  26.864  1.00  0.00     0.023 C 
ENDROOT
BRANCH   1   2
ATOM      2  C   UNL A   1      31.808  28.812  26.052  1.00  0.00     0.023 C 
BRANCH   2   3
ATOM      3  C   UNL A   1      32.499  27.510  26.465  1.00  0.00     0.116 C 
BRANCH   3   4
ATOM      4  N   UNL A   1      31.550  26.486  26.879  1.00  0.00    -0.353 N 
ATOM      5  C   UNL A   1      31.378  25.214  26.415  1.00  0.00     0.261 C 
ATOM      6  O   UNL A   1      30.455  24.546  26.896  1.00  0.00    -0.271 OA
ATOM      7  H   UNL A   1      30.940  26.752  27.603  1.00  0.00     0.163 HD
BRANCH   5   8
ATOM      8  C   UNL A   1      32.302  24.614  25.345  1.00  0.00     0.261 C 
BRANCH   8   9
ATOM      9  C   UNL A   1      31.756  23.350  24.646  1.00  0.00     0.055 C 
BRANCH   9  10
ATOM     10  C   UNL A   1      31.925  23.210  23.128  1.00  0.00     0.001 C 
ATOM     11  C   UNL A   1      32.465  21.870  22.658  1.00  0.00     0.004 C 
ENDBRANCH   9  10
ENDBRANCH   8   9
BRANCH   8  12
ATOM     12  O   UNL A   1      33.532  24.377  26.048  1.00  0.00    -0.480 OA
BRANCH  12  13
ATOM     13  C   UNL A   1      34.533  23.611  25.533  1.00  0.00     0.123 A 
ATOM     14  C   UNL A   1      35.306  23.928  24.416  1.00  0.00     0.047 A 
ATOM     15  C   UNL A   1      34.762  22.396  26.209  1.00  0.00    -0.009 A 
ATOM     16  C   UNL A   1      36.262  23.025  23.941  1.00  0.00     0.004 A 
ATOM     17  C   UNL A   1      35.720  21.496  25.721  1.00  0.00     0.007 A 
ATOM     18  C   UNL A   1      33.964  22.029  27.430  1.00  0.00     0.048 C 
ATOM     19  C   UNL A   1      36.463  21.807  24.586  1.00  0.00     0.001 A 
ENDBRANCH  12  13
ENDBRANCH   8  12
ENDBRANCH   5   8
ENDBRANCH   3   4
ENDBRANCH   2   3
ENDBRANCH   1   2
BRANCH   1  20
ATOM     20  C   UNL A   1      33.711  30.242  26.992  1.00  0.00     0.116 C 
BRANCH  20  21
ATOM     21  N   UNL A   1      34.076  31.385  27.801  1.00  0.00    -0.352 N 
ATOM     22  C   UNL A   1      35.121  31.478  28.723  1.00  0.00     0.251 C 
ATOM     23  H   UNL A   1      33.522  32.192  27.689  1.00  0.00     0.163 HD
ATOM     24  O   UNL A   1      35.254  32.430  29.451  1.00  0.00    -0.269 OA
BRANCH  22  25
ATOM     25  C   UNL A   1      36.116  30.380  28.703  1.00  0.00     0.039 A 
ATOM     26  C   UNL A   1      36.338  29.695  29.900  1.00  0.00     0.014 A 
ATOM     27  C   UNL A   1      36.963  30.217  27.611  1.00  0.00     0.014 A 
ATOM     28  C   UNL A   1      37.523  28.980  30.067  1.00  0.00     0.010 A 
ATOM     29  C   UNL A   1      38.173  29.572  27.803  1.00  0.00     0.010 A 
ATOM     30  C   UNL A   1      38.476  29.001  29.048  1.00  0.00    -0.014 A 
BRANCH  30  31
ATOM     31  C   UNL A   1      39.854  28.556  29.233  1.00  0.00     0.031 A 
ATOM     32  C   UNL A   1      40.254  27.171  28.885  1.00  0.00     0.074 A 
ATOM     33  C   UNL A   1      40.792  29.424  29.674  1.00  0.00     0.049 A 
ATOM     34  N   UNL A   1      41.368  26.629  29.249  1.00  0.00    -0.248 NA
ATOM     35  C   UNL A   1      39.380  26.242  28.169  1.00  0.00     0.031 C 
ATOM     36  C   UNL A   1      42.243  29.283  29.568  1.00  0.00     0.029 A 
ATOM     37  N   UNL A   1      40.615  30.520  30.520  1.00  0.00    -0.354 N 
ATOM     38  C   UNL A   1      41.495  25.441  28.574  1.00  0.00     0.074 A 
ATOM     39  C   UNL A   1      40.182  25.178  28.045  1.00  0.00     0.031 C 
ATOM     40  C   UNL A   1      42.828  30.076  30.477  1.00  0.00     0.029 A 
ATOM     41  C   UNL A   1      41.778  30.641  31.302  1.00  0.00     0.049 A 
ATOM     42  H   UNL A   1      39.823  31.102  30.561  1.00  0.00     0.167 HD
ATOM     43  C   UNL A   1      42.737  24.902  28.418  1.00  0.00     0.037 A 
ATOM     44  C   UNL A   1      41.737  30.546  32.664  1.00  0.00     0.037 A 
ATOM     45  C   UNL A   1      43.689  25.506  29.352  1.00  0.00     0.049 A 
ATOM     46  C   UNL A   1      42.546  29.406  33.241  1.00  0.00     0.074 A 
ATOM     47  C   UNL A   1      44.750  26.382  29.211  1.00  0.00     0.029 A 
ATOM     48  N   UNL A   1      43.455  25.391  30.722  1.00  0.00    -0.354 N 
ATOM     49  N   UNL A   1      43.032  28.423  32.534  1.00  0.00    -0.248 NA
ATOM     50  C   UNL A   1      42.854  29.270  34.662  1.00  0.00     0.031 C 
ATOM     51  C   UNL A   1      45.085  26.873  30.504  1.00  0.00     0.029 A 
ATOM     52  C   UNL A   1      44.261  26.257  31.433  1.00  0.00     0.049 A 
ATOM     53  H   UNL A   1      42.803  24.774  31.128  1.00  0.00     0.167 HD
ATOM     54  C   UNL A   1      43.645  27.516  33.360  1.00  0.00     0.074 A 
ATOM     55  C   UNL A   1      43.544  28.115  34.679  1.00  0.00     0.031 C 
ATOM     56  C   UNL A   1      44.161  26.341  32.886  1.00  0.00     0.037 A 
BRANCH  43  57
ATOM     57  C   UNL A   1      43.151  23.974  27.283  1.00  0.00     0.058 A 
ATOM     58  C   UNL A   1      42.816  22.600  27.325  1.00  0.00     0.135 A 
ATOM     59  C   UNL A   1      44.002  24.328  26.211  1.00  0.00     0.135 A 
ATOM     60  F   UNL A   1      42.025  22.109  28.291  1.00  0.00    -0.206 F 
ATOM     61  C   UNL A   1      43.306  21.662  26.404  1.00  0.00     0.059 A 
ATOM     62  C   UNL A   1      44.461  23.421  25.254  1.00  0.00     0.059 A 
ATOM     63  F   UNL A   1      44.503  25.557  26.064  1.00  0.00    -0.206 F 
ATOM     64  C   UNL A   1      44.136  22.082  25.372  1.00  0.00     0.060 A 
BRANCH  64  65
ATOM     65  S   UNL A   1      44.817  20.883  24.212  1.00  0.00     0.124 S 
ATOM     66  O   UNL A   1      46.222  20.849  24.606  1.00  0.00    -0.237 OA
ATOM     67  O   UNL A   1      44.043  19.682  24.508  1.00  0.00    -0.237 OA
ATOM     68  O   UNL A   1      44.551  21.484  22.908  1.00  0.00    -0.744 OA
ENDBRANCH  64  65
ENDBRANCH  43  57
BRANCH  44  69
ATOM     69  C   UNL A   1      40.504  31.124  33.257  1.00  0.00     0.058 A 
ATOM     70  C   UNL A   1      39.519  30.221  33.699  1.00  0.00     0.135 A 
ATOM     71  C   UNL A   1      40.493  32.417  33.800  1.00  0.00     0.135 A 
ATOM     72  F   UNL A   1      39.476  28.977  33.195  1.00  0.00    -0.206 F 
ATOM     73  C   UNL A   1      38.679  30.523  34.764  1.00  0.00     0.059 A 
ATOM     74  C   UNL A   1      39.653  32.744  34.866  1.00  0.00     0.059 A 
ATOM     75  F   UNL A   1      41.405  33.321  33.411  1.00  0.00    -0.206 F 
ATOM     76  C   UNL A   1      38.809  31.761  35.387  1.00  0.00     0.060 A 
BRANCH  76  77
ATOM     77  S   UNL A   1      38.024  31.969  37.003  1.00  0.00     0.124 S 
ATOM     78  O   UNL A   1      36.984  32.949  36.713  1.00  0.00    -0.237 OA
ATOM     79  O   UNL A   1      37.555  30.610  37.272  1.00  0.00    -0.237 OA
ATOM     80  O   UNL A   1      39.116  32.436  37.848  1.00  0.00    -0.744 OA
ENDBRANCH  76  77
ENDBRANCH  44  69
BRANCH  56  81
ATOM     81  C   UNL A   1      44.681  25.191  33.727  1.00  0.00     0.058 A 
ATOM     82  C   UNL A   1      43.875  24.346  34.511  1.00  0.00     0.135 A 
ATOM     83  C   UNL A   1      46.048  24.822  33.659  1.00  0.00     0.135 A 
ATOM     84  F   UNL A   1      42.545  24.502  34.564  1.00  0.00    -0.206 F 
ATOM     85  C   UNL A   1      44.393  23.268  35.235  1.00  0.00     0.059 A 
ATOM     86  C   UNL A   1      46.575  23.718  34.327  1.00  0.00     0.059 A 
ATOM     87  F   UNL A   1      46.925  25.523  32.924  1.00  0.00    -0.206 F 
ATOM     88  C   UNL A   1      45.745  22.960  35.139  1.00  0.00     0.060 A 
BRANCH  88  89
ATOM     89  S   UNL A   1      46.417  21.536  36.016  1.00  0.00     0.124 S 
ATOM     90  O   UNL A   1      45.689  20.437  35.390  1.00  0.00    -0.237 OA
ATOM     91  O   UNL A   1      47.843  21.602  35.705  1.00  0.00    -0.237 OA
ATOM     92  O   UNL A   1      46.075  21.813  37.408  1.00  0.00    -0.744 OA
ENDBRANCH  88  89
ENDBRANCH  56  81
ENDBRANCH  30  31
ENDBRANCH  22  25
ENDBRANCH  20  21
ENDBRANCH   1  20
TORSDOF 18
ENDMDL
