MODEL 1
REMARK VINA RESULT:     -12.0      0.000      0.000
REMARK SMILES O=C(NCCCCNC(=O)c1nn(-c2ccc(Br)cc2F)cc1CCCO)c1ccc(-c2c3nc(c(-c4c(F)cc(S(=O)(=O)[O-])cc4F)c4ccc([nH]4)c(-c4c(F)cc(S(=O)(=O)[O-])cc4F)c4nc(c(-c5c(F)cc(S(=O)(=O)[O-])cc5F)c5ccc2[nH]5)C=C4)C=C3)cc1
REMARK SMILES IDX 6 1 5 2 4 3 3 4 1 5 2 6 28 8 29 9 93 10 30 11 92 12 31 13
REMARK SMILES IDX 32 14 33 15 86 16 34 17 91 18 85 19 87 20 35 21 90 22 84 23
REMARK SMILES IDX 83 24 36 26 70 27 49 28 69 29 50 30 53 31 68 32 88 33 51 34
REMARK SMILES IDX 52 35 67 37 89 38 54 39 37 40 38 41 47 42 39 43 40 44 46 45
REMARK SMILES IDX 48 46 41 47 42 48 43 49 44 50 45 51 71 52 72 53 81 54 73 55
REMARK SMILES IDX 74 56 80 57 82 58 75 59 76 60 77 61 78 62 79 63 55 64 56 65
REMARK SMILES IDX 65 66 57 67 58 68 64 69 66 70 59 71 60 72 61 73 62 74 63 75
REMARK SMILES IDX 7 76 8 77 9 78 10 80 11 81 12 82 23 83 13 84 22 85 24 86
REMARK SMILES IDX 25 87 26 88 27 89 14 91 15 92 20 93 16 94 19 95 21 96 17 97
REMARK SMILES IDX 18 98
REMARK H PARENT 3 7 87 25 53 36 8 79 27 90
REMARK Flexibility Score: inf
ROOT
ATOM      1  C   UNL A   1      31.812  27.983  26.926  1.00  0.00     0.023 C 
ENDROOT
BRANCH   1   2
ATOM      2  C   UNL A   1      32.155  29.289  26.197  1.00  0.00     0.023 C 
BRANCH   2   3
ATOM      3  C   UNL A   1      33.536  29.872  26.488  1.00  0.00     0.116 C 
BRANCH   3   4
ATOM      4  N   UNL A   1      33.554  30.971  27.427  1.00  0.00    -0.352 N 
ATOM      5  O   UNL A   1      34.189  32.552  28.833  1.00  0.00    -0.269 OA
ATOM      6  C   UNL A   1      34.512  31.524  28.231  1.00  0.00     0.251 C 
ATOM      7  H   UNL A   1      32.682  31.421  27.505  1.00  0.00     0.163 HD
BRANCH   6   8
ATOM      8  C   UNL A   1      35.865  30.950  28.462  1.00  0.00     0.039 A 
ATOM      9  C   UNL A   1      36.200  29.597  28.370  1.00  0.00     0.014 A 
ATOM     10  C   UNL A   1      36.879  31.871  28.782  1.00  0.00     0.014 A 
ATOM     11  C   UNL A   1      37.493  29.166  28.660  1.00  0.00     0.010 A 
ATOM     12  C   UNL A   1      38.179  31.449  29.047  1.00  0.00     0.010 A 
ATOM     13  C   UNL A   1      38.481  30.089  29.008  1.00  0.00    -0.014 A 
BRANCH  13  14
ATOM     14  C   UNL A   1      39.846  29.598  29.201  1.00  0.00     0.031 A 
ATOM     15  C   UNL A   1      40.314  29.487  30.616  1.00  0.00     0.074 A 
ATOM     16  C   UNL A   1      40.602  29.086  28.210  1.00  0.00     0.049 A 
ATOM     17  N   UNL A   1      41.352  30.024  31.175  1.00  0.00    -0.248 NA
ATOM     18  C   UNL A   1      39.475  28.710  31.543  1.00  0.00     0.031 C 
ATOM     19  C   UNL A   1      40.193  28.797  26.834  1.00  0.00     0.029 A 
ATOM     20  N   UNL A   1      41.876  28.596  28.267  1.00  0.00    -0.354 N 
ATOM     21  C   UNL A   1      41.406  29.510  32.471  1.00  0.00     0.074 A 
ATOM     22  C   UNL A   1      40.167  28.804  32.679  1.00  0.00     0.031 C 
ATOM     23  C   UNL A   1      41.113  27.990  26.262  1.00  0.00     0.029 A 
ATOM     24  C   UNL A   1      42.224  27.806  27.181  1.00  0.00     0.049 A 
ATOM     25  H   UNL A   1      42.490  28.787  29.013  1.00  0.00     0.167 HD
ATOM     26  C   UNL A   1      42.535  29.543  33.233  1.00  0.00     0.037 A 
ATOM     27  C   UNL A   1      43.304  26.994  27.080  1.00  0.00     0.037 A 
ATOM     28  C   UNL A   1      43.498  30.487  32.733  1.00  0.00     0.049 A 
ATOM     29  C   UNL A   1      44.307  27.434  28.083  1.00  0.00     0.074 A 
ATOM     30  C   UNL A   1      43.506  31.849  32.506  1.00  0.00     0.029 A 
ATOM     31  N   UNL A   1      44.614  30.001  32.098  1.00  0.00    -0.354 N 
ATOM     32  N   UNL A   1      44.967  28.557  28.028  1.00  0.00    -0.248 NA
ATOM     33  C   UNL A   1      44.326  26.766  29.376  1.00  0.00     0.031 C 
ATOM     34  C   UNL A   1      44.339  32.033  31.364  1.00  0.00     0.029 A 
ATOM     35  C   UNL A   1      44.800  30.773  30.981  1.00  0.00     0.049 A 
ATOM     36  H   UNL A   1      45.172  29.243  32.388  1.00  0.00     0.167 HD
ATOM     37  C   UNL A   1      45.132  28.939  29.351  1.00  0.00     0.074 A 
ATOM     38  C   UNL A   1      44.827  27.745  30.131  1.00  0.00     0.031 C 
ATOM     39  C   UNL A   1      45.232  30.254  29.703  1.00  0.00     0.037 A 
BRANCH  26  40
ATOM     40  C   UNL A   1      42.907  28.500  34.261  1.00  0.00     0.058 A 
ATOM     41  C   UNL A   1      43.184  28.891  35.589  1.00  0.00     0.135 A 
ATOM     42  C   UNL A   1      43.283  27.181  33.924  1.00  0.00     0.135 A 
ATOM     43  F   UNL A   1      42.874  30.126  36.016  1.00  0.00    -0.206 F 
ATOM     44  C   UNL A   1      43.857  28.063  36.488  1.00  0.00     0.059 A 
ATOM     45  C   UNL A   1      43.906  26.320  34.822  1.00  0.00     0.059 A 
ATOM     46  F   UNL A   1      43.156  26.705  32.679  1.00  0.00    -0.206 F 
ATOM     47  C   UNL A   1      44.234  26.786  36.085  1.00  0.00     0.060 A 
BRANCH  47  48
ATOM     48  S   UNL A   1      45.229  25.765  37.189  1.00  0.00     0.124 S 
ATOM     49  O   UNL A   1      45.725  26.762  38.131  1.00  0.00    -0.237 OA
ATOM     50  O   UNL A   1      44.242  24.825  37.712  1.00  0.00    -0.237 OA
ATOM     51  O   UNL A   1      46.227  25.183  36.297  1.00  0.00    -0.744 OA
ENDBRANCH  47  48
ENDBRANCH  26  40
BRANCH  27  52
ATOM     52  C   UNL A   1      43.401  25.688  26.378  1.00  0.00     0.058 A 
ATOM     53  C   UNL A   1      44.335  25.481  25.346  1.00  0.00     0.135 A 
ATOM     54  C   UNL A   1      42.767  24.533  26.881  1.00  0.00     0.135 A 
ATOM     55  F   UNL A   1      45.009  26.519  24.827  1.00  0.00    -0.206 F 
ATOM     56  C   UNL A   1      44.652  24.204  24.872  1.00  0.00     0.059 A 
ATOM     57  C   UNL A   1      43.052  23.253  26.411  1.00  0.00     0.059 A 
ATOM     58  F   UNL A   1      41.915  24.603  27.914  1.00  0.00    -0.206 F 
ATOM     59  C   UNL A   1      44.016  23.093  25.425  1.00  0.00     0.060 A 
BRANCH  59  60
ATOM     60  S   UNL A   1      44.543  21.433  24.942  1.00  0.00     0.124 S 
ATOM     61  O   UNL A   1      44.599  21.545  23.489  1.00  0.00    -0.237 OA
ATOM     62  O   UNL A   1      45.827  21.307  25.624  1.00  0.00    -0.237 OA
ATOM     63  O   UNL A   1      43.481  20.575  25.462  1.00  0.00    -0.744 OA
ENDBRANCH  59  60
ENDBRANCH  27  52
BRANCH  39  64
ATOM     64  C   UNL A   1      45.528  31.265  28.627  1.00  0.00     0.058 A 
ATOM     65  C   UNL A   1      44.547  31.874  27.827  1.00  0.00     0.135 A 
ATOM     66  C   UNL A   1      46.841  31.747  28.513  1.00  0.00     0.135 A 
ATOM     67  F   UNL A   1      43.253  31.550  27.954  1.00  0.00    -0.206 F 
ATOM     68  C   UNL A   1      44.866  32.888  26.923  1.00  0.00     0.059 A 
ATOM     69  C   UNL A   1      47.176  32.781  27.643  1.00  0.00     0.059 A 
ATOM     70  F   UNL A   1      47.813  31.249  29.298  1.00  0.00    -0.206 F 
ATOM     71  C   UNL A   1      46.183  33.339  26.841  1.00  0.00     0.060 A 
BRANCH  71  72
ATOM     72  S   UNL A   1      46.570  34.721  25.744  1.00  0.00     0.124 S 
ATOM     73  O   UNL A   1      45.645  34.503  24.637  1.00  0.00    -0.237 OA
ATOM     74  O   UNL A   1      46.292  35.883  26.585  1.00  0.00    -0.237 OA
ATOM     75  O   UNL A   1      47.982  34.519  25.427  1.00  0.00    -0.744 OA
ENDBRANCH  71  72
ENDBRANCH  39  64
ENDBRANCH  13  14
ENDBRANCH   6   8
ENDBRANCH   3   4
ENDBRANCH   2   3
ENDBRANCH   1   2
BRANCH   1  76
ATOM     76  C   UNL A   1      31.677  26.735  26.053  1.00  0.00     0.116 C 
BRANCH  76  77
ATOM     77  N   UNL A   1      30.826  25.727  26.660  1.00  0.00    -0.351 N 
ATOM     78  C   UNL A   1      30.883  24.366  26.542  1.00  0.00     0.272 C 
ATOM     79  H   UNL A   1      30.108  26.073  27.238  1.00  0.00     0.163 HD
ATOM     80  O   UNL A   1      30.003  23.704  27.104  1.00  0.00    -0.267 OA
BRANCH  78  81
ATOM     81  C   UNL A   1      31.930  23.764  25.714  1.00  0.00     0.153 A 
ATOM     82  N   UNL A   1      33.076  23.310  26.260  1.00  0.00    -0.162 NA
ATOM     83  C   UNL A   1      31.922  23.581  24.301  1.00  0.00     0.004 A 
ATOM     84  N   UNL A   1      33.883  23.053  25.205  1.00  0.00    -0.237 N 
ATOM     85  C   UNL A   1      33.214  23.184  24.014  1.00  0.00     0.119 A 
BRANCH  83  86
ATOM     86  C   UNL A   1      30.845  23.882  23.308  1.00  0.00     0.042 C 
BRANCH  86  87
ATOM     87  C   UNL A   1      30.759  25.344  22.852  1.00  0.00     0.033 C 
BRANCH  87  88
ATOM     88  C   UNL A   1      31.916  25.855  22.001  1.00  0.00     0.156 C 
BRANCH  88  89
ATOM     89  O   UNL A   1      31.547  25.955  20.634  1.00  0.00    -0.396 OA
ATOM     90  H   UNL A   1      31.644  26.873  20.339  1.00  0.00     0.210 HD
ENDBRANCH  88  89
ENDBRANCH  87  88
ENDBRANCH  86  87
ENDBRANCH  83  86
BRANCH  84  91
ATOM     91  C   UNL A   1      35.236  22.703  25.411  1.00  0.00     0.100 A 
ATOM     92  C   UNL A   1      36.157  23.695  25.777  1.00  0.00     0.032 A 
ATOM     93  C   UNL A   1      35.672  21.389  25.230  1.00  0.00     0.149 A 
ATOM     94  C   UNL A   1      37.496  23.355  25.993  1.00  0.00     0.018 A 
ATOM     95  C   UNL A   1      37.014  21.058  25.396  1.00  0.00     0.057 A 
ATOM     96  F   UNL A   1      34.835  20.427  24.816  1.00  0.00    -0.205 F 
ATOM     97  C   UNL A   1      37.919  22.041  25.790  1.00  0.00     0.021 A 
ATOM     98  Br  UNL A   1      39.739  21.594  26.045  1.00  0.00    -0.051 Br
ENDBRANCH  84  91
ENDBRANCH  78  81
ENDBRANCH  76  77
ENDBRANCH   1  76
TORSDOF 19
ENDMDL
MODEL 2
REMARK VINA RESULT:     -11.8      1.700      2.388
REMARK SMILES O=C(NCCCCNC(=O)c1nn(-c2ccc(Br)cc2F)cc1CCCO)c1ccc(-c2c3nc(c(-c4c(F)cc(S(=O)(=O)[O-])cc4F)c4ccc([nH]4)c(-c4c(F)cc(S(=O)(=O)[O-])cc4F)c4nc(c(-c5c(F)cc(S(=O)(=O)[O-])cc5F)c5ccc2[nH]5)C=C4)C=C3)cc1
REMARK SMILES IDX 6 1 5 2 4 3 3 4 1 5 2 6 28 8 29 9 93 10 30 11 92 12 31 13
REMARK SMILES IDX 32 14 33 15 86 16 34 17 91 18 85 19 87 20 35 21 90 22 84 23
REMARK SMILES IDX 83 24 36 26 70 27 49 28 69 29 50 30 53 31 68 32 88 33 51 34
REMARK SMILES IDX 52 35 67 37 89 38 54 39 37 40 38 41 47 42 39 43 40 44 46 45
REMARK SMILES IDX 48 46 41 47 42 48 43 49 44 50 45 51 71 52 72 53 81 54 73 55
REMARK SMILES IDX 74 56 80 57 82 58 75 59 76 60 77 61 78 62 79 63 55 64 56 65
REMARK SMILES IDX 65 66 57 67 58 68 64 69 66 70 59 71 60 72 61 73 62 74 63 75
REMARK SMILES IDX 7 76 8 77 9 78 10 80 11 81 12 82 23 83 13 84 22 85 24 86
REMARK SMILES IDX 25 87 26 88 27 89 14 91 15 92 20 93 16 94 19 95 21 96 17 97
REMARK SMILES IDX 18 98
REMARK H PARENT 3 7 87 25 53 36 8 79 27 90
REMARK Flexibility Score: inf
ROOT
ATOM      1  C   UNL A   1      33.324  28.502  24.491  1.00  0.00     0.023 C 
ENDROOT
BRANCH   1   2
ATOM      2  C   UNL A   1      34.083  29.117  25.674  1.00  0.00     0.023 C 
BRANCH   2   3
ATOM      3  C   UNL A   1      33.276  29.312  26.955  1.00  0.00     0.116 C 
BRANCH   3   4
ATOM      4  N   UNL A   1      33.400  30.617  27.567  1.00  0.00    -0.352 N 
ATOM      5  O   UNL A   1      34.192  32.481  28.449  1.00  0.00    -0.269 OA
ATOM      6  C   UNL A   1      34.439  31.319  28.115  1.00  0.00     0.251 C 
ATOM      7  H   UNL A   1      32.549  31.109  27.595  1.00  0.00     0.163 HD
BRANCH   6   8
ATOM      8  C   UNL A   1      35.795  30.767  28.377  1.00  0.00     0.039 A 
ATOM      9  C   UNL A   1      36.143  29.416  28.342  1.00  0.00     0.014 A 
ATOM     10  C   UNL A   1      36.799  31.710  28.663  1.00  0.00     0.014 A 
ATOM     11  C   UNL A   1      37.439  29.008  28.657  1.00  0.00     0.010 A 
ATOM     12  C   UNL A   1      38.102  31.312  28.952  1.00  0.00     0.010 A 
ATOM     13  C   UNL A   1      38.416  29.954  28.971  1.00  0.00    -0.014 A 
BRANCH  13  14
ATOM     14  C   UNL A   1      39.785  29.485  29.191  1.00  0.00     0.031 A 
ATOM     15  C   UNL A   1      40.235  29.407  30.614  1.00  0.00     0.074 A 
ATOM     16  C   UNL A   1      40.560  28.963  28.220  1.00  0.00     0.049 A 
ATOM     17  N   UNL A   1      41.259  29.968  31.176  1.00  0.00    -0.248 NA
ATOM     18  C   UNL A   1      39.394  28.638  31.545  1.00  0.00     0.031 C 
ATOM     19  C   UNL A   1      40.173  28.643  26.844  1.00  0.00     0.029 A 
ATOM     20  N   UNL A   1      41.839  28.491  28.304  1.00  0.00    -0.354 N 
ATOM     21  C   UNL A   1      41.301  29.479  32.482  1.00  0.00     0.074 A 
ATOM     22  C   UNL A   1      40.069  28.761  32.688  1.00  0.00     0.031 C 
ATOM     23  C   UNL A   1      41.110  27.837  26.300  1.00  0.00     0.029 A 
ATOM     24  C   UNL A   1      42.211  27.685  27.238  1.00  0.00     0.049 A 
ATOM     25  H   UNL A   1      42.441  28.704  29.053  1.00  0.00     0.167 HD
ATOM     26  C   UNL A   1      42.420  29.541  33.258  1.00  0.00     0.037 A 
ATOM     27  C   UNL A   1      43.303  26.885  27.166  1.00  0.00     0.037 A 
ATOM     28  C   UNL A   1      43.378  30.487  32.753  1.00  0.00     0.049 A 
ATOM     29  C   UNL A   1      44.286  27.357  28.174  1.00  0.00     0.074 A 
ATOM     30  C   UNL A   1      43.372  31.845  32.500  1.00  0.00     0.029 A 
ATOM     31  N   UNL A   1      44.508  30.003  32.142  1.00  0.00    -0.354 N 
ATOM     32  N   UNL A   1      44.933  28.486  28.106  1.00  0.00    -0.248 NA
ATOM     33  C   UNL A   1      44.296  26.714  29.480  1.00  0.00     0.031 C 
ATOM     34  C   UNL A   1      44.217  32.018  31.366  1.00  0.00     0.029 A 
ATOM     35  C   UNL A   1      44.700  30.756  31.013  1.00  0.00     0.049 A 
ATOM     36  H   UNL A   1      45.071  29.259  32.453  1.00  0.00     0.167 HD
ATOM     37  C   UNL A   1      45.076  28.896  29.423  1.00  0.00     0.074 A 
ATOM     38  C   UNL A   1      44.776  27.713  30.221  1.00  0.00     0.031 C 
ATOM     39  C   UNL A   1      45.154  30.219  29.750  1.00  0.00     0.037 A 
BRANCH  26  40
ATOM     40  C   UNL A   1      42.791  28.523  34.311  1.00  0.00     0.058 A 
ATOM     41  C   UNL A   1      43.031  28.941  35.638  1.00  0.00     0.135 A 
ATOM     42  C   UNL A   1      43.202  27.207  34.004  1.00  0.00     0.135 A 
ATOM     43  F   UNL A   1      42.687  30.176  36.038  1.00  0.00    -0.206 F 
ATOM     44  C   UNL A   1      43.702  28.141  36.565  1.00  0.00     0.059 A 
ATOM     45  C   UNL A   1      43.823  26.374  34.929  1.00  0.00     0.059 A 
ATOM     46  F   UNL A   1      43.112  26.709  32.764  1.00  0.00    -0.206 F 
ATOM     47  C   UNL A   1      44.114  26.866  36.191  1.00  0.00     0.060 A 
BRANCH  47  48
ATOM     48  S   UNL A   1      45.106  25.885  37.333  1.00  0.00     0.124 S 
ATOM     49  O   UNL A   1      46.447  26.093  36.799  1.00  0.00    -0.237 OA
ATOM     50  O   UNL A   1      44.821  26.523  38.614  1.00  0.00    -0.237 OA
ATOM     51  O   UNL A   1      44.563  24.539  37.175  1.00  0.00    -0.744 OA
ENDBRANCH  47  48
ENDBRANCH  26  40
BRANCH  27  52
ATOM     52  C   UNL A   1      43.425  25.567  26.490  1.00  0.00     0.058 A 
ATOM     53  C   UNL A   1      44.314  25.377  25.417  1.00  0.00     0.135 A 
ATOM     54  C   UNL A   1      42.873  24.398  27.053  1.00  0.00     0.135 A 
ATOM     55  F   UNL A   1      44.910  26.431  24.839  1.00  0.00    -0.206 F 
ATOM     56  C   UNL A   1      44.666  24.104  24.957  1.00  0.00     0.059 A 
ATOM     57  C   UNL A   1      43.194  23.121  26.600  1.00  0.00     0.059 A 
ATOM     58  F   UNL A   1      42.073  24.454  28.128  1.00  0.00    -0.206 F 
ATOM     59  C   UNL A   1      44.113  22.979  25.568  1.00  0.00     0.060 A 
BRANCH  59  60
ATOM     60  S   UNL A   1      44.692  21.334  25.097  1.00  0.00     0.124 S 
ATOM     61  O   UNL A   1      43.708  20.471  25.741  1.00  0.00    -0.237 OA
ATOM     62  O   UNL A   1      44.635  21.392  23.640  1.00  0.00    -0.237 OA
ATOM     63  O   UNL A   1      46.039  21.274  25.661  1.00  0.00    -0.744 OA
ENDBRANCH  59  60
ENDBRANCH  27  52
BRANCH  39  64
ATOM     64  C   UNL A   1      45.452  31.212  28.660  1.00  0.00     0.058 A 
ATOM     65  C   UNL A   1      44.479  31.764  27.810  1.00  0.00     0.135 A 
ATOM     66  C   UNL A   1      46.750  31.741  28.579  1.00  0.00     0.135 A 
ATOM     67  F   UNL A   1      43.194  31.395  27.899  1.00  0.00    -0.206 F 
ATOM     68  C   UNL A   1      44.793  32.766  26.891  1.00  0.00     0.059 A 
ATOM     69  C   UNL A   1      47.078  32.764  27.694  1.00  0.00     0.059 A 
ATOM     70  F   UNL A   1      47.710  31.299  29.411  1.00  0.00    -0.206 F 
ATOM     71  C   UNL A   1      46.095  33.264  26.843  1.00  0.00     0.060 A 
BRANCH  71  72
ATOM     72  S   UNL A   1      46.472  34.632  25.724  1.00  0.00     0.124 S 
ATOM     73  O   UNL A   1      46.175  35.796  26.553  1.00  0.00    -0.237 OA
ATOM     74  O   UNL A   1      47.883  34.413  25.418  1.00  0.00    -0.237 OA
ATOM     75  O   UNL A   1      45.561  34.414  24.603  1.00  0.00    -0.744 OA
ENDBRANCH  71  72
ENDBRANCH  39  64
ENDBRANCH  13  14
ENDBRANCH   6   8
ENDBRANCH   3   4
ENDBRANCH   2   3
ENDBRANCH   1   2
BRANCH   1  76
ATOM     76  C   UNL A   1      33.708  27.072  24.109  1.00  0.00     0.116 C 
BRANCH  76  77
ATOM     77  N   UNL A   1      33.635  26.846  22.677  1.00  0.00    -0.351 N 
ATOM     78  C   UNL A   1      33.089  25.793  21.996  1.00  0.00     0.272 C 
ATOM     79  H   UNL A   1      34.035  27.551  22.116  1.00  0.00     0.163 HD
ATOM     80  O   UNL A   1      33.204  25.783  20.765  1.00  0.00    -0.267 OA
BRANCH  78  81
ATOM     81  C   UNL A   1      32.458  24.707  22.749  1.00  0.00     0.153 A 
ATOM     82  N   UNL A   1      33.082  23.525  22.923  1.00  0.00    -0.162 NA
ATOM     83  C   UNL A   1      31.174  24.709  23.366  1.00  0.00     0.004 A 
ATOM     84  N   UNL A   1      32.136  22.707  23.438  1.00  0.00    -0.237 N 
ATOM     85  C   UNL A   1      30.985  23.392  23.737  1.00  0.00     0.119 A 
BRANCH  83  86
ATOM     86  C   UNL A   1      30.171  25.814  23.472  1.00  0.00     0.042 C 
BRANCH  86  87
ATOM     87  C   UNL A   1      30.178  26.583  24.799  1.00  0.00     0.033 C 
BRANCH  87  88
ATOM     88  C   UNL A   1      30.470  25.766  26.052  1.00  0.00     0.156 C 
BRANCH  88  89
ATOM     89  O   UNL A   1      29.337  25.011  26.452  1.00  0.00    -0.396 OA
ATOM     90  H   UNL A   1      28.544  25.363  26.020  1.00  0.00     0.210 HD
ENDBRANCH  88  89
ENDBRANCH  87  88
ENDBRANCH  86  87
ENDBRANCH  83  86
BRANCH  84  91
ATOM     91  C   UNL A   1      32.398  21.329  23.605  1.00  0.00     0.100 A 
ATOM     92  C   UNL A   1      32.941  20.872  24.815  1.00  0.00     0.032 A 
ATOM     93  C   UNL A   1      32.147  20.421  22.575  1.00  0.00     0.149 A 
ATOM     94  C   UNL A   1      33.193  19.509  24.993  1.00  0.00     0.018 A 
ATOM     95  C   UNL A   1      32.444  19.069  22.733  1.00  0.00     0.057 A 
ATOM     96  F   UNL A   1      31.690  20.828  21.383  1.00  0.00    -0.205 F 
ATOM     97  C   UNL A   1      32.955  18.617  23.948  1.00  0.00     0.021 A 
ATOM     98  Br  UNL A   1      33.334  16.779  24.179  1.00  0.00    -0.051 Br
ENDBRANCH  84  91
ENDBRANCH  78  81
ENDBRANCH  76  77
ENDBRANCH   1  76
TORSDOF 19
ENDMDL
MODEL 3
REMARK VINA RESULT:     -11.7      1.237      2.314
REMARK SMILES O=C(NCCCCNC(=O)c1nn(-c2ccc(Br)cc2F)cc1CCCO)c1ccc(-c2c3nc(c(-c4c(F)cc(S(=O)(=O)[O-])cc4F)c4ccc([nH]4)c(-c4c(F)cc(S(=O)(=O)[O-])cc4F)c4nc(c(-c5c(F)cc(S(=O)(=O)[O-])cc5F)c5ccc2[nH]5)C=C4)C=C3)cc1
REMARK SMILES IDX 6 1 5 2 4 3 3 4 1 5 2 6 28 8 29 9 93 10 30 11 92 12 31 13
REMARK SMILES IDX 32 14 33 15 86 16 34 17 91 18 85 19 87 20 35 21 90 22 84 23
REMARK SMILES IDX 83 24 36 26 70 27 49 28 69 29 50 30 53 31 68 32 88 33 51 34
REMARK SMILES IDX 52 35 67 37 89 38 54 39 37 40 38 41 47 42 39 43 40 44 46 45
REMARK SMILES IDX 48 46 41 47 42 48 43 49 44 50 45 51 71 52 72 53 81 54 73 55
REMARK SMILES IDX 74 56 80 57 82 58 75 59 76 60 77 61 78 62 79 63 55 64 56 65
REMARK SMILES IDX 65 66 57 67 58 68 64 69 66 70 59 71 60 72 61 73 62 74 63 75
REMARK SMILES IDX 7 76 8 77 9 78 10 80 11 81 12 82 23 83 13 84 22 85 24 86
REMARK SMILES IDX 25 87 26 88 27 89 14 91 15 92 20 93 16 94 19 95 21 96 17 97
REMARK SMILES IDX 18 98
REMARK H PARENT 3 7 87 25 53 36 8 79 27 90
REMARK Flexibility Score: inf
ROOT
ATOM      1  C   UNL A   1      32.031  28.233  24.328  1.00  0.00     0.023 C 
ENDROOT
BRANCH   1   2
ATOM      2  C   UNL A   1      32.073  29.543  25.126  1.00  0.00     0.023 C 
BRANCH   2   3
ATOM      3  C   UNL A   1      33.270  29.718  26.057  1.00  0.00     0.116 C 
BRANCH   3   4
ATOM      4  N   UNL A   1      33.230  30.897  26.894  1.00  0.00    -0.352 N 
ATOM      5  O   UNL A   1      33.780  32.614  28.171  1.00  0.00    -0.269 OA
ATOM      6  C   UNL A   1      34.148  31.545  27.674  1.00  0.00     0.251 C 
ATOM      7  H   UNL A   1      32.346  31.329  26.905  1.00  0.00     0.163 HD
BRANCH   6   8
ATOM      8  C   UNL A   1      35.506  31.031  27.997  1.00  0.00     0.039 A 
ATOM      9  C   UNL A   1      35.904  29.694  27.935  1.00  0.00     0.014 A 
ATOM     10  C   UNL A   1      36.456  31.996  28.378  1.00  0.00     0.014 A 
ATOM     11  C   UNL A   1      37.193  29.320  28.312  1.00  0.00     0.010 A 
ATOM     12  C   UNL A   1      37.752  31.632  28.731  1.00  0.00     0.010 A 
ATOM     13  C   UNL A   1      38.115  30.286  28.720  1.00  0.00    -0.014 A 
BRANCH  13  14
ATOM     14  C   UNL A   1      39.484  29.856  29.004  1.00  0.00     0.031 A 
ATOM     15  C   UNL A   1      39.843  29.711  30.448  1.00  0.00     0.074 A 
ATOM     16  C   UNL A   1      40.342  29.422  28.060  1.00  0.00     0.049 A 
ATOM     17  N   UNL A   1      40.804  30.275  31.108  1.00  0.00    -0.248 NA
ATOM     18  C   UNL A   1      38.975  28.857  31.275  1.00  0.00     0.031 C 
ATOM     19  C   UNL A   1      40.059  29.169  26.646  1.00  0.00     0.029 A 
ATOM     20  N   UNL A   1      41.631  28.993  28.203  1.00  0.00    -0.354 N 
ATOM     21  C   UNL A   1      40.781  29.712  32.385  1.00  0.00     0.074 A 
ATOM     22  C   UNL A   1      39.569  28.938  32.466  1.00  0.00     0.031 C 
ATOM     23  C   UNL A   1      41.062  28.431  26.121  1.00  0.00     0.029 A 
ATOM     24  C   UNL A   1      42.105  28.266  27.121  1.00  0.00     0.049 A 
ATOM     25  H   UNL A   1      42.174  29.184  29.002  1.00  0.00     0.167 HD
ATOM     26  C   UNL A   1      41.844  29.770  33.237  1.00  0.00     0.037 A 
ATOM     27  C   UNL A   1      43.231  27.512  27.078  1.00  0.00     0.037 A 
ATOM     28  C   UNL A   1      42.793  30.779  32.852  1.00  0.00     0.049 A 
ATOM     29  C   UNL A   1      44.126  27.960  28.175  1.00  0.00     0.074 A 
ATOM     30  C   UNL A   1      42.747  32.148  32.676  1.00  0.00     0.029 A 
ATOM     31  N   UNL A   1      43.979  30.374  32.292  1.00  0.00    -0.354 N 
ATOM     32  N   UNL A   1      44.729  29.115  28.215  1.00  0.00    -0.248 NA
ATOM     33  C   UNL A   1      44.077  27.242  29.441  1.00  0.00     0.031 C 
ATOM     34  C   UNL A   1      43.657  32.419  31.613  1.00  0.00     0.029 A 
ATOM     35  C   UNL A   1      44.213  31.199  31.223  1.00  0.00     0.049 A 
ATOM     36  H   UNL A   1      44.551  29.635  32.599  1.00  0.00     0.167 HD
ATOM     37  C   UNL A   1      44.769  29.451  29.560  1.00  0.00     0.074 A 
ATOM     38  C   UNL A   1      44.466  28.213  30.268  1.00  0.00     0.031 C 
ATOM     39  C   UNL A   1      44.771  30.754  29.966  1.00  0.00     0.037 A 
BRANCH  26  40
ATOM     40  C   UNL A   1      42.187  28.705  34.254  1.00  0.00     0.058 A 
ATOM     41  C   UNL A   1      42.650  27.444  33.820  1.00  0.00     0.135 A 
ATOM     42  C   UNL A   1      41.802  28.780  35.611  1.00  0.00     0.135 A 
ATOM     43  F   UNL A   1      43.035  27.259  32.547  1.00  0.00    -0.206 F 
ATOM     44  C   UNL A   1      42.652  26.323  34.651  1.00  0.00     0.059 A 
ATOM     45  C   UNL A   1      41.848  27.686  36.470  1.00  0.00     0.059 A 
ATOM     46  F   UNL A   1      41.266  29.889  36.135  1.00  0.00    -0.206 F 
ATOM     47  C   UNL A   1      42.227  26.451  35.969  1.00  0.00     0.060 A 
BRANCH  47  48
ATOM     48  S   UNL A   1      42.090  24.981  37.004  1.00  0.00     0.124 S 
ATOM     49  O   UNL A   1      43.338  25.043  37.756  1.00  0.00    -0.237 OA
ATOM     50  O   UNL A   1      40.872  25.251  37.762  1.00  0.00    -0.237 OA
ATOM     51  O   UNL A   1      41.988  23.896  36.032  1.00  0.00    -0.744 OA
ENDBRANCH  47  48
ENDBRANCH  26  40
BRANCH  27  52
ATOM     52  C   UNL A   1      43.451  26.242  26.339  1.00  0.00     0.058 A 
ATOM     53  C   UNL A   1      44.556  26.077  25.485  1.00  0.00     0.135 A 
ATOM     54  C   UNL A   1      42.734  25.071  26.660  1.00  0.00     0.135 A 
ATOM     55  F   UNL A   1      45.314  27.132  25.150  1.00  0.00    -0.206 F 
ATOM     56  C   UNL A   1      44.952  24.822  25.012  1.00  0.00     0.059 A 
ATOM     57  C   UNL A   1      43.097  23.813  26.185  1.00  0.00     0.059 A 
ATOM     58  F   UNL A   1      41.709  25.097  27.524  1.00  0.00    -0.206 F 
ATOM     59  C   UNL A   1      44.224  23.691  25.382  1.00  0.00     0.060 A 
BRANCH  59  60
ATOM     60  S   UNL A   1      44.827  22.052  24.919  1.00  0.00     0.124 S 
ATOM     61  O   UNL A   1      44.582  22.035  23.481  1.00  0.00    -0.237 OA
ATOM     62  O   UNL A   1      46.227  22.112  25.328  1.00  0.00    -0.237 OA
ATOM     63  O   UNL A   1      43.991  21.148  25.705  1.00  0.00    -0.744 OA
ENDBRANCH  59  60
ENDBRANCH  27  52
BRANCH  39  64
ATOM     64  C   UNL A   1      45.099  31.821  28.956  1.00  0.00     0.058 A 
ATOM     65  C   UNL A   1      46.402  32.259  28.667  1.00  0.00     0.135 A 
ATOM     66  C   UNL A   1      44.063  32.304  28.141  1.00  0.00     0.135 A 
ATOM     67  F   UNL A   1      47.459  31.762  29.324  1.00  0.00    -0.206 F 
ATOM     68  C   UNL A   1      46.657  33.169  27.640  1.00  0.00     0.059 A 
ATOM     69  C   UNL A   1      44.299  33.186  27.090  1.00  0.00     0.059 A 
ATOM     70  F   UNL A   1      42.803  31.873  28.326  1.00  0.00    -0.206 F 
ATOM     71  C   UNL A   1      45.600  33.624  26.853  1.00  0.00     0.060 A 
BRANCH  71  72
ATOM     72  S   UNL A   1      45.950  34.722  25.462  1.00  0.00     0.124 S 
ATOM     73  O   UNL A   1      47.362  34.456  25.210  1.00  0.00    -0.237 OA
ATOM     74  O   UNL A   1      45.022  34.246  24.439  1.00  0.00    -0.237 OA
ATOM     75  O   UNL A   1      45.650  36.050  25.992  1.00  0.00    -0.744 OA
ENDBRANCH  71  72
ENDBRANCH  39  64
ENDBRANCH  13  14
ENDBRANCH   6   8
ENDBRANCH   3   4
ENDBRANCH   2   3
ENDBRANCH   1   2
BRANCH   1  76
ATOM     76  C   UNL A   1      33.377  27.694  23.841  1.00  0.00     0.116 C 
BRANCH  76  77
ATOM     77  N   UNL A   1      33.257  26.958  22.595  1.00  0.00    -0.351 N 
ATOM     78  C   UNL A   1      33.466  25.627  22.356  1.00  0.00     0.272 C 
ATOM     79  H   UNL A   1      32.988  27.491  21.813  1.00  0.00     0.163 HD
ATOM     80  O   UNL A   1      33.367  25.232  21.189  1.00  0.00    -0.267 OA
BRANCH  78  81
ATOM     81  C   UNL A   1      33.854  24.755  23.466  1.00  0.00     0.153 A 
ATOM     82  N   UNL A   1      35.149  24.585  23.799  1.00  0.00    -0.162 NA
ATOM     83  C   UNL A   1      32.999  23.987  24.309  1.00  0.00     0.004 A 
ATOM     84  N   UNL A   1      35.147  23.558  24.681  1.00  0.00    -0.237 N 
ATOM     85  C   UNL A   1      33.871  23.192  25.026  1.00  0.00     0.119 A 
BRANCH  83  86
ATOM     86  C   UNL A   1      31.505  23.916  24.337  1.00  0.00     0.042 C 
BRANCH  86  87
ATOM     87  C   UNL A   1      30.912  22.938  25.358  1.00  0.00     0.033 C 
BRANCH  87  88
ATOM     88  C   UNL A   1      30.542  23.521  26.717  1.00  0.00     0.156 C 
BRANCH  88  89
ATOM     89  O   UNL A   1      29.866  22.567  27.522  1.00  0.00    -0.396 OA
ATOM     90  H   UNL A   1      29.758  22.919  28.419  1.00  0.00     0.210 HD
ENDBRANCH  88  89
ENDBRANCH  87  88
ENDBRANCH  86  87
ENDBRANCH  83  86
BRANCH  84  91
ATOM     91  C   UNL A   1      36.365  23.001  25.129  1.00  0.00     0.100 A 
ATOM     92  C   UNL A   1      37.309  23.823  25.761  1.00  0.00     0.032 A 
ATOM     93  C   UNL A   1      36.652  21.649  24.929  1.00  0.00     0.149 A 
ATOM     94  C   UNL A   1      38.513  23.277  26.217  1.00  0.00     0.018 A 
ATOM     95  C   UNL A   1      37.871  21.114  25.339  1.00  0.00     0.057 A 
ATOM     96  F   UNL A   1      35.804  20.847  24.271  1.00  0.00    -0.205 F 
ATOM     97  C   UNL A   1      38.792  21.929  25.993  1.00  0.00     0.021 A 
ATOM     98  Br  UNL A   1      40.437  21.203  26.577  1.00  0.00    -0.051 Br
ENDBRANCH  84  91
ENDBRANCH  78  81
ENDBRANCH  76  77
ENDBRANCH   1  76
TORSDOF 19
ENDMDL
