MODEL 1
REMARK VINA RESULT:     -12.6      0.000      0.000
REMARK SMILES Cc1nn(C)c2c1NC(=O)[C@@H](CCC(=O)NCCCCNC(=O)c1ccc(-c3c4nc(c(-c5c(F)cc(S(=O)(=O)[O-])cc5F)c5ccc([nH]5)c(-c5c(F)cc(S(=O)(=O)[O-])cc5F)c5nc(c(-c6c(F)cc(S(=O)(=O)[O-])cc6F)c6ccc3[nH]6)C=C5)C=C4)cc1)N2
REMARK SMILES IDX 19 1 18 2 17 3 16 4 14 5 15 6 13 8 12 9 11 10 1 11 2 12 3 13
REMARK SMILES IDX 7 14 4 15 6 16 8 17 5 18 90 19 9 20 10 23 20 24 21 25 22 26
REMARK SMILES IDX 23 28 24 29 25 30 89 31 26 32 88 33 27 34 28 35 29 36 82 37
REMARK SMILES IDX 30 38 87 39 81 40 83 41 31 42 86 43 80 44 79 45 32 47 66 48
REMARK SMILES IDX 45 49 65 50 46 51 49 52 64 53 84 54 47 55 48 56 63 58 85 59
REMARK SMILES IDX 50 60 33 61 34 62 43 63 35 64 36 65 42 66 44 67 37 68 38 69
REMARK SMILES IDX 39 70 40 71 41 72 67 73 68 74 77 75 69 76 70 77 76 78 78 79
REMARK SMILES IDX 71 80 72 81 73 82 74 83 75 84 51 85 52 86 61 87 53 88 54 89
REMARK SMILES IDX 60 90 62 91 55 92 56 93 57 94 58 95 59 96
REMARK H PARENT 16 7 8 21 90 22 21 27 83 46 49 57
REMARK Flexibility Score: inf
ROOT
ATOM      1  C   UNL A   1      37.266  21.595  24.437  1.00  0.00     0.023 C 
ENDROOT
BRANCH   1   2
ATOM      2  C   UNL A   1      36.327  20.542  25.026  1.00  0.00     0.023 C 
BRANCH   2   3
ATOM      3  C   UNL A   1      35.079  21.077  25.712  1.00  0.00     0.116 C 
BRANCH   3   4
ATOM      4  N   UNL A   1      33.974  20.164  25.824  1.00  0.00    -0.356 N 
ATOM      5  C   UNL A   1      32.881  20.030  25.021  1.00  0.00     0.220 C 
ATOM      6  O   UNL A   1      32.120  19.088  25.267  1.00  0.00    -0.275 OA
ATOM      7  H   UNL A   1      34.012  19.549  26.591  1.00  0.00     0.163 HD
BRANCH   5   8
ATOM      8  C   UNL A   1      32.617  20.906  23.794  1.00  0.00     0.102 C 
BRANCH   8   9
ATOM      9  C   UNL A   1      32.034  22.324  23.956  1.00  0.00     0.045 C 
BRANCH   9  10
ATOM     10  C   UNL A   1      32.265  23.354  22.817  1.00  0.00     0.171 C 
ATOM     11  C   UNL A   1      33.619  28.231  24.701  1.00  0.00     0.071 C 
ATOM     12  C   UNL A   1      32.589  27.284  24.226  1.00  0.00     0.085 A 
ATOM     13  N   UNL A   1      31.284  27.585  24.358  1.00  0.00    -0.174 NA
ATOM     14  C   UNL A   1      32.769  26.009  23.660  1.00  0.00     0.107 A 
ATOM     15  N   UNL A   1      30.641  26.515  23.833  1.00  0.00    -0.251 N 
ATOM     16  C   UNL A   1      31.510  25.559  23.391  1.00  0.00     0.149 A 
ATOM     17  N   UNL A   1      33.868  25.243  23.354  1.00  0.00    -0.320 N 
ATOM     18  C   UNL A   1      29.201  26.445  23.899  1.00  0.00     0.176 C 
ATOM     19  N   UNL A   1      31.208  24.383  22.821  1.00  0.00    -0.357 N 
ATOM     20  C   UNL A   1      33.715  23.952  22.886  1.00  0.00     0.247 C 
ATOM     21  H   UNL A   1      34.772  25.616  23.470  1.00  0.00     0.170 HD
ATOM     22  H   UNL A   1      30.324  24.215  22.423  1.00  0.00     0.163 HD
ATOM     23  O   UNL A   1      34.706  23.279  22.593  1.00  0.00    -0.272 OA
ENDBRANCH   9  10
ENDBRANCH   8   9
ENDBRANCH   5   8
ENDBRANCH   3   4
ENDBRANCH   2   3
ENDBRANCH   1   2
BRANCH   1  24
ATOM     24  C   UNL A   1      38.046  22.450  25.447  1.00  0.00     0.116 C 
BRANCH  24  25
ATOM     25  N   UNL A   1      38.845  21.644  26.354  1.00  0.00    -0.352 N 
ATOM     26  C   UNL A   1      39.930  21.980  27.126  1.00  0.00     0.251 C 
ATOM     27  H   UNL A   1      38.565  20.703  26.426  1.00  0.00     0.163 HD
ATOM     28  O   UNL A   1      40.592  21.072  27.627  1.00  0.00    -0.269 OA
BRANCH  26  29
ATOM     29  C   UNL A   1      40.331  23.388  27.357  1.00  0.00     0.039 A 
ATOM     30  C   UNL A   1      41.571  23.802  26.854  1.00  0.00     0.014 A 
ATOM     31  C   UNL A   1      39.573  24.269  28.136  1.00  0.00     0.014 A 
ATOM     32  C   UNL A   1      42.021  25.102  27.082  1.00  0.00     0.010 A 
ATOM     33  C   UNL A   1      40.020  25.577  28.354  1.00  0.00     0.010 A 
ATOM     34  C   UNL A   1      41.238  26.006  27.815  1.00  0.00    -0.014 A 
BRANCH  34  35
ATOM     35  C   UNL A   1      41.698  27.408  27.885  1.00  0.00     0.031 A 
ATOM     36  C   UNL A   1      40.627  28.453  27.842  1.00  0.00     0.074 A 
ATOM     37  C   UNL A   1      42.902  27.734  28.404  1.00  0.00     0.049 A 
ATOM     38  N   UNL A   1      39.913  28.783  28.880  1.00  0.00    -0.248 NA
ATOM     39  C   UNL A   1      40.139  29.025  26.588  1.00  0.00     0.031 C 
ATOM     40  C   UNL A   1      43.519  27.013  29.524  1.00  0.00     0.029 A 
ATOM     41  N   UNL A   1      43.684  28.855  28.249  1.00  0.00    -0.354 N 
ATOM     42  C   UNL A   1      38.882  29.593  28.436  1.00  0.00     0.074 A 
ATOM     43  C   UNL A   1      39.058  29.707  27.004  1.00  0.00     0.031 C 
ATOM     44  C   UNL A   1      44.467  27.801  30.073  1.00  0.00     0.029 A 
ATOM     45  C   UNL A   1      44.633  29.004  29.260  1.00  0.00     0.049 A 
ATOM     46  H   UNL A   1      43.583  29.488  27.501  1.00  0.00     0.167 HD
ATOM     47  C   UNL A   1      37.952  30.136  29.268  1.00  0.00     0.037 A 
ATOM     48  C   UNL A   1      45.069  30.204  29.739  1.00  0.00     0.037 A 
ATOM     49  C   UNL A   1      38.136  29.856  30.663  1.00  0.00     0.049 A 
ATOM     50  C   UNL A   1      43.823  30.688  30.443  1.00  0.00     0.074 A 
ATOM     51  C   UNL A   1      37.691  28.934  31.585  1.00  0.00     0.029 A 
ATOM     52  N   UNL A   1      39.043  30.622  31.361  1.00  0.00    -0.354 N 
ATOM     53  N   UNL A   1      43.389  30.280  31.606  1.00  0.00    -0.248 NA
ATOM     54  C   UNL A   1      42.827  31.400  29.638  1.00  0.00     0.031 C 
ATOM     55  C   UNL A   1      38.701  28.894  32.600  1.00  0.00     0.029 A 
ATOM     56  C   UNL A   1      39.713  29.767  32.203  1.00  0.00     0.049 A 
ATOM     57  H   UNL A   1      39.185  31.592  31.273  1.00  0.00     0.167 HD
ATOM     58  C   UNL A   1      42.004  30.456  31.575  1.00  0.00     0.074 A 
ATOM     59  C   UNL A   1      41.729  31.168  30.343  1.00  0.00     0.031 C 
ATOM     60  C   UNL A   1      41.137  29.864  32.448  1.00  0.00     0.037 A 
BRANCH  47  61
ATOM     61  C   UNL A   1      36.911  31.101  28.853  1.00  0.00     0.058 A 
ATOM     62  C   UNL A   1      37.193  32.473  28.951  1.00  0.00     0.135 A 
ATOM     63  C   UNL A   1      35.597  30.717  28.562  1.00  0.00     0.135 A 
ATOM     64  F   UNL A   1      38.441  32.881  29.236  1.00  0.00    -0.206 F 
ATOM     65  C   UNL A   1      36.201  33.433  28.813  1.00  0.00     0.059 A 
ATOM     66  C   UNL A   1      34.584  31.665  28.413  1.00  0.00     0.059 A 
ATOM     67  F   UNL A   1      35.277  29.417  28.468  1.00  0.00    -0.206 F 
ATOM     68  C   UNL A   1      34.893  33.018  28.564  1.00  0.00     0.060 A 
BRANCH  68  69
ATOM     69  S   UNL A   1      33.605  34.284  28.481  1.00  0.00     0.124 S 
ATOM     70  O   UNL A   1      34.318  35.398  27.866  1.00  0.00    -0.237 OA
ATOM     71  O   UNL A   1      32.597  33.634  27.650  1.00  0.00    -0.237 OA
ATOM     72  O   UNL A   1      33.230  34.476  29.879  1.00  0.00    -0.744 OA
ENDBRANCH  68  69
ENDBRANCH  47  61
BRANCH  48  73
ATOM     73  C   UNL A   1      45.847  31.044  28.766  1.00  0.00     0.058 A 
ATOM     74  C   UNL A   1      45.195  31.497  27.599  1.00  0.00     0.135 A 
ATOM     75  C   UNL A   1      47.185  31.442  28.911  1.00  0.00     0.135 A 
ATOM     76  F   UNL A   1      43.965  31.051  27.292  1.00  0.00    -0.206 F 
ATOM     77  C   UNL A   1      45.766  32.429  26.736  1.00  0.00     0.059 A 
ATOM     78  C   UNL A   1      47.773  32.397  28.077  1.00  0.00     0.059 A 
ATOM     79  F   UNL A   1      47.956  30.939  29.885  1.00  0.00    -0.206 F 
ATOM     80  C   UNL A   1      47.038  32.914  27.015  1.00  0.00     0.060 A 
BRANCH  80  81
ATOM     81  S   UNL A   1      47.674  34.281  26.024  1.00  0.00     0.124 S 
ATOM     82  O   UNL A   1      46.561  34.537  25.112  1.00  0.00    -0.237 OA
ATOM     83  O   UNL A   1      47.904  35.304  27.044  1.00  0.00    -0.237 OA
ATOM     84  O   UNL A   1      48.875  33.731  25.416  1.00  0.00    -0.744 OA
ENDBRANCH  80  81
ENDBRANCH  48  73
BRANCH  60  85
ATOM     85  C   UNL A   1      41.763  29.082  33.559  1.00  0.00     0.058 A 
ATOM     86  C   UNL A   1      41.904  29.638  34.838  1.00  0.00     0.135 A 
ATOM     87  C   UNL A   1      42.194  27.755  33.375  1.00  0.00     0.135 A 
ATOM     88  F   UNL A   1      41.500  30.897  35.077  1.00  0.00    -0.206 F 
ATOM     89  C   UNL A   1      42.427  28.904  35.899  1.00  0.00     0.059 A 
ATOM     90  C   UNL A   1      42.692  26.993  34.430  1.00  0.00     0.059 A 
ATOM     91  F   UNL A   1      42.112  27.165  32.171  1.00  0.00    -0.206 F 
ATOM     92  C   UNL A   1      42.803  27.576  35.690  1.00  0.00     0.060 A 
BRANCH  92  93
ATOM     93  S   UNL A   1      43.365  26.601  37.102  1.00  0.00     0.124 S 
ATOM     94  O   UNL A   1      42.107  26.257  37.755  1.00  0.00    -0.237 OA
ATOM     95  O   UNL A   1      44.068  25.495  36.457  1.00  0.00    -0.237 OA
ATOM     96  O   UNL A   1      44.221  27.528  37.839  1.00  0.00    -0.744 OA
ENDBRANCH  92  93
ENDBRANCH  60  85
ENDBRANCH  34  35
ENDBRANCH  26  29
ENDBRANCH  24  25
ENDBRANCH   1  24
TORSDOF 16
ENDMDL
MODEL 2
REMARK VINA RESULT:     -12.5      1.322      1.978
REMARK SMILES Cc1nn(C)c2c1NC(=O)[C@@H](CCC(=O)NCCCCNC(=O)c1ccc(-c3c4nc(c(-c5c(F)cc(S(=O)(=O)[O-])cc5F)c5ccc([nH]5)c(-c5c(F)cc(S(=O)(=O)[O-])cc5F)c5nc(c(-c6c(F)cc(S(=O)(=O)[O-])cc6F)c6ccc3[nH]6)C=C5)C=C4)cc1)N2
REMARK SMILES IDX 19 1 18 2 17 3 16 4 14 5 15 6 13 8 12 9 11 10 1 11 2 12 3 13
REMARK SMILES IDX 7 14 4 15 6 16 8 17 5 18 90 19 9 20 10 23 20 24 21 25 22 26
REMARK SMILES IDX 23 28 24 29 25 30 89 31 26 32 88 33 27 34 28 35 29 36 82 37
REMARK SMILES IDX 30 38 87 39 81 40 83 41 31 42 86 43 80 44 79 45 32 47 66 48
REMARK SMILES IDX 45 49 65 50 46 51 49 52 64 53 84 54 47 55 48 56 63 58 85 59
REMARK SMILES IDX 50 60 33 61 34 62 43 63 35 64 36 65 42 66 44 67 37 68 38 69
REMARK SMILES IDX 39 70 40 71 41 72 67 73 68 74 77 75 69 76 70 77 76 78 78 79
REMARK SMILES IDX 71 80 72 81 73 82 74 83 75 84 51 85 52 86 61 87 53 88 54 89
REMARK SMILES IDX 60 90 62 91 55 92 56 93 57 94 58 95 59 96
REMARK H PARENT 16 7 8 21 90 22 21 27 83 46 49 57
REMARK Flexibility Score: inf
ROOT
ATOM      1  C   UNL A   1      37.141  21.661  24.569  1.00  0.00     0.023 C 
ENDROOT
BRANCH   1   2
ATOM      2  C   UNL A   1      36.210  20.545  25.043  1.00  0.00     0.023 C 
BRANCH   2   3
ATOM      3  C   UNL A   1      34.735  20.907  25.138  1.00  0.00     0.116 C 
BRANCH   3   4
ATOM      4  N   UNL A   1      34.227  21.165  26.458  1.00  0.00    -0.356 N 
ATOM      5  C   UNL A   1      33.903  22.355  27.040  1.00  0.00     0.220 C 
ATOM      6  O   UNL A   1      33.377  22.304  28.157  1.00  0.00    -0.275 OA
ATOM      7  H   UNL A   1      34.095  20.370  27.022  1.00  0.00     0.163 HD
BRANCH   5   8
ATOM      8  C   UNL A   1      34.062  23.710  26.346  1.00  0.00     0.102 C 
BRANCH   8   9
ATOM      9  C   UNL A   1      32.851  24.649  26.176  1.00  0.00     0.045 C 
BRANCH   9  10
ATOM     10  C   UNL A   1      33.112  26.132  25.799  1.00  0.00     0.171 C 
ATOM     11  C   UNL A   1      29.029  28.289  22.999  1.00  0.00     0.071 C 
ATOM     12  C   UNL A   1      30.343  27.613  23.030  1.00  0.00     0.085 A 
ATOM     13  N   UNL A   1      30.880  27.134  21.893  1.00  0.00    -0.174 NA
ATOM     14  C   UNL A   1      31.154  27.331  24.143  1.00  0.00     0.107 A 
ATOM     15  N   UNL A   1      32.055  26.587  22.287  1.00  0.00    -0.251 N 
ATOM     16  C   UNL A   1      32.252  26.705  23.632  1.00  0.00     0.149 A 
ATOM     17  N   UNL A   1      31.045  27.567  25.493  1.00  0.00    -0.320 N 
ATOM     18  C   UNL A   1      32.869  25.877  21.328  1.00  0.00     0.176 C 
ATOM     19  N   UNL A   1      33.305  26.275  24.343  1.00  0.00    -0.357 N 
ATOM     20  C   UNL A   1      31.985  27.064  26.371  1.00  0.00     0.247 C 
ATOM     21  H   UNL A   1      30.291  28.098  25.837  1.00  0.00     0.170 HD
ATOM     22  H   UNL A   1      34.166  26.066  23.915  1.00  0.00     0.163 HD
ATOM     23  O   UNL A   1      31.893  27.299  27.578  1.00  0.00    -0.272 OA
ENDBRANCH   9  10
ENDBRANCH   8   9
ENDBRANCH   5   8
ENDBRANCH   3   4
ENDBRANCH   2   3
ENDBRANCH   1   2
BRANCH   1  24
ATOM     24  C   UNL A   1      37.858  22.458  25.669  1.00  0.00     0.116 C 
BRANCH  24  25
ATOM     25  N   UNL A   1      38.804  21.644  26.414  1.00  0.00    -0.352 N 
ATOM     26  C   UNL A   1      39.977  21.988  27.040  1.00  0.00     0.251 C 
ATOM     27  H   UNL A   1      38.567  20.692  26.480  1.00  0.00     0.163 HD
ATOM     28  O   UNL A   1      40.732  21.085  27.400  1.00  0.00    -0.269 OA
BRANCH  26  29
ATOM     29  C   UNL A   1      40.362  23.400  27.280  1.00  0.00     0.039 A 
ATOM     30  C   UNL A   1      41.631  23.808  26.852  1.00  0.00     0.014 A 
ATOM     31  C   UNL A   1      39.555  24.289  27.997  1.00  0.00     0.014 A 
ATOM     32  C   UNL A   1      42.066  25.111  27.093  1.00  0.00     0.010 A 
ATOM     33  C   UNL A   1      39.987  25.600  28.228  1.00  0.00     0.010 A 
ATOM     34  C   UNL A   1      41.238  26.023  27.763  1.00  0.00    -0.014 A 
BRANCH  34  35
ATOM     35  C   UNL A   1      41.692  27.426  27.845  1.00  0.00     0.031 A 
ATOM     36  C   UNL A   1      40.618  28.468  27.808  1.00  0.00     0.074 A 
ATOM     37  C   UNL A   1      42.894  27.753  28.369  1.00  0.00     0.049 A 
ATOM     38  N   UNL A   1      39.901  28.786  28.848  1.00  0.00    -0.248 NA
ATOM     39  C   UNL A   1      40.130  29.049  26.559  1.00  0.00     0.031 C 
ATOM     40  C   UNL A   1      43.512  27.025  29.485  1.00  0.00     0.029 A 
ATOM     41  N   UNL A   1      43.672  28.878  28.225  1.00  0.00    -0.354 N 
ATOM     42  C   UNL A   1      38.868  29.596  28.409  1.00  0.00     0.074 A 
ATOM     43  C   UNL A   1      39.046  29.723  26.978  1.00  0.00     0.031 C 
ATOM     44  C   UNL A   1      44.456  27.812  30.042  1.00  0.00     0.029 A 
ATOM     45  C   UNL A   1      44.619  29.022  29.239  1.00  0.00     0.049 A 
ATOM     46  H   UNL A   1      43.571  29.516  27.482  1.00  0.00     0.167 HD
ATOM     47  C   UNL A   1      37.934  30.129  29.244  1.00  0.00     0.037 A 
ATOM     48  C   UNL A   1      45.050  30.219  29.728  1.00  0.00     0.037 A 
ATOM     49  C   UNL A   1      38.116  29.839  30.636  1.00  0.00     0.049 A 
ATOM     50  C   UNL A   1      43.801  30.693  30.434  1.00  0.00     0.074 A 
ATOM     51  C   UNL A   1      37.673  28.907  31.550  1.00  0.00     0.029 A 
ATOM     52  N   UNL A   1      39.019  30.602  31.342  1.00  0.00    -0.354 N 
ATOM     53  N   UNL A   1      43.366  30.274  31.593  1.00  0.00    -0.248 NA
ATOM     54  C   UNL A   1      42.803  31.408  29.633  1.00  0.00     0.031 C 
ATOM     55  C   UNL A   1      38.682  28.862  32.566  1.00  0.00     0.029 A 
ATOM     56  C   UNL A   1      39.690  29.743  32.179  1.00  0.00     0.049 A 
ATOM     57  H   UNL A   1      39.158  31.573  31.262  1.00  0.00     0.167 HD
ATOM     58  C   UNL A   1      41.981  30.446  31.560  1.00  0.00     0.074 A 
ATOM     59  C   UNL A   1      41.705  31.166  30.334  1.00  0.00     0.031 C 
ATOM     60  C   UNL A   1      41.113  29.843  32.427  1.00  0.00     0.037 A 
BRANCH  47  61
ATOM     61  C   UNL A   1      36.890  31.093  28.834  1.00  0.00     0.058 A 
ATOM     62  C   UNL A   1      37.175  32.466  28.923  1.00  0.00     0.135 A 
ATOM     63  C   UNL A   1      35.573  30.710  28.558  1.00  0.00     0.135 A 
ATOM     64  F   UNL A   1      38.426  32.874  29.194  1.00  0.00    -0.206 F 
ATOM     65  C   UNL A   1      36.183  33.427  28.790  1.00  0.00     0.059 A 
ATOM     66  C   UNL A   1      34.559  31.659  28.415  1.00  0.00     0.059 A 
ATOM     67  F   UNL A   1      35.250  29.410  28.472  1.00  0.00    -0.206 F 
ATOM     68  C   UNL A   1      34.871  33.012  28.556  1.00  0.00     0.060 A 
BRANCH  68  69
ATOM     69  S   UNL A   1      33.584  34.279  28.481  1.00  0.00     0.124 S 
ATOM     70  O   UNL A   1      32.568  33.626  27.662  1.00  0.00    -0.237 OA
ATOM     71  O   UNL A   1      33.252  34.454  29.891  1.00  0.00    -0.237 OA
ATOM     72  O   UNL A   1      34.260  35.410  27.854  1.00  0.00    -0.744 OA
ENDBRANCH  68  69
ENDBRANCH  47  61
BRANCH  48  73
ATOM     73  C   UNL A   1      45.826  31.071  28.764  1.00  0.00     0.058 A 
ATOM     74  C   UNL A   1      45.971  32.446  29.048  1.00  0.00     0.135 A 
ATOM     75  C   UNL A   1      46.445  30.622  27.587  1.00  0.00     0.135 A 
ATOM     76  F   UNL A   1      45.295  33.003  30.066  1.00  0.00    -0.206 F 
ATOM     77  C   UNL A   1      46.823  33.274  28.321  1.00  0.00     0.059 A 
ATOM     78  C   UNL A   1      47.327  31.423  26.856  1.00  0.00     0.059 A 
ATOM     79  F   UNL A   1      46.238  29.381  27.125  1.00  0.00    -0.206 F 
ATOM     80  C   UNL A   1      47.539  32.738  27.258  1.00  0.00     0.060 A 
BRANCH  80  81
ATOM     81  S   UNL A   1      48.803  33.757  26.471  1.00  0.00     0.124 S 
ATOM     82  O   UNL A   1      49.250  34.595  27.581  1.00  0.00    -0.237 OA
ATOM     83  O   UNL A   1      49.758  32.746  26.017  1.00  0.00    -0.237 OA
ATOM     84  O   UNL A   1      48.078  34.443  25.414  1.00  0.00    -0.744 OA
ENDBRANCH  80  81
ENDBRANCH  48  73
BRANCH  60  85
ATOM     85  C   UNL A   1      41.741  29.054  33.533  1.00  0.00     0.058 A 
ATOM     86  C   UNL A   1      41.873  29.599  34.818  1.00  0.00     0.135 A 
ATOM     87  C   UNL A   1      42.181  27.732  33.338  1.00  0.00     0.135 A 
ATOM     88  F   UNL A   1      41.460  30.853  35.068  1.00  0.00    -0.206 F 
ATOM     89  C   UNL A   1      42.396  28.857  35.874  1.00  0.00     0.059 A 
ATOM     90  C   UNL A   1      42.680  26.962  34.387  1.00  0.00     0.059 A 
ATOM     91  F   UNL A   1      42.107  27.154  32.127  1.00  0.00    -0.206 F 
ATOM     92  C   UNL A   1      42.782  27.534  35.653  1.00  0.00     0.060 A 
BRANCH  92  93
ATOM     93  S   UNL A   1      43.345  26.549  37.057  1.00  0.00     0.124 S 
ATOM     94  O   UNL A   1      44.007  25.428  36.398  1.00  0.00    -0.237 OA
ATOM     95  O   UNL A   1      44.225  27.481  37.759  1.00  0.00    -0.237 OA
ATOM     96  O   UNL A   1      42.109  26.220  37.763  1.00  0.00    -0.744 OA
ENDBRANCH  92  93
ENDBRANCH  60  85
ENDBRANCH  34  35
ENDBRANCH  26  29
ENDBRANCH  24  25
ENDBRANCH   1  24
TORSDOF 16
ENDMDL
MODEL 3
REMARK VINA RESULT:     -12.4      1.171      1.995
REMARK SMILES Cc1nn(C)c2c1NC(=O)[C@@H](CCC(=O)NCCCCNC(=O)c1ccc(-c3c4nc(c(-c5c(F)cc(S(=O)(=O)[O-])cc5F)c5ccc([nH]5)c(-c5c(F)cc(S(=O)(=O)[O-])cc5F)c5nc(c(-c6c(F)cc(S(=O)(=O)[O-])cc6F)c6ccc3[nH]6)C=C5)C=C4)cc1)N2
REMARK SMILES IDX 19 1 18 2 17 3 16 4 14 5 15 6 13 8 12 9 11 10 1 11 2 12 3 13
REMARK SMILES IDX 7 14 4 15 6 16 8 17 5 18 90 19 9 20 10 23 20 24 21 25 22 26
REMARK SMILES IDX 23 28 24 29 25 30 89 31 26 32 88 33 27 34 28 35 29 36 82 37
REMARK SMILES IDX 30 38 87 39 81 40 83 41 31 42 86 43 80 44 79 45 32 47 66 48
REMARK SMILES IDX 45 49 65 50 46 51 49 52 64 53 84 54 47 55 48 56 63 58 85 59
REMARK SMILES IDX 50 60 33 61 34 62 43 63 35 64 36 65 42 66 44 67 37 68 38 69
REMARK SMILES IDX 39 70 40 71 41 72 67 73 68 74 77 75 69 76 70 77 76 78 78 79
REMARK SMILES IDX 71 80 72 81 73 82 74 83 75 84 51 85 52 86 61 87 53 88 54 89
REMARK SMILES IDX 60 90 62 91 55 92 56 93 57 94 58 95 59 96
REMARK H PARENT 16 7 8 21 90 22 21 27 83 46 49 57
REMARK Flexibility Score: inf
ROOT
ATOM      1  C   UNL A   1      37.099  21.965  24.427  1.00  0.00     0.023 C 
ENDROOT
BRANCH   1   2
ATOM      2  C   UNL A   1      36.556  20.651  24.990  1.00  0.00     0.023 C 
BRANCH   2   3
ATOM      3  C   UNL A   1      35.098  20.669  25.423  1.00  0.00     0.116 C 
BRANCH   3   4
ATOM      4  N   UNL A   1      34.269  19.610  24.912  1.00  0.00    -0.356 N 
ATOM      5  C   UNL A   1      33.040  19.682  24.326  1.00  0.00     0.220 C 
ATOM      6  O   UNL A   1      32.579  18.631  23.866  1.00  0.00    -0.275 OA
ATOM      7  H   UNL A   1      34.643  18.703  24.998  1.00  0.00     0.163 HD
BRANCH   5   8
ATOM      8  C   UNL A   1      32.273  20.990  24.123  1.00  0.00     0.102 C 
BRANCH   8   9
ATOM      9  C   UNL A   1      31.415  21.579  25.260  1.00  0.00     0.045 C 
BRANCH   9  10
ATOM     10  C   UNL A   1      31.806  22.964  25.843  1.00  0.00     0.171 C 
ATOM     11  C   UNL A   1      28.977  26.998  23.630  1.00  0.00     0.071 C 
ATOM     12  C   UNL A   1      30.191  26.155  23.665  1.00  0.00     0.085 A 
ATOM     13  N   UNL A   1      31.086  26.221  22.662  1.00  0.00    -0.174 NA
ATOM     14  C   UNL A   1      30.560  25.194  24.624  1.00  0.00     0.107 A 
ATOM     15  N   UNL A   1      32.044  25.330  23.014  1.00  0.00    -0.251 N 
ATOM     16  C   UNL A   1      31.761  24.710  24.196  1.00  0.00     0.149 A 
ATOM     17  N   UNL A   1      29.990  24.732  25.786  1.00  0.00    -0.320 N 
ATOM     18  C   UNL A   1      33.133  25.058  22.106  1.00  0.00     0.176 C 
ATOM     19  N   UNL A   1      32.496  23.782  24.827  1.00  0.00    -0.357 N 
ATOM     20  C   UNL A   1      30.560  23.680  26.475  1.00  0.00     0.247 C 
ATOM     21  H   UNL A   1      29.169  25.153  26.129  1.00  0.00     0.170 HD
ATOM     22  H   UNL A   1      33.450  23.653  24.623  1.00  0.00     0.163 HD
ATOM     23  O   UNL A   1      30.055  23.285  27.530  1.00  0.00    -0.272 OA
ENDBRANCH   9  10
ENDBRANCH   8   9
ENDBRANCH   5   8
ENDBRANCH   3   4
ENDBRANCH   2   3
ENDBRANCH   1   2
BRANCH   1  24
ATOM     24  C   UNL A   1      38.015  22.774  25.357  1.00  0.00     0.116 C 
BRANCH  24  25
ATOM     25  N   UNL A   1      38.788  21.926  26.248  1.00  0.00    -0.352 N 
ATOM     26  C   UNL A   1      39.838  22.228  27.080  1.00  0.00     0.251 C 
ATOM     27  H   UNL A   1      38.518  20.980  26.255  1.00  0.00     0.163 HD
ATOM     28  O   UNL A   1      40.491  21.301  27.555  1.00  0.00    -0.269 OA
BRANCH  26  29
ATOM     29  C   UNL A   1      40.211  23.626  27.406  1.00  0.00     0.039 A 
ATOM     30  C   UNL A   1      41.503  24.048  27.071  1.00  0.00     0.014 A 
ATOM     31  C   UNL A   1      39.366  24.484  28.118  1.00  0.00     0.014 A 
ATOM     32  C   UNL A   1      41.926  25.336  27.397  1.00  0.00     0.010 A 
ATOM     33  C   UNL A   1      39.787  25.781  28.434  1.00  0.00     0.010 A 
ATOM     34  C   UNL A   1      41.062  26.220  28.061  1.00  0.00    -0.014 A 
BRANCH  34  35
ATOM     35  C   UNL A   1      41.513  27.616  28.234  1.00  0.00     0.031 A 
ATOM     36  C   UNL A   1      40.448  28.664  28.163  1.00  0.00     0.074 A 
ATOM     37  C   UNL A   1      42.675  27.913  28.857  1.00  0.00     0.049 A 
ATOM     38  N   UNL A   1      39.658  28.944  29.160  1.00  0.00    -0.248 NA
ATOM     39  C   UNL A   1      40.054  29.299  26.906  1.00  0.00     0.031 C 
ATOM     40  C   UNL A   1      43.208  27.136  29.984  1.00  0.00     0.029 A 
ATOM     41  N   UNL A   1      43.465  29.039  28.817  1.00  0.00    -0.354 N 
ATOM     42  C   UNL A   1      38.662  29.778  28.681  1.00  0.00     0.074 A 
ATOM     43  C   UNL A   1      38.944  29.962  27.274  1.00  0.00     0.031 C 
ATOM     44  C   UNL A   1      44.111  27.894  30.641  1.00  0.00     0.029 A 
ATOM     45  C   UNL A   1      44.336  29.135  29.902  1.00  0.00     0.049 A 
ATOM     46  H   UNL A   1      43.420  29.708  28.096  1.00  0.00     0.167 HD
ATOM     47  C   UNL A   1      37.671  30.281  29.467  1.00  0.00     0.037 A 
ATOM     48  C   UNL A   1      44.733  30.308  30.472  1.00  0.00     0.037 A 
ATOM     49  C   UNL A   1      37.750  29.932  30.856  1.00  0.00     0.049 A 
ATOM     50  C   UNL A   1      43.437  30.760  31.103  1.00  0.00     0.074 A 
ATOM     51  C   UNL A   1      37.239  28.966  31.696  1.00  0.00     0.029 A 
ATOM     52  N   UNL A   1      38.602  30.660  31.657  1.00  0.00    -0.354 N 
ATOM     53  N   UNL A   1      42.918  30.296  32.210  1.00  0.00    -0.248 NA
ATOM     54  C   UNL A   1      42.503  31.513  30.263  1.00  0.00     0.031 C 
ATOM     55  C   UNL A   1      38.171  28.873  32.780  1.00  0.00     0.029 A 
ATOM     56  C   UNL A   1      39.208  29.763  32.503  1.00  0.00     0.049 A 
ATOM     57  H   UNL A   1      38.749  31.633  31.628  1.00  0.00     0.167 HD
ATOM     58  C   UNL A   1      41.539  30.477  32.083  1.00  0.00     0.074 A 
ATOM     59  C   UNL A   1      41.355  31.250  30.871  1.00  0.00     0.031 C 
ATOM     60  C   UNL A   1      40.609  29.844  32.859  1.00  0.00     0.037 A 
BRANCH  47  61
ATOM     61  C   UNL A   1      36.663  31.268  29.024  1.00  0.00     0.058 A 
ATOM     62  C   UNL A   1      36.946  32.633  29.188  1.00  0.00     0.135 A 
ATOM     63  C   UNL A   1      35.368  30.904  28.638  1.00  0.00     0.135 A 
ATOM     64  F   UNL A   1      38.176  33.022  29.564  1.00  0.00    -0.206 F 
ATOM     65  C   UNL A   1      35.969  33.605  29.023  1.00  0.00     0.059 A 
ATOM     66  C   UNL A   1      34.370  31.864  28.461  1.00  0.00     0.059 A 
ATOM     67  F   UNL A   1      35.047  29.610  28.477  1.00  0.00    -0.206 F 
ATOM     68  C   UNL A   1      34.676  33.209  28.679  1.00  0.00     0.060 A 
BRANCH  68  69
ATOM     69  S   UNL A   1      33.402  34.486  28.563  1.00  0.00     0.124 S 
ATOM     70  O   UNL A   1      33.010  34.646  29.959  1.00  0.00    -0.237 OA
ATOM     71  O   UNL A   1      34.144  35.598  27.977  1.00  0.00    -0.237 OA
ATOM     72  O   UNL A   1      32.396  33.881  27.696  1.00  0.00    -0.744 OA
ENDBRANCH  68  69
ENDBRANCH  47  61
BRANCH  48  73
ATOM     73  C   UNL A   1      45.580  31.194  29.602  1.00  0.00     0.058 A 
ATOM     74  C   UNL A   1      46.210  30.625  28.475  1.00  0.00     0.135 A 
ATOM     75  C   UNL A   1      45.804  32.566  29.798  1.00  0.00     0.135 A 
ATOM     76  F   UNL A   1      46.183  29.296  28.281  1.00  0.00    -0.206 F 
ATOM     77  C   UNL A   1      46.856  31.394  27.511  1.00  0.00     0.059 A 
ATOM     78  C   UNL A   1      46.424  33.366  28.834  1.00  0.00     0.059 A 
ATOM     79  F   UNL A   1      45.401  33.180  30.920  1.00  0.00    -0.206 F 
ATOM     80  C   UNL A   1      46.910  32.773  27.674  1.00  0.00     0.060 A 
BRANCH  80  81
ATOM     81  S   UNL A   1      47.546  33.776  26.315  1.00  0.00     0.124 S 
ATOM     82  O   UNL A   1      47.846  35.039  26.987  1.00  0.00    -0.237 OA
ATOM     83  O   UNL A   1      48.707  32.994  25.890  1.00  0.00    -0.237 OA
ATOM     84  O   UNL A   1      46.442  33.810  25.371  1.00  0.00    -0.744 OA
ENDBRANCH  80  81
ENDBRANCH  48  73
BRANCH  60  85
ATOM     85  C   UNL A   1      41.152  29.006  33.973  1.00  0.00     0.058 A 
ATOM     86  C   UNL A   1      41.578  27.691  33.741  1.00  0.00     0.135 A 
ATOM     87  C   UNL A   1      41.293  29.515  35.277  1.00  0.00     0.135 A 
ATOM     88  F   UNL A   1      41.480  27.154  32.513  1.00  0.00    -0.206 F 
ATOM     89  C   UNL A   1      42.144  26.919  34.751  1.00  0.00     0.059 A 
ATOM     90  C   UNL A   1      41.884  28.770  36.296  1.00  0.00     0.059 A 
ATOM     91  F   UNL A   1      40.883  30.759  35.578  1.00  0.00    -0.206 F 
ATOM     92  C   UNL A   1      42.308  27.472  36.023  1.00  0.00     0.060 A 
BRANCH  92  93
ATOM     93  S   UNL A   1      43.152  26.501  37.289  1.00  0.00     0.124 S 
ATOM     94  O   UNL A   1      44.105  27.466  37.829  1.00  0.00    -0.237 OA
ATOM     95  O   UNL A   1      42.056  26.127  38.178  1.00  0.00    -0.237 OA
ATOM     96  O   UNL A   1      43.740  25.395  36.537  1.00  0.00    -0.744 OA
ENDBRANCH  92  93
ENDBRANCH  60  85
ENDBRANCH  34  35
ENDBRANCH  26  29
ENDBRANCH  24  25
ENDBRANCH   1  24
TORSDOF 16
ENDMDL
