MODEL 1
REMARK VINA RESULT:     -12.4      0.000      0.000
REMARK SMILES CN1C(=O)C[C@@H](C(=O)NCCCCNC(=O)c2ccc(-c3c4nc(c(-c5c(F)cc(S(=O)(=O)[O-])cc5F)c5ccc([nH]5)c(-c5c(F)cc(S(=O)(=O)[O-])cc5F)c5nc(c(-c6c(F)cc(S(=O)(=O)[O-])cc6F)c6ccc3[nH]6)C=C5)C=C4)cc2)C12CC[NH+](CCSc1ccccc1)CC2
REMARK SMILES IDX 11 1 10 2 9 3 7 4 8 5 6 7 1 8 2 9 3 10 83 11 4 12 5 13 84 14
REMARK SMILES IDX 97 15 85 16 96 17 86 18 87 20 88 21 89 22 90 23 91 24 95 25
REMARK SMILES IDX 92 26 94 27 93 28 12 29 13 30 14 31 15 32 16 34 17 35 18 36
REMARK SMILES IDX 82 37 19 38 81 39 20 40 21 41 22 42 75 43 23 44 80 45 74 46
REMARK SMILES IDX 76 47 24 48 79 49 73 50 72 51 25 53 59 54 38 55 58 56 39 57
REMARK SMILES IDX 42 58 57 59 77 60 40 61 41 62 56 64 78 65 43 66 26 67 27 68
REMARK SMILES IDX 36 69 28 70 29 71 35 72 37 73 30 74 31 75 32 76 33 77 34 78
REMARK SMILES IDX 60 79 61 80 70 81 62 82 63 83 69 84 71 85 64 86 65 87 66 88
REMARK SMILES IDX 67 89 68 90 44 91 45 92 54 93 46 94 47 95 53 96 55 97 48 98
REMARK SMILES IDX 49 99 50 100 51 101 52 102
REMARK H PARENT 9 6 86 19 14 33 76 52 42 63
REMARK Flexibility Score: inf
ROOT
ATOM      1  C   UNL A   1      38.198  21.986  25.619  1.00  0.00     0.023 C 
ENDROOT
BRANCH   1   2
ATOM      2  C   UNL A   1      37.412  21.812  24.325  1.00  0.00     0.116 C 
BRANCH   2   3
ATOM      3  N   UNL A   1      36.323  20.876  24.482  1.00  0.00    -0.356 N 
ATOM      4  C   UNL A   1      35.100  21.025  25.033  1.00  0.00     0.226 C 
ATOM      5  O   UNL A   1      34.379  20.025  25.105  1.00  0.00    -0.275 OA
ATOM      6  H   UNL A   1      36.503  19.976  24.125  1.00  0.00     0.163 HD
BRANCH   4   7
ATOM      7  C   UNL A   1      34.583  22.346  25.547  1.00  0.00     0.114 C 
ATOM      8  C   UNL A   1      30.854  22.786  25.934  1.00  0.00     0.147 C 
ATOM      9  N   UNL A   1      32.298  22.618  26.011  1.00  0.00    -0.339 N 
ATOM     10  C   UNL A   1      32.897  22.527  27.269  1.00  0.00     0.223 C 
ATOM     11  C   UNL A   1      33.286  22.949  24.947  1.00  0.00     0.065 C 
ATOM     12  O   UNL A   1      32.326  22.533  28.341  1.00  0.00    -0.275 OA
ATOM     13  C   UNL A   1      34.388  22.388  27.075  1.00  0.00     0.116 C 
ATOM     14  C   UNL A   1      32.839  22.494  23.530  1.00  0.00     0.091 C 
ATOM     15  C   UNL A   1      33.526  24.459  25.002  1.00  0.00     0.091 C 
ATOM     16  C   UNL A   1      33.050  23.459  22.356  1.00  0.00     0.264 C 
ATOM     17  C   UNL A   1      33.976  25.125  23.724  1.00  0.00     0.264 C 
ATOM     18  N   UNL A   1      33.014  24.877  22.688  1.00  0.00    -0.334 N 
ATOM     19  H   UNL A   1      33.291  25.377  21.843  1.00  0.00     0.348 HD
BRANCH  18  20
ATOM     20  C   UNL A   1      31.712  25.559  22.804  1.00  0.00     0.273 C 
BRANCH  20  21
ATOM     21  C   UNL A   1      31.298  26.930  22.140  1.00  0.00     0.136 C 
BRANCH  21  22
ATOM     22  S   UNL A   1      31.771  28.602  22.866  1.00  0.00    -0.120 SA
BRANCH  22  23
ATOM     23  C   UNL A   1      32.352  28.352  24.556  1.00  0.00     0.007 A 
ATOM     24  C   UNL A   1      33.688  28.463  24.973  1.00  0.00     0.015 A 
ATOM     25  C   UNL A   1      31.385  28.044  25.531  1.00  0.00     0.015 A 
ATOM     26  C   UNL A   1      34.020  28.378  26.340  1.00  0.00     0.001 A 
ATOM     27  C   UNL A   1      31.707  27.999  26.893  1.00  0.00     0.001 A 
ATOM     28  C   UNL A   1      33.026  28.176  27.301  1.00  0.00     0.000 A 
ENDBRANCH  22  23
ENDBRANCH  21  22
ENDBRANCH  20  21
ENDBRANCH  18  20
ENDBRANCH   4   7
ENDBRANCH   2   3
ENDBRANCH   1   2
BRANCH   1  29
ATOM     29  C   UNL A   1      38.186  23.421  26.121  1.00  0.00     0.023 C 
BRANCH  29  30
ATOM     30  C   UNL A   1      39.367  23.716  27.020  1.00  0.00     0.116 C 
BRANCH  30  31
ATOM     31  N   UNL A   1      40.573  24.028  26.253  1.00  0.00    -0.352 N 
ATOM     32  C   UNL A   1      41.252  25.218  26.228  1.00  0.00     0.251 C 
ATOM     33  H   UNL A   1      40.936  23.304  25.693  1.00  0.00     0.163 HD
ATOM     34  O   UNL A   1      42.144  25.437  25.423  1.00  0.00    -0.269 OA
BRANCH  32  35
ATOM     35  C   UNL A   1      40.824  26.218  27.211  1.00  0.00     0.039 A 
ATOM     36  C   UNL A   1      40.005  25.823  28.266  1.00  0.00     0.014 A 
ATOM     37  C   UNL A   1      41.435  27.475  27.178  1.00  0.00     0.014 A 
ATOM     38  C   UNL A   1      39.830  26.698  29.332  1.00  0.00     0.010 A 
ATOM     39  C   UNL A   1      41.354  28.286  28.293  1.00  0.00     0.010 A 
ATOM     40  C   UNL A   1      40.530  27.917  29.367  1.00  0.00    -0.014 A 
BRANCH  40  41
ATOM     41  C   UNL A   1      40.379  28.857  30.498  1.00  0.00     0.031 A 
ATOM     42  C   UNL A   1      41.276  28.706  31.694  1.00  0.00     0.074 A 
ATOM     43  C   UNL A   1      39.409  29.791  30.469  1.00  0.00     0.049 A 
ATOM     44  N   UNL A   1      41.286  29.386  32.809  1.00  0.00    -0.248 NA
ATOM     45  C   UNL A   1      42.270  27.618  31.648  1.00  0.00     0.031 C 
ATOM     46  C   UNL A   1      38.446  29.986  29.382  1.00  0.00     0.029 A 
ATOM     47  N   UNL A   1      39.076  30.755  31.384  1.00  0.00    -0.354 N 
ATOM     48  C   UNL A   1      42.265  28.794  33.598  1.00  0.00     0.074 A 
ATOM     49  C   UNL A   1      42.770  27.653  32.871  1.00  0.00     0.031 C 
ATOM     50  C   UNL A   1      37.665  31.039  29.671  1.00  0.00     0.029 A 
ATOM     51  C   UNL A   1      38.042  31.565  30.979  1.00  0.00     0.049 A 
ATOM     52  H   UNL A   1      39.534  30.858  32.250  1.00  0.00     0.167 HD
ATOM     53  C   UNL A   1      42.726  29.188  34.807  1.00  0.00     0.037 A 
ATOM     54  C   UNL A   1      37.473  32.618  31.596  1.00  0.00     0.037 A 
ATOM     55  C   UNL A   1      42.236  30.348  35.500  1.00  0.00     0.049 A 
ATOM     56  C   UNL A   1      37.999  33.038  32.942  1.00  0.00     0.074 A 
ATOM     57  C   UNL A   1      42.676  30.886  36.694  1.00  0.00     0.029 A 
ATOM     58  N   UNL A   1      41.191  31.147  35.057  1.00  0.00    -0.354 N 
ATOM     59  N   UNL A   1      38.980  32.518  33.642  1.00  0.00    -0.248 NA
ATOM     60  C   UNL A   1      37.346  34.189  33.578  1.00  0.00     0.031 C 
ATOM     61  C   UNL A   1      41.860  31.979  37.002  1.00  0.00     0.029 A 
ATOM     62  C   UNL A   1      40.951  32.158  35.971  1.00  0.00     0.049 A 
ATOM     63  H   UNL A   1      40.694  31.014  34.219  1.00  0.00     0.167 HD
ATOM     64  C   UNL A   1      39.084  33.299  34.789  1.00  0.00     0.074 A 
ATOM     65  C   UNL A   1      38.072  34.331  34.680  1.00  0.00     0.031 C 
ATOM     66  C   UNL A   1      39.940  33.178  35.834  1.00  0.00     0.037 A 
BRANCH  53  67
ATOM     67  C   UNL A   1      43.805  28.354  35.441  1.00  0.00     0.058 A 
ATOM     68  C   UNL A   1      45.165  28.545  35.142  1.00  0.00     0.135 A 
ATOM     69  C   UNL A   1      43.474  27.338  36.351  1.00  0.00     0.135 A 
ATOM     70  F   UNL A   1      45.538  29.489  34.263  1.00  0.00    -0.206 F 
ATOM     71  C   UNL A   1      46.152  27.732  35.687  1.00  0.00     0.059 A 
ATOM     72  C   UNL A   1      44.449  26.535  36.936  1.00  0.00     0.059 A 
ATOM     73  F   UNL A   1      42.191  27.107  36.671  1.00  0.00    -0.206 F 
ATOM     74  C   UNL A   1      45.782  26.725  36.581  1.00  0.00     0.060 A 
BRANCH  74  75
ATOM     75  S   UNL A   1      47.073  25.667  37.265  1.00  0.00     0.124 S 
ATOM     76  O   UNL A   1      47.152  26.155  38.638  1.00  0.00    -0.237 OA
ATOM     77  O   UNL A   1      46.503  24.333  37.099  1.00  0.00    -0.237 OA
ATOM     78  O   UNL A   1      48.232  25.960  36.428  1.00  0.00    -0.744 OA
ENDBRANCH  74  75
ENDBRANCH  53  67
BRANCH  54  79
ATOM     79  C   UNL A   1      36.381  33.376  30.926  1.00  0.00     0.058 A 
ATOM     80  C   UNL A   1      35.065  33.306  31.404  1.00  0.00     0.135 A 
ATOM     81  C   UNL A   1      36.630  34.197  29.816  1.00  0.00     0.135 A 
ATOM     82  F   UNL A   1      34.775  32.532  32.461  1.00  0.00    -0.206 F 
ATOM     83  C   UNL A   1      34.030  34.011  30.799  1.00  0.00     0.059 A 
ATOM     84  C   UNL A   1      35.616  34.932  29.209  1.00  0.00     0.059 A 
ATOM     85  F   UNL A   1      37.876  34.313  29.330  1.00  0.00    -0.206 F 
ATOM     86  C   UNL A   1      34.317  34.827  29.703  1.00  0.00     0.060 A 
BRANCH  86  87
ATOM     87  S   UNL A   1      32.974  35.777  28.958  1.00  0.00     0.124 S 
ATOM     88  O   UNL A   1      32.199  36.161  30.132  1.00  0.00    -0.237 OA
ATOM     89  O   UNL A   1      33.699  36.854  28.290  1.00  0.00    -0.237 OA
ATOM     90  O   UNL A   1      32.336  34.814  28.065  1.00  0.00    -0.744 OA
ENDBRANCH  86  87
ENDBRANCH  54  79
BRANCH  66  91
ATOM     91  C   UNL A   1      39.845  34.208  36.926  1.00  0.00     0.058 A 
ATOM     92  C   UNL A   1      40.502  35.445  36.835  1.00  0.00     0.135 A 
ATOM     93  C   UNL A   1      39.034  33.974  38.049  1.00  0.00     0.135 A 
ATOM     94  F   UNL A   1      41.294  35.715  35.785  1.00  0.00    -0.206 F 
ATOM     95  C   UNL A   1      40.378  36.404  37.833  1.00  0.00     0.059 A 
ATOM     96  C   UNL A   1      38.871  34.932  39.042  1.00  0.00     0.059 A 
ATOM     97  F   UNL A   1      38.374  32.812  38.176  1.00  0.00    -0.206 F 
ATOM     98  C   UNL A   1      39.557  36.140  38.931  1.00  0.00     0.060 A 
BRANCH  98  99
ATOM     99  S   UNL A   1      39.377  37.410  40.201  1.00  0.00     0.124 S 
ATOM    100  O   UNL A   1      38.493  38.364  39.539  1.00  0.00    -0.237 OA
ATOM    101  O   UNL A   1      38.788  36.662  41.308  1.00  0.00    -0.237 OA
ATOM    102  O   UNL A   1      40.745  37.869  40.421  1.00  0.00    -0.744 OA
ENDBRANCH  98  99
ENDBRANCH  66  91
ENDBRANCH  40  41
ENDBRANCH  32  35
ENDBRANCH  30  31
ENDBRANCH  29  30
ENDBRANCH   1  29
TORSDOF 18
ENDMDL
MODEL 2
REMARK VINA RESULT:     -12.3      3.315      9.564
REMARK SMILES CN1C(=O)C[C@@H](C(=O)NCCCCNC(=O)c2ccc(-c3c4nc(c(-c5c(F)cc(S(=O)(=O)[O-])cc5F)c5ccc([nH]5)c(-c5c(F)cc(S(=O)(=O)[O-])cc5F)c5nc(c(-c6c(F)cc(S(=O)(=O)[O-])cc6F)c6ccc3[nH]6)C=C5)C=C4)cc2)C12CC[NH+](CCSc1ccccc1)CC2
REMARK SMILES IDX 11 1 10 2 9 3 7 4 8 5 6 7 1 8 2 9 3 10 83 11 4 12 5 13 84 14
REMARK SMILES IDX 97 15 85 16 96 17 86 18 87 20 88 21 89 22 90 23 91 24 95 25
REMARK SMILES IDX 92 26 94 27 93 28 12 29 13 30 14 31 15 32 16 34 17 35 18 36
REMARK SMILES IDX 82 37 19 38 81 39 20 40 21 41 22 42 75 43 23 44 80 45 74 46
REMARK SMILES IDX 76 47 24 48 79 49 73 50 72 51 25 53 59 54 38 55 58 56 39 57
REMARK SMILES IDX 42 58 57 59 77 60 40 61 41 62 56 64 78 65 43 66 26 67 27 68
REMARK SMILES IDX 36 69 28 70 29 71 35 72 37 73 30 74 31 75 32 76 33 77 34 78
REMARK SMILES IDX 60 79 61 80 70 81 62 82 63 83 69 84 71 85 64 86 65 87 66 88
REMARK SMILES IDX 67 89 68 90 44 91 45 92 54 93 46 94 47 95 53 96 55 97 48 98
REMARK SMILES IDX 49 99 50 100 51 101 52 102
REMARK H PARENT 9 6 86 19 14 33 76 52 42 63
REMARK Flexibility Score: inf
ROOT
ATOM      1  C   UNL A   1      33.025  29.202  24.255  1.00  0.00     0.023 C 
ENDROOT
BRANCH   1   2
ATOM      2  C   UNL A   1      31.998  28.562  23.329  1.00  0.00     0.116 C 
BRANCH   2   3
ATOM      3  N   UNL A   1      32.626  27.868  22.230  1.00  0.00    -0.356 N 
ATOM      4  C   UNL A   1      32.594  26.567  21.870  1.00  0.00     0.226 C 
ATOM      5  O   UNL A   1      33.294  26.221  20.914  1.00  0.00    -0.275 OA
ATOM      6  H   UNL A   1      33.170  28.441  21.642  1.00  0.00     0.163 HD
BRANCH   4   7
ATOM      7  C   UNL A   1      31.742  25.539  22.571  1.00  0.00     0.114 C 
ATOM      8  C   UNL A   1      32.209  25.051  26.286  1.00  0.00     0.147 C 
ATOM      9  N   UNL A   1      31.829  25.331  24.909  1.00  0.00    -0.339 N 
ATOM     10  C   UNL A   1      30.610  25.964  24.664  1.00  0.00     0.223 C 
ATOM     11  C   UNL A   1      32.363  24.661  23.690  1.00  0.00     0.065 C 
ATOM     12  O   UNL A   1      29.822  26.357  25.500  1.00  0.00    -0.275 OA
ATOM     13  C   UNL A   1      30.442  26.109  23.171  1.00  0.00     0.116 C 
ATOM     14  C   UNL A   1      33.904  24.469  23.717  1.00  0.00     0.091 C 
ATOM     15  C   UNL A   1      31.633  23.322  23.549  1.00  0.00     0.091 C 
ATOM     16  C   UNL A   1      34.479  23.126  23.249  1.00  0.00     0.264 C 
ATOM     17  C   UNL A   1      32.358  22.225  22.808  1.00  0.00     0.264 C 
ATOM     18  N   UNL A   1      33.619  21.967  23.444  1.00  0.00    -0.334 N 
ATOM     19  H   UNL A   1      34.079  21.186  22.977  1.00  0.00     0.348 HD
BRANCH  18  20
ATOM     20  C   UNL A   1      33.583  21.307  24.762  1.00  0.00     0.273 C 
BRANCH  20  21
ATOM     21  C   UNL A   1      34.819  20.957  25.680  1.00  0.00     0.136 C 
BRANCH  21  22
ATOM     22  S   UNL A   1      36.536  20.601  24.994  1.00  0.00    -0.120 SA
BRANCH  22  23
ATOM     23  C   UNL A   1      37.675  21.856  25.615  1.00  0.00     0.007 A 
ATOM     24  C   UNL A   1      37.370  23.219  25.757  1.00  0.00     0.015 A 
ATOM     25  C   UNL A   1      38.956  21.426  26.005  1.00  0.00     0.015 A 
ATOM     26  C   UNL A   1      38.286  24.095  26.375  1.00  0.00     0.001 A 
ATOM     27  C   UNL A   1      39.851  22.287  26.655  1.00  0.00     0.001 A 
ATOM     28  C   UNL A   1      39.512  23.622  26.850  1.00  0.00     0.000 A 
ENDBRANCH  22  23
ENDBRANCH  21  22
ENDBRANCH  20  21
ENDBRANCH  18  20
ENDBRANCH   4   7
ENDBRANCH   2   3
ENDBRANCH   1   2
BRANCH   1  29
ATOM     29  C   UNL A   1      33.808  28.175  25.057  1.00  0.00     0.023 C 
BRANCH  29  30
ATOM     30  C   UNL A   1      33.927  28.566  26.515  1.00  0.00     0.116 C 
BRANCH  30  31
ATOM     31  N   UNL A   1      33.847  30.015  26.701  1.00  0.00    -0.352 N 
ATOM     32  C   UNL A   1      34.689  30.799  27.444  1.00  0.00     0.251 C 
ATOM     33  H   UNL A   1      33.108  30.476  26.243  1.00  0.00     0.163 HD
ATOM     34  O   UNL A   1      34.440  31.971  27.682  1.00  0.00    -0.269 OA
BRANCH  32  35
ATOM     35  C   UNL A   1      35.894  30.138  27.955  1.00  0.00     0.039 A 
ATOM     36  C   UNL A   1      37.089  30.273  27.253  1.00  0.00     0.014 A 
ATOM     37  C   UNL A   1      35.849  29.591  29.241  1.00  0.00     0.014 A 
ATOM     38  C   UNL A   1      38.270  29.884  27.874  1.00  0.00     0.010 A 
ATOM     39  C   UNL A   1      37.035  29.322  29.894  1.00  0.00     0.010 A 
ATOM     40  C   UNL A   1      38.253  29.439  29.208  1.00  0.00    -0.014 A 
BRANCH  40  41
ATOM     41  C   UNL A   1      39.497  29.039  29.900  1.00  0.00     0.031 A 
ATOM     42  C   UNL A   1      39.891  29.757  31.160  1.00  0.00     0.074 A 
ATOM     43  C   UNL A   1      40.284  28.086  29.367  1.00  0.00     0.049 A 
ATOM     44  N   UNL A   1      40.957  29.601  31.899  1.00  0.00    -0.248 NA
ATOM     45  C   UNL A   1      38.987  30.822  31.631  1.00  0.00     0.031 C 
ATOM     46  C   UNL A   1      40.024  27.366  28.117  1.00  0.00     0.029 A 
ATOM     47  N   UNL A   1      41.467  27.556  29.813  1.00  0.00    -0.354 N 
ATOM     48  C   UNL A   1      40.859  30.559  32.901  1.00  0.00     0.074 A 
ATOM     49  C   UNL A   1      39.677  31.343  32.631  1.00  0.00     0.031 C 
ATOM     50  C   UNL A   1      40.990  26.455  27.925  1.00  0.00     0.029 A 
ATOM     51  C   UNL A   1      41.959  26.553  29.012  1.00  0.00     0.049 A 
ATOM     52  H   UNL A   1      41.921  27.865  30.631  1.00  0.00     0.167 HD
ATOM     53  C   UNL A   1      41.665  30.746  33.971  1.00  0.00     0.037 A 
ATOM     54  C   UNL A   1      43.065  25.798  29.150  1.00  0.00     0.037 A 
ATOM     55  C   UNL A   1      42.818  29.932  34.243  1.00  0.00     0.049 A 
ATOM     56  C   UNL A   1      43.949  26.024  30.347  1.00  0.00     0.074 A 
ATOM     57  C   UNL A   1      43.666  29.981  35.332  1.00  0.00     0.029 A 
ATOM     58  N   UNL A   1      43.284  28.923  33.412  1.00  0.00    -0.354 N 
ATOM     59  N   UNL A   1      43.802  26.880  31.331  1.00  0.00    -0.248 NA
ATOM     60  C   UNL A   1      45.145  25.180  30.455  1.00  0.00     0.031 C 
ATOM     61  C   UNL A   1      44.679  29.036  35.134  1.00  0.00     0.029 A 
ATOM     62  C   UNL A   1      44.428  28.360  33.950  1.00  0.00     0.049 A 
ATOM     63  H   UNL A   1      42.865  28.649  32.565  1.00  0.00     0.167 HD
ATOM     64  C   UNL A   1      44.871  26.655  32.193  1.00  0.00     0.074 A 
ATOM     65  C   UNL A   1      45.648  25.577  31.617  1.00  0.00     0.031 C 
ATOM     66  C   UNL A   1      45.179  27.280  33.358  1.00  0.00     0.037 A 
BRANCH  53  67
ATOM     67  C   UNL A   1      41.319  31.869  34.910  1.00  0.00     0.058 A 
ATOM     68  C   UNL A   1      40.388  31.708  35.950  1.00  0.00     0.135 A 
ATOM     69  C   UNL A   1      41.919  33.129  34.759  1.00  0.00     0.135 A 
ATOM     70  F   UNL A   1      39.768  30.530  36.127  1.00  0.00    -0.206 F 
ATOM     71  C   UNL A   1      40.029  32.767  36.776  1.00  0.00     0.059 A 
ATOM     72  C   UNL A   1      41.601  34.194  35.598  1.00  0.00     0.059 A 
ATOM     73  F   UNL A   1      42.813  33.342  33.781  1.00  0.00    -0.206 F 
ATOM     74  C   UNL A   1      40.639  34.008  36.589  1.00  0.00     0.060 A 
BRANCH  74  75
ATOM     75  S   UNL A   1      40.150  35.377  37.658  1.00  0.00     0.124 S 
ATOM     76  O   UNL A   1      41.297  35.469  38.556  1.00  0.00    -0.237 OA
ATOM     77  O   UNL A   1      40.000  36.476  36.709  1.00  0.00    -0.237 OA
ATOM     78  O   UNL A   1      38.912  34.905  38.269  1.00  0.00    -0.744 OA
ENDBRANCH  74  75
ENDBRANCH  53  67
BRANCH  54  79
ATOM     79  C   UNL A   1      43.367  24.728  28.162  1.00  0.00     0.058 A 
ATOM     80  C   UNL A   1      44.085  25.018  26.992  1.00  0.00     0.135 A 
ATOM     81  C   UNL A   1      42.967  23.400  28.371  1.00  0.00     0.135 A 
ATOM     82  F   UNL A   1      44.486  26.274  26.745  1.00  0.00    -0.206 F 
ATOM     83  C   UNL A   1      44.385  24.033  26.057  1.00  0.00     0.059 A 
ATOM     84  C   UNL A   1      43.278  22.392  27.462  1.00  0.00     0.059 A 
ATOM     85  F   UNL A   1      42.294  23.066  29.483  1.00  0.00    -0.206 F 
ATOM     86  C   UNL A   1      43.981  22.720  26.304  1.00  0.00     0.060 A 
BRANCH  86  87
ATOM     87  S   UNL A   1      44.422  21.441  25.108  1.00  0.00     0.124 S 
ATOM     88  O   UNL A   1      43.448  20.400  25.417  1.00  0.00    -0.237 OA
ATOM     89  O   UNL A   1      44.234  22.135  23.838  1.00  0.00    -0.237 OA
ATOM     90  O   UNL A   1      45.808  21.131  25.444  1.00  0.00    -0.744 OA
ENDBRANCH  86  87
ENDBRANCH  54  79
BRANCH  66  91
ATOM     91  C   UNL A   1      46.387  26.788  34.105  1.00  0.00     0.058 A 
ATOM     92  C   UNL A   1      46.305  25.745  35.040  1.00  0.00     0.135 A 
ATOM     93  C   UNL A   1      47.655  27.329  33.832  1.00  0.00     0.135 A 
ATOM     94  F   UNL A   1      45.116  25.198  35.341  1.00  0.00    -0.206 F 
ATOM     95  C   UNL A   1      47.434  25.272  35.699  1.00  0.00     0.059 A 
ATOM     96  C   UNL A   1      48.801  26.850  34.455  1.00  0.00     0.059 A 
ATOM     97  F   UNL A   1      47.789  28.319  32.936  1.00  0.00    -0.206 F 
ATOM     98  C   UNL A   1      48.679  25.828  35.397  1.00  0.00     0.060 A 
BRANCH  98  99
ATOM     99  S   UNL A   1      50.141  25.180  36.233  1.00  0.00     0.124 S 
ATOM    100  O   UNL A   1      50.292  26.123  37.335  1.00  0.00    -0.237 OA
ATOM    101  O   UNL A   1      49.716  23.833  36.602  1.00  0.00    -0.237 OA
ATOM    102  O   UNL A   1      51.177  25.244  35.206  1.00  0.00    -0.744 OA
ENDBRANCH  98  99
ENDBRANCH  66  91
ENDBRANCH  40  41
ENDBRANCH  32  35
ENDBRANCH  30  31
ENDBRANCH  29  30
ENDBRANCH   1  29
TORSDOF 18
ENDMDL
MODEL 3
REMARK VINA RESULT:     -12.2      2.748      3.700
REMARK SMILES CN1C(=O)C[C@@H](C(=O)NCCCCNC(=O)c2ccc(-c3c4nc(c(-c5c(F)cc(S(=O)(=O)[O-])cc5F)c5ccc([nH]5)c(-c5c(F)cc(S(=O)(=O)[O-])cc5F)c5nc(c(-c6c(F)cc(S(=O)(=O)[O-])cc6F)c6ccc3[nH]6)C=C5)C=C4)cc2)C12CC[NH+](CCSc1ccccc1)CC2
REMARK SMILES IDX 11 1 10 2 9 3 7 4 8 5 6 7 1 8 2 9 3 10 83 11 4 12 5 13 84 14
REMARK SMILES IDX 97 15 85 16 96 17 86 18 87 20 88 21 89 22 90 23 91 24 95 25
REMARK SMILES IDX 92 26 94 27 93 28 12 29 13 30 14 31 15 32 16 34 17 35 18 36
REMARK SMILES IDX 82 37 19 38 81 39 20 40 21 41 22 42 75 43 23 44 80 45 74 46
REMARK SMILES IDX 76 47 24 48 79 49 73 50 72 51 25 53 59 54 38 55 58 56 39 57
REMARK SMILES IDX 42 58 57 59 77 60 40 61 41 62 56 64 78 65 43 66 26 67 27 68
REMARK SMILES IDX 36 69 28 70 29 71 35 72 37 73 30 74 31 75 32 76 33 77 34 78
REMARK SMILES IDX 60 79 61 80 70 81 62 82 63 83 69 84 71 85 64 86 65 87 66 88
REMARK SMILES IDX 67 89 68 90 44 91 45 92 54 93 46 94 47 95 53 96 55 97 48 98
REMARK SMILES IDX 49 99 50 100 51 101 52 102
REMARK H PARENT 9 6 86 19 14 33 76 52 42 63
REMARK Flexibility Score: inf
ROOT
ATOM      1  C   UNL A   1      36.327  21.686  24.242  1.00  0.00     0.023 C 
ENDROOT
BRANCH   1   2
ATOM      2  C   UNL A   1      35.249  20.793  24.842  1.00  0.00     0.116 C 
BRANCH   2   3
ATOM      3  N   UNL A   1      34.957  21.151  26.210  1.00  0.00    -0.356 N 
ATOM      4  C   UNL A   1      33.829  21.627  26.780  1.00  0.00     0.226 C 
ATOM      5  O   UNL A   1      33.875  21.924  27.977  1.00  0.00    -0.275 OA
ATOM      6  H   UNL A   1      35.709  21.026  26.835  1.00  0.00     0.163 HD
BRANCH   4   7
ATOM      7  C   UNL A   1      32.533  21.794  26.027  1.00  0.00     0.114 C 
ATOM      8  C   UNL A   1      32.601  23.620  22.723  1.00  0.00     0.147 C 
ATOM      9  N   UNL A   1      32.534  22.731  23.873  1.00  0.00    -0.339 N 
ATOM     10  C   UNL A   1      32.316  21.369  23.657  1.00  0.00     0.223 C 
ATOM     11  C   UNL A   1      32.245  23.124  25.281  1.00  0.00     0.065 C 
ATOM     12  O   UNL A   1      32.213  20.818  22.580  1.00  0.00    -0.275 OA
ATOM     13  C   UNL A   1      32.260  20.679  24.999  1.00  0.00     0.116 C 
ATOM     14  C   UNL A   1      32.998  24.407  25.728  1.00  0.00     0.091 C 
ATOM     15  C   UNL A   1      30.729  23.291  25.405  1.00  0.00     0.091 C 
ATOM     16  C   UNL A   1      32.228  25.457  26.539  1.00  0.00     0.264 C 
ATOM     17  C   UNL A   1      30.232  24.226  26.481  1.00  0.00     0.264 C 
ATOM     18  N   UNL A   1      30.796  25.531  26.282  1.00  0.00    -0.334 N 
ATOM     19  H   UNL A   1      30.412  26.173  26.975  1.00  0.00     0.348 HD
BRANCH  18  20
ATOM     20  C   UNL A   1      30.309  26.304  25.125  1.00  0.00     0.273 C 
BRANCH  20  21
ATOM     21  C   UNL A   1      31.178  27.163  24.126  1.00  0.00     0.136 C 
BRANCH  21  22
ATOM     22  S   UNL A   1      31.417  29.021  24.314  1.00  0.00    -0.120 SA
BRANCH  22  23
ATOM     23  C   UNL A   1      32.631  29.316  25.616  1.00  0.00     0.007 A 
ATOM     24  C   UNL A   1      33.800  28.563  25.812  1.00  0.00     0.015 A 
ATOM     25  C   UNL A   1      32.394  30.396  26.485  1.00  0.00     0.015 A 
ATOM     26  C   UNL A   1      34.750  28.956  26.777  1.00  0.00     0.001 A 
ATOM     27  C   UNL A   1      33.354  30.810  27.417  1.00  0.00     0.001 A 
ATOM     28  C   UNL A   1      34.540  30.096  27.557  1.00  0.00     0.000 A 
ENDBRANCH  22  23
ENDBRANCH  21  22
ENDBRANCH  20  21
ENDBRANCH  18  20
ENDBRANCH   4   7
ENDBRANCH   2   3
ENDBRANCH   1   2
BRANCH   1  29
ATOM     29  C   UNL A   1      36.079  23.162  24.509  1.00  0.00     0.023 C 
BRANCH  29  30
ATOM     30  C   UNL A   1      37.186  23.783  25.333  1.00  0.00     0.116 C 
BRANCH  30  31
ATOM     31  N   UNL A   1      38.316  22.871  25.507  1.00  0.00    -0.352 N 
ATOM     32  C   UNL A   1      39.509  23.142  26.124  1.00  0.00     0.251 C 
ATOM     33  H   UNL A   1      38.208  21.964  25.139  1.00  0.00     0.163 HD
ATOM     34  O   UNL A   1      40.458  22.374  26.064  1.00  0.00    -0.269 OA
BRANCH  32  35
ATOM     35  C   UNL A   1      39.583  24.421  26.838  1.00  0.00     0.039 A 
ATOM     36  C   UNL A   1      39.061  24.507  28.126  1.00  0.00     0.014 A 
ATOM     37  C   UNL A   1      40.374  25.435  26.290  1.00  0.00     0.014 A 
ATOM     38  C   UNL A   1      39.374  25.622  28.894  1.00  0.00     0.010 A 
ATOM     39  C   UNL A   1      40.779  26.477  27.101  1.00  0.00     0.010 A 
ATOM     40  C   UNL A   1      40.261  26.595  28.399  1.00  0.00    -0.014 A 
BRANCH  40  41
ATOM     41  C   UNL A   1      40.627  27.780  29.203  1.00  0.00     0.031 A 
ATOM     42  C   UNL A   1      41.963  27.807  29.891  1.00  0.00     0.074 A 
ATOM     43  C   UNL A   1      39.746  28.786  29.355  1.00  0.00     0.049 A 
ATOM     44  N   UNL A   1      42.467  28.719  30.678  1.00  0.00    -0.248 NA
ATOM     45  C   UNL A   1      42.833  26.632  29.703  1.00  0.00     0.031 C 
ATOM     46  C   UNL A   1      38.400  28.834  28.778  1.00  0.00     0.029 A 
ATOM     47  N   UNL A   1      39.853  29.966  30.044  1.00  0.00    -0.354 N 
ATOM     48  C   UNL A   1      43.694  28.217  31.093  1.00  0.00     0.074 A 
ATOM     49  C   UNL A   1      43.825  26.890  30.538  1.00  0.00     0.031 C 
ATOM     50  C   UNL A   1      37.828  30.007  29.094  1.00  0.00     0.029 A 
ATOM     51  C   UNL A   1      38.746  30.774  29.929  1.00  0.00     0.049 A 
ATOM     52  H   UNL A   1      40.648  30.213  30.570  1.00  0.00     0.167 HD
ATOM     53  C   UNL A   1      44.645  28.823  31.841  1.00  0.00     0.037 A 
ATOM     54  C   UNL A   1      38.510  31.997  30.439  1.00  0.00     0.037 A 
ATOM     55  C   UNL A   1      44.513  30.159  32.354  1.00  0.00     0.049 A 
ATOM     56  C   UNL A   1      39.579  32.653  31.270  1.00  0.00     0.074 A 
ATOM     57  C   UNL A   1      45.438  30.903  33.061  1.00  0.00     0.029 A 
ATOM     58  N   UNL A   1      43.380  30.948  32.215  1.00  0.00    -0.354 N 
ATOM     59  N   UNL A   1      40.770  32.200  31.589  1.00  0.00    -0.248 NA
ATOM     60  C   UNL A   1      39.277  33.985  31.807  1.00  0.00     0.031 C 
ATOM     61  C   UNL A   1      44.843  32.124  33.399  1.00  0.00     0.029 A 
ATOM     62  C   UNL A   1      43.571  32.162  32.850  1.00  0.00     0.049 A 
ATOM     63  H   UNL A   1      42.562  30.684  31.737  1.00  0.00     0.167 HD
ATOM     64  C   UNL A   1      41.372  33.206  32.337  1.00  0.00     0.074 A 
ATOM     65  C   UNL A   1      40.417  34.293  32.414  1.00  0.00     0.031 C 
ATOM     66  C   UNL A   1      42.604  33.232  32.905  1.00  0.00     0.037 A 
BRANCH  53  67
ATOM     67  C   UNL A   1      45.893  28.040  32.140  1.00  0.00     0.058 A 
ATOM     68  C   UNL A   1      47.013  28.074  31.291  1.00  0.00     0.135 A 
ATOM     69  C   UNL A   1      45.967  27.233  33.286  1.00  0.00     0.135 A 
ATOM     70  F   UNL A   1      46.991  28.813  30.170  1.00  0.00    -0.206 F 
ATOM     71  C   UNL A   1      48.142  27.302  31.543  1.00  0.00     0.059 A 
ATOM     72  C   UNL A   1      47.101  26.478  33.576  1.00  0.00     0.059 A 
ATOM     73  F   UNL A   1      44.927  27.159  34.130  1.00  0.00    -0.206 F 
ATOM     74  C   UNL A   1      48.173  26.503  32.687  1.00  0.00     0.060 A 
BRANCH  74  75
ATOM     75  S   UNL A   1      49.638  25.493  32.991  1.00  0.00     0.124 S 
ATOM     76  O   UNL A   1      49.931  24.997  31.650  1.00  0.00    -0.237 OA
ATOM     77  O   UNL A   1      50.583  26.467  33.526  1.00  0.00    -0.237 OA
ATOM     78  O   UNL A   1      49.168  24.491  33.942  1.00  0.00    -0.744 OA
ENDBRANCH  74  75
ENDBRANCH  53  67
BRANCH  54  79
ATOM     79  C   UNL A   1      37.234  32.700  30.133  1.00  0.00     0.058 A 
ATOM     80  C   UNL A   1      37.175  33.665  29.117  1.00  0.00     0.135 A 
ATOM     81  C   UNL A   1      36.051  32.410  30.829  1.00  0.00     0.135 A 
ATOM     82  F   UNL A   1      38.281  33.979  28.425  1.00  0.00    -0.206 F 
ATOM     83  C   UNL A   1      35.993  34.329  28.809  1.00  0.00     0.059 A 
ATOM     84  C   UNL A   1      34.849  33.043  30.521  1.00  0.00     0.059 A 
ATOM     85  F   UNL A   1      36.049  31.481  31.798  1.00  0.00    -0.206 F 
ATOM     86  C   UNL A   1      34.832  34.008  29.515  1.00  0.00     0.060 A 
BRANCH  86  87
ATOM     87  S   UNL A   1      33.293  34.840  29.070  1.00  0.00     0.124 S 
ATOM     88  O   UNL A   1      32.587  34.854  30.346  1.00  0.00    -0.237 OA
ATOM     89  O   UNL A   1      33.773  36.132  28.591  1.00  0.00    -0.237 OA
ATOM     90  O   UNL A   1      32.726  33.971  28.043  1.00  0.00    -0.744 OA
ENDBRANCH  86  87
ENDBRANCH  54  79
BRANCH  66  91
ATOM     91  C   UNL A   1      43.003  34.489  33.628  1.00  0.00     0.058 A 
ATOM     92  C   UNL A   1      42.946  34.589  35.026  1.00  0.00     0.135 A 
ATOM     93  C   UNL A   1      43.509  35.585  32.910  1.00  0.00     0.135 A 
ATOM     94  F   UNL A   1      42.463  33.571  35.758  1.00  0.00    -0.206 F 
ATOM     95  C   UNL A   1      43.351  35.743  35.687  1.00  0.00     0.059 A 
ATOM     96  C   UNL A   1      43.951  36.736  33.552  1.00  0.00     0.059 A 
ATOM     97  F   UNL A   1      43.598  35.534  31.571  1.00  0.00    -0.206 F 
ATOM     98  C   UNL A   1      43.857  36.810  34.941  1.00  0.00     0.060 A 
BRANCH  98  99
ATOM     99  S   UNL A   1      44.415  38.287  35.815  1.00  0.00     0.124 S 
ATOM    100  O   UNL A   1      43.985  39.345  34.908  1.00  0.00    -0.237 OA
ATOM    101  O   UNL A   1      43.685  38.197  37.076  1.00  0.00    -0.237 OA
ATOM    102  O   UNL A   1      45.859  38.096  35.918  1.00  0.00    -0.744 OA
ENDBRANCH  98  99
ENDBRANCH  66  91
ENDBRANCH  40  41
ENDBRANCH  32  35
ENDBRANCH  30  31
ENDBRANCH  29  30
ENDBRANCH   1  29
TORSDOF 18
ENDMDL
