MODEL 1
REMARK VINA RESULT:     -13.0      0.000      0.000
REMARK SMILES Cc1cc(C)c(S(=O)(=O)Nc2ccc(N3CC[NH+](C)CC3)c(C(=O)NCCCCNC(=O)c3ccc(-c4c5nc(c(-c6c(F)cc(S(=O)(=O)[O-])cc6F)c6ccc([nH]6)c(-c6c(F)cc(S(=O)(=O)[O-])cc6F)c6nc(c(-c7c(F)cc(S(=O)(=O)[O-])cc7F)c7ccc4[nH]7)C=C6)C=C5)cc3)c2)c(C)c1
REMARK SMILES IDX 27 1 26 2 25 3 23 4 24 5 22 7 11 8 12 9 99 10 13 11 14 12
REMARK SMILES IDX 10 13 7 15 8 16 9 17 6 18 1 19 2 20 3 21 102 22 4 23 100 24
REMARK SMILES IDX 5 25 101 26 15 27 16 28 21 29 17 30 20 31 18 32 19 33 28 35
REMARK SMILES IDX 29 36 30 37 31 38 32 40 33 41 34 42 98 43 35 44 97 45 36 46
REMARK SMILES IDX 37 47 38 48 91 49 39 50 96 51 90 52 92 53 40 54 95 55 89 56
REMARK SMILES IDX 88 57 41 59 75 60 54 61 74 62 55 63 58 64 73 65 93 66 56 67
REMARK SMILES IDX 57 68 72 70 94 71 59 72 42 73 43 74 52 75 44 76 45 77 51 78
REMARK SMILES IDX 53 79 46 80 47 81 48 82 49 83 50 84 76 85 77 86 86 87 78 88
REMARK SMILES IDX 79 89 85 90 87 91 80 92 81 93 82 94 83 95 84 96 60 97 61 98
REMARK SMILES IDX 70 99 62 100 63 101 69 102 71 103 64 104 65 105 66 106
REMARK SMILES IDX 67 107 68 108
REMARK H PARENT 25 6 10 14 18 34 30 39 92 58 58 69
REMARK Flexibility Score: inf
ROOT
ATOM      1  C   UNL A   1      34.712  29.750  27.504  1.00  0.00     0.023 C 
ENDROOT
BRANCH   1   2
ATOM      2  C   UNL A   1      33.680  29.404  26.426  1.00  0.00     0.116 C 
BRANCH   2   3
ATOM      3  N   UNL A   1      32.571  28.685  27.014  1.00  0.00    -0.352 N 
ATOM      4  C   UNL A   1      31.880  27.552  26.657  1.00  0.00     0.253 C 
ATOM      5  O   UNL A   1      30.832  27.387  27.281  1.00  0.00    -0.269 OA
ATOM      6  H   UNL A   1      32.241  29.094  27.846  1.00  0.00     0.163 HD
BRANCH   4   7
ATOM      7  C   UNL A   1      32.328  26.576  25.596  1.00  0.00     0.065 A 
ATOM      8  C   UNL A   1      33.209  24.379  25.023  1.00  0.00     0.050 A 
ATOM      9  C   UNL A   1      33.101  24.669  23.671  1.00  0.00     0.029 A 
ATOM     10  C   UNL A   1      32.997  25.390  25.953  1.00  0.00     0.042 A 
ATOM     11  C   UNL A   1      32.517  25.867  23.279  1.00  0.00     0.029 A 
ATOM     12  C   UNL A   1      32.009  26.782  24.223  1.00  0.00     0.050 A 
BRANCH   8  13
ATOM     13  N   UNL A   1      33.414  23.014  25.360  1.00  0.00    -0.280 N 
ATOM     14  H   UNL A   1      32.617  22.506  25.639  1.00  0.00     0.180 HD
BRANCH  13  15
ATOM     15  S   UNL A   1      34.863  22.178  25.337  1.00  0.00     0.262 S 
ATOM     16  O   UNL A   1      35.279  22.063  26.724  1.00  0.00    -0.201 OA
ATOM     17  O   UNL A   1      35.676  22.884  24.370  1.00  0.00    -0.201 OA
BRANCH  15  18
ATOM     18  C   UNL A   1      34.689  20.493  24.712  1.00  0.00     0.093 A 
ATOM     19  C   UNL A   1      34.301  16.189  24.354  1.00  0.00     0.044 C 
ATOM     20  C   UNL A   1      34.448  17.680  24.438  1.00  0.00    -0.051 A 
ATOM     21  C   UNL A   1      35.687  18.256  24.697  1.00  0.00     0.008 A 
ATOM     22  C   UNL A   1      33.372  18.524  24.166  1.00  0.00     0.008 A 
ATOM     23  C   UNL A   1      35.830  19.651  24.836  1.00  0.00    -0.030 A 
ATOM     24  C   UNL A   1      33.484  19.932  24.244  1.00  0.00    -0.030 A 
ATOM     25  C   UNL A   1      37.248  20.146  24.994  1.00  0.00     0.046 C 
ATOM     26  C   UNL A   1      32.291  20.689  23.744  1.00  0.00     0.046 C 
ENDBRANCH  15  18
ENDBRANCH  13  15
ENDBRANCH   8  13
BRANCH  12  27
ATOM     27  N   UNL A   1      31.099  27.720  23.766  1.00  0.00    -0.360 N 
ATOM     28  C   UNL A   1      31.455  29.135  23.592  1.00  0.00     0.178 C 
ATOM     29  C   UNL A   1      29.957  27.291  22.946  1.00  0.00     0.178 C 
ATOM     30  C   UNL A   1      30.208  30.005  23.897  1.00  0.00     0.283 C 
ATOM     31  C   UNL A   1      28.741  28.201  23.216  1.00  0.00     0.283 C 
ATOM     32  N   UNL A   1      29.039  29.643  23.045  1.00  0.00    -0.334 N 
ATOM     33  C   UNL A   1      27.872  30.438  23.426  1.00  0.00     0.332 C 
ATOM     34  H   UNL A   1      29.262  29.835  22.069  1.00  0.00     0.347 HD
ENDBRANCH  12  27
ENDBRANCH   4   7
ENDBRANCH   2   3
ENDBRANCH   1   2
BRANCH   1  35
ATOM     35  C   UNL A   1      34.933  31.252  27.691  1.00  0.00     0.023 C 
BRANCH  35  36
ATOM     36  C   UNL A   1      36.048  31.608  28.666  1.00  0.00     0.116 C 
BRANCH  36  37
ATOM     37  N   UNL A   1      35.779  31.158  30.021  1.00  0.00    -0.352 N 
ATOM     38  C   UNL A   1      36.554  30.348  30.815  1.00  0.00     0.251 C 
ATOM     39  H   UNL A   1      34.937  31.473  30.422  1.00  0.00     0.163 HD
ATOM     40  O   UNL A   1      36.139  29.967  31.904  1.00  0.00    -0.269 OA
BRANCH  38  41
ATOM     41  C   UNL A   1      37.877  29.917  30.324  1.00  0.00     0.039 A 
ATOM     42  C   UNL A   1      38.108  29.894  28.946  1.00  0.00     0.014 A 
ATOM     43  C   UNL A   1      38.885  29.549  31.220  1.00  0.00     0.014 A 
ATOM     44  C   UNL A   1      39.368  29.536  28.466  1.00  0.00     0.010 A 
ATOM     45  C   UNL A   1      40.156  29.250  30.743  1.00  0.00     0.010 A 
ATOM     46  C   UNL A   1      40.405  29.227  29.363  1.00  0.00    -0.014 A 
BRANCH  46  47
ATOM     47  C   UNL A   1      41.745  28.831  28.870  1.00  0.00     0.031 A 
ATOM     48  C   UNL A   1      42.840  29.859  28.791  1.00  0.00     0.074 A 
ATOM     49  C   UNL A   1      41.959  27.570  28.447  1.00  0.00     0.049 A 
ATOM     50  N   UNL A   1      44.059  29.733  28.336  1.00  0.00    -0.248 NA
ATOM     51  C   UNL A   1      42.509  31.216  29.255  1.00  0.00     0.031 C 
ATOM     52  C   UNL A   1      40.957  26.502  28.426  1.00  0.00     0.029 A 
ATOM     53  N   UNL A   1      43.088  26.978  27.947  1.00  0.00    -0.354 N 
ATOM     54  C   UNL A   1      44.631  30.996  28.435  1.00  0.00     0.074 A 
ATOM     55  C   UNL A   1      43.613  31.883  28.954  1.00  0.00     0.031 C 
ATOM     56  C   UNL A   1      41.526  25.377  27.959  1.00  0.00     0.029 A 
ATOM     57  C   UNL A   1      42.921  25.650  27.631  1.00  0.00     0.049 A 
ATOM     58  H   UNL A   1      43.939  27.457  27.825  1.00  0.00     0.167 HD
ATOM     59  C   UNL A   1      45.896  31.378  28.137  1.00  0.00     0.037 A 
ATOM     60  C   UNL A   1      43.801  24.755  27.143  1.00  0.00     0.037 A 
ATOM     61  C   UNL A   1      46.917  30.481  27.666  1.00  0.00     0.049 A 
ATOM     62  C   UNL A   1      45.220  25.186  26.892  1.00  0.00     0.074 A 
ATOM     63  C   UNL A   1      48.243  30.755  27.380  1.00  0.00     0.029 A 
ATOM     64  N   UNL A   1      46.727  29.128  27.428  1.00  0.00    -0.354 N 
ATOM     65  N   UNL A   1      45.757  26.375  27.032  1.00  0.00    -0.248 NA
ATOM     66  C   UNL A   1      46.157  24.151  26.435  1.00  0.00     0.031 C 
ATOM     67  C   UNL A   1      48.854  29.568  26.959  1.00  0.00     0.029 A 
ATOM     68  C   UNL A   1      47.913  28.551  27.008  1.00  0.00     0.049 A 
ATOM     69  H   UNL A   1      45.875  28.648  27.542  1.00  0.00     0.167 HD
ATOM     70  C   UNL A   1      47.102  26.224  26.713  1.00  0.00     0.074 A 
ATOM     71  C   UNL A   1      47.296  24.828  26.376  1.00  0.00     0.031 C 
ATOM     72  C   UNL A   1      48.087  27.154  26.703  1.00  0.00     0.037 A 
BRANCH  59  73
ATOM     73  C   UNL A   1      46.238  32.828  28.323  1.00  0.00     0.058 A 
ATOM     74  C   UNL A   1      46.074  33.760  27.285  1.00  0.00     0.135 A 
ATOM     75  C   UNL A   1      46.732  33.295  29.552  1.00  0.00     0.135 A 
ATOM     76  F   UNL A   1      45.625  33.361  26.084  1.00  0.00    -0.206 F 
ATOM     77  C   UNL A   1      46.422  35.097  27.447  1.00  0.00     0.059 A 
ATOM     78  C   UNL A   1      47.063  34.633  29.743  1.00  0.00     0.059 A 
ATOM     79  F   UNL A   1      46.909  32.446  30.576  1.00  0.00    -0.206 F 
ATOM     80  C   UNL A   1      46.923  35.523  28.678  1.00  0.00     0.060 A 
BRANCH  80  81
ATOM     81  S   UNL A   1      47.385  37.256  28.875  1.00  0.00     0.124 S 
ATOM     82  O   UNL A   1      46.263  37.767  29.658  1.00  0.00    -0.237 OA
ATOM     83  O   UNL A   1      48.659  37.167  29.580  1.00  0.00    -0.237 OA
ATOM     84  O   UNL A   1      47.466  37.742  27.501  1.00  0.00    -0.744 OA
ENDBRANCH  80  81
ENDBRANCH  59  73
BRANCH  60  85
ATOM     85  C   UNL A   1      43.381  23.349  26.916  1.00  0.00     0.058 A 
ATOM     86  C   UNL A   1      43.177  22.481  27.998  1.00  0.00     0.135 A 
ATOM     87  C   UNL A   1      43.171  22.848  25.624  1.00  0.00     0.135 A 
ATOM     88  F   UNL A   1      43.370  22.917  29.253  1.00  0.00    -0.206 F 
ATOM     89  C   UNL A   1      42.797  21.157  27.809  1.00  0.00     0.059 A 
ATOM     90  C   UNL A   1      42.772  21.532  25.409  1.00  0.00     0.059 A 
ATOM     91  F   UNL A   1      43.335  23.647  24.557  1.00  0.00    -0.206 F 
ATOM     92  C   UNL A   1      42.599  20.691  26.508  1.00  0.00     0.060 A 
BRANCH  92  93
ATOM     93  S   UNL A   1      42.065  18.982  26.269  1.00  0.00     0.124 S 
ATOM     94  O   UNL A   1      42.212  18.439  27.614  1.00  0.00    -0.237 OA
ATOM     95  O   UNL A   1      40.695  19.148  25.792  1.00  0.00    -0.237 OA
ATOM     96  O   UNL A   1      43.008  18.475  25.276  1.00  0.00    -0.744 OA
ENDBRANCH  92  93
ENDBRANCH  60  85
BRANCH  72  97
ATOM     97  C   UNL A   1      49.471  26.680  26.369  1.00  0.00     0.058 A 
ATOM     98  C   UNL A   1      50.292  26.070  27.330  1.00  0.00     0.135 A 
ATOM     99  C   UNL A   1      49.965  26.809  25.063  1.00  0.00     0.135 A 
ATOM    100  F   UNL A   1      49.863  25.928  28.593  1.00  0.00    -0.206 F 
ATOM    101  C   UNL A   1      51.572  25.628  27.011  1.00  0.00     0.059 A 
ATOM    102  C   UNL A   1      51.234  26.356  24.717  1.00  0.00     0.059 A 
ATOM    103  F   UNL A   1      49.212  27.377  24.107  1.00  0.00    -0.206 F 
ATOM    104  C   UNL A   1      52.036  25.780  25.703  1.00  0.00     0.060 A 
BRANCH 104 105
ATOM    105  S   UNL A   1      53.690  25.186  25.288  1.00  0.00     0.124 S 
ATOM    106  O   UNL A   1      54.492  25.799  26.342  1.00  0.00    -0.237 OA
ATOM    107  O   UNL A   1      53.537  23.737  25.370  1.00  0.00    -0.237 OA
ATOM    108  O   UNL A   1      53.909  25.711  23.944  1.00  0.00    -0.744 OA
ENDBRANCH 104 105
ENDBRANCH  72  97
ENDBRANCH  46  47
ENDBRANCH  38  41
ENDBRANCH  36  37
ENDBRANCH  35  36
ENDBRANCH   1  35
TORSDOF 18
ENDMDL
MODEL 2
REMARK VINA RESULT:     -12.9      1.278      2.255
REMARK SMILES Cc1cc(C)c(S(=O)(=O)Nc2ccc(N3CC[NH+](C)CC3)c(C(=O)NCCCCNC(=O)c3ccc(-c4c5nc(c(-c6c(F)cc(S(=O)(=O)[O-])cc6F)c6ccc([nH]6)c(-c6c(F)cc(S(=O)(=O)[O-])cc6F)c6nc(c(-c7c(F)cc(S(=O)(=O)[O-])cc7F)c7ccc4[nH]7)C=C6)C=C5)cc3)c2)c(C)c1
REMARK SMILES IDX 27 1 26 2 25 3 23 4 24 5 22 7 11 8 12 9 99 10 13 11 14 12
REMARK SMILES IDX 10 13 7 15 8 16 9 17 6 18 1 19 2 20 3 21 102 22 4 23 100 24
REMARK SMILES IDX 5 25 101 26 15 27 16 28 21 29 17 30 20 31 18 32 19 33 28 35
REMARK SMILES IDX 29 36 30 37 31 38 32 40 33 41 34 42 98 43 35 44 97 45 36 46
REMARK SMILES IDX 37 47 38 48 91 49 39 50 96 51 90 52 92 53 40 54 95 55 89 56
REMARK SMILES IDX 88 57 41 59 75 60 54 61 74 62 55 63 58 64 73 65 93 66 56 67
REMARK SMILES IDX 57 68 72 70 94 71 59 72 42 73 43 74 52 75 44 76 45 77 51 78
REMARK SMILES IDX 53 79 46 80 47 81 48 82 49 83 50 84 76 85 77 86 86 87 78 88
REMARK SMILES IDX 79 89 85 90 87 91 80 92 81 93 82 94 83 95 84 96 60 97 61 98
REMARK SMILES IDX 70 99 62 100 63 101 69 102 71 103 64 104 65 105 66 106
REMARK SMILES IDX 67 107 68 108
REMARK H PARENT 25 6 10 14 18 34 30 39 92 58 58 69
REMARK Flexibility Score: inf
ROOT
ATOM      1  C   UNL A   1      34.656  29.310  26.846  1.00  0.00     0.023 C 
ENDROOT
BRANCH   1   2
ATOM      2  C   UNL A   1      33.363  28.856  26.163  1.00  0.00     0.116 C 
BRANCH   2   3
ATOM      3  N   UNL A   1      33.460  29.056  24.735  1.00  0.00    -0.352 N 
ATOM      4  C   UNL A   1      32.824  28.494  23.653  1.00  0.00     0.253 C 
ATOM      5  O   UNL A   1      33.355  28.749  22.572  1.00  0.00    -0.269 OA
ATOM      6  H   UNL A   1      34.121  29.740  24.482  1.00  0.00     0.163 HD
BRANCH   4   7
ATOM      7  C   UNL A   1      31.590  27.630  23.742  1.00  0.00     0.065 A 
ATOM      8  C   UNL A   1      30.515  25.611  24.579  1.00  0.00     0.050 A 
ATOM      9  C   UNL A   1      29.305  26.004  24.025  1.00  0.00     0.029 A 
ATOM     10  C   UNL A   1      31.666  26.330  24.276  1.00  0.00     0.042 A 
ATOM     11  C   UNL A   1      29.212  27.250  23.417  1.00  0.00     0.029 A 
ATOM     12  C   UNL A   1      30.309  28.133  23.373  1.00  0.00     0.050 A 
BRANCH   8  13
ATOM     13  N   UNL A   1      30.459  24.556  25.528  1.00  0.00    -0.280 N 
ATOM     14  H   UNL A   1      29.568  24.186  25.724  1.00  0.00     0.180 HD
BRANCH  13  15
ATOM     15  S   UNL A   1      31.747  23.874  26.351  1.00  0.00     0.262 S 
ATOM     16  O   UNL A   1      31.205  23.389  27.609  1.00  0.00    -0.201 OA
ATOM     17  O   UNL A   1      32.776  24.892  26.326  1.00  0.00    -0.201 OA
BRANCH  15  18
ATOM     18  C   UNL A   1      32.439  22.439  25.503  1.00  0.00     0.093 A 
ATOM     19  C   UNL A   1      33.335  18.419  24.144  1.00  0.00     0.044 C 
ATOM     20  C   UNL A   1      33.062  19.822  24.600  1.00  0.00    -0.051 A 
ATOM     21  C   UNL A   1      33.558  20.282  25.815  1.00  0.00     0.008 A 
ATOM     22  C   UNL A   1      32.389  20.726  23.778  1.00  0.00     0.008 A 
ATOM     23  C   UNL A   1      33.261  21.578  26.283  1.00  0.00    -0.030 A 
ATOM     24  C   UNL A   1      32.115  22.053  24.187  1.00  0.00    -0.030 A 
ATOM     25  C   UNL A   1      33.963  21.985  27.556  1.00  0.00     0.046 C 
ATOM     26  C   UNL A   1      31.552  22.939  23.118  1.00  0.00     0.046 C 
ENDBRANCH  15  18
ENDBRANCH  13  15
ENDBRANCH   8  13
BRANCH  12  27
ATOM     27  N   UNL A   1      30.036  29.469  23.136  1.00  0.00    -0.360 N 
ATOM     28  C   UNL A   1      30.201  30.497  24.172  1.00  0.00     0.178 C 
ATOM     29  C   UNL A   1      30.097  29.995  21.764  1.00  0.00     0.178 C 
ATOM     30  C   UNL A   1      29.128  31.596  23.961  1.00  0.00     0.283 C 
ATOM     31  C   UNL A   1      29.064  31.126  21.585  1.00  0.00     0.283 C 
ATOM     32  N   UNL A   1      29.190  32.199  22.599  1.00  0.00    -0.334 N 
ATOM     33  C   UNL A   1      28.110  33.171  22.428  1.00  0.00     0.332 C 
ATOM     34  H   UNL A   1      30.082  32.678  22.484  1.00  0.00     0.347 HD
ENDBRANCH  12  27
ENDBRANCH   4   7
ENDBRANCH   2   3
ENDBRANCH   1   2
BRANCH   1  35
ATOM     35  C   UNL A   1      34.521  30.620  27.624  1.00  0.00     0.023 C 
BRANCH  35  36
ATOM     36  C   UNL A   1      35.762  31.015  28.415  1.00  0.00     0.116 C 
BRANCH  36  37
ATOM     37  N   UNL A   1      35.602  30.832  29.848  1.00  0.00    -0.352 N 
ATOM     38  C   UNL A   1      36.479  30.255  30.731  1.00  0.00     0.251 C 
ATOM     39  H   UNL A   1      34.759  31.164  30.234  1.00  0.00     0.163 HD
ATOM     40  O   UNL A   1      36.154  30.074  31.900  1.00  0.00    -0.269 OA
BRANCH  38  41
ATOM     41  C   UNL A   1      37.805  29.823  30.248  1.00  0.00     0.039 A 
ATOM     42  C   UNL A   1      38.085  29.915  28.882  1.00  0.00     0.014 A 
ATOM     43  C   UNL A   1      38.768  29.343  31.140  1.00  0.00     0.014 A 
ATOM     44  C   UNL A   1      39.350  29.558  28.414  1.00  0.00     0.010 A 
ATOM     45  C   UNL A   1      40.046  29.045  30.680  1.00  0.00     0.010 A 
ATOM     46  C   UNL A   1      40.343  29.136  29.312  1.00  0.00    -0.014 A 
BRANCH  46  47
ATOM     47  C   UNL A   1      41.687  28.740  28.831  1.00  0.00     0.031 A 
ATOM     48  C   UNL A   1      42.780  29.770  28.747  1.00  0.00     0.074 A 
ATOM     49  C   UNL A   1      41.908  27.476  28.421  1.00  0.00     0.049 A 
ATOM     50  N   UNL A   1      44.002  29.645  28.300  1.00  0.00    -0.248 NA
ATOM     51  C   UNL A   1      42.441  31.131  29.197  1.00  0.00     0.031 C 
ATOM     52  C   UNL A   1      40.910  26.403  28.405  1.00  0.00     0.029 A 
ATOM     53  N   UNL A   1      43.042  26.882  27.933  1.00  0.00    -0.354 N 
ATOM     54  C   UNL A   1      44.569  30.910  28.389  1.00  0.00     0.074 A 
ATOM     55  C   UNL A   1      43.545  31.799  28.895  1.00  0.00     0.031 C 
ATOM     56  C   UNL A   1      41.485  25.277  27.953  1.00  0.00     0.029 A 
ATOM     57  C   UNL A   1      42.881  25.551  27.629  1.00  0.00     0.049 A 
ATOM     58  H   UNL A   1      43.892  27.363  27.811  1.00  0.00     0.167 HD
ATOM     59  C   UNL A   1      45.833  31.294  28.095  1.00  0.00     0.037 A 
ATOM     60  C   UNL A   1      43.767  24.654  27.154  1.00  0.00     0.037 A 
ATOM     61  C   UNL A   1      46.860  30.396  27.638  1.00  0.00     0.049 A 
ATOM     62  C   UNL A   1      45.186  25.088  26.907  1.00  0.00     0.074 A 
ATOM     63  C   UNL A   1      48.187  30.672  27.356  1.00  0.00     0.029 A 
ATOM     64  N   UNL A   1      46.676  29.040  27.412  1.00  0.00    -0.354 N 
ATOM     65  N   UNL A   1      45.718  26.280  27.038  1.00  0.00    -0.248 NA
ATOM     66  C   UNL A   1      46.129  24.051  26.466  1.00  0.00     0.031 C 
ATOM     67  C   UNL A   1      48.804  29.483  26.950  1.00  0.00     0.029 A 
ATOM     68  C   UNL A   1      47.866  28.463  27.004  1.00  0.00     0.049 A 
ATOM     69  H   UNL A   1      45.826  28.559  27.527  1.00  0.00     0.167 HD
ATOM     70  C   UNL A   1      47.064  26.130  26.728  1.00  0.00     0.074 A 
ATOM     71  C   UNL A   1      47.265  24.732  26.406  1.00  0.00     0.031 C 
ATOM     72  C   UNL A   1      48.046  27.064  26.714  1.00  0.00     0.037 A 
BRANCH  59  73
ATOM     73  C   UNL A   1      46.169  32.747  28.268  1.00  0.00     0.058 A 
ATOM     74  C   UNL A   1      46.654  33.248  29.488  1.00  0.00     0.135 A 
ATOM     75  C   UNL A   1      46.010  33.650  27.205  1.00  0.00     0.135 A 
ATOM     76  F   UNL A   1      46.805  32.430  30.542  1.00  0.00    -0.206 F 
ATOM     77  C   UNL A   1      46.934  34.600  29.659  1.00  0.00     0.059 A 
ATOM     78  C   UNL A   1      46.307  35.003  27.348  1.00  0.00     0.059 A 
ATOM     79  F   UNL A   1      45.548  33.224  26.020  1.00  0.00    -0.206 F 
ATOM     80  C   UNL A   1      46.750  35.471  28.584  1.00  0.00     0.060 A 
BRANCH  80  81
ATOM     81  S   UNL A   1      47.103  37.226  28.818  1.00  0.00     0.124 S 
ATOM     82  O   UNL A   1      46.976  37.730  27.454  1.00  0.00    -0.237 OA
ATOM     83  O   UNL A   1      46.055  37.639  29.745  1.00  0.00    -0.237 OA
ATOM     84  O   UNL A   1      48.455  37.228  29.366  1.00  0.00    -0.744 OA
ENDBRANCH  80  81
ENDBRANCH  59  73
BRANCH  60  85
ATOM     85  C   UNL A   1      43.353  23.245  26.940  1.00  0.00     0.058 A 
ATOM     86  C   UNL A   1      43.207  22.732  25.643  1.00  0.00     0.135 A 
ATOM     87  C   UNL A   1      43.104  22.384  28.018  1.00  0.00     0.135 A 
ATOM     88  F   UNL A   1      43.432  23.522  24.581  1.00  0.00    -0.206 F 
ATOM     89  C   UNL A   1      42.808  21.419  25.419  1.00  0.00     0.059 A 
ATOM     90  C   UNL A   1      42.722  21.060  27.820  1.00  0.00     0.059 A 
ATOM     91  F   UNL A   1      43.249  22.824  29.278  1.00  0.00    -0.206 F 
ATOM     92  C   UNL A   1      42.565  20.591  26.516  1.00  0.00     0.060 A 
BRANCH  92  93
ATOM     93  S   UNL A   1      42.088  18.874  26.220  1.00  0.00     0.124 S 
ATOM     94  O   UNL A   1      42.285  18.284  27.538  1.00  0.00    -0.237 OA
ATOM     95  O   UNL A   1      40.703  19.008  25.780  1.00  0.00    -0.237 OA
ATOM     96  O   UNL A   1      43.026  18.442  25.187  1.00  0.00    -0.744 OA
ENDBRANCH  92  93
ENDBRANCH  60  85
BRANCH  72  97
ATOM     97  C   UNL A   1      49.434  26.591  26.392  1.00  0.00     0.058 A 
ATOM     98  C   UNL A   1      49.946  26.644  25.087  1.00  0.00     0.135 A 
ATOM     99  C   UNL A   1      50.269  26.109  27.411  1.00  0.00     0.135 A 
ATOM    100  F   UNL A   1      49.183  27.093  24.079  1.00  0.00    -0.206 F 
ATOM    101  C   UNL A   1      51.235  26.208  24.798  1.00  0.00     0.059 A 
ATOM    102  C   UNL A   1      51.567  25.687  27.148  1.00  0.00     0.059 A 
ATOM    103  F   UNL A   1      49.827  26.049  28.678  1.00  0.00    -0.206 F 
ATOM    104  C   UNL A   1      52.038  25.727  25.835  1.00  0.00     0.060 A 
BRANCH 104 105
ATOM    105  S   UNL A   1      53.717  25.182  25.459  1.00  0.00     0.124 S 
ATOM    106  O   UNL A   1      54.447  25.657  26.630  1.00  0.00    -0.237 OA
ATOM    107  O   UNL A   1      53.564  23.734  25.353  1.00  0.00    -0.237 OA
ATOM    108  O   UNL A   1      54.021  25.866  24.207  1.00  0.00    -0.744 OA
ENDBRANCH 104 105
ENDBRANCH  72  97
ENDBRANCH  46  47
ENDBRANCH  38  41
ENDBRANCH  36  37
ENDBRANCH  35  36
ENDBRANCH   1  35
TORSDOF 18
ENDMDL
MODEL 3
REMARK VINA RESULT:     -12.3      1.709      2.243
REMARK SMILES Cc1cc(C)c(S(=O)(=O)Nc2ccc(N3CC[NH+](C)CC3)c(C(=O)NCCCCNC(=O)c3ccc(-c4c5nc(c(-c6c(F)cc(S(=O)(=O)[O-])cc6F)c6ccc([nH]6)c(-c6c(F)cc(S(=O)(=O)[O-])cc6F)c6nc(c(-c7c(F)cc(S(=O)(=O)[O-])cc7F)c7ccc4[nH]7)C=C6)C=C5)cc3)c2)c(C)c1
REMARK SMILES IDX 27 1 26 2 25 3 23 4 24 5 22 7 11 8 12 9 99 10 13 11 14 12
REMARK SMILES IDX 10 13 7 15 8 16 9 17 6 18 1 19 2 20 3 21 102 22 4 23 100 24
REMARK SMILES IDX 5 25 101 26 15 27 16 28 21 29 17 30 20 31 18 32 19 33 28 35
REMARK SMILES IDX 29 36 30 37 31 38 32 40 33 41 34 42 98 43 35 44 97 45 36 46
REMARK SMILES IDX 37 47 38 48 91 49 39 50 96 51 90 52 92 53 40 54 95 55 89 56
REMARK SMILES IDX 88 57 41 59 75 60 54 61 74 62 55 63 58 64 73 65 93 66 56 67
REMARK SMILES IDX 57 68 72 70 94 71 59 72 42 73 43 74 52 75 44 76 45 77 51 78
REMARK SMILES IDX 53 79 46 80 47 81 48 82 49 83 50 84 76 85 77 86 86 87 78 88
REMARK SMILES IDX 79 89 85 90 87 91 80 92 81 93 82 94 83 95 84 96 60 97 61 98
REMARK SMILES IDX 70 99 62 100 63 101 69 102 71 103 64 104 65 105 66 106
REMARK SMILES IDX 67 107 68 108
REMARK H PARENT 25 6 10 14 18 34 30 39 92 58 58 69
REMARK Flexibility Score: inf
ROOT
ATOM      1  C   UNL A   1      33.586  29.410  26.838  1.00  0.00     0.023 C 
ENDROOT
BRANCH   1   2
ATOM      2  C   UNL A   1      32.506  30.152  26.045  1.00  0.00     0.116 C 
BRANCH   2   3
ATOM      3  N   UNL A   1      32.708  29.955  24.627  1.00  0.00    -0.352 N 
ATOM      4  C   UNL A   1      32.373  28.949  23.752  1.00  0.00     0.253 C 
ATOM      5  O   UNL A   1      32.936  29.027  22.660  1.00  0.00    -0.269 OA
ATOM      6  H   UNL A   1      33.188  30.699  24.196  1.00  0.00     0.163 HD
BRANCH   4   7
ATOM      7  C   UNL A   1      31.412  27.829  24.067  1.00  0.00     0.065 A 
ATOM      8  C   UNL A   1      30.915  25.798  25.316  1.00  0.00     0.050 A 
ATOM      9  C   UNL A   1      29.640  25.753  24.771  1.00  0.00     0.029 A 
ATOM     10  C   UNL A   1      31.832  26.719  24.823  1.00  0.00     0.042 A 
ATOM     11  C   UNL A   1      29.216  26.793  23.953  1.00  0.00     0.029 A 
ATOM     12  C   UNL A   1      30.041  27.905  23.687  1.00  0.00     0.050 A 
BRANCH   8  13
ATOM     13  N   UNL A   1      31.148  24.964  26.443  1.00  0.00    -0.280 N 
ATOM     14  H   UNL A   1      31.112  25.398  27.326  1.00  0.00     0.180 HD
BRANCH  13  15
ATOM     15  S   UNL A   1      31.478  23.323  26.429  1.00  0.00     0.262 S 
ATOM     16  O   UNL A   1      30.377  22.701  25.713  1.00  0.00    -0.201 OA
ATOM     17  O   UNL A   1      31.749  22.994  27.812  1.00  0.00    -0.201 OA
BRANCH  15  18
ATOM     18  C   UNL A   1      32.979  22.919  25.512  1.00  0.00     0.093 A 
ATOM     19  C   UNL A   1      36.618  23.111  23.160  1.00  0.00     0.044 C 
ATOM     20  C   UNL A   1      35.355  23.005  23.964  1.00  0.00    -0.051 A 
ATOM     21  C   UNL A   1      34.113  23.119  23.349  1.00  0.00     0.008 A 
ATOM     22  C   UNL A   1      35.393  22.695  25.323  1.00  0.00     0.008 A 
ATOM     23  C   UNL A   1      32.920  23.078  24.098  1.00  0.00    -0.030 A 
ATOM     24  C   UNL A   1      34.216  22.595  26.103  1.00  0.00    -0.030 A 
ATOM     25  C   UNL A   1      31.645  23.092  23.290  1.00  0.00     0.046 C 
ATOM     26  C   UNL A   1      34.424  22.076  27.494  1.00  0.00     0.046 C 
ENDBRANCH  15  18
ENDBRANCH  13  15
ENDBRANCH   8  13
BRANCH  12  27
ATOM     27  N   UNL A   1      29.422  29.055  23.228  1.00  0.00    -0.360 N 
ATOM     28  C   UNL A   1      28.782  29.124  21.908  1.00  0.00     0.178 C 
ATOM     29  C   UNL A   1      28.905  30.040  24.189  1.00  0.00     0.178 C 
ATOM     30  C   UNL A   1      28.941  30.563  21.351  1.00  0.00     0.283 C 
ATOM     31  C   UNL A   1      29.016  31.461  23.600  1.00  0.00     0.283 C 
ATOM     32  N   UNL A   1      28.378  31.594  22.269  1.00  0.00    -0.334 N 
ATOM     33  C   UNL A   1      28.622  32.933  21.735  1.00  0.00     0.332 C 
ATOM     34  H   UNL A   1      27.371  31.454  22.354  1.00  0.00     0.347 HD
ENDBRANCH  12  27
ENDBRANCH   4   7
ENDBRANCH   2   3
ENDBRANCH   1   2
BRANCH   1  35
ATOM     35  C   UNL A   1      34.647  30.327  27.451  1.00  0.00     0.023 C 
BRANCH  35  36
ATOM     36  C   UNL A   1      35.544  29.652  28.480  1.00  0.00     0.116 C 
BRANCH  36  37
ATOM     37  N   UNL A   1      35.603  30.375  29.739  1.00  0.00    -0.352 N 
ATOM     38  C   UNL A   1      36.695  30.592  30.542  1.00  0.00     0.251 C 
ATOM     39  H   UNL A   1      34.754  30.759  30.057  1.00  0.00     0.163 HD
ATOM     40  O   UNL A   1      36.565  31.132  31.635  1.00  0.00    -0.269 OA
BRANCH  38  41
ATOM     41  C   UNL A   1      38.023  30.135  30.086  1.00  0.00     0.039 A 
ATOM     42  C   UNL A   1      38.355  30.276  28.736  1.00  0.00     0.014 A 
ATOM     43  C   UNL A   1      38.935  29.583  30.989  1.00  0.00     0.014 A 
ATOM     44  C   UNL A   1      39.623  29.895  28.297  1.00  0.00     0.010 A 
ATOM     45  C   UNL A   1      40.218  29.259  30.561  1.00  0.00     0.010 A 
ATOM     46  C   UNL A   1      40.568  29.399  29.210  1.00  0.00    -0.014 A 
BRANCH  46  47
ATOM     47  C   UNL A   1      41.915  28.977  28.758  1.00  0.00     0.031 A 
ATOM     48  C   UNL A   1      43.029  29.986  28.702  1.00  0.00     0.074 A 
ATOM     49  C   UNL A   1      42.119  27.710  28.351  1.00  0.00     0.049 A 
ATOM     50  N   UNL A   1      44.258  29.836  28.283  1.00  0.00    -0.248 NA
ATOM     51  C   UNL A   1      42.708  31.352  29.146  1.00  0.00     0.031 C 
ATOM     52  C   UNL A   1      41.101  26.658  28.310  1.00  0.00     0.029 A 
ATOM     53  N   UNL A   1      43.252  27.094  27.887  1.00  0.00    -0.354 N 
ATOM     54  C   UNL A   1      44.848  31.090  28.387  1.00  0.00     0.074 A 
ATOM     55  C   UNL A   1      43.831  31.998  28.872  1.00  0.00     0.031 C 
ATOM     56  C   UNL A   1      41.662  25.520  27.868  1.00  0.00     0.029 A 
ATOM     57  C   UNL A   1      43.071  25.767  27.577  1.00  0.00     0.049 A 
ATOM     58  H   UNL A   1      44.114  27.558  27.785  1.00  0.00     0.167 HD
ATOM     59  C   UNL A   1      46.127  31.449  28.123  1.00  0.00     0.037 A 
ATOM     60  C   UNL A   1      43.949  24.854  27.120  1.00  0.00     0.037 A 
ATOM     61  C   UNL A   1      47.145  30.531  27.687  1.00  0.00     0.049 A 
ATOM     62  C   UNL A   1      45.382  25.259  26.906  1.00  0.00     0.074 A 
ATOM     63  C   UNL A   1      48.483  30.780  27.436  1.00  0.00     0.029 A 
ATOM     64  N   UNL A   1      46.940  29.180  27.454  1.00  0.00    -0.354 N 
ATOM     65  N   UNL A   1      45.934  26.440  27.052  1.00  0.00    -0.248 NA
ATOM     66  C   UNL A   1      46.313  24.204  26.484  1.00  0.00     0.031 C 
ATOM     67  C   UNL A   1      49.085  29.580  27.042  1.00  0.00     0.029 A 
ATOM     68  C   UNL A   1      48.127  28.579  27.072  1.00  0.00     0.049 A 
ATOM     69  H   UNL A   1      46.077  28.715  27.548  1.00  0.00     0.167 HD
ATOM     70  C   UNL A   1      47.285  26.264  26.772  1.00  0.00     0.074 A 
ATOM     71  C   UNL A   1      47.465  24.862  26.451  1.00  0.00     0.031 C 
ATOM     72  C   UNL A   1      48.285  27.177  26.782  1.00  0.00     0.037 A 
BRANCH  59  73
ATOM     73  C   UNL A   1      46.488  32.894  28.307  1.00  0.00     0.058 A 
ATOM     74  C   UNL A   1      46.381  33.818  27.254  1.00  0.00     0.135 A 
ATOM     75  C   UNL A   1      46.943  33.365  29.549  1.00  0.00     0.135 A 
ATOM     76  F   UNL A   1      45.970  33.414  26.041  1.00  0.00    -0.206 F 
ATOM     77  C   UNL A   1      46.747  35.150  27.415  1.00  0.00     0.059 A 
ATOM     78  C   UNL A   1      47.291  34.699  29.738  1.00  0.00     0.059 A 
ATOM     79  F   UNL A   1      47.066  32.524  30.587  1.00  0.00    -0.206 F 
ATOM     80  C   UNL A   1      47.208  35.580  28.661  1.00  0.00     0.060 A 
BRANCH  80  81
ATOM     81  S   UNL A   1      47.694  37.307  28.858  1.00  0.00     0.124 S 
ATOM     82  O   UNL A   1      47.812  37.410  30.309  1.00  0.00    -0.237 OA
ATOM     83  O   UNL A   1      48.948  37.371  28.115  1.00  0.00    -0.237 OA
ATOM     84  O   UNL A   1      46.580  38.040  28.264  1.00  0.00    -0.744 OA
ENDBRANCH  80  81
ENDBRANCH  59  73
BRANCH  60  85
ATOM     85  C   UNL A   1      43.512  23.453  26.893  1.00  0.00     0.058 A 
ATOM     86  C   UNL A   1      43.358  22.568  27.970  1.00  0.00     0.135 A 
ATOM     87  C   UNL A   1      43.236  22.973  25.605  1.00  0.00     0.135 A 
ATOM     88  F   UNL A   1      43.614  22.984  29.220  1.00  0.00    -0.206 F 
ATOM     89  C   UNL A   1      42.962  21.249  27.779  1.00  0.00     0.059 A 
ATOM     90  C   UNL A   1      42.820  21.663  25.389  1.00  0.00     0.059 A 
ATOM     91  F   UNL A   1      43.351  23.788  24.544  1.00  0.00    -0.206 F 
ATOM     92  C   UNL A   1      42.699  20.805  26.482  1.00  0.00     0.060 A 
BRANCH  92  93
ATOM     93  S   UNL A   1      42.145  19.102  26.243  1.00  0.00     0.124 S 
ATOM     94  O   UNL A   1      43.076  18.633  25.224  1.00  0.00    -0.237 OA
ATOM     95  O   UNL A   1      42.315  18.530  27.576  1.00  0.00    -0.237 OA
ATOM     96  O   UNL A   1      40.760  19.261  25.810  1.00  0.00    -0.744 OA
ENDBRANCH  92  93
ENDBRANCH  60  85
BRANCH  72  97
ATOM     97  C   UNL A   1      49.670  26.677  26.491  1.00  0.00     0.058 A 
ATOM     98  C   UNL A   1      50.476  26.116  27.493  1.00  0.00     0.135 A 
ATOM     99  C   UNL A   1      50.180  26.732  25.185  1.00  0.00     0.135 A 
ATOM    100  F   UNL A   1      50.032  26.046  28.758  1.00  0.00    -0.206 F 
ATOM    101  C   UNL A   1      51.756  25.650  27.214  1.00  0.00     0.059 A 
ATOM    102  C   UNL A   1      51.449  26.254  24.880  1.00  0.00     0.059 A 
ATOM    103  F   UNL A   1      49.441  27.251  24.191  1.00  0.00    -0.206 F 
ATOM    104  C   UNL A   1      52.237  25.727  25.905  1.00  0.00     0.060 A 
BRANCH 104 105
ATOM    105  S   UNL A   1      53.891  25.102  25.543  1.00  0.00     0.124 S 
ATOM    106  O   UNL A   1      54.450  24.961  26.884  1.00  0.00    -0.237 OA
ATOM    107  O   UNL A   1      53.612  23.854  24.839  1.00  0.00    -0.237 OA
ATOM    108  O   UNL A   1      54.478  26.158  24.723  1.00  0.00    -0.744 OA
ENDBRANCH 104 105
ENDBRANCH  72  97
ENDBRANCH  46  47
ENDBRANCH  38  41
ENDBRANCH  36  37
ENDBRANCH  35  36
ENDBRANCH   1  35
TORSDOF 18
ENDMDL
