MODEL 1
REMARK VINA RESULT:     -11.3      0.000      0.000
REMARK SMILES CC[C@]1(C(=O)NCCCCNC(=O)c2ccc(-c3c4nc(c(-c5c(F)cc(S(=O)(=O)[O-])cc5F)c5ccc([nH]5)c(-c5c(F)cc(S(=O)(=O)[O-])cc5F)c5nc(c(-c6c(F)cc(S(=O)(=O)[O-])cc6F)c6ccc3[nH]6)C=C5)C=C4)cc2)CCCN(S(=O)(=O)CCOC(C)C)C1
REMARK SMILES IDX 7 1 6 2 4 3 5 4 3 6 80 7 93 8 81 9 83 10 82 11 2 12 1 13
REMARK SMILES IDX 84 14 85 15 86 16 87 17 88 18 89 19 90 20 91 21 92 22 8 23
REMARK SMILES IDX 9 24 10 25 11 26 12 27 13 29 14 30 15 31 79 32 16 33 78 34
REMARK SMILES IDX 17 35 18 36 19 37 72 38 20 39 77 40 71 41 73 42 21 43 76 44
REMARK SMILES IDX 70 45 69 46 22 48 56 49 35 50 55 51 36 52 39 53 54 54 74 55
REMARK SMILES IDX 37 56 38 57 53 59 75 60 40 61 23 62 24 63 33 64 25 65 26 66
REMARK SMILES IDX 32 67 34 68 27 69 28 70 29 71 30 72 31 73 57 74 58 75 67 76
REMARK SMILES IDX 59 77 60 78 66 79 68 80 61 81 62 82 63 83 64 84 65 85 41 86
REMARK SMILES IDX 42 87 51 88 43 89 44 90 50 91 52 92 45 93 46 94 47 95 48 96
REMARK SMILES IDX 49 97
REMARK H PARENT 6 5 11 28 73 47 39 58
REMARK Flexibility Score: inf
ROOT
ATOM      1  C   UNL A   1      33.564  29.830  26.513  1.00  0.00     0.116 C 
ENDROOT
BRANCH   1   2
ATOM      2  N   UNL A   1      32.546  29.199  27.329  1.00  0.00    -0.356 N 
ATOM      3  C   UNL A   1      31.808  28.070  27.146  1.00  0.00     0.227 C 
ATOM      4  O   UNL A   1      30.996  27.826  28.041  1.00  0.00    -0.274 OA
ATOM      5  H   UNL A   1      32.352  29.675  28.168  1.00  0.00     0.163 HD
BRANCH   3   6
ATOM      6  C   UNL A   1      32.009  27.138  25.913  1.00  0.00     0.063 C 
ATOM      7  C   UNL A   1      33.473  27.270  25.408  1.00  0.00     0.019 C 
ATOM      8  C   UNL A   1      31.647  25.702  26.429  1.00  0.00     0.119 C 
ATOM      9  C   UNL A   1      34.027  26.033  24.710  1.00  0.00     0.018 C 
ATOM     10  N   UNL A   1      32.337  24.585  25.701  1.00  0.00    -0.201 NA
ATOM     11  C   UNL A   1      33.792  24.774  25.521  1.00  0.00     0.102 C 
BRANCH   6  12
ATOM     12  C   UNL A   1      30.960  27.578  24.803  1.00  0.00     0.015 C 
ATOM     13  C   UNL A   1      30.040  26.522  24.196  1.00  0.00     0.005 C 
ENDBRANCH   6  12
BRANCH  10  14
ATOM     14  S   UNL A   1      31.879  23.015  26.222  1.00  0.00     0.216 S 
ATOM     15  O   UNL A   1      32.284  22.908  27.613  1.00  0.00    -0.212 OA
ATOM     16  O   UNL A   1      30.506  22.797  25.842  1.00  0.00    -0.212 OA
BRANCH  14  17
ATOM     17  C   UNL A   1      32.945  21.945  25.239  1.00  0.00     0.182 C 
BRANCH  17  18
ATOM     18  C   UNL A   1      33.369  20.671  25.961  1.00  0.00     0.178 C 
BRANCH  18  19
ATOM     19  O   UNL A   1      34.130  19.762  25.157  1.00  0.00    -0.378 OA
BRANCH  19  20
ATOM     20  C   UNL A   1      33.478  18.612  24.618  1.00  0.00     0.112 C 
ATOM     21  C   UNL A   1      32.535  18.893  23.444  1.00  0.00     0.038 C 
ATOM     22  C   UNL A   1      34.460  17.523  24.267  1.00  0.00     0.038 C 
ENDBRANCH  19  20
ENDBRANCH  18  19
ENDBRANCH  17  18
ENDBRANCH  14  17
ENDBRANCH  10  14
ENDBRANCH   3   6
ENDBRANCH   1   2
BRANCH   1  23
ATOM     23  C   UNL A   1      34.815  30.141  27.324  1.00  0.00     0.023 C 
BRANCH  23  24
ATOM     24  C   UNL A   1      34.978  31.621  27.645  1.00  0.00     0.023 C 
BRANCH  24  25
ATOM     25  C   UNL A   1      36.041  31.914  28.692  1.00  0.00     0.116 C 
BRANCH  25  26
ATOM     26  N   UNL A   1      35.769  31.256  29.965  1.00  0.00    -0.352 N 
ATOM     27  C   UNL A   1      36.587  30.411  30.674  1.00  0.00     0.251 C 
ATOM     28  H   UNL A   1      34.891  31.441  30.366  1.00  0.00     0.163 HD
ATOM     29  O   UNL A   1      36.165  29.802  31.649  1.00  0.00    -0.269 OA
BRANCH  27  30
ATOM     30  C   UNL A   1      37.972  30.232  30.206  1.00  0.00     0.039 A 
ATOM     31  C   UNL A   1      39.010  30.248  31.137  1.00  0.00     0.014 A 
ATOM     32  C   UNL A   1      38.218  29.951  28.858  1.00  0.00     0.014 A 
ATOM     33  C   UNL A   1      40.297  29.914  30.723  1.00  0.00     0.010 A 
ATOM     34  C   UNL A   1      39.482  29.531  28.470  1.00  0.00     0.010 A 
ATOM     35  C   UNL A   1      40.535  29.515  29.395  1.00  0.00    -0.014 A 
BRANCH  35  36
ATOM     36  C   UNL A   1      41.884  29.081  28.954  1.00  0.00     0.031 A 
ATOM     37  C   UNL A   1      42.997  30.090  28.867  1.00  0.00     0.074 A 
ATOM     38  C   UNL A   1      42.081  27.806  28.565  1.00  0.00     0.049 A 
ATOM     39  N   UNL A   1      44.222  29.928  28.443  1.00  0.00    -0.248 NA
ATOM     40  C   UNL A   1      42.685  31.469  29.281  1.00  0.00     0.031 C 
ATOM     41  C   UNL A   1      41.058  26.757  28.543  1.00  0.00     0.029 A 
ATOM     42  N   UNL A   1      43.207  27.177  28.099  1.00  0.00    -0.354 N 
ATOM     43  C   UNL A   1      44.815  31.183  28.512  1.00  0.00     0.074 A 
ATOM     44  C   UNL A   1      43.805  32.107  28.974  1.00  0.00     0.031 C 
ATOM     45  C   UNL A   1      41.609  25.612  28.106  1.00  0.00     0.029 A 
ATOM     46  C   UNL A   1      43.011  25.853  27.781  1.00  0.00     0.049 A 
ATOM     47  H   UNL A   1      44.077  27.630  28.001  1.00  0.00     0.167 HD
ATOM     48  C   UNL A   1      46.094  31.527  28.235  1.00  0.00     0.037 A 
ATOM     49  C   UNL A   1      43.862  24.940  27.274  1.00  0.00     0.037 A 
ATOM     50  C   UNL A   1      47.105  30.589  27.823  1.00  0.00     0.049 A 
ATOM     51  C   UNL A   1      45.288  25.346  27.003  1.00  0.00     0.074 A 
ATOM     52  C   UNL A   1      48.453  30.818  27.615  1.00  0.00     0.029 A 
ATOM     53  N   UNL A   1      46.879  29.248  27.552  1.00  0.00    -0.354 N 
ATOM     54  N   UNL A   1      45.857  26.515  27.171  1.00  0.00    -0.248 NA
ATOM     55  C   UNL A   1      46.189  24.307  26.484  1.00  0.00     0.031 C 
ATOM     56  C   UNL A   1      49.032  29.628  27.165  1.00  0.00     0.029 A 
ATOM     57  C   UNL A   1      48.057  28.644  27.150  1.00  0.00     0.049 A 
ATOM     58  H   UNL A   1      46.009  28.793  27.634  1.00  0.00     0.167 HD
ATOM     59  C   UNL A   1      47.189  26.345  26.806  1.00  0.00     0.074 A 
ATOM     60  C   UNL A   1      47.342  24.958  26.424  1.00  0.00     0.031 C 
ATOM     61  C   UNL A   1      48.194  27.256  26.788  1.00  0.00     0.037 A 
BRANCH  48  62
ATOM     62  C   UNL A   1      46.484  32.972  28.374  1.00  0.00     0.058 A 
ATOM     63  C   UNL A   1      47.025  33.483  29.565  1.00  0.00     0.135 A 
ATOM     64  C   UNL A   1      46.381  33.841  27.275  1.00  0.00     0.135 A 
ATOM     65  F   UNL A   1      47.128  32.701  30.652  1.00  0.00    -0.206 F 
ATOM     66  C   UNL A   1      47.438  34.807  29.666  1.00  0.00     0.059 A 
ATOM     67  C   UNL A   1      46.814  35.162  27.345  1.00  0.00     0.059 A 
ATOM     68  F   UNL A   1      45.866  33.405  26.115  1.00  0.00    -0.206 F 
ATOM     69  C   UNL A   1      47.335  35.637  28.547  1.00  0.00     0.060 A 
BRANCH  69  70
ATOM     70  S   UNL A   1      47.918  37.340  28.683  1.00  0.00     0.124 S 
ATOM     71  O   UNL A   1      49.314  37.141  29.060  1.00  0.00    -0.237 OA
ATOM     72  O   UNL A   1      47.692  37.854  27.335  1.00  0.00    -0.237 OA
ATOM     73  O   UNL A   1      47.063  37.911  29.719  1.00  0.00    -0.744 OA
ENDBRANCH  69  70
ENDBRANCH  48  62
BRANCH  49  74
ATOM     74  C   UNL A   1      43.400  23.553  26.992  1.00  0.00     0.058 A 
ATOM     75  C   UNL A   1      43.191  22.633  28.030  1.00  0.00     0.135 A 
ATOM     76  C   UNL A   1      43.178  23.113  25.677  1.00  0.00     0.135 A 
ATOM     77  F   UNL A   1      43.391  23.003  29.304  1.00  0.00    -0.206 F 
ATOM     78  C   UNL A   1      42.814  21.318  27.776  1.00  0.00     0.059 A 
ATOM     79  C   UNL A   1      42.772  21.812  25.399  1.00  0.00     0.059 A 
ATOM     80  F   UNL A   1      43.343  23.959  24.648  1.00  0.00    -0.206 F 
ATOM     81  C   UNL A   1      42.610  20.916  26.454  1.00  0.00     0.060 A 
BRANCH  81  82
ATOM     82  S   UNL A   1      42.106  19.211  26.134  1.00  0.00     0.124 S 
ATOM     83  O   UNL A   1      42.437  18.566  27.400  1.00  0.00    -0.237 OA
ATOM     84  O   UNL A   1      40.683  19.360  25.846  1.00  0.00    -0.237 OA
ATOM     85  O   UNL A   1      42.932  18.827  24.993  1.00  0.00    -0.744 OA
ENDBRANCH  81  82
ENDBRANCH  49  74
BRANCH  61  86
ATOM     86  C   UNL A   1      49.559  26.774  26.384  1.00  0.00     0.058 A 
ATOM     87  C   UNL A   1      50.451  26.216  27.312  1.00  0.00     0.135 A 
ATOM     88  C   UNL A   1      49.955  26.817  25.037  1.00  0.00     0.135 A 
ATOM     89  F   UNL A   1      50.125  26.155  28.613  1.00  0.00    -0.206 F 
ATOM     90  C   UNL A   1      51.699  25.741  26.922  1.00  0.00     0.059 A 
ATOM     91  C   UNL A   1      51.184  26.319  24.620  1.00  0.00     0.059 A 
ATOM     92  F   UNL A   1      49.133  27.329  24.107  1.00  0.00    -0.206 F 
ATOM     93  C   UNL A   1      52.056  25.793  25.573  1.00  0.00     0.060 A 
BRANCH  93  94
ATOM     94  S   UNL A   1      53.664  25.141  25.076  1.00  0.00     0.124 S 
ATOM     95  O   UNL A   1      53.831  25.747  23.759  1.00  0.00    -0.237 OA
ATOM     96  O   UNL A   1      54.543  25.649  26.123  1.00  0.00    -0.237 OA
ATOM     97  O   UNL A   1      53.461  23.696  25.080  1.00  0.00    -0.744 OA
ENDBRANCH  93  94
ENDBRANCH  61  86
ENDBRANCH  35  36
ENDBRANCH  27  30
ENDBRANCH  25  26
ENDBRANCH  24  25
ENDBRANCH  23  24
ENDBRANCH   1  23
TORSDOF 20
ENDMDL
MODEL 2
REMARK VINA RESULT:     -10.9      0.997      8.273
REMARK SMILES CC[C@]1(C(=O)NCCCCNC(=O)c2ccc(-c3c4nc(c(-c5c(F)cc(S(=O)(=O)[O-])cc5F)c5ccc([nH]5)c(-c5c(F)cc(S(=O)(=O)[O-])cc5F)c5nc(c(-c6c(F)cc(S(=O)(=O)[O-])cc6F)c6ccc3[nH]6)C=C5)C=C4)cc2)CCCN(S(=O)(=O)CCOC(C)C)C1
REMARK SMILES IDX 7 1 6 2 4 3 5 4 3 6 80 7 93 8 81 9 83 10 82 11 2 12 1 13
REMARK SMILES IDX 84 14 85 15 86 16 87 17 88 18 89 19 90 20 91 21 92 22 8 23
REMARK SMILES IDX 9 24 10 25 11 26 12 27 13 29 14 30 15 31 79 32 16 33 78 34
REMARK SMILES IDX 17 35 18 36 19 37 72 38 20 39 77 40 71 41 73 42 21 43 76 44
REMARK SMILES IDX 70 45 69 46 22 48 56 49 35 50 55 51 36 52 39 53 54 54 74 55
REMARK SMILES IDX 37 56 38 57 53 59 75 60 40 61 23 62 24 63 33 64 25 65 26 66
REMARK SMILES IDX 32 67 34 68 27 69 28 70 29 71 30 72 31 73 57 74 58 75 67 76
REMARK SMILES IDX 59 77 60 78 66 79 68 80 61 81 62 82 63 83 64 84 65 85 41 86
REMARK SMILES IDX 42 87 51 88 43 89 44 90 50 91 52 92 45 93 46 94 47 95 48 96
REMARK SMILES IDX 49 97
REMARK H PARENT 6 5 11 28 73 47 39 58
REMARK Flexibility Score: inf
ROOT
ATOM      1  C   UNL A   1      32.356  29.048  26.070  1.00  0.00     0.116 C 
ENDROOT
BRANCH   1   2
ATOM      2  N   UNL A   1      31.422  28.026  26.498  1.00  0.00    -0.356 N 
ATOM      3  C   UNL A   1      31.295  26.714  26.158  1.00  0.00     0.227 C 
ATOM      4  O   UNL A   1      30.357  26.123  26.700  1.00  0.00    -0.274 OA
ATOM      5  H   UNL A   1      30.757  28.338  27.154  1.00  0.00     0.163 HD
BRANCH   3   6
ATOM      6  C   UNL A   1      32.288  26.009  25.186  1.00  0.00     0.063 C 
ATOM      7  C   UNL A   1      33.720  26.074  25.786  1.00  0.00     0.019 C 
ATOM      8  C   UNL A   1      31.734  24.550  25.032  1.00  0.00     0.119 C 
ATOM      9  C   UNL A   1      34.643  24.933  25.371  1.00  0.00     0.018 C 
ATOM     10  N   UNL A   1      32.775  23.519  24.707  1.00  0.00    -0.201 NA
ATOM     11  C   UNL A   1      33.986  23.580  25.552  1.00  0.00     0.102 C 
BRANCH   6  12
ATOM     12  C   UNL A   1      32.200  26.756  23.786  1.00  0.00     0.015 C 
ATOM     13  C   UNL A   1      33.489  27.227  23.117  1.00  0.00     0.005 C 
ENDBRANCH   6  12
BRANCH  10  14
ATOM     14  S   UNL A   1      32.150  21.938  24.467  1.00  0.00     0.216 S 
ATOM     15  O   UNL A   1      31.108  21.751  25.461  1.00  0.00    -0.212 OA
ATOM     16  O   UNL A   1      31.859  21.777  23.064  1.00  0.00    -0.212 OA
BRANCH  14  17
ATOM     17  C   UNL A   1      33.547  20.889  24.909  1.00  0.00     0.182 C 
BRANCH  17  18
ATOM     18  C   UNL A   1      33.142  19.567  25.552  1.00  0.00     0.178 C 
BRANCH  18  19
ATOM     19  O   UNL A   1      32.392  18.699  24.694  1.00  0.00    -0.378 OA
BRANCH  19  20
ATOM     20  C   UNL A   1      33.059  18.082  23.591  1.00  0.00     0.112 C 
ATOM     21  C   UNL A   1      33.480  16.627  23.820  1.00  0.00     0.038 C 
ATOM     22  C   UNL A   1      32.270  18.216  22.313  1.00  0.00     0.038 C 
ENDBRANCH  19  20
ENDBRANCH  18  19
ENDBRANCH  17  18
ENDBRANCH  14  17
ENDBRANCH  10  14
ENDBRANCH   3   6
ENDBRANCH   1   2
BRANCH   1  23
ATOM     23  C   UNL A   1      32.950  29.794  27.258  1.00  0.00     0.023 C 
BRANCH  23  24
ATOM     24  C   UNL A   1      34.366  30.297  27.012  1.00  0.00     0.023 C 
BRANCH  24  25
ATOM     25  C   UNL A   1      35.415  29.654  27.906  1.00  0.00     0.116 C 
BRANCH  25  26
ATOM     26  N   UNL A   1      35.494  30.282  29.219  1.00  0.00    -0.352 N 
ATOM     27  C   UNL A   1      36.560  30.306  30.085  1.00  0.00     0.251 C 
ATOM     28  H   UNL A   1      34.683  30.747  29.523  1.00  0.00     0.163 HD
ATOM     29  O   UNL A   1      36.431  30.732  31.225  1.00  0.00    -0.269 OA
BRANCH  27  30
ATOM     30  C   UNL A   1      37.849  29.772  29.612  1.00  0.00     0.039 A 
ATOM     31  C   UNL A   1      38.164  29.861  28.257  1.00  0.00     0.014 A 
ATOM     32  C   UNL A   1      38.774  29.276  30.536  1.00  0.00     0.014 A 
ATOM     33  C   UNL A   1      39.444  29.511  27.834  1.00  0.00     0.010 A 
ATOM     34  C   UNL A   1      40.073  29.016  30.125  1.00  0.00     0.010 A 
ATOM     35  C   UNL A   1      40.420  29.124  28.770  1.00  0.00    -0.014 A 
BRANCH  35  36
ATOM     36  C   UNL A   1      41.810  28.821  28.349  1.00  0.00     0.031 A 
ATOM     37  C   UNL A   1      42.167  27.426  27.913  1.00  0.00     0.074 A 
ATOM     38  C   UNL A   1      42.755  29.778  28.432  1.00  0.00     0.049 A 
ATOM     39  N   UNL A   1      43.334  26.945  27.574  1.00  0.00    -0.248 NA
ATOM     40  C   UNL A   1      41.079  26.434  27.884  1.00  0.00     0.031 C 
ATOM     41  C   UNL A   1      42.538  31.149  28.905  1.00  0.00     0.029 A 
ATOM     42  N   UNL A   1      44.094  29.742  28.133  1.00  0.00    -0.354 N 
ATOM     43  C   UNL A   1      43.125  25.594  27.320  1.00  0.00     0.074 A 
ATOM     44  C   UNL A   1      41.732  25.320  27.588  1.00  0.00     0.031 C 
ATOM     45  C   UNL A   1      43.697  31.825  28.845  1.00  0.00     0.029 A 
ATOM     46  C   UNL A   1      44.747  30.930  28.368  1.00  0.00     0.049 A 
ATOM     47  H   UNL A   1      44.546  28.940  27.782  1.00  0.00     0.167 HD
ATOM     48  C   UNL A   1      44.013  24.672  26.881  1.00  0.00     0.037 A 
ATOM     49  C   UNL A   1      46.046  31.257  28.225  1.00  0.00     0.037 A 
ATOM     50  C   UNL A   1      45.386  24.967  26.569  1.00  0.00     0.049 A 
ATOM     51  C   UNL A   1      47.006  30.216  27.707  1.00  0.00     0.074 A 
ATOM     52  C   UNL A   1      46.341  24.128  26.024  1.00  0.00     0.029 A 
ATOM     53  N   UNL A   1      46.001  26.192  26.779  1.00  0.00    -0.354 N 
ATOM     54  N   UNL A   1      46.768  28.970  27.375  1.00  0.00    -0.248 NA
ATOM     55  C   UNL A   1      48.405  30.629  27.534  1.00  0.00     0.031 C 
ATOM     56  C   UNL A   1      47.548  24.829  25.955  1.00  0.00     0.029 A 
ATOM     57  C   UNL A   1      47.331  26.123  26.402  1.00  0.00     0.049 A 
ATOM     58  H   UNL A   1      45.558  26.993  27.143  1.00  0.00     0.167 HD
ATOM     59  C   UNL A   1      47.982  28.458  26.927  1.00  0.00     0.074 A 
ATOM     60  C   UNL A   1      48.946  29.534  27.017  1.00  0.00     0.031 C 
ATOM     61  C   UNL A   1      48.272  27.210  26.483  1.00  0.00     0.037 A 
BRANCH  48  62
ATOM     62  C   UNL A   1      43.535  23.259  26.700  1.00  0.00     0.058 A 
ATOM     63  C   UNL A   1      43.350  22.695  25.428  1.00  0.00     0.135 A 
ATOM     64  C   UNL A   1      43.326  22.435  27.819  1.00  0.00     0.135 A 
ATOM     65  F   UNL A   1      43.516  23.443  24.325  1.00  0.00    -0.206 F 
ATOM     66  C   UNL A   1      42.964  21.368  25.270  1.00  0.00     0.059 A 
ATOM     67  C   UNL A   1      42.967  21.096  27.683  1.00  0.00     0.059 A 
ATOM     68  F   UNL A   1      43.483  22.925  29.058  1.00  0.00    -0.206 F 
ATOM     69  C   UNL A   1      42.782  20.575  26.405  1.00  0.00     0.060 A 
BRANCH  69  70
ATOM     70  S   UNL A   1      42.325  18.843  26.179  1.00  0.00     0.124 S 
ATOM     71  O   UNL A   1      43.288  18.416  25.169  1.00  0.00    -0.237 OA
ATOM     72  O   UNL A   1      42.524  18.293  27.516  1.00  0.00    -0.237 OA
ATOM     73  O   UNL A   1      40.938  18.912  25.733  1.00  0.00    -0.744 OA
ENDBRANCH  69  70
ENDBRANCH  48  62
BRANCH  49  74
ATOM     74  C   UNL A   1      46.522  32.624  28.570  1.00  0.00     0.058 A 
ATOM     75  C   UNL A   1      47.017  32.919  29.849  1.00  0.00     0.135 A 
ATOM     76  C   UNL A   1      46.473  33.670  27.634  1.00  0.00     0.135 A 
ATOM     77  F   UNL A   1      47.083  31.956  30.781  1.00  0.00    -0.206 F 
ATOM     78  C   UNL A   1      47.412  34.206  30.201  1.00  0.00     0.059 A 
ATOM     79  C   UNL A   1      46.890  34.958  27.952  1.00  0.00     0.059 A 
ATOM     80  F   UNL A   1      46.028  33.437  26.389  1.00  0.00    -0.206 F 
ATOM     81  C   UNL A   1      47.341  35.221  29.244  1.00  0.00     0.060 A 
BRANCH  81  82
ATOM     82  S   UNL A   1      47.869  36.886  29.705  1.00  0.00     0.124 S 
ATOM     83  O   UNL A   1      47.926  36.782  31.160  1.00  0.00    -0.237 OA
ATOM     84  O   UNL A   1      49.154  37.000  29.023  1.00  0.00    -0.237 OA
ATOM     85  O   UNL A   1      46.807  37.733  29.172  1.00  0.00    -0.744 OA
ENDBRANCH  81  82
ENDBRANCH  49  74
BRANCH  61  86
ATOM     86  C   UNL A   1      49.678  26.950  26.017  1.00  0.00     0.058 A 
ATOM     87  C   UNL A   1      50.659  26.434  26.877  1.00  0.00     0.135 A 
ATOM     88  C   UNL A   1      50.029  27.164  24.674  1.00  0.00     0.135 A 
ATOM     89  F   UNL A   1      50.377  26.216  28.172  1.00  0.00    -0.206 F 
ATOM     90  C   UNL A   1      51.947  26.164  26.428  1.00  0.00     0.059 A 
ATOM     91  C   UNL A   1      51.302  26.871  24.196  1.00  0.00     0.059 A 
ATOM     92  F   UNL A   1      49.124  27.644  23.806  1.00  0.00    -0.206 F 
ATOM     93  C   UNL A   1      52.258  26.383  25.085  1.00  0.00     0.060 A 
BRANCH  93  94
ATOM     94  S   UNL A   1      53.924  25.995  24.507  1.00  0.00     0.124 S 
ATOM     95  O   UNL A   1      54.735  26.881  25.336  1.00  0.00    -0.237 OA
ATOM     96  O   UNL A   1      54.033  24.571  24.805  1.00  0.00    -0.237 OA
ATOM     97  O   UNL A   1      53.879  26.332  23.088  1.00  0.00    -0.744 OA
ENDBRANCH  93  94
ENDBRANCH  61  86
ENDBRANCH  35  36
ENDBRANCH  27  30
ENDBRANCH  25  26
ENDBRANCH  24  25
ENDBRANCH  23  24
ENDBRANCH   1  23
TORSDOF 20
ENDMDL
MODEL 3
REMARK VINA RESULT:     -10.9      6.473     12.126
REMARK SMILES CC[C@]1(C(=O)NCCCCNC(=O)c2ccc(-c3c4nc(c(-c5c(F)cc(S(=O)(=O)[O-])cc5F)c5ccc([nH]5)c(-c5c(F)cc(S(=O)(=O)[O-])cc5F)c5nc(c(-c6c(F)cc(S(=O)(=O)[O-])cc6F)c6ccc3[nH]6)C=C5)C=C4)cc2)CCCN(S(=O)(=O)CCOC(C)C)C1
REMARK SMILES IDX 7 1 6 2 4 3 5 4 3 6 80 7 93 8 81 9 83 10 82 11 2 12 1 13
REMARK SMILES IDX 84 14 85 15 86 16 87 17 88 18 89 19 90 20 91 21 92 22 8 23
REMARK SMILES IDX 9 24 10 25 11 26 12 27 13 29 14 30 15 31 79 32 16 33 78 34
REMARK SMILES IDX 17 35 18 36 19 37 72 38 20 39 77 40 71 41 73 42 21 43 76 44
REMARK SMILES IDX 70 45 69 46 22 48 56 49 35 50 55 51 36 52 39 53 54 54 74 55
REMARK SMILES IDX 37 56 38 57 53 59 75 60 40 61 23 62 24 63 33 64 25 65 26 66
REMARK SMILES IDX 32 67 34 68 27 69 28 70 29 71 30 72 31 73 57 74 58 75 67 76
REMARK SMILES IDX 59 77 60 78 66 79 68 80 61 81 62 82 63 83 64 84 65 85 41 86
REMARK SMILES IDX 42 87 51 88 43 89 44 90 50 91 52 92 45 93 46 94 47 95 48 96
REMARK SMILES IDX 49 97
REMARK H PARENT 6 5 11 28 73 47 39 58
REMARK Flexibility Score: inf
ROOT
ATOM      1  C   UNL A   1      36.650  23.496  25.901  1.00  0.00     0.116 C 
ENDROOT
BRANCH   1   2
ATOM      2  N   UNL A   1      36.283  23.516  24.500  1.00  0.00    -0.356 N 
ATOM      3  C   UNL A   1      35.199  23.026  23.839  1.00  0.00     0.227 C 
ATOM      4  O   UNL A   1      35.212  23.196  22.617  1.00  0.00    -0.274 OA
ATOM      5  H   UNL A   1      36.938  23.967  23.920  1.00  0.00     0.163 HD
BRANCH   3   6
ATOM      6  C   UNL A   1      34.016  22.335  24.582  1.00  0.00     0.063 C 
ATOM      7  C   UNL A   1      34.565  21.586  25.827  1.00  0.00     0.019 C 
ATOM      8  C   UNL A   1      33.025  23.500  24.932  1.00  0.00     0.119 C 
ATOM      9  C   UNL A   1      33.577  21.443  26.980  1.00  0.00     0.018 C 
ATOM     10  N   UNL A   1      32.176  23.252  26.145  1.00  0.00    -0.201 NA
ATOM     11  C   UNL A   1      32.918  22.763  27.326  1.00  0.00     0.102 C 
BRANCH   6  12
ATOM     12  C   UNL A   1      33.319  21.342  23.555  1.00  0.00     0.015 C 
ATOM     13  C   UNL A   1      32.859  19.973  24.048  1.00  0.00     0.005 C 
ENDBRANCH   6  12
BRANCH  10  14
ATOM     14  S   UNL A   1      31.043  24.498  26.477  1.00  0.00     0.216 S 
ATOM     15  O   UNL A   1      29.909  23.862  27.126  1.00  0.00    -0.212 OA
ATOM     16  O   UNL A   1      31.741  25.581  27.124  1.00  0.00    -0.212 OA
BRANCH  14  17
ATOM     17  C   UNL A   1      30.532  25.019  24.830  1.00  0.00     0.182 C 
BRANCH  17  18
ATOM     18  C   UNL A   1      30.057  26.466  24.764  1.00  0.00     0.178 C 
BRANCH  18  19
ATOM     19  O   UNL A   1      30.310  27.114  23.511  1.00  0.00    -0.378 OA
BRANCH  19  20
ATOM     20  C   UNL A   1      29.769  28.417  23.292  1.00  0.00     0.112 C 
ATOM     21  C   UNL A   1      30.488  29.245  22.222  1.00  0.00     0.038 C 
ATOM     22  C   UNL A   1      28.286  28.372  23.027  1.00  0.00     0.038 C 
ENDBRANCH  19  20
ENDBRANCH  18  19
ENDBRANCH  17  18
ENDBRANCH  14  17
ENDBRANCH  10  14
ENDBRANCH   3   6
ENDBRANCH   1   2
BRANCH   1  23
ATOM     23  C   UNL A   1      38.075  23.989  26.113  1.00  0.00     0.023 C 
BRANCH  23  24
ATOM     24  C   UNL A   1      39.007  22.927  26.682  1.00  0.00     0.023 C 
BRANCH  24  25
ATOM     25  C   UNL A   1      40.365  23.461  27.112  1.00  0.00     0.116 C 
BRANCH  25  26
ATOM     26  N   UNL A   1      41.052  24.172  26.040  1.00  0.00    -0.352 N 
ATOM     27  C   UNL A   1      41.518  25.463  26.042  1.00  0.00     0.251 C 
ATOM     28  H   UNL A   1      41.200  23.662  25.212  1.00  0.00     0.163 HD
ATOM     29  O   UNL A   1      41.931  25.982  25.012  1.00  0.00    -0.269 OA
BRANCH  27  30
ATOM     30  C   UNL A   1      41.472  26.215  27.308  1.00  0.00     0.039 A 
ATOM     31  C   UNL A   1      42.477  27.142  27.582  1.00  0.00     0.014 A 
ATOM     32  C   UNL A   1      40.378  26.063  28.165  1.00  0.00     0.014 A 
ATOM     33  C   UNL A   1      42.349  27.971  28.695  1.00  0.00     0.010 A 
ATOM     34  C   UNL A   1      40.210  26.952  29.218  1.00  0.00     0.010 A 
ATOM     35  C   UNL A   1      41.196  27.909  29.497  1.00  0.00    -0.014 A 
BRANCH  35  36
ATOM     36  C   UNL A   1      41.006  28.835  30.640  1.00  0.00     0.031 A 
ATOM     37  C   UNL A   1      41.846  28.672  31.878  1.00  0.00     0.074 A 
ATOM     38  C   UNL A   1      40.033  29.767  30.589  1.00  0.00     0.049 A 
ATOM     39  N   UNL A   1      41.788  29.332  33.004  1.00  0.00    -0.248 NA
ATOM     40  C   UNL A   1      42.863  27.606  31.860  1.00  0.00     0.031 C 
ATOM     41  C   UNL A   1      39.113  29.974  29.467  1.00  0.00     0.029 A 
ATOM     42  N   UNL A   1      39.646  30.708  31.510  1.00  0.00    -0.354 N 
ATOM     43  C   UNL A   1      42.736  28.746  33.834  1.00  0.00     0.074 A 
ATOM     44  C   UNL A   1      43.324  27.648  33.102  1.00  0.00     0.031 C 
ATOM     45  C   UNL A   1      38.283  30.990  29.759  1.00  0.00     0.029 A 
ATOM     46  C   UNL A   1      38.585  31.481  31.100  1.00  0.00     0.049 A 
ATOM     47  H   UNL A   1      40.087  30.821  32.383  1.00  0.00     0.167 HD
ATOM     48  C   UNL A   1      43.098  29.107  35.087  1.00  0.00     0.037 A 
ATOM     49  C   UNL A   1      37.923  32.467  31.737  1.00  0.00     0.037 A 
ATOM     50  C   UNL A   1      42.541  30.233  35.788  1.00  0.00     0.049 A 
ATOM     51  C   UNL A   1      38.367  32.866  33.120  1.00  0.00     0.074 A 
ATOM     52  C   UNL A   1      42.909  30.744  37.020  1.00  0.00     0.029 A 
ATOM     53  N   UNL A   1      41.497  31.019  35.324  1.00  0.00    -0.354 N 
ATOM     54  N   UNL A   1      39.335  32.366  33.850  1.00  0.00    -0.248 NA
ATOM     55  C   UNL A   1      37.639  33.969  33.761  1.00  0.00     0.031 C 
ATOM     56  C   UNL A   1      42.052  31.805  37.325  1.00  0.00     0.029 A 
ATOM     57  C   UNL A   1      41.188  31.993  36.258  1.00  0.00     0.049 A 
ATOM     58  H   UNL A   1      41.043  30.902  34.457  1.00  0.00     0.167 HD
ATOM     59  C   UNL A   1      39.350  33.112  35.024  1.00  0.00     0.074 A 
ATOM     60  C   UNL A   1      38.305  34.106  34.899  1.00  0.00     0.031 C 
ATOM     61  C   UNL A   1      40.155  32.985  36.109  1.00  0.00     0.037 A 
BRANCH  48  62
ATOM     62  C   UNL A   1      44.149  28.289  35.784  1.00  0.00     0.058 A 
ATOM     63  C   UNL A   1      45.518  28.575  35.654  1.00  0.00     0.135 A 
ATOM     64  C   UNL A   1      43.776  27.249  36.651  1.00  0.00     0.135 A 
ATOM     65  F   UNL A   1      45.931  29.545  34.823  1.00  0.00    -0.206 F 
ATOM     66  C   UNL A   1      46.481  27.849  36.348  1.00  0.00     0.059 A 
ATOM     67  C   UNL A   1      44.721  26.530  37.378  1.00  0.00     0.059 A 
ATOM     68  F   UNL A   1      42.482  26.932  36.808  1.00  0.00    -0.206 F 
ATOM     69  C   UNL A   1      46.070  26.834  37.214  1.00  0.00     0.060 A 
BRANCH  69  70
ATOM     70  S   UNL A   1      47.330  25.934  38.142  1.00  0.00     0.124 S 
ATOM     71  O   UNL A   1      47.753  26.940  39.112  1.00  0.00    -0.237 OA
ATOM     72  O   UNL A   1      46.574  24.810  38.684  1.00  0.00    -0.237 OA
ATOM     73  O   UNL A   1      48.320  25.588  37.127  1.00  0.00    -0.744 OA
ENDBRANCH  69  70
ENDBRANCH  48  62
BRANCH  49  74
ATOM     74  C   UNL A   1      36.774  33.150  31.081  1.00  0.00     0.058 A 
ATOM     75  C   UNL A   1      35.456  32.919  31.502  1.00  0.00     0.135 A 
ATOM     76  C   UNL A   1      36.970  34.033  30.007  1.00  0.00     0.135 A 
ATOM     77  F   UNL A   1      35.215  32.084  32.523  1.00  0.00    -0.206 F 
ATOM     78  C   UNL A   1      34.370  33.509  30.861  1.00  0.00     0.059 A 
ATOM     79  C   UNL A   1      35.903  34.657  29.368  1.00  0.00     0.059 A 
ATOM     80  F   UNL A   1      38.212  34.305  29.578  1.00  0.00    -0.206 F 
ATOM     81  C   UNL A   1      34.605  34.375  29.791  1.00  0.00     0.060 A 
BRANCH  81  82
ATOM     82  S   UNL A   1      33.191  35.147  28.974  1.00  0.00     0.124 S 
ATOM     83  O   UNL A   1      33.800  36.345  28.407  1.00  0.00    -0.237 OA
ATOM     84  O   UNL A   1      32.791  34.120  28.018  1.00  0.00    -0.237 OA
ATOM     85  O   UNL A   1      32.254  35.372  30.070  1.00  0.00    -0.744 OA
ENDBRANCH  81  82
ENDBRANCH  49  74
BRANCH  61  86
ATOM     86  C   UNL A   1      39.970  33.971  37.229  1.00  0.00     0.058 A 
ATOM     87  C   UNL A   1      40.680  35.180  37.275  1.00  0.00     0.135 A 
ATOM     88  C   UNL A   1      39.023  33.726  38.237  1.00  0.00     0.135 A 
ATOM     89  F   UNL A   1      41.600  35.461  36.338  1.00  0.00    -0.206 F 
ATOM     90  C   UNL A   1      40.476  36.101  38.297  1.00  0.00     0.059 A 
ATOM     91  C   UNL A   1      38.781  34.647  39.250  1.00  0.00     0.059 A 
ATOM     92  F   UNL A   1      38.307  32.590  38.232  1.00  0.00    -0.206 F 
ATOM     93  C   UNL A   1      39.522  35.827  39.278  1.00  0.00     0.060 A 
BRANCH  93  94
ATOM     94  S   UNL A   1      39.243  37.047  40.579  1.00  0.00     0.124 S 
ATOM     95  O   UNL A   1      40.573  37.627  40.728  1.00  0.00    -0.237 OA
ATOM     96  O   UNL A   1      38.235  37.916  39.981  1.00  0.00    -0.237 OA
ATOM     97  O   UNL A   1      38.780  36.243  41.706  1.00  0.00    -0.744 OA
ENDBRANCH  93  94
ENDBRANCH  61  86
ENDBRANCH  35  36
ENDBRANCH  27  30
ENDBRANCH  25  26
ENDBRANCH  24  25
ENDBRANCH  23  24
ENDBRANCH   1  23
TORSDOF 20
ENDMDL
