MODEL 1
REMARK VINA RESULT:     -13.4      0.000      0.000
REMARK SMILES O=C(NCCCCNC(=O)[C@H]1CCCCN1c1cc(-c2ccccc2)nc(-c2cccc(Cl)c2)n1)c1ccc(-c2c3nc(c(-c4c(F)cc(S(=O)(=O)[O-])cc4F)c4ccc([nH]4)c(-c4c(F)cc(S(=O)(=O)[O-])cc4F)c4nc(c(-c5c(F)cc(S(=O)(=O)[O-])cc5F)c5ccc2[nH]5)C=C4)C=C3)cc1
REMARK SMILES IDX 5 1 4 2 3 3 1 4 2 5 36 7 37 8 101 9 38 10 100 11 39 12 40 13
REMARK SMILES IDX 41 14 94 15 42 16 99 17 93 18 95 19 43 20 98 21 92 22 91 23
REMARK SMILES IDX 44 25 78 26 57 27 77 28 58 29 61 30 76 31 96 32 59 33 60 34
REMARK SMILES IDX 75 36 97 37 62 38 45 39 46 40 55 41 47 42 48 43 54 44 56 45
REMARK SMILES IDX 49 46 50 47 51 48 52 49 53 50 79 51 80 52 89 53 81 54 82 55
REMARK SMILES IDX 88 56 90 57 83 58 84 59 85 60 86 61 87 62 63 63 64 64 73 65
REMARK SMILES IDX 65 66 66 67 72 68 74 69 67 70 68 71 69 72 70 73 71 74 6 75
REMARK SMILES IDX 7 76 8 77 9 78 10 80 11 81 12 82 16 83 13 84 15 85 14 86
REMARK SMILES IDX 17 87 18 88 35 89 19 90 27 91 26 92 20 93 21 94 25 95 22 96
REMARK SMILES IDX 24 97 23 98 28 99 29 100 34 101 30 102 32 103 31 104 33 105
REMARK H PARENT 3 6 95 24 61 35 8 79
REMARK Flexibility Score: inf
ROOT
ATOM      1  C   UNL A   1      34.305  30.242  27.324  1.00  0.00     0.023 C 
ENDROOT
BRANCH   1   2
ATOM      2  C   UNL A   1      35.598  29.855  28.033  1.00  0.00     0.116 C 
BRANCH   2   3
ATOM      3  N   UNL A   1      35.534  30.007  29.478  1.00  0.00    -0.352 N 
ATOM      4  O   UNL A   1      36.287  29.996  31.603  1.00  0.00    -0.269 OA
ATOM      5  C   UNL A   1      36.549  29.944  30.404  1.00  0.00     0.251 C 
ATOM      6  H   UNL A   1      34.637  30.181  29.845  1.00  0.00     0.163 HD
BRANCH   5   7
ATOM      7  C   UNL A   1      37.950  29.773  29.956  1.00  0.00     0.039 A 
ATOM      8  C   UNL A   1      38.313  30.016  28.629  1.00  0.00     0.014 A 
ATOM      9  C   UNL A   1      38.910  29.342  30.877  1.00  0.00     0.014 A 
ATOM     10  C   UNL A   1      39.588  29.673  28.190  1.00  0.00     0.010 A 
ATOM     11  C   UNL A   1      40.215  29.075  30.448  1.00  0.00     0.010 A 
ATOM     12  C   UNL A   1      40.553  29.193  29.092  1.00  0.00    -0.014 A 
BRANCH  12  13
ATOM     13  C   UNL A   1      41.907  28.840  28.587  1.00  0.00     0.031 A 
ATOM     14  C   UNL A   1      43.028  29.847  28.596  1.00  0.00     0.074 A 
ATOM     15  C   UNL A   1      42.136  27.582  28.162  1.00  0.00     0.049 A 
ATOM     16  N   UNL A   1      44.281  29.686  28.253  1.00  0.00    -0.248 NA
ATOM     17  C   UNL A   1      42.701  31.212  29.037  1.00  0.00     0.031 C 
ATOM     18  C   UNL A   1      41.127  26.522  28.088  1.00  0.00     0.029 A 
ATOM     19  N   UNL A   1      43.290  26.971  27.742  1.00  0.00    -0.354 N 
ATOM     20  C   UNL A   1      44.886  30.928  28.411  1.00  0.00     0.074 A 
ATOM     21  C   UNL A   1      43.856  31.841  28.862  1.00  0.00     0.031 C 
ATOM     22  C   UNL A   1      41.717  25.379  27.706  1.00  0.00     0.029 A 
ATOM     23  C   UNL A   1      43.133  25.635  27.461  1.00  0.00     0.049 A 
ATOM     24  H   UNL A   1      44.148  27.444  27.651  1.00  0.00     0.167 HD
ATOM     25  C   UNL A   1      46.180  31.275  28.205  1.00  0.00     0.037 A 
ATOM     26  C   UNL A   1      44.026  24.715  27.051  1.00  0.00     0.037 A 
ATOM     27  C   UNL A   1      47.209  30.358  27.788  1.00  0.00     0.049 A 
ATOM     28  C   UNL A   1      45.458  25.120  26.852  1.00  0.00     0.074 A 
ATOM     29  C   UNL A   1      48.559  30.604  27.597  1.00  0.00     0.029 A 
ATOM     30  N   UNL A   1      47.006  29.016  27.495  1.00  0.00    -0.354 N 
ATOM     31  N   UNL A   1      46.014  26.292  27.039  1.00  0.00    -0.248 NA
ATOM     32  C   UNL A   1      46.381  24.078  26.385  1.00  0.00     0.031 C 
ATOM     33  C   UNL A   1      49.164  29.420  27.159  1.00  0.00     0.029 A 
ATOM     34  C   UNL A   1      48.200  28.427  27.112  1.00  0.00     0.049 A 
ATOM     35  H   UNL A   1      46.139  28.552  27.552  1.00  0.00     0.167 HD
ATOM     36  C   UNL A   1      47.358  26.126  26.727  1.00  0.00     0.074 A 
ATOM     37  C   UNL A   1      47.531  24.736  26.355  1.00  0.00     0.031 C 
ATOM     38  C   UNL A   1      48.357  27.042  26.746  1.00  0.00     0.037 A 
BRANCH  25  39
ATOM     39  C   UNL A   1      46.559  32.716  28.414  1.00  0.00     0.058 A 
ATOM     40  C   UNL A   1      47.014  33.190  29.654  1.00  0.00     0.135 A 
ATOM     41  C   UNL A   1      46.502  33.628  27.347  1.00  0.00     0.135 A 
ATOM     42  F   UNL A   1      47.075  32.366  30.712  1.00  0.00    -0.206 F 
ATOM     43  C   UNL A   1      47.371  34.523  29.838  1.00  0.00     0.059 A 
ATOM     44  C   UNL A   1      46.875  34.959  27.501  1.00  0.00     0.059 A 
ATOM     45  F   UNL A   1      46.077  33.227  26.138  1.00  0.00    -0.206 F 
ATOM     46  C   UNL A   1      47.295  35.402  28.754  1.00  0.00     0.060 A 
BRANCH  46  47
ATOM     47  S   UNL A   1      47.756  37.129  29.006  1.00  0.00     0.124 S 
ATOM     48  O   UNL A   1      49.178  37.100  28.676  1.00  0.00    -0.237 OA
ATOM     49  O   UNL A   1      46.900  37.827  28.051  1.00  0.00    -0.237 OA
ATOM     50  O   UNL A   1      47.442  37.363  30.412  1.00  0.00    -0.744 OA
ENDBRANCH  46  47
ENDBRANCH  25  39
BRANCH  26  51
ATOM     51  C   UNL A   1      43.586  23.313  26.826  1.00  0.00     0.058 A 
ATOM     52  C   UNL A   1      43.475  22.793  25.530  1.00  0.00     0.135 A 
ATOM     53  C   UNL A   1      43.303  22.459  27.903  1.00  0.00     0.135 A 
ATOM     54  F   UNL A   1      43.732  23.574  24.469  1.00  0.00    -0.206 F 
ATOM     55  C   UNL A   1      43.090  21.475  25.305  1.00  0.00     0.059 A 
ATOM     56  C   UNL A   1      42.941  21.132  27.705  1.00  0.00     0.059 A 
ATOM     57  F   UNL A   1      43.414  22.907  29.164  1.00  0.00    -0.206 F 
ATOM     58  C   UNL A   1      42.829  20.651  26.402  1.00  0.00     0.060 A 
BRANCH  58  59
ATOM     59  S   UNL A   1      42.394  18.924  26.107  1.00  0.00     0.124 S 
ATOM     60  O   UNL A   1      43.327  18.563  25.045  1.00  0.00    -0.237 OA
ATOM     61  O   UNL A   1      42.644  18.314  27.410  1.00  0.00    -0.237 OA
ATOM     62  O   UNL A   1      40.989  18.996  25.718  1.00  0.00    -0.744 OA
ENDBRANCH  58  59
ENDBRANCH  26  51
BRANCH  38  63
ATOM     63  C   UNL A   1      49.731  26.559  26.379  1.00  0.00     0.058 A 
ATOM     64  C   UNL A   1      50.598  26.010  27.337  1.00  0.00     0.135 A 
ATOM     65  C   UNL A   1      50.177  26.629  25.050  1.00  0.00     0.135 A 
ATOM     66  F   UNL A   1      50.219  25.928  28.622  1.00  0.00    -0.206 F 
ATOM     67  C   UNL A   1      51.874  25.574  26.995  1.00  0.00     0.059 A 
ATOM     68  C   UNL A   1      51.441  26.178  24.682  1.00  0.00     0.059 A 
ATOM     69  F   UNL A   1      49.383  27.137  24.095  1.00  0.00    -0.206 F 
ATOM     70  C   UNL A   1      52.288  25.667  25.666  1.00  0.00     0.060 A 
BRANCH  70  71
ATOM     71  S   UNL A   1      53.942  25.089  25.227  1.00  0.00     0.124 S 
ATOM     72  O   UNL A   1      54.275  25.973  24.116  1.00  0.00    -0.237 OA
ATOM     73  O   UNL A   1      54.692  25.310  26.459  1.00  0.00    -0.237 OA
ATOM     74  O   UNL A   1      53.727  23.688  24.874  1.00  0.00    -0.744 OA
ENDBRANCH  70  71
ENDBRANCH  38  63
ENDBRANCH  12  13
ENDBRANCH   5   7
ENDBRANCH   2   3
ENDBRANCH   1   2
BRANCH   1  75
ATOM     75  C   UNL A   1      33.299  29.110  27.099  1.00  0.00     0.023 C 
BRANCH  75  76
ATOM     76  C   UNL A   1      33.869  27.844  26.462  1.00  0.00     0.116 C 
BRANCH  76  77
ATOM     77  N   UNL A   1      33.577  27.765  25.043  1.00  0.00    -0.354 N 
ATOM     78  C   UNL A   1      33.056  26.755  24.289  1.00  0.00     0.242 C 
ATOM     79  H   UNL A   1      33.793  28.582  24.537  1.00  0.00     0.163 HD
ATOM     80  O   UNL A   1      32.910  26.990  23.084  1.00  0.00    -0.273 OA
BRANCH  78  81
ATOM     81  C   UNL A   1      32.688  25.388  24.917  1.00  0.00     0.173 C 
ATOM     82  C   UNL A   1      31.242  25.396  25.431  1.00  0.00     0.035 C 
ATOM     83  N   UNL A   1      32.884  24.316  23.927  1.00  0.00    -0.344 N 
ATOM     84  C   UNL A   1      30.198  25.279  24.321  1.00  0.00     0.004 C 
ATOM     85  C   UNL A   1      31.929  24.186  22.833  1.00  0.00     0.119 C 
ATOM     86  C   UNL A   1      30.508  24.109  23.393  1.00  0.00     0.022 C 
BRANCH  83  87
ATOM     87  C   UNL A   1      33.771  23.302  24.210  1.00  0.00     0.133 A 
ATOM     88  C   UNL A   1      35.035  23.593  24.684  1.00  0.00     0.076 A 
ATOM     89  N   UNL A   1      33.365  22.034  24.058  1.00  0.00    -0.211 NA
ATOM     90  C   UNL A   1      35.853  22.531  25.023  1.00  0.00     0.076 A 
ATOM     91  C   UNL A   1      34.237  21.061  24.373  1.00  0.00     0.162 A 
ATOM     92  N   UNL A   1      35.472  21.251  24.860  1.00  0.00    -0.228 NA
BRANCH  90  93
ATOM     93  C   UNL A   1      37.180  22.733  25.620  1.00  0.00     0.000 A 
ATOM     94  C   UNL A   1      37.560  23.986  26.128  1.00  0.00     0.010 A 
ATOM     95  C   UNL A   1      38.111  21.681  25.687  1.00  0.00     0.010 A 
ATOM     96  C   UNL A   1      38.822  24.176  26.700  1.00  0.00     0.001 A 
ATOM     97  C   UNL A   1      39.376  21.874  26.249  1.00  0.00     0.001 A 
ATOM     98  C   UNL A   1      39.728  23.120  26.760  1.00  0.00     0.000 A 
ENDBRANCH  90  93
BRANCH  91  99
ATOM     99  C   UNL A   1      33.792  19.679  24.180  1.00  0.00     0.021 A 
ATOM    100  C   UNL A   1      32.576  19.396  23.531  1.00  0.00     0.012 A 
ATOM    101  C   UNL A   1      34.562  18.601  24.646  1.00  0.00     0.032 A 
ATOM    102  C   UNL A   1      32.142  18.080  23.349  1.00  0.00     0.002 A 
ATOM    103  C   UNL A   1      34.117  17.289  24.480  1.00  0.00     0.041 A 
ATOM    104  C   UNL A   1      32.913  17.024  23.831  1.00  0.00     0.020 A 
ATOM    105  Cl  UNL A   1      35.057  15.983  25.094  1.00  0.00    -0.084 Cl
ENDBRANCH  91  99
ENDBRANCH  83  87
ENDBRANCH  78  81
ENDBRANCH  76  77
ENDBRANCH  75  76
ENDBRANCH   1  75
TORSDOF 17
ENDMDL
MODEL 2
REMARK VINA RESULT:     -13.0      0.530      7.924
REMARK SMILES O=C(NCCCCNC(=O)[C@H]1CCCCN1c1cc(-c2ccccc2)nc(-c2cccc(Cl)c2)n1)c1ccc(-c2c3nc(c(-c4c(F)cc(S(=O)(=O)[O-])cc4F)c4ccc([nH]4)c(-c4c(F)cc(S(=O)(=O)[O-])cc4F)c4nc(c(-c5c(F)cc(S(=O)(=O)[O-])cc5F)c5ccc2[nH]5)C=C4)C=C3)cc1
REMARK SMILES IDX 5 1 4 2 3 3 1 4 2 5 36 7 37 8 101 9 38 10 100 11 39 12 40 13
REMARK SMILES IDX 41 14 94 15 42 16 99 17 93 18 95 19 43 20 98 21 92 22 91 23
REMARK SMILES IDX 44 25 78 26 57 27 77 28 58 29 61 30 76 31 96 32 59 33 60 34
REMARK SMILES IDX 75 36 97 37 62 38 45 39 46 40 55 41 47 42 48 43 54 44 56 45
REMARK SMILES IDX 49 46 50 47 51 48 52 49 53 50 79 51 80 52 89 53 81 54 82 55
REMARK SMILES IDX 88 56 90 57 83 58 84 59 85 60 86 61 87 62 63 63 64 64 73 65
REMARK SMILES IDX 65 66 66 67 72 68 74 69 67 70 68 71 69 72 70 73 71 74 6 75
REMARK SMILES IDX 7 76 8 77 9 78 10 80 11 81 12 82 16 83 13 84 15 85 14 86
REMARK SMILES IDX 17 87 18 88 35 89 19 90 27 91 26 92 20 93 21 94 25 95 22 96
REMARK SMILES IDX 24 97 23 98 28 99 29 100 34 101 30 102 32 103 31 104 33 105
REMARK H PARENT 3 6 95 24 61 35 8 79
REMARK Flexibility Score: inf
ROOT
ATOM      1  C   UNL A   1      34.590  29.967  27.024  1.00  0.00     0.023 C 
ENDROOT
BRANCH   1   2
ATOM      2  C   UNL A   1      35.660  29.343  27.914  1.00  0.00     0.116 C 
BRANCH   2   3
ATOM      3  N   UNL A   1      35.522  29.696  29.319  1.00  0.00    -0.352 N 
ATOM      4  O   UNL A   1      36.179  30.029  31.450  1.00  0.00    -0.269 OA
ATOM      5  C   UNL A   1      36.497  29.823  30.281  1.00  0.00     0.251 C 
ATOM      6  H   UNL A   1      34.602  29.868  29.623  1.00  0.00     0.163 HD
BRANCH   5   7
ATOM      7  C   UNL A   1      37.923  29.671  29.915  1.00  0.00     0.039 A 
ATOM      8  C   UNL A   1      38.365  29.950  28.620  1.00  0.00     0.014 A 
ATOM      9  C   UNL A   1      38.829  29.220  30.881  1.00  0.00     0.014 A 
ATOM     10  C   UNL A   1      39.667  29.625  28.250  1.00  0.00     0.010 A 
ATOM     11  C   UNL A   1      40.159  28.971  30.526  1.00  0.00     0.010 A 
ATOM     12  C   UNL A   1      40.578  29.127  29.196  1.00  0.00    -0.014 A 
BRANCH  12  13
ATOM     13  C   UNL A   1      41.962  28.794  28.766  1.00  0.00     0.031 A 
ATOM     14  C   UNL A   1      42.313  27.417  28.267  1.00  0.00     0.074 A 
ATOM     15  C   UNL A   1      42.900  29.763  28.781  1.00  0.00     0.049 A 
ATOM     16  N   UNL A   1      43.452  26.977  27.794  1.00  0.00    -0.248 NA
ATOM     17  C   UNL A   1      41.253  26.397  28.312  1.00  0.00     0.031 C 
ATOM     18  C   UNL A   1      42.688  31.131  29.260  1.00  0.00     0.029 A 
ATOM     19  N   UNL A   1      44.204  29.758  28.358  1.00  0.00    -0.354 N 
ATOM     20  C   UNL A   1      43.256  25.630  27.509  1.00  0.00     0.074 A 
ATOM     21  C   UNL A   1      41.893  25.317  27.882  1.00  0.00     0.031 C 
ATOM     22  C   UNL A   1      43.803  31.848  29.050  1.00  0.00     0.029 A 
ATOM     23  C   UNL A   1      44.822  30.980  28.469  1.00  0.00     0.049 A 
ATOM     24  H   UNL A   1      44.655  28.956  28.008  1.00  0.00     0.167 HD
ATOM     25  C   UNL A   1      44.130  24.739  26.980  1.00  0.00     0.037 A 
ATOM     26  C   UNL A   1      46.070  31.365  28.140  1.00  0.00     0.037 A 
ATOM     27  C   UNL A   1      45.476  25.062  26.580  1.00  0.00     0.049 A 
ATOM     28  C   UNL A   1      47.011  30.363  27.536  1.00  0.00     0.074 A 
ATOM     29  C   UNL A   1      46.422  24.238  25.992  1.00  0.00     0.029 A 
ATOM     30  N   UNL A   1      46.070  26.308  26.725  1.00  0.00    -0.354 N 
ATOM     31  N   UNL A   1      46.795  29.104  27.245  1.00  0.00    -0.248 NA
ATOM     32  C   UNL A   1      48.363  30.836  27.217  1.00  0.00     0.031 C 
ATOM     33  C   UNL A   1      47.597  24.977  25.811  1.00  0.00     0.029 A 
ATOM     34  C   UNL A   1      47.372  26.271  26.253  1.00  0.00     0.049 A 
ATOM     35  H   UNL A   1      45.630  27.101  27.109  1.00  0.00     0.167 HD
ATOM     36  C   UNL A   1      47.981  28.635  26.693  1.00  0.00     0.074 A 
ATOM     37  C   UNL A   1      48.904  29.752  26.678  1.00  0.00     0.031 C 
ATOM     38  C   UNL A   1      48.278  27.392  26.243  1.00  0.00     0.037 A 
BRANCH  25  39
ATOM     39  C   UNL A   1      43.664  23.318  26.816  1.00  0.00     0.058 A 
ATOM     40  C   UNL A   1      43.460  22.474  27.919  1.00  0.00     0.135 A 
ATOM     41  C   UNL A   1      43.382  22.805  25.540  1.00  0.00     0.135 A 
ATOM     42  F   UNL A   1      43.727  22.908  29.161  1.00  0.00    -0.206 F 
ATOM     43  C   UNL A   1      43.021  21.163  27.761  1.00  0.00     0.059 A 
ATOM     44  C   UNL A   1      42.921  21.504  25.358  1.00  0.00     0.059 A 
ATOM     45  F   UNL A   1      43.557  23.570  24.450  1.00  0.00    -0.206 F 
ATOM     46  C   UNL A   1      42.757  20.685  26.474  1.00  0.00     0.060 A 
BRANCH  46  47
ATOM     47  S   UNL A   1      42.193  18.981  26.281  1.00  0.00     0.124 S 
ATOM     48  O   UNL A   1      40.847  19.180  25.752  1.00  0.00    -0.237 OA
ATOM     49  O   UNL A   1      43.166  18.430  25.343  1.00  0.00    -0.237 OA
ATOM     50  O   UNL A   1      42.261  18.446  27.637  1.00  0.00    -0.744 OA
ENDBRANCH  46  47
ENDBRANCH  25  39
BRANCH  26  51
ATOM     51  C   UNL A   1      46.486  32.775  28.359  1.00  0.00     0.058 A 
ATOM     52  C   UNL A   1      47.110  33.164  29.552  1.00  0.00     0.135 A 
ATOM     53  C   UNL A   1      46.298  33.749  27.367  1.00  0.00     0.135 A 
ATOM     54  F   UNL A   1      47.308  32.266  30.530  1.00  0.00    -0.206 F 
ATOM     55  C   UNL A   1      47.529  34.474  29.759  1.00  0.00     0.059 A 
ATOM     56  C   UNL A   1      46.730  35.059  27.541  1.00  0.00     0.059 A 
ATOM     57  F   UNL A   1      45.720  33.419  26.201  1.00  0.00    -0.206 F 
ATOM     58  C   UNL A   1      47.337  35.414  28.744  1.00  0.00     0.060 A 
BRANCH  58  59
ATOM     59  S   UNL A   1      47.941  37.098  28.993  1.00  0.00     0.124 S 
ATOM     60  O   UNL A   1      47.294  37.806  27.893  1.00  0.00    -0.237 OA
ATOM     61  O   UNL A   1      47.447  37.410  30.331  1.00  0.00    -0.237 OA
ATOM     62  O   UNL A   1      49.389  36.951  28.887  1.00  0.00    -0.744 OA
ENDBRANCH  58  59
ENDBRANCH  26  51
BRANCH  38  63
ATOM     63  C   UNL A   1      49.651  27.185  25.670  1.00  0.00     0.058 A 
ATOM     64  C   UNL A   1      49.922  27.409  24.311  1.00  0.00     0.135 A 
ATOM     65  C   UNL A   1      50.712  26.778  26.494  1.00  0.00     0.135 A 
ATOM     66  F   UNL A   1      48.940  27.792  23.480  1.00  0.00    -0.206 F 
ATOM     67  C   UNL A   1      51.193  27.206  23.782  1.00  0.00     0.059 A 
ATOM     68  C   UNL A   1      51.995  26.590  25.991  1.00  0.00     0.059 A 
ATOM     69  F   UNL A   1      50.507  26.560  27.803  1.00  0.00    -0.206 F 
ATOM     70  C   UNL A   1      52.221  26.792  24.629  1.00  0.00     0.060 A 
BRANCH  70  71
ATOM     71  S   UNL A   1      53.871  26.541  23.938  1.00  0.00     0.124 S 
ATOM     72  O   UNL A   1      54.404  25.510  24.821  1.00  0.00    -0.237 OA
ATOM     73  O   UNL A   1      53.580  26.117  22.572  1.00  0.00    -0.237 OA
ATOM     74  O   UNL A   1      54.491  27.857  24.059  1.00  0.00    -0.744 OA
ENDBRANCH  70  71
ENDBRANCH  38  63
ENDBRANCH  12  13
ENDBRANCH   5   7
ENDBRANCH   2   3
ENDBRANCH   1   2
BRANCH   1  75
ATOM     75  C   UNL A   1      33.155  29.492  27.269  1.00  0.00     0.023 C 
BRANCH  75  76
ATOM     76  C   UNL A   1      32.829  28.096  26.740  1.00  0.00     0.116 C 
BRANCH  76  77
ATOM     77  N   UNL A   1      33.121  27.962  25.325  1.00  0.00    -0.354 N 
ATOM     78  C   UNL A   1      33.072  26.880  24.497  1.00  0.00     0.242 C 
ATOM     79  H   UNL A   1      33.404  28.797  24.888  1.00  0.00     0.163 HD
ATOM     80  O   UNL A   1      33.372  27.081  23.315  1.00  0.00    -0.273 OA
BRANCH  78  81
ATOM     81  C   UNL A   1      32.676  25.479  25.025  1.00  0.00     0.173 C 
ATOM     82  C   UNL A   1      31.202  25.454  25.452  1.00  0.00     0.035 C 
ATOM     83  N   UNL A   1      32.936  24.464  23.991  1.00  0.00    -0.344 N 
ATOM     84  C   UNL A   1      30.225  25.396  24.279  1.00  0.00     0.004 C 
ATOM     85  C   UNL A   1      32.048  24.393  22.836  1.00  0.00     0.119 C 
ATOM     86  C   UNL A   1      30.597  24.281  23.306  1.00  0.00     0.022 C 
BRANCH  83  87
ATOM     87  C   UNL A   1      33.812  23.439  24.268  1.00  0.00     0.133 A 
ATOM     88  C   UNL A   1      35.082  23.713  24.734  1.00  0.00     0.076 A 
ATOM     89  N   UNL A   1      33.387  22.176  24.119  1.00  0.00    -0.211 NA
ATOM     90  C   UNL A   1      35.888  22.640  25.068  1.00  0.00     0.076 A 
ATOM     91  C   UNL A   1      34.248  21.192  24.429  1.00  0.00     0.162 A 
ATOM     92  N   UNL A   1      35.489  21.365  24.908  1.00  0.00    -0.228 NA
BRANCH  90  93
ATOM     93  C   UNL A   1      37.222  22.825  25.656  1.00  0.00     0.000 A 
ATOM     94  C   UNL A   1      38.156  21.776  25.668  1.00  0.00     0.010 A 
ATOM     95  C   UNL A   1      37.595  24.051  26.233  1.00  0.00     0.010 A 
ATOM     96  C   UNL A   1      39.427  21.953  26.223  1.00  0.00     0.001 A 
ATOM     97  C   UNL A   1      38.861  24.225  26.797  1.00  0.00     0.001 A 
ATOM     98  C   UNL A   1      39.778  23.178  26.787  1.00  0.00     0.000 A 
ENDBRANCH  90  93
BRANCH  91  99
ATOM     99  C   UNL A   1      33.784  19.816  24.239  1.00  0.00     0.021 A 
ATOM    100  C   UNL A   1      32.547  19.550  23.622  1.00  0.00     0.012 A 
ATOM    101  C   UNL A   1      34.554  18.726  24.677  1.00  0.00     0.032 A 
ATOM    102  C   UNL A   1      32.095  18.240  23.444  1.00  0.00     0.002 A 
ATOM    103  C   UNL A   1      34.092  17.421  24.516  1.00  0.00     0.041 A 
ATOM    104  C   UNL A   1      32.867  17.172  23.898  1.00  0.00     0.020 A 
ATOM    105  Cl  UNL A   1      35.034  16.101  25.095  1.00  0.00    -0.084 Cl
ENDBRANCH  91  99
ENDBRANCH  83  87
ENDBRANCH  78  81
ENDBRANCH  76  77
ENDBRANCH  75  76
ENDBRANCH   1  75
TORSDOF 17
ENDMDL
MODEL 3
REMARK VINA RESULT:     -12.5      5.697     10.007
REMARK SMILES O=C(NCCCCNC(=O)[C@H]1CCCCN1c1cc(-c2ccccc2)nc(-c2cccc(Cl)c2)n1)c1ccc(-c2c3nc(c(-c4c(F)cc(S(=O)(=O)[O-])cc4F)c4ccc([nH]4)c(-c4c(F)cc(S(=O)(=O)[O-])cc4F)c4nc(c(-c5c(F)cc(S(=O)(=O)[O-])cc5F)c5ccc2[nH]5)C=C4)C=C3)cc1
REMARK SMILES IDX 5 1 4 2 3 3 1 4 2 5 36 7 37 8 101 9 38 10 100 11 39 12 40 13
REMARK SMILES IDX 41 14 94 15 42 16 99 17 93 18 95 19 43 20 98 21 92 22 91 23
REMARK SMILES IDX 44 25 78 26 57 27 77 28 58 29 61 30 76 31 96 32 59 33 60 34
REMARK SMILES IDX 75 36 97 37 62 38 45 39 46 40 55 41 47 42 48 43 54 44 56 45
REMARK SMILES IDX 49 46 50 47 51 48 52 49 53 50 79 51 80 52 89 53 81 54 82 55
REMARK SMILES IDX 88 56 90 57 83 58 84 59 85 60 86 61 87 62 63 63 64 64 73 65
REMARK SMILES IDX 65 66 66 67 72 68 74 69 67 70 68 71 69 72 70 73 71 74 6 75
REMARK SMILES IDX 7 76 8 77 9 78 10 80 11 81 12 82 16 83 13 84 15 85 14 86
REMARK SMILES IDX 17 87 18 88 35 89 19 90 27 91 26 92 20 93 21 94 25 95 22 96
REMARK SMILES IDX 24 97 23 98 28 99 29 100 34 101 30 102 32 103 31 104 33 105
REMARK H PARENT 3 6 95 24 61 35 8 79
REMARK Flexibility Score: inf
ROOT
ATOM      1  C   UNL A   1      32.535  30.695  26.866  1.00  0.00     0.023 C 
ENDROOT
BRANCH   1   2
ATOM      2  C   UNL A   1      33.594  31.698  27.311  1.00  0.00     0.116 C 
BRANCH   2   3
ATOM      3  N   UNL A   1      33.052  33.010  27.627  1.00  0.00    -0.352 N 
ATOM      4  O   UNL A   1      32.806  34.933  28.778  1.00  0.00    -0.269 OA
ATOM      5  C   UNL A   1      33.455  33.908  28.589  1.00  0.00     0.251 C 
ATOM      6  H   UNL A   1      32.290  33.297  27.074  1.00  0.00     0.163 HD
BRANCH   5   7
ATOM      7  C   UNL A   1      34.645  33.616  29.420  1.00  0.00     0.039 A 
ATOM      8  C   UNL A   1      35.882  34.196  29.129  1.00  0.00     0.014 A 
ATOM      9  C   UNL A   1      34.522  32.731  30.496  1.00  0.00     0.014 A 
ATOM     10  C   UNL A   1      37.020  33.767  29.806  1.00  0.00     0.010 A 
ATOM     11  C   UNL A   1      35.656  32.363  31.228  1.00  0.00     0.010 A 
ATOM     12  C   UNL A   1      36.923  32.842  30.860  1.00  0.00    -0.014 A 
BRANCH  12  13
ATOM     13  C   UNL A   1      38.160  32.410  31.563  1.00  0.00     0.031 A 
ATOM     14  C   UNL A   1      39.143  31.476  30.906  1.00  0.00     0.074 A 
ATOM     15  C   UNL A   1      38.420  32.906  32.789  1.00  0.00     0.049 A 
ATOM     16  N   UNL A   1      40.299  31.052  31.351  1.00  0.00    -0.248 NA
ATOM     17  C   UNL A   1      38.781  30.943  29.583  1.00  0.00     0.031 C 
ATOM     18  C   UNL A   1      37.536  33.803  33.538  1.00  0.00     0.029 A 
ATOM     19  N   UNL A   1      39.509  32.753  33.608  1.00  0.00    -0.354 N 
ATOM     20  C   UNL A   1      40.790  30.185  30.380  1.00  0.00     0.074 A 
ATOM     21  C   UNL A   1      39.796  30.127  29.329  1.00  0.00     0.031 C 
ATOM     22  C   UNL A   1      38.143  34.167  34.678  1.00  0.00     0.029 A 
ATOM     23  C   UNL A   1      39.434  33.493  34.764  1.00  0.00     0.049 A 
ATOM     24  H   UNL A   1      40.272  32.171  33.389  1.00  0.00     0.167 HD
ATOM     25  C   UNL A   1      41.963  29.506  30.364  1.00  0.00     0.037 A 
ATOM     26  C   UNL A   1      40.305  33.618  35.782  1.00  0.00     0.037 A 
ATOM     27  C   UNL A   1      42.964  29.591  31.397  1.00  0.00     0.049 A 
ATOM     28  C   UNL A   1      41.607  32.871  35.730  1.00  0.00     0.074 A 
ATOM     29  C   UNL A   1      44.205  28.976  31.448  1.00  0.00     0.029 A 
ATOM     30  N   UNL A   1      42.843  30.337  32.561  1.00  0.00    -0.354 N 
ATOM     31  N   UNL A   1      42.065  32.083  34.788  1.00  0.00    -0.248 NA
ATOM     32  C   UNL A   1      42.507  33.030  36.878  1.00  0.00     0.031 C 
ATOM     33  C   UNL A   1      44.818  29.325  32.657  1.00  0.00     0.029 A 
ATOM     34  C   UNL A   1      43.977  30.186  33.342  1.00  0.00     0.049 A 
ATOM     35  H   UNL A   1      42.064  30.891  32.797  1.00  0.00     0.167 HD
ATOM     36  C   UNL A   1      43.317  31.663  35.223  1.00  0.00     0.074 A 
ATOM     37  C   UNL A   1      43.547  32.298  36.505  1.00  0.00     0.031 C 
ATOM     38  C   UNL A   1      44.193  30.826  34.616  1.00  0.00     0.037 A 
BRANCH  25  39
ATOM     39  C   UNL A   1      42.225  28.593  29.198  1.00  0.00     0.058 A 
ATOM     40  C   UNL A   1      43.102  28.949  28.161  1.00  0.00     0.135 A 
ATOM     41  C   UNL A   1      41.621  27.326  29.135  1.00  0.00     0.135 A 
ATOM     42  F   UNL A   1      43.697  30.153  28.162  1.00  0.00    -0.206 F 
ATOM     43  C   UNL A   1      43.347  28.096  27.089  1.00  0.00     0.059 A 
ATOM     44  C   UNL A   1      41.868  26.448  28.085  1.00  0.00     0.059 A 
ATOM     45  F   UNL A   1      40.776  26.933  30.102  1.00  0.00    -0.206 F 
ATOM     46  C   UNL A   1      42.722  26.847  27.058  1.00  0.00     0.060 A 
BRANCH  46  47
ATOM     47  S   UNL A   1      43.044  25.752  25.660  1.00  0.00     0.124 S 
ATOM     48  O   UNL A   1      41.785  25.842  24.925  1.00  0.00    -0.237 OA
ATOM     49  O   UNL A   1      44.195  26.383  25.022  1.00  0.00    -0.237 OA
ATOM     50  O   UNL A   1      43.310  24.464  26.292  1.00  0.00    -0.744 OA
ENDBRANCH  46  47
ENDBRANCH  25  39
BRANCH  26  51
ATOM     51  C   UNL A   1      39.976  34.506  36.927  1.00  0.00     0.058 A 
ATOM     52  C   UNL A   1      39.278  34.018  38.040  1.00  0.00     0.135 A 
ATOM     53  C   UNL A   1      40.383  35.849  36.944  1.00  0.00     0.135 A 
ATOM     54  F   UNL A   1      38.866  32.741  38.066  1.00  0.00    -0.206 F 
ATOM     55  C   UNL A   1      38.987  34.832  39.130  1.00  0.00     0.059 A 
ATOM     56  C   UNL A   1      40.125  36.675  38.031  1.00  0.00     0.059 A 
ATOM     57  F   UNL A   1      41.070  36.356  35.908  1.00  0.00    -0.206 F 
ATOM     58  C   UNL A   1      39.418  36.160  39.117  1.00  0.00     0.060 A 
BRANCH  58  59
ATOM     59  S   UNL A   1      39.094  37.194  40.561  1.00  0.00     0.124 S 
ATOM     60  O   UNL A   1      38.203  38.205  40.003  1.00  0.00    -0.237 OA
ATOM     61  O   UNL A   1      38.483  36.247  41.489  1.00  0.00    -0.237 OA
ATOM     62  O   UNL A   1      40.424  37.661  40.941  1.00  0.00    -0.744 OA
ENDBRANCH  58  59
ENDBRANCH  26  51
BRANCH  38  63
ATOM     63  C   UNL A   1      45.494  30.573  35.322  1.00  0.00     0.058 A 
ATOM     64  C   UNL A   1      46.609  31.403  35.127  1.00  0.00     0.135 A 
ATOM     65  C   UNL A   1      45.620  29.500  36.218  1.00  0.00     0.135 A 
ATOM     66  F   UNL A   1      46.541  32.438  34.275  1.00  0.00    -0.206 F 
ATOM     67  C   UNL A   1      47.817  31.159  35.775  1.00  0.00     0.059 A 
ATOM     68  C   UNL A   1      46.810  29.251  36.893  1.00  0.00     0.059 A 
ATOM     69  F   UNL A   1      44.580  28.683  36.445  1.00  0.00    -0.206 F 
ATOM     70  C   UNL A   1      47.908  30.078  36.652  1.00  0.00     0.060 A 
BRANCH  70  71
ATOM     71  S   UNL A   1      49.475  29.774  37.497  1.00  0.00     0.124 S 
ATOM     72  O   UNL A   1      49.979  31.131  37.676  1.00  0.00    -0.237 OA
ATOM     73  O   UNL A   1      49.050  29.090  38.715  1.00  0.00    -0.237 OA
ATOM     74  O   UNL A   1      50.215  28.947  36.548  1.00  0.00    -0.744 OA
ENDBRANCH  70  71
ENDBRANCH  38  63
ENDBRANCH  12  13
ENDBRANCH   5   7
ENDBRANCH   2   3
ENDBRANCH   1   2
BRANCH   1  75
ATOM     75  C   UNL A   1      32.762  29.244  27.300  1.00  0.00     0.023 C 
BRANCH  75  76
ATOM     76  C   UNL A   1      33.991  28.566  26.697  1.00  0.00     0.116 C 
BRANCH  76  77
ATOM     77  N   UNL A   1      33.810  28.248  25.293  1.00  0.00    -0.354 N 
ATOM     78  C   UNL A   1      33.456  27.085  24.674  1.00  0.00     0.242 C 
ATOM     79  H   UNL A   1      33.969  29.002  24.681  1.00  0.00     0.163 HD
ATOM     80  O   UNL A   1      33.370  27.124  23.442  1.00  0.00    -0.273 OA
BRANCH  78  81
ATOM     81  C   UNL A   1      33.198  25.789  25.482  1.00  0.00     0.173 C 
ATOM     82  C   UNL A   1      31.934  25.926  26.342  1.00  0.00     0.035 C 
ATOM     83  N   UNL A   1      33.083  24.644  24.565  1.00  0.00    -0.344 N 
ATOM     84  C   UNL A   1      30.636  25.806  25.545  1.00  0.00     0.004 C 
ATOM     85  C   UNL A   1      31.874  24.506  23.761  1.00  0.00     0.119 C 
ATOM     86  C   UNL A   1      30.642  24.559  24.665  1.00  0.00     0.022 C 
BRANCH  83  87
ATOM     87  C   UNL A   1      33.965  23.595  24.695  1.00  0.00     0.133 A 
ATOM     88  C   UNL A   1      35.264  23.821  25.101  1.00  0.00     0.076 A 
ATOM     89  N   UNL A   1      33.519  22.351  24.464  1.00  0.00    -0.211 NA
ATOM     90  C   UNL A   1      36.080  22.721  25.288  1.00  0.00     0.076 A 
ATOM     91  C   UNL A   1      34.389  21.340  24.631  1.00  0.00     0.162 A 
ATOM     92  N   UNL A   1      35.659  21.466  25.043  1.00  0.00    -0.228 NA
BRANCH  90  93
ATOM     93  C   UNL A   1      37.450  22.847  25.803  1.00  0.00     0.000 A 
ATOM     94  C   UNL A   1      37.905  24.057  26.352  1.00  0.00     0.010 A 
ATOM     95  C   UNL A   1      38.346  21.765  25.750  1.00  0.00     0.010 A 
ATOM     96  C   UNL A   1      39.208  24.176  26.846  1.00  0.00     0.001 A 
ATOM     97  C   UNL A   1      39.651  21.887  26.234  1.00  0.00     0.001 A 
ATOM     98  C   UNL A   1      40.079  23.091  26.787  1.00  0.00     0.000 A 
ENDBRANCH  90  93
BRANCH  91  99
ATOM     99  C   UNL A   1      33.900  19.988  24.352  1.00  0.00     0.021 A 
ATOM    100  C   UNL A   1      32.672  19.785  23.696  1.00  0.00     0.012 A 
ATOM    101  C   UNL A   1      34.639  18.859  24.740  1.00  0.00     0.032 A 
ATOM    102  C   UNL A   1      32.197  18.498  23.432  1.00  0.00     0.002 A 
ATOM    103  C   UNL A   1      34.153  17.575  24.493  1.00  0.00     0.041 A 
ATOM    104  C   UNL A   1      32.937  17.390  23.838  1.00  0.00     0.020 A 
ATOM    105  Cl  UNL A   1      35.055  16.204  25.013  1.00  0.00    -0.084 Cl
ENDBRANCH  91  99
ENDBRANCH  83  87
ENDBRANCH  78  81
ENDBRANCH  76  77
ENDBRANCH  75  76
ENDBRANCH   1  75
TORSDOF 17
ENDMDL
