MODEL 1
REMARK VINA RESULT:     -12.2      0.000      0.000
REMARK SMILES CS(=O)(=O)c1ccc(C2=NN(c3ccc(C(=O)NCCCCNC(=O)c4ccc(-c5c6nc(c(-c7c(F)cc(S(=O)(=O)[O-])cc7F)c7ccc([nH]7)c(-c7c(F)cc(S(=O)(=O)[O-])cc7F)c7nc(c(-c8c(F)cc(S(=O)(=O)[O-])cc8F)c8ccc5[nH]8)C=C7)C=C6)cc4)cc3)[C@H](c3ccccc3)C2)cc1
REMARK SMILES IDX 20 1 19 2 18 3 16 4 17 5 15 7 12 8 13 9 93 10 14 11 92 12
REMARK SMILES IDX 11 13 9 14 10 15 101 16 94 17 8 18 5 19 6 20 103 21 7 22
REMARK SMILES IDX 102 23 2 24 1 25 3 26 4 27 95 28 96 29 100 30 97 31 99 32
REMARK SMILES IDX 98 33 21 34 22 35 23 36 24 37 25 39 26 40 27 41 91 42 28 43
REMARK SMILES IDX 90 44 29 45 30 46 31 47 84 48 32 49 89 50 83 51 85 52 33 53
REMARK SMILES IDX 88 54 82 55 81 56 34 58 68 59 47 60 67 61 48 62 51 63 66 64
REMARK SMILES IDX 86 65 49 66 50 67 65 69 87 70 52 71 35 72 36 73 45 74 37 75
REMARK SMILES IDX 38 76 44 77 46 78 39 79 40 80 41 81 42 82 43 83 69 84 70 85
REMARK SMILES IDX 79 86 71 87 72 88 78 89 80 90 73 91 74 92 75 93 76 94 77 95
REMARK SMILES IDX 53 96 54 97 63 98 55 99 56 100 62 101 64 102 57 103 58 104
REMARK SMILES IDX 59 105 60 106 61 107
REMARK H PARENT 18 6 23 38 85 57 51 68
REMARK Flexibility Score: inf
ROOT
ATOM      1  C   UNL A   1      36.435  29.569  30.134  1.00  0.00     0.023 C 
ENDROOT
BRANCH   1   2
ATOM      2  C   UNL A   1      35.996  29.664  28.671  1.00  0.00     0.116 C 
BRANCH   2   3
ATOM      3  N   UNL A   1      35.134  30.813  28.452  1.00  0.00    -0.352 N 
ATOM      4  C   UNL A   1      33.982  30.945  27.717  1.00  0.00     0.251 C 
ATOM      5  O   UNL A   1      33.356  32.002  27.786  1.00  0.00    -0.269 OA
ATOM      6  H   UNL A   1      35.427  31.635  28.907  1.00  0.00     0.163 HD
BRANCH   4   7
ATOM      7  C   UNL A   1      33.436  29.837  26.888  1.00  0.00     0.039 A 
ATOM      8  C   UNL A   1      32.303  27.710  25.427  1.00  0.00     0.060 A 
ATOM      9  C   UNL A   1      31.555  28.379  26.400  1.00  0.00     0.029 A 
ATOM     10  C   UNL A   1      33.596  28.157  25.151  1.00  0.00     0.029 A 
ATOM     11  C   UNL A   1      32.115  29.435  27.126  1.00  0.00     0.016 A 
ATOM     12  C   UNL A   1      34.152  29.221  25.861  1.00  0.00     0.016 A 
BRANCH   8  13
ATOM     13  N   UNL A   1      31.809  26.606  24.747  1.00  0.00    -0.257 N 
ATOM     14  C   UNL A   1      32.036  24.592  24.119  1.00  0.00     0.071 C 
ATOM     15  N   UNL A   1      32.180  25.368  25.147  1.00  0.00    -0.176 NA
ATOM     16  C   UNL A   1      31.619  25.266  22.841  1.00  0.00     0.091 C 
ATOM     17  C   UNL A   1      31.366  26.693  23.354  1.00  0.00     0.144 C 
BRANCH  14  18
ATOM     18  C   UNL A   1      32.275  23.142  24.201  1.00  0.00    -0.002 A 
ATOM     19  C   UNL A   1      32.659  20.390  24.267  1.00  0.00     0.067 A 
ATOM     20  C   UNL A   1      32.277  21.001  23.070  1.00  0.00     0.021 A 
ATOM     21  C   UNL A   1      32.858  21.146  25.430  1.00  0.00     0.021 A 
ATOM     22  C   UNL A   1      32.068  22.378  23.045  1.00  0.00     0.011 A 
ATOM     23  C   UNL A   1      32.671  22.532  25.393  1.00  0.00     0.011 A 
BRANCH  19  24
ATOM     24  S   UNL A   1      32.923  18.633  24.289  1.00  0.00     0.175 S 
ATOM     25  C   UNL A   1      32.425  18.100  22.672  1.00  0.00     0.163 C 
ATOM     26  O   UNL A   1      31.999  18.059  25.246  1.00  0.00    -0.224 OA
ATOM     27  O   UNL A   1      34.356  18.427  24.419  1.00  0.00    -0.224 OA
ENDBRANCH  19  24
ENDBRANCH  14  18
BRANCH  17  28
ATOM     28  C   UNL A   1      29.942  27.231  23.299  1.00  0.00    -0.023 A 
ATOM     29  C   UNL A   1      28.831  26.561  23.834  1.00  0.00     0.006 A 
ATOM     30  C   UNL A   1      29.732  28.514  22.753  1.00  0.00     0.006 A 
ATOM     31  C   UNL A   1      27.558  27.142  23.799  1.00  0.00     0.000 A 
ATOM     32  C   UNL A   1      28.466  29.103  22.739  1.00  0.00     0.000 A 
ATOM     33  C   UNL A   1      27.377  28.411  23.256  1.00  0.00     0.000 A 
ENDBRANCH  17  28
ENDBRANCH   8  13
ENDBRANCH   4   7
ENDBRANCH   2   3
ENDBRANCH   1   2
BRANCH   1  34
ATOM     34  C   UNL A   1      36.049  30.770  30.997  1.00  0.00     0.023 C 
BRANCH  34  35
ATOM     35  C   UNL A   1      36.614  30.763  32.413  1.00  0.00     0.116 C 
BRANCH  35  36
ATOM     36  N   UNL A   1      37.101  32.065  32.845  1.00  0.00    -0.352 N 
ATOM     37  C   UNL A   1      38.380  32.567  32.779  1.00  0.00     0.251 C 
ATOM     38  H   UNL A   1      36.427  32.666  33.237  1.00  0.00     0.163 HD
ATOM     39  O   UNL A   1      38.643  33.655  33.281  1.00  0.00    -0.269 OA
BRANCH  37  40
ATOM     40  C   UNL A   1      39.441  31.763  32.138  1.00  0.00     0.039 A 
ATOM     41  C   UNL A   1      39.711  31.966  30.783  1.00  0.00     0.014 A 
ATOM     42  C   UNL A   1      40.198  30.855  32.883  1.00  0.00     0.014 A 
ATOM     43  C   UNL A   1      40.798  31.317  30.193  1.00  0.00     0.010 A 
ATOM     44  C   UNL A   1      41.318  30.258  32.310  1.00  0.00     0.010 A 
ATOM     45  C   UNL A   1      41.636  30.495  30.965  1.00  0.00    -0.014 A 
BRANCH  45  46
ATOM     46  C   UNL A   1      42.877  29.913  30.395  1.00  0.00     0.031 A 
ATOM     47  C   UNL A   1      44.149  30.708  30.373  1.00  0.00     0.074 A 
ATOM     48  C   UNL A   1      42.828  28.694  29.823  1.00  0.00     0.049 A 
ATOM     49  N   UNL A   1      45.311  30.389  29.864  1.00  0.00    -0.248 NA
ATOM     50  C   UNL A   1      44.104  32.047  30.980  1.00  0.00     0.031 C 
ATOM     51  C   UNL A   1      41.635  27.847  29.736  1.00  0.00     0.029 A 
ATOM     52  N   UNL A   1      43.802  27.959  29.195  1.00  0.00    -0.354 N 
ATOM     53  C   UNL A   1      46.132  31.491  30.072  1.00  0.00     0.074 A 
ATOM     54  C   UNL A   1      45.320  32.503  30.715  1.00  0.00     0.031 C 
ATOM     55  C   UNL A   1      41.955  26.699  29.117  1.00  0.00     0.029 A 
ATOM     56  C   UNL A   1      43.362  26.743  28.731  1.00  0.00     0.049 A 
ATOM     57  H   UNL A   1      44.729  28.273  29.088  1.00  0.00     0.167 HD
ATOM     58  C   UNL A   1      47.444  31.638  29.772  1.00  0.00     0.037 A 
ATOM     59  C   UNL A   1      44.016  25.773  28.063  1.00  0.00     0.037 A 
ATOM     60  C   UNL A   1      48.249  30.618  29.152  1.00  0.00     0.049 A 
ATOM     61  C   UNL A   1      45.469  25.961  27.731  1.00  0.00     0.074 A 
ATOM     62  C   UNL A   1      49.607  30.634  28.886  1.00  0.00     0.029 A 
ATOM     63  N   UNL A   1      47.767  29.401  28.688  1.00  0.00    -0.354 N 
ATOM     64  N   UNL A   1      46.251  26.977  28.008  1.00  0.00    -0.248 NA
ATOM     65  C   UNL A   1      46.127  24.875  26.994  1.00  0.00     0.031 C 
ATOM     66  C   UNL A   1      49.937  29.447  28.222  1.00  0.00     0.029 A 
ATOM     67  C   UNL A   1      48.794  28.673  28.109  1.00  0.00     0.049 A 
ATOM     68  H   UNL A   1      46.833  29.100  28.761  1.00  0.00     0.167 HD
ATOM     69  C   UNL A   1      47.499  26.648  27.491  1.00  0.00     0.074 A 
ATOM     70  C   UNL A   1      47.369  25.332  26.896  1.00  0.00     0.031 C 
ATOM     71  C   UNL A   1      48.646  27.370  27.509  1.00  0.00     0.037 A 
BRANCH  58  72
ATOM     72  C   UNL A   1      48.084  32.956  30.109  1.00  0.00     0.058 A 
ATOM     73  C   UNL A   1      48.754  33.161  31.325  1.00  0.00     0.135 A 
ATOM     74  C   UNL A   1      48.022  34.030  29.206  1.00  0.00     0.135 A 
ATOM     75  F   UNL A   1      48.831  32.172  32.230  1.00  0.00    -0.206 F 
ATOM     76  C   UNL A   1      49.300  34.397  31.656  1.00  0.00     0.059 A 
ATOM     77  C   UNL A   1      48.585  35.268  29.505  1.00  0.00     0.059 A 
ATOM     78  F   UNL A   1      47.396  33.888  28.027  1.00  0.00    -0.206 F 
ATOM     79  C   UNL A   1      49.202  35.447  30.742  1.00  0.00     0.060 A 
BRANCH  79  80
ATOM     80  S   UNL A   1      49.884  37.056  31.197  1.00  0.00     0.124 S 
ATOM     81  O   UNL A   1      51.046  37.136  30.317  1.00  0.00    -0.237 OA
ATOM     82  O   UNL A   1      48.788  37.965  30.882  1.00  0.00    -0.237 OA
ATOM     83  O   UNL A   1      50.182  36.907  32.618  1.00  0.00    -0.744 OA
ENDBRANCH  79  80
ENDBRANCH  58  72
BRANCH  59  84
ATOM     84  C   UNL A   1      43.300  24.523  27.700  1.00  0.00     0.058 A 
ATOM     85  C   UNL A   1      43.060  23.533  28.663  1.00  0.00     0.135 A 
ATOM     86  C   UNL A   1      42.799  24.315  26.406  1.00  0.00     0.135 A 
ATOM     87  F   UNL A   1      43.529  23.685  29.911  1.00  0.00    -0.206 F 
ATOM     88  C   UNL A   1      42.344  22.380  28.360  1.00  0.00     0.059 A 
ATOM     89  C   UNL A   1      42.061  23.179  26.083  1.00  0.00     0.059 A 
ATOM     90  F   UNL A   1      42.990  25.241  25.454  1.00  0.00    -0.206 F 
ATOM     91  C   UNL A   1      41.842  22.217  27.067  1.00  0.00     0.060 A 
BRANCH  91  92
ATOM     92  S   UNL A   1      40.839  20.757  26.708  1.00  0.00     0.124 S 
ATOM     93  O   UNL A   1      41.633  20.103  25.675  1.00  0.00    -0.237 OA
ATOM     94  O   UNL A   1      40.800  20.086  28.004  1.00  0.00    -0.237 OA
ATOM     95  O   UNL A   1      39.569  21.324  26.267  1.00  0.00    -0.744 OA
ENDBRANCH  91  92
ENDBRANCH  59  84
BRANCH  71  96
ATOM     96  C   UNL A   1      49.857  26.753  26.866  1.00  0.00     0.058 A 
ATOM     97  C   UNL A   1      50.116  26.909  25.495  1.00  0.00     0.135 A 
ATOM     98  C   UNL A   1      50.790  26.041  27.636  1.00  0.00     0.135 A 
ATOM     99  F   UNL A   1      49.250  27.572  24.714  1.00  0.00    -0.206 F 
ATOM    100  C   UNL A   1      51.254  26.366  24.907  1.00  0.00     0.059 A 
ATOM    101  C   UNL A   1      51.945  25.509  27.072  1.00  0.00     0.059 A 
ATOM    102  F   UNL A   1      50.591  25.871  28.952  1.00  0.00    -0.206 F 
ATOM    103  C   UNL A   1      52.164  25.669  25.704  1.00  0.00     0.060 A 
BRANCH 103 104
ATOM    104  S   UNL A   1      53.657  25.005  24.936  1.00  0.00     0.124 S 
ATOM    105  O   UNL A   1      53.417  23.568  25.026  1.00  0.00    -0.237 OA
ATOM    106  O   UNL A   1      53.601  25.575  23.594  1.00  0.00    -0.237 OA
ATOM    107  O   UNL A   1      54.731  25.516  25.783  1.00  0.00    -0.744 OA
ENDBRANCH 103 104
ENDBRANCH  71  96
ENDBRANCH  45  46
ENDBRANCH  37  40
ENDBRANCH  35  36
ENDBRANCH  34  35
ENDBRANCH   1  34
TORSDOF 18
ENDMDL
MODEL 2
REMARK VINA RESULT:     -12.1      5.396     12.085
REMARK SMILES CS(=O)(=O)c1ccc(C2=NN(c3ccc(C(=O)NCCCCNC(=O)c4ccc(-c5c6nc(c(-c7c(F)cc(S(=O)(=O)[O-])cc7F)c7ccc([nH]7)c(-c7c(F)cc(S(=O)(=O)[O-])cc7F)c7nc(c(-c8c(F)cc(S(=O)(=O)[O-])cc8F)c8ccc5[nH]8)C=C7)C=C6)cc4)cc3)[C@H](c3ccccc3)C2)cc1
REMARK SMILES IDX 20 1 19 2 18 3 16 4 17 5 15 7 12 8 13 9 93 10 14 11 92 12
REMARK SMILES IDX 11 13 9 14 10 15 101 16 94 17 8 18 5 19 6 20 103 21 7 22
REMARK SMILES IDX 102 23 2 24 1 25 3 26 4 27 95 28 96 29 100 30 97 31 99 32
REMARK SMILES IDX 98 33 21 34 22 35 23 36 24 37 25 39 26 40 27 41 91 42 28 43
REMARK SMILES IDX 90 44 29 45 30 46 31 47 84 48 32 49 89 50 83 51 85 52 33 53
REMARK SMILES IDX 88 54 82 55 81 56 34 58 68 59 47 60 67 61 48 62 51 63 66 64
REMARK SMILES IDX 86 65 49 66 50 67 65 69 87 70 52 71 35 72 36 73 45 74 37 75
REMARK SMILES IDX 38 76 44 77 46 78 39 79 40 80 41 81 42 82 43 83 69 84 70 85
REMARK SMILES IDX 79 86 71 87 72 88 78 89 80 90 73 91 74 92 75 93 76 94 77 95
REMARK SMILES IDX 53 96 54 97 63 98 55 99 56 100 62 101 64 102 57 103 58 104
REMARK SMILES IDX 59 105 60 106 61 107
REMARK H PARENT 18 6 23 38 85 57 51 68
REMARK Flexibility Score: inf
ROOT
ATOM      1  C   UNL A   1      40.828  25.224  26.479  1.00  0.00     0.023 C 
ENDROOT
BRANCH   1   2
ATOM      2  C   UNL A   1      39.446  24.569  26.431  1.00  0.00     0.116 C 
BRANCH   2   3
ATOM      3  N   UNL A   1      39.550  23.121  26.369  1.00  0.00    -0.352 N 
ATOM      4  C   UNL A   1      38.668  22.176  25.904  1.00  0.00     0.251 C 
ATOM      5  O   UNL A   1      39.038  21.004  25.841  1.00  0.00    -0.269 OA
ATOM      6  H   UNL A   1      40.394  22.757  26.720  1.00  0.00     0.163 HD
BRANCH   4   7
ATOM      7  C   UNL A   1      37.307  22.529  25.421  1.00  0.00     0.039 A 
ATOM      8  C   UNL A   1      34.677  23.183  24.644  1.00  0.00     0.060 A 
ATOM      9  C   UNL A   1      35.089  23.359  25.968  1.00  0.00     0.029 A 
ATOM     10  C   UNL A   1      35.609  22.739  23.706  1.00  0.00     0.029 A 
ATOM     11  C   UNL A   1      36.394  23.036  26.356  1.00  0.00     0.016 A 
ATOM     12  C   UNL A   1      36.916  22.432  24.085  1.00  0.00     0.016 A 
BRANCH   8  13
ATOM     13  N   UNL A   1      33.368  23.413  24.243  1.00  0.00    -0.257 N 
ATOM     14  C   UNL A   1      31.723  24.738  24.042  1.00  0.00     0.071 C 
ATOM     15  N   UNL A   1      33.005  24.663  23.872  1.00  0.00    -0.176 NA
ATOM     16  C   UNL A   1      31.070  23.528  24.653  1.00  0.00     0.091 C 
ATOM     17  C   UNL A   1      32.264  22.561  24.689  1.00  0.00     0.144 C 
BRANCH  14  18
ATOM     18  C   UNL A   1      30.959  25.938  23.667  1.00  0.00    -0.002 A 
ATOM     19  C   UNL A   1      29.422  28.149  22.980  1.00  0.00     0.067 A 
ATOM     20  C   UNL A   1      28.892  27.187  23.843  1.00  0.00     0.021 A 
ATOM     21  C   UNL A   1      30.717  28.019  22.464  1.00  0.00     0.021 A 
ATOM     22  C   UNL A   1      29.659  26.070  24.171  1.00  0.00     0.011 A 
ATOM     23  C   UNL A   1      31.492  26.909  22.816  1.00  0.00     0.011 A 
BRANCH  19  24
ATOM     24  S   UNL A   1      28.435  29.569  22.568  1.00  0.00     0.175 S 
ATOM     25  C   UNL A   1      29.103  30.868  23.575  1.00  0.00     0.163 C 
ATOM     26  O   UNL A   1      27.083  29.313  23.020  1.00  0.00    -0.224 OA
ATOM     27  O   UNL A   1      28.711  29.880  21.176  1.00  0.00    -0.224 OA
ENDBRANCH  19  24
ENDBRANCH  14  18
BRANCH  17  28
ATOM     28  C   UNL A   1      32.197  21.310  23.822  1.00  0.00    -0.023 A 
ATOM     29  C   UNL A   1      31.979  21.329  22.436  1.00  0.00     0.006 A 
ATOM     30  C   UNL A   1      32.450  20.062  24.428  1.00  0.00     0.006 A 
ATOM     31  C   UNL A   1      31.988  20.144  21.692  1.00  0.00     0.000 A 
ATOM     32  C   UNL A   1      32.481  18.882  23.681  1.00  0.00     0.000 A 
ATOM     33  C   UNL A   1      32.241  18.923  22.313  1.00  0.00     0.000 A 
ENDBRANCH  17  28
ENDBRANCH   8  13
ENDBRANCH   4   7
ENDBRANCH   2   3
ENDBRANCH   1   2
BRANCH   1  34
ATOM     34  C   UNL A   1      40.848  26.702  26.089  1.00  0.00     0.023 C 
BRANCH  34  35
ATOM     35  C   UNL A   1      42.148  27.191  25.460  1.00  0.00     0.116 C 
BRANCH  35  36
ATOM     36  N   UNL A   1      43.245  26.245  25.594  1.00  0.00    -0.352 N 
ATOM     37  C   UNL A   1      44.098  26.067  26.658  1.00  0.00     0.251 C 
ATOM     38  H   UNL A   1      43.398  25.655  24.821  1.00  0.00     0.163 HD
ATOM     39  O   UNL A   1      45.039  25.285  26.571  1.00  0.00    -0.269 OA
BRANCH  37  40
ATOM     40  C   UNL A   1      43.895  26.858  27.889  1.00  0.00     0.039 A 
ATOM     41  C   UNL A   1      44.347  28.179  27.922  1.00  0.00     0.014 A 
ATOM     42  C   UNL A   1      43.215  26.316  28.983  1.00  0.00     0.014 A 
ATOM     43  C   UNL A   1      44.044  28.984  29.022  1.00  0.00     0.010 A 
ATOM     44  C   UNL A   1      42.860  27.136  30.050  1.00  0.00     0.010 A 
ATOM     45  C   UNL A   1      43.259  28.481  30.072  1.00  0.00    -0.014 A 
BRANCH  45  46
ATOM     46  C   UNL A   1      42.803  29.359  31.179  1.00  0.00     0.031 A 
ATOM     47  C   UNL A   1      41.514  30.118  31.065  1.00  0.00     0.074 A 
ATOM     48  C   UNL A   1      43.600  29.532  32.251  1.00  0.00     0.049 A 
ATOM     49  N   UNL A   1      40.987  30.976  31.901  1.00  0.00    -0.248 NA
ATOM     50  C   UNL A   1      40.725  29.906  29.842  1.00  0.00     0.031 C 
ATOM     51  C   UNL A   1      44.902  28.888  32.450  1.00  0.00     0.029 A 
ATOM     52  N   UNL A   1      43.441  30.308  33.371  1.00  0.00    -0.354 N 
ATOM     53  C   UNL A   1      39.815  31.419  31.300  1.00  0.00     0.074 A 
ATOM     54  C   UNL A   1      39.732  30.768  30.009  1.00  0.00     0.031 C 
ATOM     55  C   UNL A   1      45.408  29.275  33.632  1.00  0.00     0.029 A 
ATOM     56  C   UNL A   1      44.488  30.221  34.256  1.00  0.00     0.049 A 
ATOM     57  H   UNL A   1      42.650  30.874  33.525  1.00  0.00     0.167 HD
ATOM     58  C   UNL A   1      38.886  32.275  31.787  1.00  0.00     0.037 A 
ATOM     59  C   UNL A   1      44.688  30.837  35.437  1.00  0.00     0.037 A 
ATOM     60  C   UNL A   1      38.965  32.902  33.080  1.00  0.00     0.049 A 
ATOM     61  C   UNL A   1      43.650  31.791  35.954  1.00  0.00     0.074 A 
ATOM     62  C   UNL A   1      38.034  33.715  33.703  1.00  0.00     0.029 A 
ATOM     63  N   UNL A   1      40.045  32.796  33.947  1.00  0.00    -0.354 N 
ATOM     64  N   UNL A   1      42.508  32.137  35.409  1.00  0.00    -0.248 NA
ATOM     65  C   UNL A   1      43.926  32.441  37.241  1.00  0.00     0.031 C 
ATOM     66  C   UNL A   1      38.570  34.137  34.926  1.00  0.00     0.029 A 
ATOM     67  C   UNL A   1      39.817  33.555  35.084  1.00  0.00     0.049 A 
ATOM     68  H   UNL A   1      40.853  32.260  33.779  1.00  0.00     0.167 HD
ATOM     69  C   UNL A   1      41.922  33.035  36.293  1.00  0.00     0.074 A 
ATOM     70  C   UNL A   1      42.831  33.168  37.415  1.00  0.00     0.031 C 
ATOM     71  C   UNL A   1      40.739  33.689  36.186  1.00  0.00     0.037 A 
BRANCH  58  72
ATOM     72  C   UNL A   1      37.706  32.584  30.907  1.00  0.00     0.058 A 
ATOM     73  C   UNL A   1      37.779  33.545  29.885  1.00  0.00     0.135 A 
ATOM     74  C   UNL A   1      36.485  31.916  31.091  1.00  0.00     0.135 A 
ATOM     75  F   UNL A   1      38.919  34.222  29.676  1.00  0.00    -0.206 F 
ATOM     76  C   UNL A   1      36.673  33.866  29.107  1.00  0.00     0.059 A 
ATOM     77  C   UNL A   1      35.372  32.202  30.305  1.00  0.00     0.059 A 
ATOM     78  F   UNL A   1      36.360  30.986  32.050  1.00  0.00    -0.206 F 
ATOM     79  C   UNL A   1      35.469  33.195  29.332  1.00  0.00     0.060 A 
BRANCH  79  80
ATOM     80  S   UNL A   1      34.030  33.645  28.338  1.00  0.00     0.124 S 
ATOM     81  O   UNL A   1      33.158  34.239  29.347  1.00  0.00    -0.237 OA
ATOM     82  O   UNL A   1      34.596  34.573  27.366  1.00  0.00    -0.237 OA
ATOM     83  O   UNL A   1      33.582  32.367  27.794  1.00  0.00    -0.744 OA
ENDBRANCH  79  80
ENDBRANCH  58  72
BRANCH  59  84
ATOM     84  C   UNL A   1      45.913  30.536  36.222  1.00  0.00     0.058 A 
ATOM     85  C   UNL A   1      47.084  31.282  36.032  1.00  0.00     0.135 A 
ATOM     86  C   UNL A   1      45.924  29.537  37.208  1.00  0.00     0.135 A 
ATOM     87  F   UNL A   1      47.122  32.242  35.094  1.00  0.00    -0.206 F 
ATOM     88  C   UNL A   1      48.225  31.054  36.793  1.00  0.00     0.059 A 
ATOM     89  C   UNL A   1      47.047  29.303  37.997  1.00  0.00     0.059 A 
ATOM     90  F   UNL A   1      44.823  28.805  37.437  1.00  0.00    -0.206 F 
ATOM     91  C   UNL A   1      48.193  30.067  37.780  1.00  0.00     0.060 A 
BRANCH  91  92
ATOM     92  S   UNL A   1      49.652  29.839  38.821  1.00  0.00     0.124 S 
ATOM     93  O   UNL A   1      50.497  30.946  38.390  1.00  0.00    -0.237 OA
ATOM     94  O   UNL A   1      49.091  29.949  40.164  1.00  0.00    -0.237 OA
ATOM     95  O   UNL A   1      50.120  28.506  38.454  1.00  0.00    -0.744 OA
ENDBRANCH  91  92
ENDBRANCH  59  84
BRANCH  71  96
ATOM     96  C   UNL A   1      40.357  34.608  37.312  1.00  0.00     0.058 A 
ATOM     97  C   UNL A   1      39.691  34.131  38.452  1.00  0.00     0.135 A 
ATOM     98  C   UNL A   1      40.703  35.969  37.273  1.00  0.00     0.135 A 
ATOM     99  F   UNL A   1      39.329  32.842  38.533  1.00  0.00    -0.206 F 
ATOM    100  C   UNL A   1      39.368  34.976  39.509  1.00  0.00     0.059 A 
ATOM    101  C   UNL A   1      40.410  36.826  38.328  1.00  0.00     0.059 A 
ATOM    102  F   UNL A   1      41.348  36.471  36.208  1.00  0.00    -0.206 F 
ATOM    103  C   UNL A   1      39.733  36.322  39.439  1.00  0.00     0.060 A 
BRANCH 103 104
ATOM    104  S   UNL A   1      39.343  37.399  40.834  1.00  0.00     0.124 S 
ATOM    105  O   UNL A   1      40.655  37.957  41.149  1.00  0.00    -0.237 OA
ATOM    106  O   UNL A   1      38.381  38.330  40.253  1.00  0.00    -0.237 OA
ATOM    107  O   UNL A   1      38.795  36.482  41.829  1.00  0.00    -0.744 OA
ENDBRANCH 103 104
ENDBRANCH  71  96
ENDBRANCH  45  46
ENDBRANCH  37  40
ENDBRANCH  35  36
ENDBRANCH  34  35
ENDBRANCH   1  34
TORSDOF 18
ENDMDL
MODEL 3
REMARK VINA RESULT:     -12.0      4.600      8.236
REMARK SMILES CS(=O)(=O)c1ccc(C2=NN(c3ccc(C(=O)NCCCCNC(=O)c4ccc(-c5c6nc(c(-c7c(F)cc(S(=O)(=O)[O-])cc7F)c7ccc([nH]7)c(-c7c(F)cc(S(=O)(=O)[O-])cc7F)c7nc(c(-c8c(F)cc(S(=O)(=O)[O-])cc8F)c8ccc5[nH]8)C=C7)C=C6)cc4)cc3)[C@H](c3ccccc3)C2)cc1
REMARK SMILES IDX 20 1 19 2 18 3 16 4 17 5 15 7 12 8 13 9 93 10 14 11 92 12
REMARK SMILES IDX 11 13 9 14 10 15 101 16 94 17 8 18 5 19 6 20 103 21 7 22
REMARK SMILES IDX 102 23 2 24 1 25 3 26 4 27 95 28 96 29 100 30 97 31 99 32
REMARK SMILES IDX 98 33 21 34 22 35 23 36 24 37 25 39 26 40 27 41 91 42 28 43
REMARK SMILES IDX 90 44 29 45 30 46 31 47 84 48 32 49 89 50 83 51 85 52 33 53
REMARK SMILES IDX 88 54 82 55 81 56 34 58 68 59 47 60 67 61 48 62 51 63 66 64
REMARK SMILES IDX 86 65 49 66 50 67 65 69 87 70 52 71 35 72 36 73 45 74 37 75
REMARK SMILES IDX 38 76 44 77 46 78 39 79 40 80 41 81 42 82 43 83 69 84 70 85
REMARK SMILES IDX 79 86 71 87 72 88 78 89 80 90 73 91 74 92 75 93 76 94 77 95
REMARK SMILES IDX 53 96 54 97 63 98 55 99 56 100 62 101 64 102 57 103 58 104
REMARK SMILES IDX 59 105 60 106 61 107
REMARK H PARENT 18 6 23 38 85 57 51 68
REMARK Flexibility Score: inf
ROOT
ATOM      1  C   UNL A   1      34.385  33.281  28.960  1.00  0.00     0.023 C 
ENDROOT
BRANCH   1   2
ATOM      2  C   UNL A   1      34.603  34.672  29.559  1.00  0.00     0.116 C 
BRANCH   2   3
ATOM      3  N   UNL A   1      33.741  34.895  30.705  1.00  0.00    -0.352 N 
ATOM      4  C   UNL A   1      33.959  34.695  32.047  1.00  0.00     0.251 C 
ATOM      5  O   UNL A   1      33.107  35.081  32.847  1.00  0.00    -0.269 OA
ATOM      6  H   UNL A   1      32.849  35.248  30.483  1.00  0.00     0.163 HD
BRANCH   4   7
ATOM      7  C   UNL A   1      35.211  34.083  32.566  1.00  0.00     0.039 A 
ATOM      8  C   UNL A   1      37.506  32.802  33.585  1.00  0.00     0.060 A 
ATOM      9  C   UNL A   1      36.411  32.052  33.146  1.00  0.00     0.029 A 
ATOM     10  C   UNL A   1      37.463  34.191  33.449  1.00  0.00     0.029 A 
ATOM     11  C   UNL A   1      35.271  32.685  32.639  1.00  0.00     0.016 A 
ATOM     12  C   UNL A   1      36.336  34.825  32.928  1.00  0.00     0.016 A 
BRANCH   8  13
ATOM     13  N   UNL A   1      38.617  32.212  34.169  1.00  0.00    -0.257 N 
ATOM     14  C   UNL A   1      40.216  30.821  34.067  1.00  0.00     0.071 C 
ATOM     15  N   UNL A   1      39.596  31.723  33.373  1.00  0.00    -0.176 NA
ATOM     16  C   UNL A   1      39.644  30.531  35.427  1.00  0.00     0.091 C 
ATOM     17  C   UNL A   1      38.561  31.619  35.507  1.00  0.00     0.144 C 
BRANCH  14  18
ATOM     18  C   UNL A   1      41.401  30.120  33.547  1.00  0.00    -0.002 A 
ATOM     19  C   UNL A   1      43.619  28.714  32.637  1.00  0.00     0.067 A 
ATOM     20  C   UNL A   1      42.572  28.022  33.250  1.00  0.00     0.021 A 
ATOM     21  C   UNL A   1      43.563  30.104  32.469  1.00  0.00     0.021 A 
ATOM     22  C   UNL A   1      41.470  28.732  33.721  1.00  0.00     0.011 A 
ATOM     23  C   UNL A   1      42.443  30.809  32.921  1.00  0.00     0.011 A 
BRANCH  19  24
ATOM     24  S   UNL A   1      45.020  27.799  32.040  1.00  0.00     0.175 S 
ATOM     25  C   UNL A   1      44.305  26.415  31.192  1.00  0.00     0.163 C 
ATOM     26  O   UNL A   1      45.737  27.287  33.191  1.00  0.00    -0.224 OA
ATOM     27  O   UNL A   1      45.686  28.643  31.063  1.00  0.00    -0.224 OA
ENDBRANCH  19  24
ENDBRANCH  14  18
BRANCH  17  28
ATOM     28  C   UNL A   1      38.718  32.709  36.560  1.00  0.00    -0.023 A 
ATOM     29  C   UNL A   1      39.565  33.818  36.418  1.00  0.00     0.006 A 
ATOM     30  C   UNL A   1      37.906  32.648  37.711  1.00  0.00     0.006 A 
ATOM     31  C   UNL A   1      39.616  34.813  37.402  1.00  0.00     0.000 A 
ATOM     32  C   UNL A   1      37.941  33.651  38.682  1.00  0.00     0.000 A 
ATOM     33  C   UNL A   1      38.803  34.731  38.530  1.00  0.00     0.000 A 
ENDBRANCH  17  28
ENDBRANCH   8  13
ENDBRANCH   4   7
ENDBRANCH   2   3
ENDBRANCH   1   2
BRANCH   1  34
ATOM     34  C   UNL A   1      35.467  32.830  27.978  1.00  0.00     0.023 C 
BRANCH  34  35
ATOM     35  C   UNL A   1      35.771  31.336  27.985  1.00  0.00     0.116 C 
BRANCH  35  36
ATOM     36  N   UNL A   1      35.451  30.689  29.249  1.00  0.00    -0.352 N 
ATOM     37  C   UNL A   1      36.280  29.967  30.075  1.00  0.00     0.251 C 
ATOM     38  H   UNL A   1      34.519  30.780  29.552  1.00  0.00     0.163 HD
ATOM     39  O   UNL A   1      35.824  29.401  31.064  1.00  0.00    -0.269 OA
BRANCH  37  40
ATOM     40  C   UNL A   1      37.712  29.843  29.736  1.00  0.00     0.039 A 
ATOM     41  C   UNL A   1      38.633  29.649  30.769  1.00  0.00     0.014 A 
ATOM     42  C   UNL A   1      38.136  29.866  28.405  1.00  0.00     0.014 A 
ATOM     43  C   UNL A   1      39.970  29.394  30.460  1.00  0.00     0.010 A 
ATOM     44  C   UNL A   1      39.456  29.550  28.097  1.00  0.00     0.010 A 
ATOM     45  C   UNL A   1      40.381  29.297  29.120  1.00  0.00    -0.014 A 
BRANCH  45  46
ATOM     46  C   UNL A   1      41.763  28.884  28.769  1.00  0.00     0.031 A 
ATOM     47  C   UNL A   1      42.878  29.889  28.760  1.00  0.00     0.074 A 
ATOM     48  C   UNL A   1      41.990  27.615  28.377  1.00  0.00     0.049 A 
ATOM     49  N   UNL A   1      44.131  29.726  28.422  1.00  0.00    -0.248 NA
ATOM     50  C   UNL A   1      42.535  31.262  29.159  1.00  0.00     0.031 C 
ATOM     51  C   UNL A   1      40.975  26.561  28.293  1.00  0.00     0.029 A 
ATOM     52  N   UNL A   1      43.143  26.997  27.963  1.00  0.00    -0.354 N 
ATOM     53  C   UNL A   1      44.724  30.976  28.550  1.00  0.00     0.074 A 
ATOM     54  C   UNL A   1      43.681  31.896  28.954  1.00  0.00     0.031 C 
ATOM     55  C   UNL A   1      41.557  25.423  27.883  1.00  0.00     0.029 A 
ATOM     56  C   UNL A   1      42.974  25.674  27.638  1.00  0.00     0.049 A 
ATOM     57  H   UNL A   1      44.011  27.460  27.906  1.00  0.00     0.167 HD
ATOM     58  C   UNL A   1      46.020  31.320  28.366  1.00  0.00     0.037 A 
ATOM     59  C   UNL A   1      43.858  24.763  27.187  1.00  0.00     0.037 A 
ATOM     60  C   UNL A   1      47.055  30.395  27.984  1.00  0.00     0.049 A 
ATOM     61  C   UNL A   1      45.289  25.169  26.980  1.00  0.00     0.074 A 
ATOM     62  C   UNL A   1      48.414  30.625  27.857  1.00  0.00     0.029 A 
ATOM     63  N   UNL A   1      46.845  29.063  27.655  1.00  0.00    -0.354 N 
ATOM     64  N   UNL A   1      45.850  26.337  27.184  1.00  0.00    -0.248 NA
ATOM     65  C   UNL A   1      46.206  24.138  26.478  1.00  0.00     0.031 C 
ATOM     66  C   UNL A   1      49.018  29.445  27.408  1.00  0.00     0.029 A 
ATOM     67  C   UNL A   1      48.042  28.467  27.294  1.00  0.00     0.049 A 
ATOM     68  H   UNL A   1      45.972  28.608  27.677  1.00  0.00     0.167 HD
ATOM     69  C   UNL A   1      47.190  26.179  26.848  1.00  0.00     0.074 A 
ATOM     70  C   UNL A   1      47.357  24.798  26.440  1.00  0.00     0.031 C 
ATOM     71  C   UNL A   1      48.190  27.094  26.877  1.00  0.00     0.037 A 
BRANCH  58  72
ATOM     72  C   UNL A   1      46.385  32.765  28.571  1.00  0.00     0.058 A 
ATOM     73  C   UNL A   1      46.378  33.685  27.510  1.00  0.00     0.135 A 
ATOM     74  C   UNL A   1      46.750  33.235  29.843  1.00  0.00     0.135 A 
ATOM     75  F   UNL A   1      46.049  33.285  26.271  1.00  0.00    -0.206 F 
ATOM     76  C   UNL A   1      46.765  35.008  27.692  1.00  0.00     0.059 A 
ATOM     77  C   UNL A   1      47.115  34.562  30.053  1.00  0.00     0.059 A 
ATOM     78  F   UNL A   1      46.771  32.399  30.893  1.00  0.00    -0.206 F 
ATOM     79  C   UNL A   1      47.142  35.434  28.967  1.00  0.00     0.060 A 
BRANCH  79  80
ATOM     80  S   UNL A   1      47.676  37.146  29.183  1.00  0.00     0.124 S 
ATOM     81  O   UNL A   1      47.862  37.209  30.630  1.00  0.00    -0.237 OA
ATOM     82  O   UNL A   1      48.897  37.199  28.385  1.00  0.00    -0.237 OA
ATOM     83  O   UNL A   1      46.554  37.919  28.659  1.00  0.00    -0.744 OA
ENDBRANCH  79  80
ENDBRANCH  58  72
BRANCH  59  84
ATOM     84  C   UNL A   1      43.411  23.368  26.939  1.00  0.00     0.058 A 
ATOM     85  C   UNL A   1      43.248  22.894  25.630  1.00  0.00     0.135 A 
ATOM     86  C   UNL A   1      43.190  22.471  27.995  1.00  0.00     0.135 A 
ATOM     87  F   UNL A   1      43.441  23.719  24.590  1.00  0.00    -0.206 F 
ATOM     88  C   UNL A   1      42.884  21.577  25.373  1.00  0.00     0.059 A 
ATOM     89  C   UNL A   1      42.845  21.142  27.763  1.00  0.00     0.059 A 
ATOM     90  F   UNL A   1      43.348  22.874  29.265  1.00  0.00    -0.206 F 
ATOM     91  C   UNL A   1      42.693  20.706  26.447  1.00  0.00     0.060 A 
BRANCH  91  92
ATOM     92  S   UNL A   1      42.305  18.976  26.099  1.00  0.00     0.124 S 
ATOM     93  O   UNL A   1      43.239  18.677  25.020  1.00  0.00    -0.237 OA
ATOM     94  O   UNL A   1      42.585  18.335  27.380  1.00  0.00    -0.237 OA
ATOM     95  O   UNL A   1      40.896  19.017  25.723  1.00  0.00    -0.744 OA
ENDBRANCH  91  92
ENDBRANCH  59  84
BRANCH  71  96
ATOM     96  C   UNL A   1      49.556  26.632  26.455  1.00  0.00     0.058 A 
ATOM     97  C   UNL A   1      50.410  25.965  27.348  1.00  0.00     0.135 A 
ATOM     98  C   UNL A   1      49.997  26.814  25.135  1.00  0.00     0.135 A 
ATOM     99  F   UNL A   1      50.039  25.775  28.623  1.00  0.00    -0.206 F 
ATOM    100  C   UNL A   1      51.661  25.507  26.948  1.00  0.00     0.059 A 
ATOM    101  C   UNL A   1      51.235  26.345  24.708  1.00  0.00     0.059 A 
ATOM    102  F   UNL A   1      49.214  27.440  24.241  1.00  0.00    -0.206 F 
ATOM    103  C   UNL A   1      52.065  25.700  25.626  1.00  0.00     0.060 A 
BRANCH 103 104
ATOM    104  S   UNL A   1      53.674  25.066  25.109  1.00  0.00     0.124 S 
ATOM    105  O   UNL A   1      53.758  25.561  23.738  1.00  0.00    -0.237 OA
ATOM    106  O   UNL A   1      54.581  25.693  26.065  1.00  0.00    -0.237 OA
ATOM    107  O   UNL A   1      53.530  23.620  25.248  1.00  0.00    -0.744 OA
ENDBRANCH 103 104
ENDBRANCH  71  96
ENDBRANCH  45  46
ENDBRANCH  37  40
ENDBRANCH  35  36
ENDBRANCH  34  35
ENDBRANCH   1  34
TORSDOF 18
ENDMDL
