MODEL 1
REMARK VINA RESULT:     -11.7      0.000      0.000
REMARK SMILES C[C@H](CNS(=O)(=O)c1ccc(C(=O)NCCCCNC(=O)c2ccc(-c3c4nc(c(-c5c(F)cc(S(=O)(=O)[O-])cc5F)c5ccc([nH]5)c(-c5c(F)cc(S(=O)(=O)[O-])cc5F)c5nc(c(-c6c(F)cc(S(=O)(=O)[O-])cc6F)c6ccc3[nH]6)C=C5)C=C4)cc2)o1)c1ccccc1
REMARK SMILES IDX 15 1 14 2 12 3 13 4 11 6 8 7 9 8 88 9 10 10 5 11 6 12 7 13
REMARK SMILES IDX 4 14 3 16 2 17 1 18 89 19 90 20 94 21 91 22 93 23 92 24
REMARK SMILES IDX 16 25 17 26 18 27 19 28 20 29 21 31 22 32 23 33 87 34 24 35
REMARK SMILES IDX 86 36 25 37 26 38 27 39 80 40 28 41 85 42 79 43 81 44 29 45
REMARK SMILES IDX 84 46 78 47 77 48 30 50 64 51 43 52 63 53 44 54 47 55 62 56
REMARK SMILES IDX 82 57 45 58 46 59 61 61 83 62 48 63 31 64 32 65 41 66 33 67
REMARK SMILES IDX 34 68 40 69 42 70 35 71 36 72 37 73 38 74 39 75 65 76 66 77
REMARK SMILES IDX 75 78 67 79 68 80 74 81 76 82 69 83 70 84 71 85 72 86 73 87
REMARK SMILES IDX 49 88 50 89 59 90 51 91 52 92 58 93 60 94 53 95 54 96 55 97
REMARK SMILES IDX 56 98 57 99
REMARK H PARENT 14 5 4 15 19 30 81 49 47 60
REMARK Flexibility Score: inf
ROOT
ATOM      1  C   UNL A   1      37.975  21.992  25.922  1.00  0.00     0.116 C 
ENDROOT
BRANCH   1   2
ATOM      2  N   UNL A   1      37.625  22.178  24.529  1.00  0.00    -0.349 N 
ATOM      3  C   UNL A   1      36.561  22.840  23.957  1.00  0.00     0.287 C 
ATOM      4  O   UNL A   1      36.605  22.978  22.733  1.00  0.00    -0.266 OA
ATOM      5  H   UNL A   1      38.249  21.767  23.888  1.00  0.00     0.163 HD
BRANCH   3   6
ATOM      6  C   UNL A   1      35.459  23.336  24.767  1.00  0.00     0.193 A 
ATOM      7  C   UNL A   1      33.376  23.203  25.592  1.00  0.00     0.234 A 
ATOM      8  C   UNL A   1      33.997  24.295  26.179  1.00  0.00     0.065 A 
ATOM      9  O   UNL A   1      34.281  22.626  24.728  1.00  0.00    -0.438 OA
ATOM     10  C   UNL A   1      35.302  24.382  25.655  1.00  0.00     0.058 A 
BRANCH   7  11
ATOM     11  S   UNL A   1      31.723  22.559  25.851  1.00  0.00     0.274 S 
ATOM     12  O   UNL A   1      31.386  22.940  27.208  1.00  0.00    -0.204 OA
ATOM     13  O   UNL A   1      31.717  21.183  25.424  1.00  0.00    -0.204 OA
BRANCH  11  14
ATOM     14  N   UNL A   1      30.642  23.399  24.842  1.00  0.00    -0.208 NA
ATOM     15  H   UNL A   1      30.429  22.798  24.046  1.00  0.00     0.141 HD
BRANCH  14  16
ATOM     16  C   UNL A   1      31.112  24.699  24.311  1.00  0.00     0.107 C 
BRANCH  16  17
ATOM     17  C   UNL A   1      30.512  25.920  25.039  1.00  0.00     0.031 C 
ATOM     18  C   UNL A   1      29.524  25.560  26.151  1.00  0.00     0.014 C 
BRANCH  17  19
ATOM     19  C   UNL A   1      31.570  26.912  25.499  1.00  0.00    -0.044 A 
ATOM     20  C   UNL A   1      32.740  27.161  24.770  1.00  0.00     0.004 A 
ATOM     21  C   UNL A   1      31.372  27.608  26.705  1.00  0.00     0.004 A 
ATOM     22  C   UNL A   1      33.679  28.088  25.230  1.00  0.00     0.000 A 
ATOM     23  C   UNL A   1      32.317  28.526  27.167  1.00  0.00     0.000 A 
ATOM     24  C   UNL A   1      33.469  28.768  26.428  1.00  0.00     0.000 A 
ENDBRANCH  17  19
ENDBRANCH  16  17
ENDBRANCH  14  16
ENDBRANCH  11  14
ENDBRANCH   7  11
ENDBRANCH   3   6
ENDBRANCH   1   2
BRANCH   1  25
ATOM     25  C   UNL A   1      39.481  21.810  26.117  1.00  0.00     0.023 C 
BRANCH  25  26
ATOM     26  C   UNL A   1      40.038  22.404  27.412  1.00  0.00     0.023 C 
BRANCH  26  27
ATOM     27  C   UNL A   1      41.427  23.026  27.301  1.00  0.00     0.116 C 
BRANCH  27  28
ATOM     28  N   UNL A   1      41.598  23.865  26.125  1.00  0.00    -0.352 N 
ATOM     29  C   UNL A   1      41.601  25.237  26.047  1.00  0.00     0.251 C 
ATOM     30  H   UNL A   1      41.729  23.386  25.273  1.00  0.00     0.163 HD
ATOM     31  O   UNL A   1      41.661  25.791  24.953  1.00  0.00    -0.269 OA
BRANCH  29  32
ATOM     32  C   UNL A   1      41.489  26.033  27.288  1.00  0.00     0.039 A 
ATOM     33  C   UNL A   1      42.537  26.890  27.636  1.00  0.00     0.014 A 
ATOM     34  C   UNL A   1      40.340  25.965  28.079  1.00  0.00     0.014 A 
ATOM     35  C   UNL A   1      42.400  27.729  28.743  1.00  0.00     0.010 A 
ATOM     36  C   UNL A   1      40.178  26.851  29.140  1.00  0.00     0.010 A 
ATOM     37  C   UNL A   1      41.205  27.744  29.481  1.00  0.00    -0.014 A 
BRANCH  37  38
ATOM     38  C   UNL A   1      41.008  28.694  30.606  1.00  0.00     0.031 A 
ATOM     39  C   UNL A   1      41.847  28.577  31.849  1.00  0.00     0.074 A 
ATOM     40  C   UNL A   1      40.030  29.619  30.532  1.00  0.00     0.049 A 
ATOM     41  N   UNL A   1      41.784  29.274  32.955  1.00  0.00    -0.248 NA
ATOM     42  C   UNL A   1      42.870  27.519  31.865  1.00  0.00     0.031 C 
ATOM     43  C   UNL A   1      39.112  29.791  29.403  1.00  0.00     0.029 A 
ATOM     44  N   UNL A   1      39.636  30.580  31.429  1.00  0.00    -0.354 N 
ATOM     45  C   UNL A   1      42.746  28.732  33.799  1.00  0.00     0.074 A 
ATOM     46  C   UNL A   1      43.341  27.614  33.100  1.00  0.00     0.031 C 
ATOM     47  C   UNL A   1      38.278  30.809  29.666  1.00  0.00     0.029 A 
ATOM     48  C   UNL A   1      38.577  31.342  30.992  1.00  0.00     0.049 A 
ATOM     49  H   UNL A   1      40.070  30.713  32.302  1.00  0.00     0.167 HD
ATOM     50  C   UNL A   1      43.117  29.144  35.036  1.00  0.00     0.037 A 
ATOM     51  C   UNL A   1      37.919  32.352  31.593  1.00  0.00     0.037 A 
ATOM     52  C   UNL A   1      42.541  30.276  35.714  1.00  0.00     0.049 A 
ATOM     53  C   UNL A   1      38.362  32.803  32.959  1.00  0.00     0.074 A 
ATOM     54  C   UNL A   1      42.891  30.814  36.939  1.00  0.00     0.029 A 
ATOM     55  N   UNL A   1      41.493  31.043  35.225  1.00  0.00    -0.354 N 
ATOM     56  N   UNL A   1      39.323  32.325  33.713  1.00  0.00    -0.248 NA
ATOM     57  C   UNL A   1      37.638  33.936  33.552  1.00  0.00     0.031 C 
ATOM     58  C   UNL A   1      42.029  31.882  37.211  1.00  0.00     0.029 A 
ATOM     59  C   UNL A   1      41.172  32.039  36.133  1.00  0.00     0.049 A 
ATOM     60  H   UNL A   1      41.042  30.900  34.362  1.00  0.00     0.167 HD
ATOM     61  C   UNL A   1      39.336  33.115  34.857  1.00  0.00     0.074 A 
ATOM     62  C   UNL A   1      38.296  34.109  34.690  1.00  0.00     0.031 C 
ATOM     63  C   UNL A   1      40.137  33.026  35.948  1.00  0.00     0.037 A 
BRANCH  50  64
ATOM     64  C   UNL A   1      44.204  28.372  35.731  1.00  0.00     0.058 A 
ATOM     65  C   UNL A   1      43.915  27.283  36.568  1.00  0.00     0.135 A 
ATOM     66  C   UNL A   1      45.555  28.702  35.530  1.00  0.00     0.135 A 
ATOM     67  F   UNL A   1      42.640  26.935  36.808  1.00  0.00    -0.206 F 
ATOM     68  C   UNL A   1      44.922  26.567  37.207  1.00  0.00     0.059 A 
ATOM     69  C   UNL A   1      46.581  27.980  36.136  1.00  0.00     0.059 A 
ATOM     70  F   UNL A   1      45.890  29.734  34.740  1.00  0.00    -0.206 F 
ATOM     71  C   UNL A   1      46.252  26.925  36.985  1.00  0.00     0.060 A 
BRANCH  71  72
ATOM     72  S   UNL A   1      47.548  25.981  37.816  1.00  0.00     0.124 S 
ATOM     73  O   UNL A   1      48.592  26.991  37.963  1.00  0.00    -0.237 OA
ATOM     74  O   UNL A   1      46.889  25.565  39.050  1.00  0.00    -0.237 OA
ATOM     75  O   UNL A   1      47.844  24.906  36.873  1.00  0.00    -0.744 OA
ENDBRANCH  71  72
ENDBRANCH  50  64
BRANCH  51  76
ATOM     76  C   UNL A   1      36.792  33.025  30.895  1.00  0.00     0.058 A 
ATOM     77  C   UNL A   1      35.461  32.733  31.225  1.00  0.00     0.135 A 
ATOM     78  C   UNL A   1      37.022  33.983  29.895  1.00  0.00     0.135 A 
ATOM     79  F   UNL A   1      35.189  31.822  32.172  1.00  0.00    -0.206 F 
ATOM     80  C   UNL A   1      34.396  33.350  30.577  1.00  0.00     0.059 A 
ATOM     81  C   UNL A   1      35.975  34.633  29.249  1.00  0.00     0.059 A 
ATOM     82  F   UNL A   1      38.278  34.312  29.554  1.00  0.00    -0.206 F 
ATOM     83  C   UNL A   1      34.663  34.301  29.590  1.00  0.00     0.060 A 
BRANCH  83  84
ATOM     84  S   UNL A   1      33.275  35.133  28.789  1.00  0.00     0.124 S 
ATOM     85  O   UNL A   1      32.516  35.610  29.940  1.00  0.00    -0.237 OA
ATOM     86  O   UNL A   1      33.946  36.157  27.996  1.00  0.00    -0.237 OA
ATOM     87  O   UNL A   1      32.646  34.065  28.016  1.00  0.00    -0.744 OA
ENDBRANCH  83  84
ENDBRANCH  51  76
BRANCH  63  88
ATOM     88  C   UNL A   1      39.946  34.049  37.032  1.00  0.00     0.058 A 
ATOM     89  C   UNL A   1      40.531  35.322  36.957  1.00  0.00     0.135 A 
ATOM     90  C   UNL A   1      39.124  33.768  38.137  1.00  0.00     0.135 A 
ATOM     91  F   UNL A   1      41.330  35.640  35.926  1.00  0.00    -0.206 F 
ATOM     92  C   UNL A   1      40.330  36.274  37.953  1.00  0.00     0.059 A 
ATOM     93  C   UNL A   1      38.887  34.712  39.130  1.00  0.00     0.059 A 
ATOM     94  F   UNL A   1      38.531  32.569  38.250  1.00  0.00    -0.206 F 
ATOM     95  C   UNL A   1      39.506  35.959  39.036  1.00  0.00     0.060 A 
BRANCH  95  96
ATOM     96  S   UNL A   1      39.228  37.211  40.306  1.00  0.00     0.124 S 
ATOM     97  O   UNL A   1      38.495  38.228  39.560  1.00  0.00    -0.237 OA
ATOM     98  O   UNL A   1      38.458  36.479  41.306  1.00  0.00    -0.237 OA
ATOM     99  O   UNL A   1      40.579  37.584  40.714  1.00  0.00    -0.744 OA
ENDBRANCH  95  96
ENDBRANCH  63  88
ENDBRANCH  37  38
ENDBRANCH  29  32
ENDBRANCH  27  28
ENDBRANCH  26  27
ENDBRANCH  25  26
ENDBRANCH   1  25
TORSDOF 19
ENDMDL
MODEL 2
REMARK VINA RESULT:     -11.6      1.288      2.179
REMARK SMILES C[C@H](CNS(=O)(=O)c1ccc(C(=O)NCCCCNC(=O)c2ccc(-c3c4nc(c(-c5c(F)cc(S(=O)(=O)[O-])cc5F)c5ccc([nH]5)c(-c5c(F)cc(S(=O)(=O)[O-])cc5F)c5nc(c(-c6c(F)cc(S(=O)(=O)[O-])cc6F)c6ccc3[nH]6)C=C5)C=C4)cc2)o1)c1ccccc1
REMARK SMILES IDX 15 1 14 2 12 3 13 4 11 6 8 7 9 8 88 9 10 10 5 11 6 12 7 13
REMARK SMILES IDX 4 14 3 16 2 17 1 18 89 19 90 20 94 21 91 22 93 23 92 24
REMARK SMILES IDX 16 25 17 26 18 27 19 28 20 29 21 31 22 32 23 33 87 34 24 35
REMARK SMILES IDX 86 36 25 37 26 38 27 39 80 40 28 41 85 42 79 43 81 44 29 45
REMARK SMILES IDX 84 46 78 47 77 48 30 50 64 51 43 52 63 53 44 54 47 55 62 56
REMARK SMILES IDX 82 57 45 58 46 59 61 61 83 62 48 63 31 64 32 65 41 66 33 67
REMARK SMILES IDX 34 68 40 69 42 70 35 71 36 72 37 73 38 74 39 75 65 76 66 77
REMARK SMILES IDX 75 78 67 79 68 80 74 81 76 82 69 83 70 84 71 85 72 86 73 87
REMARK SMILES IDX 49 88 50 89 59 90 51 91 52 92 58 93 60 94 53 95 54 96 55 97
REMARK SMILES IDX 56 98 57 99
REMARK H PARENT 14 5 4 15 19 30 81 49 47 60
REMARK Flexibility Score: inf
ROOT
ATOM      1  C   UNL A   1      35.509  22.981  25.116  1.00  0.00     0.116 C 
ENDROOT
BRANCH   1   2
ATOM      2  N   UNL A   1      34.934  22.826  23.795  1.00  0.00    -0.349 N 
ATOM      3  C   UNL A   1      33.622  22.893  23.380  1.00  0.00     0.287 C 
ATOM      4  O   UNL A   1      33.441  22.884  22.160  1.00  0.00    -0.266 OA
ATOM      5  H   UNL A   1      35.586  22.645  23.080  1.00  0.00     0.163 HD
BRANCH   3   6
ATOM      6  C   UNL A   1      32.531  22.966  24.338  1.00  0.00     0.193 A 
ATOM      7  C   UNL A   1      30.938  24.078  25.462  1.00  0.00     0.234 A 
ATOM      8  C   UNL A   1      30.826  22.733  25.784  1.00  0.00     0.065 A 
ATOM      9  O   UNL A   1      31.987  24.207  24.579  1.00  0.00    -0.438 OA
ATOM     10  C   UNL A   1      31.831  22.037  25.083  1.00  0.00     0.058 A 
BRANCH   7  11
ATOM     11  S   UNL A   1      29.946  25.465  26.013  1.00  0.00     0.274 S 
ATOM     12  O   UNL A   1      28.986  24.891  26.936  1.00  0.00    -0.204 OA
ATOM     13  O   UNL A   1      29.531  26.199  24.845  1.00  0.00    -0.204 OA
BRANCH  11  14
ATOM     14  N   UNL A   1      30.924  26.507  26.935  1.00  0.00    -0.208 NA
ATOM     15  H   UNL A   1      30.350  26.889  27.686  1.00  0.00     0.141 HD
BRANCH  14  16
ATOM     16  C   UNL A   1      31.536  27.646  26.213  1.00  0.00     0.107 C 
BRANCH  16  17
ATOM     17  C   UNL A   1      33.079  27.640  26.239  1.00  0.00     0.031 C 
ATOM     18  C   UNL A   1      33.723  27.212  24.918  1.00  0.00     0.014 C 
BRANCH  17  19
ATOM     19  C   UNL A   1      33.665  28.936  26.779  1.00  0.00    -0.044 A 
ATOM     20  C   UNL A   1      35.003  29.053  27.177  1.00  0.00     0.004 A 
ATOM     21  C   UNL A   1      32.835  30.066  26.887  1.00  0.00     0.004 A 
ATOM     22  C   UNL A   1      35.498  30.268  27.658  1.00  0.00     0.000 A 
ATOM     23  C   UNL A   1      33.328  31.276  27.379  1.00  0.00     0.000 A 
ATOM     24  C   UNL A   1      34.661  31.378  27.761  1.00  0.00     0.000 A 
ENDBRANCH  17  19
ENDBRANCH  16  17
ENDBRANCH  14  16
ENDBRANCH  11  14
ENDBRANCH   7  11
ENDBRANCH   3   6
ENDBRANCH   1   2
BRANCH   1  25
ATOM     25  C   UNL A   1      36.858  23.700  25.075  1.00  0.00     0.023 C 
BRANCH  25  26
ATOM     26  C   UNL A   1      37.978  23.009  25.855  1.00  0.00     0.023 C 
BRANCH  26  27
ATOM     27  C   UNL A   1      38.886  23.938  26.655  1.00  0.00     0.116 C 
BRANCH  27  28
ATOM     28  N   UNL A   1      40.278  23.897  26.234  1.00  0.00    -0.352 N 
ATOM     29  C   UNL A   1      41.301  24.748  26.582  1.00  0.00     0.251 C 
ATOM     30  H   UNL A   1      40.519  23.165  25.620  1.00  0.00     0.163 HD
ATOM     31  O   UNL A   1      42.404  24.630  26.057  1.00  0.00    -0.269 OA
BRANCH  29  32
ATOM     32  C   UNL A   1      41.044  25.828  27.559  1.00  0.00     0.039 A 
ATOM     33  C   UNL A   1      40.003  25.672  28.477  1.00  0.00     0.014 A 
ATOM     34  C   UNL A   1      41.852  26.966  27.593  1.00  0.00     0.014 A 
ATOM     35  C   UNL A   1      39.816  26.630  29.475  1.00  0.00     0.010 A 
ATOM     36  C   UNL A   1      41.710  27.883  28.630  1.00  0.00     0.010 A 
ATOM     37  C   UNL A   1      40.692  27.724  29.583  1.00  0.00    -0.014 A 
BRANCH  37  38
ATOM     38  C   UNL A   1      40.564  28.704  30.692  1.00  0.00     0.031 A 
ATOM     39  C   UNL A   1      41.420  28.571  31.922  1.00  0.00     0.074 A 
ATOM     40  C   UNL A   1      39.631  29.674  30.616  1.00  0.00     0.049 A 
ATOM     41  N   UNL A   1      41.413  29.293  33.013  1.00  0.00    -0.248 NA
ATOM     42  C   UNL A   1      42.390  27.465  31.941  1.00  0.00     0.031 C 
ATOM     43  C   UNL A   1      38.701  29.869  29.501  1.00  0.00     0.029 A 
ATOM     44  N   UNL A   1      39.302  30.672  31.499  1.00  0.00    -0.354 N 
ATOM     45  C   UNL A   1      42.363  28.721  33.851  1.00  0.00     0.074 A 
ATOM     46  C   UNL A   1      42.889  27.561  33.164  1.00  0.00     0.031 C 
ATOM     47  C   UNL A   1      37.922  30.932  29.758  1.00  0.00     0.029 A 
ATOM     48  C   UNL A   1      38.273  31.476  31.066  1.00  0.00     0.049 A 
ATOM     49  H   UNL A   1      39.759  30.801  32.362  1.00  0.00     0.167 HD
ATOM     50  C   UNL A   1      42.778  29.139  35.071  1.00  0.00     0.037 A 
ATOM     51  C   UNL A   1      37.677  32.529  31.658  1.00  0.00     0.037 A 
ATOM     52  C   UNL A   1      42.271  30.312  35.736  1.00  0.00     0.049 A 
ATOM     53  C   UNL A   1      38.167  32.985  33.005  1.00  0.00     0.074 A 
ATOM     54  C   UNL A   1      42.671  30.856  36.943  1.00  0.00     0.029 A 
ATOM     55  N   UNL A   1      41.252  31.119  35.251  1.00  0.00    -0.354 N 
ATOM     56  N   UNL A   1      39.119  32.476  33.752  1.00  0.00    -0.248 NA
ATOM     57  C   UNL A   1      37.512  34.164  33.588  1.00  0.00     0.031 C 
ATOM     58  C   UNL A   1      41.868  31.970  37.208  1.00  0.00     0.029 A 
ATOM     59  C   UNL A   1      40.999  32.148  36.143  1.00  0.00     0.049 A 
ATOM     60  H   UNL A   1      40.779  30.981  34.399  1.00  0.00     0.167 HD
ATOM     61  C   UNL A   1      39.192  33.287  34.879  1.00  0.00     0.074 A 
ATOM     62  C   UNL A   1      38.199  34.328  34.710  1.00  0.00     0.031 C 
ATOM     63  C   UNL A   1      40.010  33.181  35.956  1.00  0.00     0.037 A 
BRANCH  50  64
ATOM     64  C   UNL A   1      43.840  28.329  35.762  1.00  0.00     0.058 A 
ATOM     65  C   UNL A   1      45.206  28.562  35.538  1.00  0.00     0.135 A 
ATOM     66  C   UNL A   1      43.489  27.331  36.686  1.00  0.00     0.135 A 
ATOM     67  F   UNL A   1      45.597  29.493  34.653  1.00  0.00    -0.206 F 
ATOM     68  C   UNL A   1      46.187  27.814  36.181  1.00  0.00     0.059 A 
ATOM     69  C   UNL A   1      44.455  26.590  37.363  1.00  0.00     0.059 A 
ATOM     70  F   UNL A   1      42.198  27.066  36.938  1.00  0.00    -0.206 F 
ATOM     71  C   UNL A   1      45.801  26.830  37.092  1.00  0.00     0.060 A 
BRANCH  71  72
ATOM     72  S   UNL A   1      47.087  25.873  37.923  1.00  0.00     0.124 S 
ATOM     73  O   UNL A   1      46.805  26.167  39.325  1.00  0.00    -0.237 OA
ATOM     74  O   UNL A   1      46.793  24.511  37.490  1.00  0.00    -0.237 OA
ATOM     75  O   UNL A   1      48.325  26.441  37.400  1.00  0.00    -0.744 OA
ENDBRANCH  71  72
ENDBRANCH  50  64
BRANCH  51  76
ATOM     76  C   UNL A   1      36.570  33.243  30.967  1.00  0.00     0.058 A 
ATOM     77  C   UNL A   1      35.239  33.075  31.372  1.00  0.00     0.135 A 
ATOM     78  C   UNL A   1      36.823  34.116  29.897  1.00  0.00     0.135 A 
ATOM     79  F   UNL A   1      34.946  32.248  32.387  1.00  0.00    -0.206 F 
ATOM     80  C   UNL A   1      34.193  33.731  30.732  1.00  0.00     0.059 A 
ATOM     81  C   UNL A   1      35.797  34.803  29.256  1.00  0.00     0.059 A 
ATOM     82  F   UNL A   1      38.082  34.325  29.482  1.00  0.00    -0.206 F 
ATOM     83  C   UNL A   1      34.482  34.596  29.674  1.00  0.00     0.060 A 
BRANCH  83  84
ATOM     84  S   UNL A   1      33.123  35.480  28.882  1.00  0.00     0.124 S 
ATOM     85  O   UNL A   1      32.439  34.400  28.180  1.00  0.00    -0.237 OA
ATOM     86  O   UNL A   1      32.417  36.048  30.026  1.00  0.00    -0.237 OA
ATOM     87  O   UNL A   1      33.806  36.452  28.032  1.00  0.00    -0.744 OA
ENDBRANCH  83  84
ENDBRANCH  51  76
BRANCH  63  88
ATOM     88  C   UNL A   1      39.889  34.234  37.022  1.00  0.00     0.058 A 
ATOM     89  C   UNL A   1      40.493  35.493  36.886  1.00  0.00     0.135 A 
ATOM     90  C   UNL A   1      39.118  33.995  38.172  1.00  0.00     0.135 A 
ATOM     91  F   UNL A   1      41.245  35.770  35.810  1.00  0.00    -0.206 F 
ATOM     92  C   UNL A   1      40.357  36.473  37.866  1.00  0.00     0.059 A 
ATOM     93  C   UNL A   1      38.947  34.968  39.151  1.00  0.00     0.059 A 
ATOM     94  F   UNL A   1      38.511  32.811  38.345  1.00  0.00    -0.206 F 
ATOM     95  C   UNL A   1      39.581  36.200  38.995  1.00  0.00     0.060 A 
BRANCH  95  96
ATOM     96  S   UNL A   1      39.388  37.489  40.244  1.00  0.00     0.124 S 
ATOM     97  O   UNL A   1      38.714  36.761  41.314  1.00  0.00    -0.237 OA
ATOM     98  O   UNL A   1      40.770  37.875  40.513  1.00  0.00    -0.237 OA
ATOM     99  O   UNL A   1      38.583  38.500  39.567  1.00  0.00    -0.744 OA
ENDBRANCH  95  96
ENDBRANCH  63  88
ENDBRANCH  37  38
ENDBRANCH  29  32
ENDBRANCH  27  28
ENDBRANCH  26  27
ENDBRANCH  25  26
ENDBRANCH   1  25
TORSDOF 19
ENDMDL
MODEL 3
REMARK VINA RESULT:     -11.6      1.810      3.158
REMARK SMILES C[C@H](CNS(=O)(=O)c1ccc(C(=O)NCCCCNC(=O)c2ccc(-c3c4nc(c(-c5c(F)cc(S(=O)(=O)[O-])cc5F)c5ccc([nH]5)c(-c5c(F)cc(S(=O)(=O)[O-])cc5F)c5nc(c(-c6c(F)cc(S(=O)(=O)[O-])cc6F)c6ccc3[nH]6)C=C5)C=C4)cc2)o1)c1ccccc1
REMARK SMILES IDX 15 1 14 2 12 3 13 4 11 6 8 7 9 8 88 9 10 10 5 11 6 12 7 13
REMARK SMILES IDX 4 14 3 16 2 17 1 18 89 19 90 20 94 21 91 22 93 23 92 24
REMARK SMILES IDX 16 25 17 26 18 27 19 28 20 29 21 31 22 32 23 33 87 34 24 35
REMARK SMILES IDX 86 36 25 37 26 38 27 39 80 40 28 41 85 42 79 43 81 44 29 45
REMARK SMILES IDX 84 46 78 47 77 48 30 50 64 51 43 52 63 53 44 54 47 55 62 56
REMARK SMILES IDX 82 57 45 58 46 59 61 61 83 62 48 63 31 64 32 65 41 66 33 67
REMARK SMILES IDX 34 68 40 69 42 70 35 71 36 72 37 73 38 74 39 75 65 76 66 77
REMARK SMILES IDX 75 78 67 79 68 80 74 81 76 82 69 83 70 84 71 85 72 86 73 87
REMARK SMILES IDX 49 88 50 89 59 90 51 91 52 92 58 93 60 94 53 95 54 96 55 97
REMARK SMILES IDX 56 98 57 99
REMARK H PARENT 14 5 4 15 19 30 81 49 47 60
REMARK Flexibility Score: inf
ROOT
ATOM      1  C   UNL A   1      37.701  21.903  25.768  1.00  0.00     0.116 C 
ENDROOT
BRANCH   1   2
ATOM      2  N   UNL A   1      37.408  22.108  24.365  1.00  0.00    -0.349 N 
ATOM      3  C   UNL A   1      36.443  22.882  23.758  1.00  0.00     0.287 C 
ATOM      4  O   UNL A   1      36.532  22.994  22.533  1.00  0.00    -0.266 OA
ATOM      5  H   UNL A   1      37.993  21.615  23.745  1.00  0.00     0.163 HD
BRANCH   3   6
ATOM      6  C   UNL A   1      35.390  23.518  24.534  1.00  0.00     0.193 A 
ATOM      7  C   UNL A   1      33.298  23.625  25.340  1.00  0.00     0.234 A 
ATOM      8  C   UNL A   1      34.019  24.677  25.887  1.00  0.00     0.065 A 
ATOM      9  O   UNL A   1      34.148  22.926  24.511  1.00  0.00    -0.438 OA
ATOM     10  C   UNL A   1      35.331  24.612  25.374  1.00  0.00     0.058 A 
BRANCH   7  11
ATOM     11  S   UNL A   1      31.589  23.158  25.608  1.00  0.00     0.274 S 
ATOM     12  O   UNL A   1      30.944  23.358  24.325  1.00  0.00    -0.204 OA
ATOM     13  O   UNL A   1      31.133  23.828  26.800  1.00  0.00    -0.204 OA
BRANCH  11  14
ATOM     14  N   UNL A   1      31.518  21.487  25.917  1.00  0.00    -0.208 NA
ATOM     15  H   UNL A   1      31.526  21.358  26.929  1.00  0.00     0.141 HD
BRANCH  14  16
ATOM     16  C   UNL A   1      32.612  20.666  25.350  1.00  0.00     0.107 C 
BRANCH  16  17
ATOM     17  C   UNL A   1      32.142  19.662  24.276  1.00  0.00     0.031 C 
ATOM     18  C   UNL A   1      32.267  20.181  22.841  1.00  0.00     0.014 C 
BRANCH  17  19
ATOM     19  C   UNL A   1      32.755  18.281  24.451  1.00  0.00    -0.044 A 
ATOM     20  C   UNL A   1      32.542  17.499  25.594  1.00  0.00     0.004 A 
ATOM     21  C   UNL A   1      33.570  17.763  23.430  1.00  0.00     0.004 A 
ATOM     22  C   UNL A   1      33.119  16.231  25.706  1.00  0.00     0.000 A 
ATOM     23  C   UNL A   1      34.155  16.501  23.547  1.00  0.00     0.000 A 
ATOM     24  C   UNL A   1      33.927  15.734  24.684  1.00  0.00     0.000 A 
ENDBRANCH  17  19
ENDBRANCH  16  17
ENDBRANCH  14  16
ENDBRANCH  11  14
ENDBRANCH   7  11
ENDBRANCH   3   6
ENDBRANCH   1   2
BRANCH   1  25
ATOM     25  C   UNL A   1      39.205  21.853  26.040  1.00  0.00     0.023 C 
BRANCH  25  26
ATOM     26  C   UNL A   1      39.663  22.636  27.271  1.00  0.00     0.023 C 
BRANCH  26  27
ATOM     27  C   UNL A   1      41.095  23.158  27.219  1.00  0.00     0.116 C 
BRANCH  27  28
ATOM     28  N   UNL A   1      41.368  23.996  26.062  1.00  0.00    -0.352 N 
ATOM     29  C   UNL A   1      41.465  25.366  26.003  1.00  0.00     0.251 C 
ATOM     30  H   UNL A   1      41.502  23.519  25.210  1.00  0.00     0.163 HD
ATOM     31  O   UNL A   1      41.604  25.927  24.919  1.00  0.00    -0.269 OA
BRANCH  29  32
ATOM     32  C   UNL A   1      41.354  26.155  27.249  1.00  0.00     0.039 A 
ATOM     33  C   UNL A   1      42.425  26.969  27.627  1.00  0.00     0.014 A 
ATOM     34  C   UNL A   1      40.188  26.121  28.015  1.00  0.00     0.014 A 
ATOM     35  C   UNL A   1      42.296  27.803  28.739  1.00  0.00     0.010 A 
ATOM     36  C   UNL A   1      40.035  27.003  29.080  1.00  0.00     0.010 A 
ATOM     37  C   UNL A   1      41.086  27.855  29.451  1.00  0.00    -0.014 A 
BRANCH  37  38
ATOM     38  C   UNL A   1      40.900  28.801  30.582  1.00  0.00     0.031 A 
ATOM     39  C   UNL A   1      41.745  28.675  31.820  1.00  0.00     0.074 A 
ATOM     40  C   UNL A   1      39.926  29.730  30.516  1.00  0.00     0.049 A 
ATOM     41  N   UNL A   1      41.691  29.368  32.928  1.00  0.00    -0.248 NA
ATOM     42  C   UNL A   1      42.763  27.613  31.825  1.00  0.00     0.031 C 
ATOM     43  C   UNL A   1      39.002  29.911  29.394  1.00  0.00     0.029 A 
ATOM     44  N   UNL A   1      39.541  30.690  31.419  1.00  0.00    -0.354 N 
ATOM     45  C   UNL A   1      42.656  28.819  33.765  1.00  0.00     0.074 A 
ATOM     46  C   UNL A   1      43.242  27.700  33.058  1.00  0.00     0.031 C 
ATOM     47  C   UNL A   1      38.174  30.933  29.665  1.00  0.00     0.029 A 
ATOM     48  C   UNL A   1      38.484  31.459  30.991  1.00  0.00     0.049 A 
ATOM     49  H   UNL A   1      39.981  30.817  32.291  1.00  0.00     0.167 HD
ATOM     50  C   UNL A   1      43.035  29.224  35.001  1.00  0.00     0.037 A 
ATOM     51  C   UNL A   1      37.833  32.469  31.600  1.00  0.00     0.037 A 
ATOM     52  C   UNL A   1      42.468  30.356  35.687  1.00  0.00     0.049 A 
ATOM     53  C   UNL A   1      38.285  32.913  32.965  1.00  0.00     0.074 A 
ATOM     54  C   UNL A   1      42.828  30.887  36.912  1.00  0.00     0.029 A 
ATOM     55  N   UNL A   1      41.421  31.129  35.207  1.00  0.00    -0.354 N 
ATOM     56  N   UNL A   1      39.249  32.427  33.712  1.00  0.00    -0.248 NA
ATOM     57  C   UNL A   1      37.570  34.047  33.567  1.00  0.00     0.031 C 
ATOM     58  C   UNL A   1      41.972  31.957  37.193  1.00  0.00     0.029 A 
ATOM     59  C   UNL A   1      41.110  32.123  36.121  1.00  0.00     0.049 A 
ATOM     60  H   UNL A   1      40.965  30.992  34.346  1.00  0.00     0.167 HD
ATOM     61  C   UNL A   1      39.272  33.212  34.860  1.00  0.00     0.074 A 
ATOM     62  C   UNL A   1      38.236  34.212  34.702  1.00  0.00     0.031 C 
ATOM     63  C   UNL A   1      40.079  33.115  35.946  1.00  0.00     0.037 A 
BRANCH  50  64
ATOM     64  C   UNL A   1      44.123  28.444  35.687  1.00  0.00     0.058 A 
ATOM     65  C   UNL A   1      43.831  27.377  36.551  1.00  0.00     0.135 A 
ATOM     66  C   UNL A   1      45.475  28.743  35.450  1.00  0.00     0.135 A 
ATOM     67  F   UNL A   1      42.556  27.058  36.826  1.00  0.00    -0.206 F 
ATOM     68  C   UNL A   1      44.839  26.654  37.182  1.00  0.00     0.059 A 
ATOM     69  C   UNL A   1      46.500  28.014  36.048  1.00  0.00     0.059 A 
ATOM     70  F   UNL A   1      45.812  29.753  34.633  1.00  0.00    -0.206 F 
ATOM     71  C   UNL A   1      46.170  26.981  36.924  1.00  0.00     0.060 A 
BRANCH  71  72
ATOM     72  S   UNL A   1      47.466  26.028  37.744  1.00  0.00     0.124 S 
ATOM     73  O   UNL A   1      48.516  26.034  36.729  1.00  0.00    -0.237 OA
ATOM     74  O   UNL A   1      47.733  26.825  38.936  1.00  0.00    -0.237 OA
ATOM     75  O   UNL A   1      46.835  24.734  37.986  1.00  0.00    -0.744 OA
ENDBRANCH  71  72
ENDBRANCH  50  64
BRANCH  51  76
ATOM     76  C   UNL A   1      36.705  33.150  30.911  1.00  0.00     0.058 A 
ATOM     77  C   UNL A   1      35.374  32.861  31.245  1.00  0.00     0.135 A 
ATOM     78  C   UNL A   1      36.935  34.113  29.916  1.00  0.00     0.135 A 
ATOM     79  F   UNL A   1      35.104  31.945  32.188  1.00  0.00    -0.206 F 
ATOM     80  C   UNL A   1      34.309  33.485  30.606  1.00  0.00     0.059 A 
ATOM     81  C   UNL A   1      35.886  34.770  29.278  1.00  0.00     0.059 A 
ATOM     82  F   UNL A   1      38.190  34.439  29.571  1.00  0.00    -0.206 F 
ATOM     83  C   UNL A   1      34.575  34.441  29.623  1.00  0.00     0.060 A 
BRANCH  83  84
ATOM     84  S   UNL A   1      33.187  35.282  28.833  1.00  0.00     0.124 S 
ATOM     85  O   UNL A   1      33.870  36.300  28.044  1.00  0.00    -0.237 OA
ATOM     86  O   UNL A   1      32.561  34.201  28.079  1.00  0.00    -0.237 OA
ATOM     87  O   UNL A   1      32.408  35.777  29.965  1.00  0.00    -0.744 OA
ENDBRANCH  83  84
ENDBRANCH  51  76
BRANCH  63  88
ATOM     88  C   UNL A   1      39.898  34.135  37.035  1.00  0.00     0.058 A 
ATOM     89  C   UNL A   1      40.450  35.422  36.940  1.00  0.00     0.135 A 
ATOM     90  C   UNL A   1      39.119  33.835  38.166  1.00  0.00     0.135 A 
ATOM     91  F   UNL A   1      41.206  35.757  35.884  1.00  0.00    -0.206 F 
ATOM     92  C   UNL A   1      40.258  36.369  37.941  1.00  0.00     0.059 A 
ATOM     93  C   UNL A   1      38.892  34.775  39.165  1.00  0.00     0.059 A 
ATOM     94  F   UNL A   1      38.559  32.623  38.299  1.00  0.00    -0.206 F 
ATOM     95  C   UNL A   1      39.477  36.036  39.051  1.00  0.00     0.060 A 
BRANCH  95  96
ATOM     96  S   UNL A   1      39.211  37.283  40.328  1.00  0.00     0.124 S 
ATOM     97  O   UNL A   1      40.574  37.732  40.589  1.00  0.00    -0.237 OA
ATOM     98  O   UNL A   1      38.344  38.244  39.653  1.00  0.00    -0.237 OA
ATOM     99  O   UNL A   1      38.579  36.532  41.409  1.00  0.00    -0.744 OA
ENDBRANCH  95  96
ENDBRANCH  63  88
ENDBRANCH  37  38
ENDBRANCH  29  32
ENDBRANCH  27  28
ENDBRANCH  26  27
ENDBRANCH  25  26
ENDBRANCH   1  25
TORSDOF 19
ENDMDL
