MODEL 1
REMARK VINA RESULT:     -12.0      0.000      0.000
REMARK SMILES Cc1sc2[nH]c(SCC(=O)NCCCCNC(=O)c3ccc(-c4c5nc(c(-c6c(F)cc(S(=O)(=O)[O-])cc6F)c6ccc([nH]6)c(-c6c(F)cc(S(=O)(=O)[O-])cc6F)c6nc(c(-c7c(F)cc(S(=O)(=O)[O-])cc7F)c7ccc4[nH]7)C=C6)C=C5)cc3)nc(=O)c2c1C
REMARK SMILES IDX 14 1 13 2 12 3 11 4 9 5 10 6 8 8 7 9 6 10 1 11 2 12 3 13
REMARK SMILES IDX 89 14 4 15 88 16 90 17 5 18 86 19 85 21 87 22 15 23 16 24
REMARK SMILES IDX 17 25 18 27 19 28 20 29 84 30 21 31 83 32 22 33 23 34 24 35
REMARK SMILES IDX 77 36 25 37 82 38 76 39 78 40 26 41 81 42 75 43 74 44 27 46
REMARK SMILES IDX 61 47 40 48 60 49 41 50 44 51 59 52 79 53 42 54 43 55 58 57
REMARK SMILES IDX 80 58 45 59 28 60 29 61 38 62 30 63 31 64 37 65 39 66 32 67
REMARK SMILES IDX 33 68 34 69 35 70 36 71 62 72 63 73 72 74 64 75 65 76 71 77
REMARK SMILES IDX 73 78 66 79 67 80 68 81 69 82 70 83 46 84 47 85 56 86 48 87
REMARK SMILES IDX 49 88 55 89 57 90 50 91 51 92 52 93 53 94 54 95
REMARK H PARENT 11 7 5 20 16 26 78 45 44 56
REMARK Flexibility Score: inf
ROOT
ATOM      1  C   UNL A   1      37.428  20.816  24.991  1.00  0.00     0.023 C 
ENDROOT
BRANCH   1   2
ATOM      2  C   UNL A   1      35.980  21.204  24.629  1.00  0.00     0.023 C 
BRANCH   2   3
ATOM      3  C   UNL A   1      34.995  21.165  25.798  1.00  0.00     0.116 C 
BRANCH   3   4
ATOM      4  N   UNL A   1      34.020  20.105  25.625  1.00  0.00    -0.355 N 
ATOM      5  C   UNL A   1      32.714  20.148  25.240  1.00  0.00     0.230 C 
ATOM      6  O   UNL A   1      32.124  19.070  25.129  1.00  0.00    -0.274 OA
ATOM      7  H   UNL A   1      34.361  19.201  25.821  1.00  0.00     0.163 HD
BRANCH   5   8
ATOM      8  C   UNL A   1      32.045  21.450  24.841  1.00  0.00     0.178 C 
BRANCH   8   9
ATOM      9  S   UNL A   1      32.291  21.936  23.116  1.00  0.00    -0.078 SA
BRANCH   9  10
ATOM     10  C   UNL A   1      32.550  23.659  23.225  1.00  0.00     0.170 A 
ATOM     11  C   UNL A   1      32.127  29.070  26.166  1.00  0.00     0.057 C 
ATOM     12  C   UNL A   1      32.288  27.828  25.351  1.00  0.00     0.007 A 
ATOM     13  S   UNL A   1      31.676  26.346  25.960  1.00  0.00    -0.122 S 
ATOM     14  C   UNL A   1      32.878  27.678  24.100  1.00  0.00    -0.022 A 
ATOM     15  C   UNL A   1      32.198  25.508  24.594  1.00  0.00     0.108 A 
ATOM     16  C   UNL A   1      32.832  26.299  23.670  1.00  0.00     0.080 A 
ATOM     17  C   UNL A   1      33.483  28.783  23.292  1.00  0.00     0.046 C 
ATOM     18  N   UNL A   1      32.046  24.195  24.375  1.00  0.00    -0.326 N 
ATOM     19  C   UNL A   1      33.352  25.680  22.433  1.00  0.00     0.282 A 
ATOM     20  H   UNL A   1      31.579  23.629  25.031  1.00  0.00     0.169 HD
ATOM     21  N   UNL A   1      33.177  24.306  22.304  1.00  0.00    -0.185 NA
ATOM     22  O   UNL A   1      33.923  26.350  21.590  1.00  0.00    -0.267 OA
ENDBRANCH   9  10
ENDBRANCH   8   9
ENDBRANCH   5   8
ENDBRANCH   3   4
ENDBRANCH   2   3
ENDBRANCH   1   2
BRANCH   1  23
ATOM     23  C   UNL A   1      38.284  21.938  25.602  1.00  0.00     0.116 C 
BRANCH  23  24
ATOM     24  N   UNL A   1      39.252  21.385  26.531  1.00  0.00    -0.352 N 
ATOM     25  C   UNL A   1      40.400  21.918  27.048  1.00  0.00     0.251 C 
ATOM     26  H   UNL A   1      39.048  20.474  26.843  1.00  0.00     0.163 HD
ATOM     27  O   UNL A   1      41.260  21.141  27.462  1.00  0.00    -0.269 OA
BRANCH  25  28
ATOM     28  C   UNL A   1      40.622  23.375  27.167  1.00  0.00     0.039 A 
ATOM     29  C   UNL A   1      41.805  23.893  26.628  1.00  0.00     0.014 A 
ATOM     30  C   UNL A   1      39.807  24.186  27.963  1.00  0.00     0.014 A 
ATOM     31  C   UNL A   1      42.174  25.211  26.886  1.00  0.00     0.010 A 
ATOM     32  C   UNL A   1      40.183  25.510  28.223  1.00  0.00     0.010 A 
ATOM     33  C   UNL A   1      41.371  26.030  27.692  1.00  0.00    -0.014 A 
BRANCH  33  34
ATOM     34  C   UNL A   1      41.806  27.436  27.870  1.00  0.00     0.031 A 
ATOM     35  C   UNL A   1      40.711  28.466  27.835  1.00  0.00     0.074 A 
ATOM     36  C   UNL A   1      42.892  27.696  28.632  1.00  0.00     0.049 A 
ATOM     37  N   UNL A   1      39.907  28.723  28.826  1.00  0.00    -0.248 NA
ATOM     38  C   UNL A   1      40.297  29.091  26.576  1.00  0.00     0.031 C 
ATOM     39  C   UNL A   1      43.170  27.063  29.927  1.00  0.00     0.029 A 
ATOM     40  N   UNL A   1      43.855  28.675  28.516  1.00  0.00    -0.354 N 
ATOM     41  C   UNL A   1      38.885  29.530  28.341  1.00  0.00     0.074 A 
ATOM     42  C   UNL A   1      39.161  29.711  26.933  1.00  0.00     0.031 C 
ATOM     43  C   UNL A   1      44.122  27.777  30.561  1.00  0.00     0.029 A 
ATOM     44  C   UNL A   1      44.590  28.853  29.689  1.00  0.00     0.049 A 
ATOM     45  H   UNL A   1      44.009  29.193  27.693  1.00  0.00     0.167 HD
ATOM     46  C   UNL A   1      37.894  30.029  29.129  1.00  0.00     0.037 A 
ATOM     47  C   UNL A   1      45.057  30.062  30.117  1.00  0.00     0.037 A 
ATOM     48  C   UNL A   1      38.044  29.750  30.527  1.00  0.00     0.049 A 
ATOM     49  C   UNL A   1      43.791  30.643  30.707  1.00  0.00     0.074 A 
ATOM     50  C   UNL A   1      37.547  28.877  31.467  1.00  0.00     0.029 A 
ATOM     51  N   UNL A   1      38.945  30.525  31.216  1.00  0.00    -0.354 N 
ATOM     52  N   UNL A   1      43.262  30.313  31.857  1.00  0.00    -0.248 NA
ATOM     53  C   UNL A   1      42.870  31.314  29.787  1.00  0.00     0.031 C 
ATOM     54  C   UNL A   1      38.516  28.871  32.523  1.00  0.00     0.029 A 
ATOM     55  C   UNL A   1      39.553  29.723  32.143  1.00  0.00     0.049 A 
ATOM     56  H   UNL A   1      39.120  31.483  31.070  1.00  0.00     0.167 HD
ATOM     57  C   UNL A   1      41.880  30.453  31.685  1.00  0.00     0.074 A 
ATOM     58  C   UNL A   1      41.711  31.101  30.400  1.00  0.00     0.031 C 
ATOM     59  C   UNL A   1      40.949  29.868  32.496  1.00  0.00     0.037 A 
BRANCH  46  60
ATOM     60  C   UNL A   1      36.862  31.012  28.716  1.00  0.00     0.058 A 
ATOM     61  C   UNL A   1      37.186  32.376  28.814  1.00  0.00     0.135 A 
ATOM     62  C   UNL A   1      35.522  30.673  28.490  1.00  0.00     0.135 A 
ATOM     63  F   UNL A   1      38.460  32.748  29.029  1.00  0.00    -0.206 F 
ATOM     64  C   UNL A   1      36.217  33.367  28.763  1.00  0.00     0.059 A 
ATOM     65  C   UNL A   1      34.530  31.655  28.416  1.00  0.00     0.059 A 
ATOM     66  F   UNL A   1      35.155  29.386  28.396  1.00  0.00    -0.206 F 
ATOM     67  C   UNL A   1      34.886  32.997  28.585  1.00  0.00     0.060 A 
BRANCH  67  68
ATOM     68  S   UNL A   1      33.639  34.304  28.623  1.00  0.00     0.124 S 
ATOM     69  O   UNL A   1      33.338  34.392  30.049  1.00  0.00    -0.237 OA
ATOM     70  O   UNL A   1      34.371  35.434  28.058  1.00  0.00    -0.237 OA
ATOM     71  O   UNL A   1      32.567  33.775  27.787  1.00  0.00    -0.744 OA
ENDBRANCH  67  68
ENDBRANCH  46  60
BRANCH  47  72
ATOM     72  C   UNL A   1      45.961  30.770  29.153  1.00  0.00     0.058 A 
ATOM     73  C   UNL A   1      46.843  31.739  29.682  1.00  0.00     0.135 A 
ATOM     74  C   UNL A   1      46.060  30.539  27.773  1.00  0.00     0.135 A 
ATOM     75  F   UNL A   1      46.725  32.136  30.959  1.00  0.00    -0.206 F 
ATOM     76  C   UNL A   1      47.884  32.286  28.940  1.00  0.00     0.059 A 
ATOM     77  C   UNL A   1      47.109  31.060  27.010  1.00  0.00     0.059 A 
ATOM     78  F   UNL A   1      45.165  29.776  27.132  1.00  0.00    -0.206 F 
ATOM     79  C   UNL A   1      48.046  31.891  27.618  1.00  0.00     0.060 A 
BRANCH  79  80
ATOM     80  S   UNL A   1      49.540  32.414  26.752  1.00  0.00     0.124 S 
ATOM     81  O   UNL A   1      48.996  33.189  25.643  1.00  0.00    -0.237 OA
ATOM     82  O   UNL A   1      50.224  33.180  27.790  1.00  0.00    -0.237 OA
ATOM     83  O   UNL A   1      50.179  31.154  26.386  1.00  0.00    -0.744 OA
ENDBRANCH  79  80
ENDBRANCH  47  72
BRANCH  59  84
ATOM     84  C   UNL A   1      41.473  29.170  33.707  1.00  0.00     0.058 A 
ATOM     85  C   UNL A   1      41.769  27.802  33.660  1.00  0.00     0.135 A 
ATOM     86  C   UNL A   1      41.766  29.864  34.895  1.00  0.00     0.135 A 
ATOM     87  F   UNL A   1      41.523  27.092  32.547  1.00  0.00    -0.206 F 
ATOM     88  C   UNL A   1      42.368  27.153  34.734  1.00  0.00     0.059 A 
ATOM     89  C   UNL A   1      42.394  29.241  35.970  1.00  0.00     0.059 A 
ATOM     90  F   UNL A   1      41.484  31.172  35.014  1.00  0.00    -0.206 F 
ATOM     91  C   UNL A   1      42.698  27.884  35.876  1.00  0.00     0.060 A 
BRANCH  91  92
ATOM     92  S   UNL A   1      43.607  27.054  37.194  1.00  0.00     0.124 S 
ATOM     93  O   UNL A   1      42.540  26.365  37.914  1.00  0.00    -0.237 OA
ATOM     94  O   UNL A   1      44.521  26.196  36.447  1.00  0.00    -0.237 OA
ATOM     95  O   UNL A   1      44.243  28.150  37.919  1.00  0.00    -0.744 OA
ENDBRANCH  91  92
ENDBRANCH  59  84
ENDBRANCH  33  34
ENDBRANCH  25  28
ENDBRANCH  23  24
ENDBRANCH   1  23
TORSDOF 16
ENDMDL
MODEL 2
REMARK VINA RESULT:     -11.6      1.119      1.907
REMARK SMILES Cc1sc2[nH]c(SCC(=O)NCCCCNC(=O)c3ccc(-c4c5nc(c(-c6c(F)cc(S(=O)(=O)[O-])cc6F)c6ccc([nH]6)c(-c6c(F)cc(S(=O)(=O)[O-])cc6F)c6nc(c(-c7c(F)cc(S(=O)(=O)[O-])cc7F)c7ccc4[nH]7)C=C6)C=C5)cc3)nc(=O)c2c1C
REMARK SMILES IDX 14 1 13 2 12 3 11 4 9 5 10 6 8 8 7 9 6 10 1 11 2 12 3 13
REMARK SMILES IDX 89 14 4 15 88 16 90 17 5 18 86 19 85 21 87 22 15 23 16 24
REMARK SMILES IDX 17 25 18 27 19 28 20 29 84 30 21 31 83 32 22 33 23 34 24 35
REMARK SMILES IDX 77 36 25 37 82 38 76 39 78 40 26 41 81 42 75 43 74 44 27 46
REMARK SMILES IDX 61 47 40 48 60 49 41 50 44 51 59 52 79 53 42 54 43 55 58 57
REMARK SMILES IDX 80 58 45 59 28 60 29 61 38 62 30 63 31 64 37 65 39 66 32 67
REMARK SMILES IDX 33 68 34 69 35 70 36 71 62 72 63 73 72 74 64 75 65 76 71 77
REMARK SMILES IDX 73 78 66 79 67 80 68 81 69 82 70 83 46 84 47 85 56 86 48 87
REMARK SMILES IDX 49 88 55 89 57 90 50 91 51 92 52 93 53 94 54 95
REMARK H PARENT 11 7 5 20 16 26 78 45 44 56
REMARK Flexibility Score: inf
ROOT
ATOM      1  C   UNL A   1      37.307  20.935  25.069  1.00  0.00     0.023 C 
ENDROOT
BRANCH   1   2
ATOM      2  C   UNL A   1      35.869  21.356  24.702  1.00  0.00     0.023 C 
BRANCH   2   3
ATOM      3  C   UNL A   1      34.880  21.341  25.867  1.00  0.00     0.116 C 
BRANCH   3   4
ATOM      4  N   UNL A   1      33.951  20.233  25.749  1.00  0.00    -0.355 N 
ATOM      5  C   UNL A   1      32.677  20.185  25.269  1.00  0.00     0.230 C 
ATOM      6  O   UNL A   1      32.127  19.081  25.242  1.00  0.00    -0.274 OA
ATOM      7  H   UNL A   1      34.301  19.371  26.071  1.00  0.00     0.163 HD
BRANCH   5   8
ATOM      8  C   UNL A   1      32.004  21.408  24.676  1.00  0.00     0.178 C 
BRANCH   8   9
ATOM      9  S   UNL A   1      32.445  21.763  22.958  1.00  0.00    -0.078 SA
BRANCH   9  10
ATOM     10  C   UNL A   1      32.808  23.471  22.989  1.00  0.00     0.170 A 
ATOM     11  C   UNL A   1      33.965  28.755  25.963  1.00  0.00     0.057 C 
ATOM     12  C   UNL A   1      33.696  27.546  25.127  1.00  0.00     0.007 A 
ATOM     13  S   UNL A   1      33.340  26.058  25.902  1.00  0.00    -0.122 S 
ATOM     14  C   UNL A   1      33.675  27.434  23.740  1.00  0.00    -0.022 A 
ATOM     15  C   UNL A   1      33.175  25.267  24.423  1.00  0.00     0.108 A 
ATOM     16  C   UNL A   1      33.381  26.077  23.337  1.00  0.00     0.080 A 
ATOM     17  C   UNL A   1      33.921  28.555  22.778  1.00  0.00     0.046 C 
ATOM     18  N   UNL A   1      32.880  23.970  24.257  1.00  0.00    -0.326 N 
ATOM     19  C   UNL A   1      33.281  25.499  21.981  1.00  0.00     0.282 A 
ATOM     20  H   UNL A   1      32.719  23.390  25.036  1.00  0.00     0.169 HD
ATOM     21  N   UNL A   1      33.002  24.139  21.904  1.00  0.00    -0.185 NA
ATOM     22  O   UNL A   1      33.460  26.188  20.991  1.00  0.00    -0.267 OA
ENDBRANCH   9  10
ENDBRANCH   8   9
ENDBRANCH   5   8
ENDBRANCH   3   4
ENDBRANCH   2   3
ENDBRANCH   1   2
BRANCH   1  23
ATOM     23  C   UNL A   1      38.198  22.044  25.651  1.00  0.00     0.116 C 
BRANCH  23  24
ATOM     24  N   UNL A   1      39.386  21.472  26.257  1.00  0.00    -0.352 N 
ATOM     25  C   UNL A   1      40.600  22.031  26.543  1.00  0.00     0.251 C 
ATOM     26  H   UNL A   1      39.305  20.523  26.503  1.00  0.00     0.163 HD
ATOM     27  O   UNL A   1      41.569  21.280  26.652  1.00  0.00    -0.269 OA
BRANCH  25  28
ATOM     28  C   UNL A   1      40.780  23.481  26.769  1.00  0.00     0.039 A 
ATOM     29  C   UNL A   1      41.825  24.115  26.089  1.00  0.00     0.014 A 
ATOM     30  C   UNL A   1      40.086  24.167  27.773  1.00  0.00     0.014 A 
ATOM     31  C   UNL A   1      42.179  25.424  26.411  1.00  0.00     0.010 A 
ATOM     32  C   UNL A   1      40.447  25.480  28.096  1.00  0.00     0.010 A 
ATOM     33  C   UNL A   1      41.499  26.116  27.423  1.00  0.00    -0.014 A 
BRANCH  33  34
ATOM     34  C   UNL A   1      41.900  27.522  27.664  1.00  0.00     0.031 A 
ATOM     35  C   UNL A   1      40.777  28.483  27.940  1.00  0.00     0.074 A 
ATOM     36  C   UNL A   1      43.099  27.775  28.236  1.00  0.00     0.049 A 
ATOM     37  N   UNL A   1      40.165  28.594  29.085  1.00  0.00    -0.248 NA
ATOM     38  C   UNL A   1      40.105  29.197  26.853  1.00  0.00     0.031 C 
ATOM     39  C   UNL A   1      43.644  27.039  29.383  1.00  0.00     0.029 A 
ATOM     40  N   UNL A   1      43.981  28.817  28.048  1.00  0.00    -0.354 N 
ATOM     41  C   UNL A   1      39.037  29.379  28.883  1.00  0.00     0.074 A 
ATOM     42  C   UNL A   1      39.032  29.711  27.476  1.00  0.00     0.031 C 
ATOM     43  C   UNL A   1      44.669  27.746  29.903  1.00  0.00     0.029 A 
ATOM     44  C   UNL A   1      44.917  28.927  29.077  1.00  0.00     0.049 A 
ATOM     45  H   UNL A   1      43.954  29.420  27.270  1.00  0.00     0.167 HD
ATOM     46  C   UNL A   1      38.192  29.740  29.889  1.00  0.00     0.037 A 
ATOM     47  C   UNL A   1      45.406  30.116  29.537  1.00  0.00     0.037 A 
ATOM     48  C   UNL A   1      38.616  29.338  31.198  1.00  0.00     0.049 A 
ATOM     49  C   UNL A   1      44.251  30.560  30.407  1.00  0.00     0.074 A 
ATOM     50  C   UNL A   1      38.345  28.350  32.116  1.00  0.00     0.029 A 
ATOM     51  N   UNL A   1      39.599  30.098  31.787  1.00  0.00    -0.354 N 
ATOM     52  N   UNL A   1      43.963  30.090  31.594  1.00  0.00    -0.248 NA
ATOM     53  C   UNL A   1      43.144  31.258  29.749  1.00  0.00     0.031 C 
ATOM     54  C   UNL A   1      39.496  28.303  32.969  1.00  0.00     0.029 A 
ATOM     55  C   UNL A   1      40.405  29.249  32.496  1.00  0.00     0.049 A 
ATOM     56  H   UNL A   1      39.702  31.074  31.712  1.00  0.00     0.167 HD
ATOM     57  C   UNL A   1      42.570  30.161  31.696  1.00  0.00     0.074 A 
ATOM     58  C   UNL A   1      42.133  30.917  30.539  1.00  0.00     0.031 C 
ATOM     59  C   UNL A   1      41.835  29.446  32.599  1.00  0.00     0.037 A 
BRANCH  46  60
ATOM     60  C   UNL A   1      37.060  30.693  29.779  1.00  0.00     0.058 A 
ATOM     61  C   UNL A   1      35.929  30.279  29.055  1.00  0.00     0.135 A 
ATOM     62  C   UNL A   1      37.158  32.046  30.124  1.00  0.00     0.135 A 
ATOM     63  F   UNL A   1      35.794  28.989  28.704  1.00  0.00    -0.206 F 
ATOM     64  C   UNL A   1      34.965  31.178  28.623  1.00  0.00     0.059 A 
ATOM     65  C   UNL A   1      36.189  32.968  29.717  1.00  0.00     0.059 A 
ATOM     66  F   UNL A   1      38.220  32.497  30.809  1.00  0.00    -0.206 F 
ATOM     67  C   UNL A   1      35.113  32.527  28.940  1.00  0.00     0.060 A 
BRANCH  67  68
ATOM     68  S   UNL A   1      33.893  33.683  28.278  1.00  0.00     0.124 S 
ATOM     69  O   UNL A   1      34.719  34.545  27.438  1.00  0.00    -0.237 OA
ATOM     70  O   UNL A   1      32.984  32.787  27.568  1.00  0.00    -0.237 OA
ATOM     71  O   UNL A   1      33.340  34.314  29.472  1.00  0.00    -0.744 OA
ENDBRANCH  67  68
ENDBRANCH  46  60
BRANCH  47  72
ATOM     72  C   UNL A   1      46.079  30.967  28.502  1.00  0.00     0.058 A 
ATOM     73  C   UNL A   1      45.258  31.815  27.725  1.00  0.00     0.135 A 
ATOM     74  C   UNL A   1      47.456  31.049  28.251  1.00  0.00     0.135 A 
ATOM     75  F   UNL A   1      43.921  31.705  27.787  1.00  0.00    -0.206 F 
ATOM     76  C   UNL A   1      45.776  32.815  26.909  1.00  0.00     0.059 A 
ATOM     77  C   UNL A   1      48.004  32.058  27.453  1.00  0.00     0.059 A 
ATOM     78  F   UNL A   1      48.313  30.177  28.797  1.00  0.00    -0.206 F 
ATOM     79  C   UNL A   1      47.154  32.968  26.829  1.00  0.00     0.060 A 
BRANCH  79  80
ATOM     80  S   UNL A   1      47.799  34.419  25.972  1.00  0.00     0.124 S 
ATOM     81  O   UNL A   1      46.811  34.617  24.918  1.00  0.00    -0.237 OA
ATOM     82  O   UNL A   1      47.798  35.412  27.042  1.00  0.00    -0.237 OA
ATOM     83  O   UNL A   1      49.120  33.989  25.524  1.00  0.00    -0.744 OA
ENDBRANCH  79  80
ENDBRANCH  47  72
BRANCH  59  84
ATOM     84  C   UNL A   1      42.608  28.669  33.612  1.00  0.00     0.058 A 
ATOM     85  C   UNL A   1      42.922  29.243  34.851  1.00  0.00     0.135 A 
ATOM     86  C   UNL A   1      42.969  27.326  33.401  1.00  0.00     0.135 A 
ATOM     87  F   UNL A   1      42.590  30.517  35.113  1.00  0.00    -0.206 F 
ATOM     88  C   UNL A   1      43.536  28.504  35.857  1.00  0.00     0.059 A 
ATOM     89  C   UNL A   1      43.556  26.560  34.405  1.00  0.00     0.059 A 
ATOM     90  F   UNL A   1      42.718  26.724  32.227  1.00  0.00    -0.206 F 
ATOM     91  C   UNL A   1      43.828  27.158  35.634  1.00  0.00     0.060 A 
BRANCH  91  92
ATOM     92  S   UNL A   1      44.488  26.184  37.001  1.00  0.00     0.124 S 
ATOM     93  O   UNL A   1      45.893  26.580  37.009  1.00  0.00    -0.237 OA
ATOM     94  O   UNL A   1      43.692  26.657  38.130  1.00  0.00    -0.237 OA
ATOM     95  O   UNL A   1      44.230  24.805  36.599  1.00  0.00    -0.744 OA
ENDBRANCH  91  92
ENDBRANCH  59  84
ENDBRANCH  33  34
ENDBRANCH  25  28
ENDBRANCH  23  24
ENDBRANCH   1  23
TORSDOF 16
ENDMDL
MODEL 3
REMARK VINA RESULT:     -11.5      1.332      1.947
REMARK SMILES Cc1sc2[nH]c(SCC(=O)NCCCCNC(=O)c3ccc(-c4c5nc(c(-c6c(F)cc(S(=O)(=O)[O-])cc6F)c6ccc([nH]6)c(-c6c(F)cc(S(=O)(=O)[O-])cc6F)c6nc(c(-c7c(F)cc(S(=O)(=O)[O-])cc7F)c7ccc4[nH]7)C=C6)C=C5)cc3)nc(=O)c2c1C
REMARK SMILES IDX 14 1 13 2 12 3 11 4 9 5 10 6 8 8 7 9 6 10 1 11 2 12 3 13
REMARK SMILES IDX 89 14 4 15 88 16 90 17 5 18 86 19 85 21 87 22 15 23 16 24
REMARK SMILES IDX 17 25 18 27 19 28 20 29 84 30 21 31 83 32 22 33 23 34 24 35
REMARK SMILES IDX 77 36 25 37 82 38 76 39 78 40 26 41 81 42 75 43 74 44 27 46
REMARK SMILES IDX 61 47 40 48 60 49 41 50 44 51 59 52 79 53 42 54 43 55 58 57
REMARK SMILES IDX 80 58 45 59 28 60 29 61 38 62 30 63 31 64 37 65 39 66 32 67
REMARK SMILES IDX 33 68 34 69 35 70 36 71 62 72 63 73 72 74 64 75 65 76 71 77
REMARK SMILES IDX 73 78 66 79 67 80 68 81 69 82 70 83 46 84 47 85 56 86 48 87
REMARK SMILES IDX 49 88 55 89 57 90 50 91 51 92 52 93 53 94 54 95
REMARK H PARENT 11 7 5 20 16 26 78 45 44 56
REMARK Flexibility Score: inf
ROOT
ATOM      1  C   UNL A   1      38.117  21.418  25.377  1.00  0.00     0.023 C 
ENDROOT
BRANCH   1   2
ATOM      2  C   UNL A   1      36.838  22.148  24.918  1.00  0.00     0.023 C 
BRANCH   2   3
ATOM      3  C   UNL A   1      35.538  21.592  25.500  1.00  0.00     0.116 C 
BRANCH   3   4
ATOM      4  N   UNL A   1      35.302  20.234  25.048  1.00  0.00    -0.355 N 
ATOM      5  C   UNL A   1      34.142  19.576  24.767  1.00  0.00     0.230 C 
ATOM      6  O   UNL A   1      34.238  18.421  24.347  1.00  0.00    -0.274 OA
ATOM      7  H   UNL A   1      36.118  19.696  24.925  1.00  0.00     0.163 HD
BRANCH   5   8
ATOM      8  C   UNL A   1      32.796  20.272  24.843  1.00  0.00     0.178 C 
BRANCH   8   9
ATOM      9  S   UNL A   1      32.294  21.129  23.331  1.00  0.00    -0.078 SA
BRANCH   9  10
ATOM     10  C   UNL A   1      32.013  22.763  23.879  1.00  0.00     0.170 A 
ATOM     11  C   UNL A   1      31.122  28.787  22.866  1.00  0.00     0.057 C 
ATOM     12  C   UNL A   1      31.329  27.356  23.244  1.00  0.00     0.007 A 
ATOM     13  S   UNL A   1      31.619  26.200  22.011  1.00  0.00    -0.122 S 
ATOM     14  C   UNL A   1      31.338  26.784  24.512  1.00  0.00    -0.022 A 
ATOM     15  C   UNL A   1      31.739  24.951  23.136  1.00  0.00     0.108 A 
ATOM     16  C   UNL A   1      31.566  25.358  24.434  1.00  0.00     0.080 A 
ATOM     17  C   UNL A   1      31.141  27.526  25.798  1.00  0.00     0.046 C 
ATOM     18  N   UNL A   1      31.971  23.662  22.854  1.00  0.00    -0.326 N 
ATOM     19  C   UNL A   1      31.631  24.354  25.515  1.00  0.00     0.282 A 
ATOM     20  H   UNL A   1      32.109  23.370  21.923  1.00  0.00     0.169 HD
ATOM     21  N   UNL A   1      31.845  23.036  25.127  1.00  0.00    -0.185 NA
ATOM     22  O   UNL A   1      31.480  24.678  26.681  1.00  0.00    -0.267 OA
ENDBRANCH   9  10
ENDBRANCH   8   9
ENDBRANCH   5   8
ENDBRANCH   3   4
ENDBRANCH   2   3
ENDBRANCH   1   2
BRANCH   1  23
ATOM     23  C   UNL A   1      39.119  22.268  26.175  1.00  0.00     0.116 C 
BRANCH  23  24
ATOM     24  N   UNL A   1      40.154  21.426  26.745  1.00  0.00    -0.352 N 
ATOM     25  C   UNL A   1      41.477  21.674  26.982  1.00  0.00     0.251 C 
ATOM     26  H   UNL A   1      39.855  20.525  27.004  1.00  0.00     0.163 HD
ATOM     27  O   UNL A   1      42.238  20.711  27.064  1.00  0.00    -0.269 OA
BRANCH  25  28
ATOM     28  C   UNL A   1      42.011  23.038  27.185  1.00  0.00     0.039 A 
ATOM     29  C   UNL A   1      41.505  23.775  28.262  1.00  0.00     0.014 A 
ATOM     30  C   UNL A   1      42.825  23.665  26.235  1.00  0.00     0.014 A 
ATOM     31  C   UNL A   1      41.806  25.130  28.387  1.00  0.00     0.010 A 
ATOM     32  C   UNL A   1      43.122  25.028  26.363  1.00  0.00     0.010 A 
ATOM     33  C   UNL A   1      42.611  25.771  27.436  1.00  0.00    -0.014 A 
BRANCH  33  34
ATOM     34  C   UNL A   1      42.929  27.199  27.674  1.00  0.00     0.031 A 
ATOM     35  C   UNL A   1      41.758  28.142  27.633  1.00  0.00     0.074 A 
ATOM     36  C   UNL A   1      43.965  27.516  28.481  1.00  0.00     0.049 A 
ATOM     37  N   UNL A   1      40.905  28.302  28.604  1.00  0.00    -0.248 NA
ATOM     38  C   UNL A   1      41.337  28.776  26.382  1.00  0.00     0.031 C 
ATOM     39  C   UNL A   1      44.250  26.862  29.764  1.00  0.00     0.029 A 
ATOM     40  N   UNL A   1      44.852  28.569  28.431  1.00  0.00    -0.354 N 
ATOM     41  C   UNL A   1      39.839  29.043  28.108  1.00  0.00     0.074 A 
ATOM     42  C   UNL A   1      40.145  29.294  26.718  1.00  0.00     0.031 C 
ATOM     43  C   UNL A   1      45.122  27.625  30.454  1.00  0.00     0.029 A 
ATOM     44  C   UNL A   1      45.532  28.763  29.634  1.00  0.00     0.049 A 
ATOM     45  H   UNL A   1      44.991  29.126  27.631  1.00  0.00     0.167 HD
ATOM     46  C   UNL A   1      38.786  29.437  28.877  1.00  0.00     0.037 A 
ATOM     47  C   UNL A   1      45.889  29.989  30.117  1.00  0.00     0.037 A 
ATOM     48  C   UNL A   1      38.912  29.122  30.270  1.00  0.00     0.049 A 
ATOM     49  C   UNL A   1      44.563  30.449  30.679  1.00  0.00     0.074 A 
ATOM     50  C   UNL A   1      38.456  28.181  31.163  1.00  0.00     0.029 A 
ATOM     51  N   UNL A   1      39.727  29.940  31.015  1.00  0.00    -0.354 N 
ATOM     52  N   UNL A   1      44.024  30.040  31.799  1.00  0.00    -0.248 NA
ATOM     53  C   UNL A   1      43.622  31.079  29.750  1.00  0.00     0.031 C 
ATOM     54  C   UNL A   1      39.387  28.213  32.252  1.00  0.00     0.029 A 
ATOM     55  C   UNL A   1      40.366  29.156  31.936  1.00  0.00     0.049 A 
ATOM     56  H   UNL A   1      39.831  30.913  30.906  1.00  0.00     0.167 HD
ATOM     57  C   UNL A   1      42.642  30.079  31.583  1.00  0.00     0.074 A 
ATOM     58  C   UNL A   1      42.465  30.756  30.315  1.00  0.00     0.031 C 
ATOM     59  C   UNL A   1      41.734  29.396  32.343  1.00  0.00     0.037 A 
BRANCH  46  60
ATOM     60  C   UNL A   1      37.695  30.351  28.460  1.00  0.00     0.058 A 
ATOM     61  C   UNL A   1      37.839  31.717  28.760  1.00  0.00     0.135 A 
ATOM     62  C   UNL A   1      36.438  29.905  28.031  1.00  0.00     0.135 A 
ATOM     63  F   UNL A   1      39.027  32.189  29.174  1.00  0.00    -0.206 F 
ATOM     64  C   UNL A   1      36.768  32.597  28.708  1.00  0.00     0.059 A 
ATOM     65  C   UNL A   1      35.349  30.777  27.952  1.00  0.00     0.059 A 
ATOM     66  F   UNL A   1      36.243  28.610  27.739  1.00  0.00    -0.206 F 
ATOM     67  C   UNL A   1      35.519  32.114  28.323  1.00  0.00     0.060 A 
BRANCH  67  68
ATOM     68  S   UNL A   1      34.127  33.264  28.362  1.00  0.00     0.124 S 
ATOM     69  O   UNL A   1      34.653  34.402  27.615  1.00  0.00    -0.237 OA
ATOM     70  O   UNL A   1      33.082  32.495  27.693  1.00  0.00    -0.237 OA
ATOM     71  O   UNL A   1      33.915  33.494  29.787  1.00  0.00    -0.744 OA
ENDBRANCH  67  68
ENDBRANCH  46  60
BRANCH  47  72
ATOM     72  C   UNL A   1      46.765  30.798  29.208  1.00  0.00     0.058 A 
ATOM     73  C   UNL A   1      47.967  31.306  29.748  1.00  0.00     0.135 A 
ATOM     74  C   UNL A   1      46.542  31.067  27.850  1.00  0.00     0.135 A 
ATOM     75  F   UNL A   1      48.202  31.229  31.068  1.00  0.00    -0.206 F 
ATOM     76  C   UNL A   1      48.967  31.861  28.957  1.00  0.00     0.059 A 
ATOM     77  C   UNL A   1      47.538  31.603  27.028  1.00  0.00     0.059 A 
ATOM     78  F   UNL A   1      45.366  30.789  27.272  1.00  0.00    -0.206 F 
ATOM     79  C   UNL A   1      48.767  31.947  27.585  1.00  0.00     0.060 A 
BRANCH  79  80
ATOM     80  S   UNL A   1      50.164  32.431  26.551  1.00  0.00     0.124 S 
ATOM     81  O   UNL A   1      49.534  33.319  25.581  1.00  0.00    -0.237 OA
ATOM     82  O   UNL A   1      51.039  33.073  27.528  1.00  0.00    -0.237 OA
ATOM     83  O   UNL A   1      50.650  31.162  26.020  1.00  0.00    -0.744 OA
ENDBRANCH  79  80
ENDBRANCH  47  72
BRANCH  59  84
ATOM     84  C   UNL A   1      42.271  28.699  33.548  1.00  0.00     0.058 A 
ATOM     85  C   UNL A   1      42.275  29.344  34.792  1.00  0.00     0.135 A 
ATOM     86  C   UNL A   1      42.706  27.362  33.501  1.00  0.00     0.135 A 
ATOM     87  F   UNL A   1      41.858  30.616  34.899  1.00  0.00    -0.206 F 
ATOM     88  C   UNL A   1      42.658  28.679  35.952  1.00  0.00     0.059 A 
ATOM     89  C   UNL A   1      43.064  26.669  34.654  1.00  0.00     0.059 A 
ATOM     90  F   UNL A   1      42.749  26.695  32.336  1.00  0.00    -0.206 F 
ATOM     91  C   UNL A   1      43.029  27.335  35.877  1.00  0.00     0.060 A 
BRANCH  91  92
ATOM     92  S   UNL A   1      43.379  26.455  37.412  1.00  0.00     0.124 S 
ATOM     93  O   UNL A   1      44.147  27.443  38.162  1.00  0.00    -0.237 OA
ATOM     94  O   UNL A   1      42.040  26.176  37.921  1.00  0.00    -0.237 OA
ATOM     95  O   UNL A   1      44.129  25.281  36.973  1.00  0.00    -0.744 OA
ENDBRANCH  91  92
ENDBRANCH  59  84
ENDBRANCH  33  34
ENDBRANCH  25  28
ENDBRANCH  23  24
ENDBRANCH   1  23
TORSDOF 16
ENDMDL
