MODEL 1
REMARK VINA RESULT:     -11.9      0.000      0.000
REMARK SMILES CC1(C)CN(C(=O)NC[C@H]2CC[C@@H](C(=O)NCCCCNC(=O)c3ccc(-c4c5nc(c(-c6c(F)cc(S(=O)(=O)[O-])cc6F)c6ccc([nH]6)c(-c6c(F)cc(S(=O)(=O)[O-])cc6F)c6nc(c(-c7c(F)cc(S(=O)(=O)[O-])cc7F)c7ccc4[nH]7)C=C6)C=C5)cc3)CC2)CCO1
REMARK SMILES IDX 18 1 17 2 16 3 14 4 15 5 13 7 10 8 11 9 91 10 12 11 90 12
REMARK SMILES IDX 9 13 8 14 6 15 7 16 5 18 1 19 2 20 3 21 4 22 94 23 93 24
REMARK SMILES IDX 92 25 19 26 20 27 21 28 22 29 23 31 24 32 25 33 89 34 26 35
REMARK SMILES IDX 88 36 27 37 28 38 29 39 82 40 30 41 87 42 81 43 83 44 31 45
REMARK SMILES IDX 86 46 80 47 79 48 32 50 66 51 45 52 65 53 46 54 49 55 64 56
REMARK SMILES IDX 84 57 47 58 48 59 63 61 85 62 50 63 33 64 34 65 43 66 35 67
REMARK SMILES IDX 36 68 42 69 44 70 37 71 38 72 39 73 40 74 41 75 67 76 68 77
REMARK SMILES IDX 77 78 69 79 70 80 76 81 78 82 71 83 72 84 73 85 74 86 75 87
REMARK SMILES IDX 51 88 52 89 61 90 53 91 54 92 60 93 62 94 55 95 56 96 57 97
REMARK SMILES IDX 58 98 59 99
REMARK H PARENT 16 6 8 17 21 30 83 49 49 60
REMARK Flexibility Score: inf
ROOT
ATOM      1  C   UNL A   1      40.829  20.993  26.715  1.00  0.00     0.023 C 
ENDROOT
BRANCH   1   2
ATOM      2  C   UNL A   1      39.456  20.901  26.053  1.00  0.00     0.116 C 
BRANCH   2   3
ATOM      3  N   UNL A   1      38.916  22.198  25.710  1.00  0.00    -0.356 N 
ATOM      4  C   UNL A   1      37.642  22.665  25.663  1.00  0.00     0.223 C 
ATOM      5  O   UNL A   1      37.502  23.862  25.392  1.00  0.00    -0.275 OA
ATOM      6  H   UNL A   1      39.597  22.864  25.463  1.00  0.00     0.163 HD
BRANCH   4   7
ATOM      7  C   UNL A   1      36.396  21.795  25.863  1.00  0.00     0.078 C 
ATOM      8  C   UNL A   1      33.561  20.837  25.903  1.00  0.00     0.008 C 
ATOM      9  C   UNL A   1      34.635  20.188  24.996  1.00  0.00     0.006 C 
ATOM     10  C   UNL A   1      34.225  21.528  27.104  1.00  0.00     0.006 C 
ATOM     11  C   UNL A   1      35.794  21.130  24.623  1.00  0.00     0.014 C 
ATOM     12  C   UNL A   1      35.334  22.501  26.707  1.00  0.00     0.014 C 
BRANCH   8  13
ATOM     13  C   UNL A   1      32.641  21.764  25.081  1.00  0.00     0.121 C 
BRANCH  13  14
ATOM     14  N   UNL A   1      31.532  22.334  25.841  1.00  0.00    -0.338 N 
ATOM     15  C   UNL A   1      31.172  23.577  26.242  1.00  0.00     0.317 C 
ATOM     16  O   UNL A   1      30.376  23.632  27.183  1.00  0.00    -0.249 OA
ATOM     17  H   UNL A   1      30.889  21.646  26.135  1.00  0.00     0.165 HD
BRANCH  15  18
ATOM     18  N   UNL A   1      31.667  24.701  25.653  1.00  0.00    -0.320 N 
ATOM     19  C   UNL A   1      32.260  24.731  22.451  1.00  0.00     0.044 C 
ATOM     20  C   UNL A   1      31.831  25.864  23.392  1.00  0.00     0.080 C 
ATOM     21  C   UNL A   1      31.089  26.931  22.577  1.00  0.00     0.044 C 
ATOM     22  C   UNL A   1      30.925  25.334  24.542  1.00  0.00     0.156 C 
ATOM     23  O   UNL A   1      32.992  26.549  23.903  1.00  0.00    -0.372 OA
ATOM     24  C   UNL A   1      33.736  25.766  24.829  1.00  0.00     0.182 C 
ATOM     25  C   UNL A   1      32.880  25.399  26.030  1.00  0.00     0.150 C 
ENDBRANCH  15  18
ENDBRANCH  13  14
ENDBRANCH   8  13
ENDBRANCH   4   7
ENDBRANCH   2   3
ENDBRANCH   1   2
BRANCH   1  26
ATOM     26  C   UNL A   1      41.095  22.248  27.533  1.00  0.00     0.023 C 
BRANCH  26  27
ATOM     27  C   UNL A   1      42.224  23.138  27.018  1.00  0.00     0.116 C 
BRANCH  27  28
ATOM     28  N   UNL A   1      41.836  24.099  25.985  1.00  0.00    -0.352 N 
ATOM     29  C   UNL A   1      41.521  25.438  26.086  1.00  0.00     0.251 C 
ATOM     30  H   UNL A   1      41.793  23.731  25.072  1.00  0.00     0.163 HD
ATOM     31  O   UNL A   1      41.179  26.068  25.088  1.00  0.00    -0.269 OA
BRANCH  29  32
ATOM     32  C   UNL A   1      41.560  26.093  27.409  1.00  0.00     0.039 A 
ATOM     33  C   UNL A   1      42.661  26.877  27.763  1.00  0.00     0.014 A 
ATOM     34  C   UNL A   1      40.449  26.023  28.246  1.00  0.00     0.014 A 
ATOM     35  C   UNL A   1      42.579  27.705  28.887  1.00  0.00     0.010 A 
ATOM     36  C   UNL A   1      40.319  26.943  29.273  1.00  0.00     0.010 A 
ATOM     37  C   UNL A   1      41.375  27.807  29.603  1.00  0.00    -0.014 A 
BRANCH  37  38
ATOM     38  C   UNL A   1      41.164  28.810  30.682  1.00  0.00     0.031 A 
ATOM     39  C   UNL A   1      41.983  28.729  31.944  1.00  0.00     0.074 A 
ATOM     40  C   UNL A   1      40.152  29.700  30.592  1.00  0.00     0.049 A 
ATOM     41  N   UNL A   1      41.821  29.355  33.080  1.00  0.00    -0.248 NA
ATOM     42  C   UNL A   1      43.096  27.763  31.948  1.00  0.00     0.031 C 
ATOM     43  C   UNL A   1      39.228  29.832  29.462  1.00  0.00     0.029 A 
ATOM     44  N   UNL A   1      39.715  30.651  31.482  1.00  0.00    -0.354 N 
ATOM     45  C   UNL A   1      42.771  28.822  33.943  1.00  0.00     0.074 A 
ATOM     46  C   UNL A   1      43.463  27.779  33.220  1.00  0.00     0.031 C 
ATOM     47  C   UNL A   1      38.360  30.827  29.711  1.00  0.00     0.029 A 
ATOM     48  C   UNL A   1      38.632  31.373  31.036  1.00  0.00     0.049 A 
ATOM     49  H   UNL A   1      40.137  30.802  32.357  1.00  0.00     0.167 HD
ATOM     50  C   UNL A   1      43.064  29.187  35.213  1.00  0.00     0.037 A 
ATOM     51  C   UNL A   1      37.931  32.358  31.630  1.00  0.00     0.037 A 
ATOM     52  C   UNL A   1      42.430  30.282  35.896  1.00  0.00     0.049 A 
ATOM     53  C   UNL A   1      38.326  32.805  33.011  1.00  0.00     0.074 A 
ATOM     54  C   UNL A   1      42.717  30.800  37.146  1.00  0.00     0.029 A 
ATOM     55  N   UNL A   1      41.393  31.043  35.375  1.00  0.00    -0.354 N 
ATOM     56  N   UNL A   1      39.266  32.326  33.792  1.00  0.00    -0.248 NA
ATOM     57  C   UNL A   1      37.573  33.925  33.591  1.00  0.00     0.031 C 
ATOM     58  C   UNL A   1      41.839  31.861  37.391  1.00  0.00     0.029 A 
ATOM     59  C   UNL A   1      41.027  32.025  36.279  1.00  0.00     0.049 A 
ATOM     60  H   UNL A   1      40.978  30.904  34.493  1.00  0.00     0.167 HD
ATOM     61  C   UNL A   1      39.232  33.102  34.945  1.00  0.00     0.074 A 
ATOM     62  C   UNL A   1      38.188  34.088  34.755  1.00  0.00     0.031 C 
ATOM     63  C   UNL A   1      39.997  33.008  36.061  1.00  0.00     0.037 A 
BRANCH  50  64
ATOM     64  C   UNL A   1      44.137  28.414  35.929  1.00  0.00     0.058 A 
ATOM     65  C   UNL A   1      43.838  27.274  36.694  1.00  0.00     0.135 A 
ATOM     66  C   UNL A   1      45.482  28.811  35.844  1.00  0.00     0.135 A 
ATOM     67  F   UNL A   1      42.568  26.860  36.822  1.00  0.00    -0.206 F 
ATOM     68  C   UNL A   1      44.826  26.582  37.384  1.00  0.00     0.059 A 
ATOM     69  C   UNL A   1      46.491  28.114  36.502  1.00  0.00     0.059 A 
ATOM     70  F   UNL A   1      45.824  29.892  35.127  1.00  0.00    -0.206 F 
ATOM     71  C   UNL A   1      46.150  27.011  37.285  1.00  0.00     0.060 A 
BRANCH  71  72
ATOM     72  S   UNL A   1      47.421  26.107  38.194  1.00  0.00     0.124 S 
ATOM     73  O   UNL A   1      46.612  25.344  39.140  1.00  0.00    -0.237 OA
ATOM     74  O   UNL A   1      48.064  25.327  37.140  1.00  0.00    -0.237 OA
ATOM     75  O   UNL A   1      48.240  27.165  38.775  1.00  0.00    -0.744 OA
ENDBRANCH  71  72
ENDBRANCH  50  64
BRANCH  51  76
ATOM     76  C   UNL A   1      36.812  33.020  30.907  1.00  0.00     0.058 A 
ATOM     77  C   UNL A   1      35.479  32.743  31.244  1.00  0.00     0.135 A 
ATOM     78  C   UNL A   1      37.045  33.949  29.881  1.00  0.00     0.135 A 
ATOM     79  F   UNL A   1      35.204  31.858  32.214  1.00  0.00    -0.206 F 
ATOM     80  C   UNL A   1      34.416  33.348  30.581  1.00  0.00     0.059 A 
ATOM     81  C   UNL A   1      35.999  34.585  29.218  1.00  0.00     0.059 A 
ATOM     82  F   UNL A   1      38.303  34.264  29.533  1.00  0.00    -0.206 F 
ATOM     83  C   UNL A   1      34.687  34.270  29.570  1.00  0.00     0.060 A 
BRANCH  83  84
ATOM     84  S   UNL A   1      33.300  35.088  28.750  1.00  0.00     0.124 S 
ATOM     85  O   UNL A   1      32.752  34.002  27.946  1.00  0.00    -0.237 OA
ATOM     86  O   UNL A   1      32.485  35.520  29.880  1.00  0.00    -0.237 OA
ATOM     87  O   UNL A   1      33.942  36.166  28.003  1.00  0.00    -0.744 OA
ENDBRANCH  83  84
ENDBRANCH  51  76
BRANCH  63  88
ATOM     88  C   UNL A   1      39.761  34.015  37.147  1.00  0.00     0.058 A 
ATOM     89  C   UNL A   1      38.907  33.747  38.227  1.00  0.00     0.135 A 
ATOM     90  C   UNL A   1      40.451  35.238  37.141  1.00  0.00     0.135 A 
ATOM     91  F   UNL A   1      38.220  32.595  38.275  1.00  0.00    -0.206 F 
ATOM     92  C   UNL A   1      38.734  34.663  39.259  1.00  0.00     0.059 A 
ATOM     93  C   UNL A   1      40.312  36.159  38.174  1.00  0.00     0.059 A 
ATOM     94  F   UNL A   1      41.288  35.536  36.134  1.00  0.00    -0.206 F 
ATOM     95  C   UNL A   1      39.443  35.866  39.224  1.00  0.00     0.060 A 
BRANCH  95  96
ATOM     96  S   UNL A   1      39.247  37.027  40.592  1.00  0.00     0.124 S 
ATOM     97  O   UNL A   1      38.302  37.986  40.030  1.00  0.00    -0.237 OA
ATOM     98  O   UNL A   1      38.727  36.173  41.656  1.00  0.00    -0.237 OA
ATOM     99  O   UNL A   1      40.601  37.529  40.807  1.00  0.00    -0.744 OA
ENDBRANCH  95  96
ENDBRANCH  63  88
ENDBRANCH  37  38
ENDBRANCH  29  32
ENDBRANCH  27  28
ENDBRANCH  26  27
ENDBRANCH   1  26
TORSDOF 17
ENDMDL
MODEL 2
REMARK VINA RESULT:     -11.9      1.428      2.565
REMARK SMILES CC1(C)CN(C(=O)NC[C@H]2CC[C@@H](C(=O)NCCCCNC(=O)c3ccc(-c4c5nc(c(-c6c(F)cc(S(=O)(=O)[O-])cc6F)c6ccc([nH]6)c(-c6c(F)cc(S(=O)(=O)[O-])cc6F)c6nc(c(-c7c(F)cc(S(=O)(=O)[O-])cc7F)c7ccc4[nH]7)C=C6)C=C5)cc3)CC2)CCO1
REMARK SMILES IDX 18 1 17 2 16 3 14 4 15 5 13 7 10 8 11 9 91 10 12 11 90 12
REMARK SMILES IDX 9 13 8 14 6 15 7 16 5 18 1 19 2 20 3 21 4 22 94 23 93 24
REMARK SMILES IDX 92 25 19 26 20 27 21 28 22 29 23 31 24 32 25 33 89 34 26 35
REMARK SMILES IDX 88 36 27 37 28 38 29 39 82 40 30 41 87 42 81 43 83 44 31 45
REMARK SMILES IDX 86 46 80 47 79 48 32 50 66 51 45 52 65 53 46 54 49 55 64 56
REMARK SMILES IDX 84 57 47 58 48 59 63 61 85 62 50 63 33 64 34 65 43 66 35 67
REMARK SMILES IDX 36 68 42 69 44 70 37 71 38 72 39 73 40 74 41 75 67 76 68 77
REMARK SMILES IDX 77 78 69 79 70 80 76 81 78 82 71 83 72 84 73 85 74 86 75 87
REMARK SMILES IDX 51 88 52 89 61 90 53 91 54 92 60 93 62 94 55 95 56 96 57 97
REMARK SMILES IDX 58 98 59 99
REMARK H PARENT 16 6 8 17 21 30 83 49 49 60
REMARK Flexibility Score: inf
ROOT
ATOM      1  C   UNL A   1      37.378  23.172  25.193  1.00  0.00     0.023 C 
ENDROOT
BRANCH   1   2
ATOM      2  C   UNL A   1      36.964  21.814  25.757  1.00  0.00     0.116 C 
BRANCH   2   3
ATOM      3  N   UNL A   1      35.635  21.830  26.326  1.00  0.00    -0.356 N 
ATOM      4  C   UNL A   1      34.457  22.320  25.862  1.00  0.00     0.223 C 
ATOM      5  O   UNL A   1      33.460  22.118  26.564  1.00  0.00    -0.275 OA
ATOM      6  H   UNL A   1      35.573  21.408  27.214  1.00  0.00     0.163 HD
BRANCH   4   7
ATOM      7  C   UNL A   1      34.310  23.143  24.578  1.00  0.00     0.078 C 
ATOM      8  C   UNL A   1      33.142  24.686  22.295  1.00  0.00     0.008 C 
ATOM      9  C   UNL A   1      34.042  25.354  23.364  1.00  0.00     0.006 C 
ATOM     10  C   UNL A   1      33.432  23.179  22.221  1.00  0.00     0.006 C 
ATOM     11  C   UNL A   1      34.032  24.641  24.728  1.00  0.00     0.014 C 
ATOM     12  C   UNL A   1      33.361  22.481  23.579  1.00  0.00     0.014 C 
BRANCH   8  13
ATOM     13  C   UNL A   1      31.657  25.024  22.544  1.00  0.00     0.121 C 
BRANCH  13  14
ATOM     14  N   UNL A   1      31.275  26.375  22.142  1.00  0.00    -0.338 N 
ATOM     15  C   UNL A   1      30.700  27.438  22.753  1.00  0.00     0.317 C 
ATOM     16  O   UNL A   1      30.190  28.279  22.008  1.00  0.00    -0.249 OA
ATOM     17  H   UNL A   1      31.486  26.556  21.197  1.00  0.00     0.165 HD
BRANCH  15  18
ATOM     18  N   UNL A   1      30.674  27.570  24.108  1.00  0.00    -0.320 N 
ATOM     19  C   UNL A   1      33.414  28.264  25.727  1.00  0.00     0.044 C 
ATOM     20  C   UNL A   1      31.957  28.631  26.038  1.00  0.00     0.080 C 
ATOM     21  C   UNL A   1      31.938  29.913  26.881  1.00  0.00     0.044 C 
ATOM     22  C   UNL A   1      31.131  28.830  24.732  1.00  0.00     0.156 C 
ATOM     23  O   UNL A   1      31.366  27.633  26.893  1.00  0.00    -0.372 OA
ATOM     24  C   UNL A   1      31.142  26.394  26.228  1.00  0.00     0.182 C 
ATOM     25  C   UNL A   1      30.196  26.580  25.053  1.00  0.00     0.150 C 
ENDBRANCH  15  18
ENDBRANCH  13  14
ENDBRANCH   8  13
ENDBRANCH   4   7
ENDBRANCH   2   3
ENDBRANCH   1   2
BRANCH   1  26
ATOM     26  C   UNL A   1      38.268  24.024  26.085  1.00  0.00     0.023 C 
BRANCH  26  27
ATOM     27  C   UNL A   1      39.373  23.269  26.819  1.00  0.00     0.116 C 
BRANCH  27  28
ATOM     28  N   UNL A   1      40.731  23.536  26.343  1.00  0.00    -0.352 N 
ATOM     29  C   UNL A   1      41.549  24.628  26.548  1.00  0.00     0.251 C 
ATOM     30  H   UNL A   1      41.123  22.824  25.787  1.00  0.00     0.163 HD
ATOM     31  O   UNL A   1      42.658  24.675  26.019  1.00  0.00    -0.269 OA
BRANCH  29  32
ATOM     32  C   UNL A   1      41.063  25.752  27.373  1.00  0.00     0.039 A 
ATOM     33  C   UNL A   1      40.154  25.512  28.406  1.00  0.00     0.014 A 
ATOM     34  C   UNL A   1      41.605  27.023  27.193  1.00  0.00     0.014 A 
ATOM     35  C   UNL A   1      39.906  26.517  29.347  1.00  0.00     0.010 A 
ATOM     36  C   UNL A   1      41.465  27.964  28.200  1.00  0.00     0.010 A 
ATOM     37  C   UNL A   1      40.625  27.723  29.298  1.00  0.00    -0.014 A 
BRANCH  37  38
ATOM     38  C   UNL A   1      40.550  28.747  30.376  1.00  0.00     0.031 A 
ATOM     39  C   UNL A   1      41.441  28.620  31.585  1.00  0.00     0.074 A 
ATOM     40  C   UNL A   1      39.595  29.701  30.340  1.00  0.00     0.049 A 
ATOM     41  N   UNL A   1      41.394  29.265  32.721  1.00  0.00    -0.248 NA
ATOM     42  C   UNL A   1      42.485  27.582  31.531  1.00  0.00     0.031 C 
ATOM     43  C   UNL A   1      38.612  29.886  29.269  1.00  0.00     0.029 A 
ATOM     44  N   UNL A   1      39.281  30.687  31.244  1.00  0.00    -0.354 N 
ATOM     45  C   UNL A   1      42.359  28.676  33.529  1.00  0.00     0.074 A 
ATOM     46  C   UNL A   1      42.933  27.583  32.777  1.00  0.00     0.031 C 
ATOM     47  C   UNL A   1      37.831  30.939  29.560  1.00  0.00     0.029 A 
ATOM     48  C   UNL A   1      38.222  31.476  30.859  1.00  0.00     0.049 A 
ATOM     49  H   UNL A   1      39.768  30.816  32.089  1.00  0.00     0.167 HD
ATOM     50  C   UNL A   1      42.756  29.031  34.774  1.00  0.00     0.037 A 
ATOM     51  C   UNL A   1      37.627  32.511  31.484  1.00  0.00     0.037 A 
ATOM     52  C   UNL A   1      42.242  30.172  35.482  1.00  0.00     0.049 A 
ATOM     53  C   UNL A   1      38.139  32.941  32.832  1.00  0.00     0.074 A 
ATOM     54  C   UNL A   1      42.642  30.679  36.705  1.00  0.00     0.029 A 
ATOM     55  N   UNL A   1      41.226  30.996  35.019  1.00  0.00    -0.354 N 
ATOM     56  N   UNL A   1      39.093  32.407  33.557  1.00  0.00    -0.248 NA
ATOM     57  C   UNL A   1      37.500  34.114  33.445  1.00  0.00     0.031 C 
ATOM     58  C   UNL A   1      41.854  31.798  36.992  1.00  0.00     0.029 A 
ATOM     59  C   UNL A   1      40.985  32.008  35.932  1.00  0.00     0.049 A 
ATOM     60  H   UNL A   1      40.748  30.878  34.166  1.00  0.00     0.167 HD
ATOM     61  C   UNL A   1      39.184  33.192  34.701  1.00  0.00     0.074 A 
ATOM     62  C   UNL A   1      38.198  34.245  34.565  1.00  0.00     0.031 C 
ATOM     63  C   UNL A   1      40.011  33.056  35.767  1.00  0.00     0.037 A 
BRANCH  50  64
ATOM     64  C   UNL A   1      43.820  28.193  35.430  1.00  0.00     0.058 A 
ATOM     65  C   UNL A   1      43.494  27.111  36.264  1.00  0.00     0.135 A 
ATOM     66  C   UNL A   1      45.180  28.469  35.217  1.00  0.00     0.135 A 
ATOM     67  F   UNL A   1      42.209  26.813  36.515  1.00  0.00    -0.206 F 
ATOM     68  C   UNL A   1      44.477  26.360  36.898  1.00  0.00     0.059 A 
ATOM     69  C   UNL A   1      46.181  27.711  35.817  1.00  0.00     0.059 A 
ATOM     70  F   UNL A   1      45.548  29.491  34.429  1.00  0.00    -0.206 F 
ATOM     71  C   UNL A   1      45.818  26.670  36.671  1.00  0.00     0.060 A 
BRANCH  71  72
ATOM     72  S   UNL A   1      47.083  25.691  37.509  1.00  0.00     0.124 S 
ATOM     73  O   UNL A   1      46.575  25.672  38.877  1.00  0.00    -0.237 OA
ATOM     74  O   UNL A   1      47.020  24.419  36.794  1.00  0.00    -0.237 OA
ATOM     75  O   UNL A   1      48.303  26.463  37.300  1.00  0.00    -0.744 OA
ENDBRANCH  71  72
ENDBRANCH  50  64
BRANCH  51  76
ATOM     76  C   UNL A   1      36.510  33.240  30.825  1.00  0.00     0.058 A 
ATOM     77  C   UNL A   1      35.200  33.135  31.314  1.00  0.00     0.135 A 
ATOM     78  C   UNL A   1      36.727  34.065  29.710  1.00  0.00     0.135 A 
ATOM     79  F   UNL A   1      34.942  32.355  32.374  1.00  0.00    -0.206 F 
ATOM     80  C   UNL A   1      34.140  33.807  30.714  1.00  0.00     0.059 A 
ATOM     81  C   UNL A   1      35.686  34.766  29.106  1.00  0.00     0.059 A 
ATOM     82  F   UNL A   1      37.966  34.215  29.214  1.00  0.00    -0.206 F 
ATOM     83  C   UNL A   1      34.394  34.622  29.610  1.00  0.00     0.060 A 
BRANCH  83  84
ATOM     84  S   UNL A   1      33.018  35.529  28.868  1.00  0.00     0.124 S 
ATOM     85  O   UNL A   1      33.715  36.619  28.195  1.00  0.00    -0.237 OA
ATOM     86  O   UNL A   1      32.417  34.522  28.000  1.00  0.00    -0.237 OA
ATOM     87  O   UNL A   1      32.210  35.913  30.022  1.00  0.00    -0.744 OA
ENDBRANCH  83  84
ENDBRANCH  51  76
BRANCH  63  88
ATOM     88  C   UNL A   1      39.912  34.085  36.854  1.00  0.00     0.058 A 
ATOM     89  C   UNL A   1      40.639  35.283  36.801  1.00  0.00     0.135 A 
ATOM     90  C   UNL A   1      39.026  33.899  37.927  1.00  0.00     0.135 A 
ATOM     91  F   UNL A   1      41.504  35.505  35.798  1.00  0.00    -0.206 F 
ATOM     92  C   UNL A   1      40.503  36.257  37.783  1.00  0.00     0.059 A 
ATOM     93  C   UNL A   1      38.856  34.870  38.908  1.00  0.00     0.059 A 
ATOM     94  F   UNL A   1      38.299  32.773  38.016  1.00  0.00    -0.206 F 
ATOM     95  C   UNL A   1      39.606  36.042  38.833  1.00  0.00     0.060 A 
BRANCH  95  96
ATOM     96  S   UNL A   1      39.402  37.334  40.077  1.00  0.00     0.124 S 
ATOM     97  O   UNL A   1      40.778  37.781  40.263  1.00  0.00    -0.237 OA
ATOM     98  O   UNL A   1      38.513  38.278  39.406  1.00  0.00    -0.237 OA
ATOM     99  O   UNL A   1      38.813  36.624  41.208  1.00  0.00    -0.744 OA
ENDBRANCH  95  96
ENDBRANCH  63  88
ENDBRANCH  37  38
ENDBRANCH  29  32
ENDBRANCH  27  28
ENDBRANCH  26  27
ENDBRANCH   1  26
TORSDOF 17
ENDMDL
MODEL 3
REMARK VINA RESULT:     -11.8      1.090      8.339
REMARK SMILES CC1(C)CN(C(=O)NC[C@H]2CC[C@@H](C(=O)NCCCCNC(=O)c3ccc(-c4c5nc(c(-c6c(F)cc(S(=O)(=O)[O-])cc6F)c6ccc([nH]6)c(-c6c(F)cc(S(=O)(=O)[O-])cc6F)c6nc(c(-c7c(F)cc(S(=O)(=O)[O-])cc7F)c7ccc4[nH]7)C=C6)C=C5)cc3)CC2)CCO1
REMARK SMILES IDX 18 1 17 2 16 3 14 4 15 5 13 7 10 8 11 9 91 10 12 11 90 12
REMARK SMILES IDX 9 13 8 14 6 15 7 16 5 18 1 19 2 20 3 21 4 22 94 23 93 24
REMARK SMILES IDX 92 25 19 26 20 27 21 28 22 29 23 31 24 32 25 33 89 34 26 35
REMARK SMILES IDX 88 36 27 37 28 38 29 39 82 40 30 41 87 42 81 43 83 44 31 45
REMARK SMILES IDX 86 46 80 47 79 48 32 50 66 51 45 52 65 53 46 54 49 55 64 56
REMARK SMILES IDX 84 57 47 58 48 59 63 61 85 62 50 63 33 64 34 65 43 66 35 67
REMARK SMILES IDX 36 68 42 69 44 70 37 71 38 72 39 73 40 74 41 75 67 76 68 77
REMARK SMILES IDX 77 78 69 79 70 80 76 81 78 82 71 83 72 84 73 85 74 86 75 87
REMARK SMILES IDX 51 88 52 89 61 90 53 91 54 92 60 93 62 94 55 95 56 96 57 97
REMARK SMILES IDX 58 98 59 99
REMARK H PARENT 16 6 8 17 21 30 83 49 49 60
REMARK Flexibility Score: inf
ROOT
ATOM      1  C   UNL A   1      40.094  22.061  26.467  1.00  0.00     0.023 C 
ENDROOT
BRANCH   1   2
ATOM      2  C   UNL A   1      38.620  22.450  26.369  1.00  0.00     0.116 C 
BRANCH   2   3
ATOM      3  N   UNL A   1      38.167  22.572  25.001  1.00  0.00    -0.356 N 
ATOM      4  C   UNL A   1      36.925  22.552  24.453  1.00  0.00     0.223 C 
ATOM      5  O   UNL A   1      36.855  22.751  23.235  1.00  0.00    -0.275 OA
ATOM      6  H   UNL A   1      38.893  22.688  24.346  1.00  0.00     0.163 HD
BRANCH   4   7
ATOM      7  C   UNL A   1      35.643  22.244  25.233  1.00  0.00     0.078 C 
ATOM      8  C   UNL A   1      32.790  22.216  26.139  1.00  0.00     0.008 C 
ATOM      9  C   UNL A   1      33.478  20.961  25.548  1.00  0.00     0.006 C 
ATOM     10  C   UNL A   1      33.840  23.174  26.722  1.00  0.00     0.006 C 
ATOM     11  C   UNL A   1      34.645  21.273  24.596  1.00  0.00     0.014 C 
ATOM     12  C   UNL A   1      34.961  23.516  25.740  1.00  0.00     0.014 C 
BRANCH   8  13
ATOM     13  C   UNL A   1      31.861  22.870  25.095  1.00  0.00     0.121 C 
BRANCH  13  14
ATOM     14  N   UNL A   1      30.714  23.569  25.669  1.00  0.00    -0.338 N 
ATOM     15  C   UNL A   1      30.441  24.847  26.026  1.00  0.00     0.317 C 
ATOM     16  O   UNL A   1      29.510  24.999  26.821  1.00  0.00    -0.249 OA
ATOM     17  H   UNL A   1      29.956  22.964  25.839  1.00  0.00     0.165 HD
BRANCH  15  18
ATOM     18  N   UNL A   1      31.155  25.903  25.547  1.00  0.00    -0.320 N 
ATOM     19  C   UNL A   1      31.622  28.530  27.414  1.00  0.00     0.044 C 
ATOM     20  C   UNL A   1      32.510  27.916  26.324  1.00  0.00     0.080 C 
ATOM     21  C   UNL A   1      33.971  28.297  26.601  1.00  0.00     0.044 C 
ATOM     22  C   UNL A   1      32.356  26.367  26.273  1.00  0.00     0.156 C 
ATOM     23  O   UNL A   1      32.219  28.521  25.049  1.00  0.00    -0.372 OA
ATOM     24  C   UNL A   1      30.947  28.145  24.533  1.00  0.00     0.182 C 
ATOM     25  C   UNL A   1      30.876  26.640  24.330  1.00  0.00     0.150 C 
ENDBRANCH  15  18
ENDBRANCH  13  14
ENDBRANCH   8  13
ENDBRANCH   4   7
ENDBRANCH   2   3
ENDBRANCH   1   2
BRANCH   1  26
ATOM     26  C   UNL A   1      40.770  22.332  27.803  1.00  0.00     0.023 C 
BRANCH  26  27
ATOM     27  C   UNL A   1      41.727  23.521  27.822  1.00  0.00     0.116 C 
BRANCH  27  28
ATOM     28  N   UNL A   1      41.898  24.203  26.539  1.00  0.00    -0.352 N 
ATOM     29  C   UNL A   1      41.628  25.507  26.179  1.00  0.00     0.251 C 
ATOM     30  H   UNL A   1      42.264  23.642  25.817  1.00  0.00     0.163 HD
ATOM     31  O   UNL A   1      41.810  25.877  25.021  1.00  0.00    -0.269 OA
BRANCH  29  32
ATOM     32  C   UNL A   1      41.083  26.438  27.186  1.00  0.00     0.039 A 
ATOM     33  C   UNL A   1      40.124  25.990  28.098  1.00  0.00     0.014 A 
ATOM     34  C   UNL A   1      41.614  27.721  27.298  1.00  0.00     0.014 A 
ATOM     35  C   UNL A   1      39.811  26.781  29.208  1.00  0.00     0.010 A 
ATOM     36  C   UNL A   1      41.406  28.438  28.466  1.00  0.00     0.010 A 
ATOM     37  C   UNL A   1      40.513  27.975  29.444  1.00  0.00    -0.014 A 
BRANCH  37  38
ATOM     38  C   UNL A   1      40.365  28.758  30.701  1.00  0.00     0.031 A 
ATOM     39  C   UNL A   1      39.313  29.834  30.789  1.00  0.00     0.074 A 
ATOM     40  C   UNL A   1      41.257  28.605  31.704  1.00  0.00     0.049 A 
ATOM     41  N   UNL A   1      39.154  30.765  31.692  1.00  0.00    -0.248 NA
ATOM     42  C   UNL A   1      38.353  29.910  29.675  1.00  0.00     0.031 C 
ATOM     43  C   UNL A   1      42.376  27.658  31.715  1.00  0.00     0.029 A 
ATOM     44  N   UNL A   1      41.375  29.262  32.905  1.00  0.00    -0.354 N 
ATOM     45  C   UNL A   1      38.115  31.564  31.228  1.00  0.00     0.074 A 
ATOM     46  C   UNL A   1      37.725  31.047  29.937  1.00  0.00     0.031 C 
ATOM     47  C   UNL A   1      43.042  27.771  32.876  1.00  0.00     0.029 A 
ATOM     48  C   UNL A   1      42.431  28.829  33.673  1.00  0.00     0.049 A 
ATOM     49  H   UNL A   1      40.761  29.976  33.189  1.00  0.00     0.167 HD
ATOM     50  C   UNL A   1      37.517  32.616  31.836  1.00  0.00     0.037 A 
ATOM     51  C   UNL A   1      42.864  29.243  34.880  1.00  0.00     0.037 A 
ATOM     52  C   UNL A   1      37.852  33.073  33.158  1.00  0.00     0.049 A 
ATOM     53  C   UNL A   1      42.133  30.360  35.574  1.00  0.00     0.074 A 
ATOM     54  C   UNL A   1      37.246  34.064  33.906  1.00  0.00     0.029 A 
ATOM     55  N   UNL A   1      38.875  32.550  33.937  1.00  0.00    -0.354 N 
ATOM     56  N   UNL A   1      41.115  31.068  35.145  1.00  0.00    -0.248 NA
ATOM     57  C   UNL A   1      42.603  30.732  36.916  1.00  0.00     0.031 C 
ATOM     58  C   UNL A   1      37.915  34.158  35.131  1.00  0.00     0.029 A 
ATOM     59  C   UNL A   1      38.917  33.200  35.158  1.00  0.00     0.049 A 
ATOM     60  H   UNL A   1      39.481  31.825  33.661  1.00  0.00     0.167 HD
ATOM     61  C   UNL A   1      40.808  31.952  36.172  1.00  0.00     0.074 A 
ATOM     62  C   UNL A   1      41.740  31.683  37.248  1.00  0.00     0.031 C 
ATOM     63  C   UNL A   1      39.842  32.902  36.222  1.00  0.00     0.037 A 
BRANCH  50  64
ATOM     64  C   UNL A   1      36.419  33.320  31.086  1.00  0.00     0.058 A 
ATOM     65  C   UNL A   1      36.684  34.083  29.936  1.00  0.00     0.135 A 
ATOM     66  C   UNL A   1      35.085  33.226  31.515  1.00  0.00     0.135 A 
ATOM     67  F   UNL A   1      37.944  34.221  29.492  1.00  0.00    -0.206 F 
ATOM     68  C   UNL A   1      35.674  34.763  29.266  1.00  0.00     0.059 A 
ATOM     69  C   UNL A   1      34.054  33.872  30.840  1.00  0.00     0.059 A 
ATOM     70  F   UNL A   1      34.775  32.510  32.606  1.00  0.00    -0.206 F 
ATOM     71  C   UNL A   1      34.362  34.654  29.727  1.00  0.00     0.060 A 
BRANCH  71  72
ATOM     72  S   UNL A   1      33.063  35.549  28.850  1.00  0.00     0.124 S 
ATOM     73  O   UNL A   1      33.833  36.588  28.172  1.00  0.00    -0.237 OA
ATOM     74  O   UNL A   1      32.498  34.516  27.986  1.00  0.00    -0.237 OA
ATOM     75  O   UNL A   1      32.187  36.013  29.921  1.00  0.00    -0.744 OA
ENDBRANCH  71  72
ENDBRANCH  50  64
BRANCH  51  76
ATOM     76  C   UNL A   1      44.021  28.570  35.530  1.00  0.00     0.058 A 
ATOM     77  C   UNL A   1      45.331  29.012  35.292  1.00  0.00     0.135 A 
ATOM     78  C   UNL A   1      43.846  27.490  36.408  1.00  0.00     0.135 A 
ATOM     79  F   UNL A   1      45.550  30.037  34.455  1.00  0.00    -0.206 F 
ATOM     80  C   UNL A   1      46.428  28.398  35.887  1.00  0.00     0.059 A 
ATOM     81  C   UNL A   1      44.927  26.873  37.034  1.00  0.00     0.059 A 
ATOM     82  F   UNL A   1      42.612  27.041  36.685  1.00  0.00    -0.206 F 
ATOM     83  C   UNL A   1      46.216  27.329  36.758  1.00  0.00     0.060 A 
BRANCH  83  84
ATOM     84  S   UNL A   1      47.644  26.571  37.565  1.00  0.00     0.124 S 
ATOM     85  O   UNL A   1      48.738  27.391  37.056  1.00  0.00    -0.237 OA
ATOM     86  O   UNL A   1      47.324  26.739  38.979  1.00  0.00    -0.237 OA
ATOM     87  O   UNL A   1      47.609  25.195  37.082  1.00  0.00    -0.744 OA
ENDBRANCH  83  84
ENDBRANCH  51  76
BRANCH  63  88
ATOM     88  C   UNL A   1      39.717  33.696  37.489  1.00  0.00     0.058 A 
ATOM     89  C   UNL A   1      40.468  34.860  37.705  1.00  0.00     0.135 A 
ATOM     90  C   UNL A   1      38.783  33.322  38.469  1.00  0.00     0.135 A 
ATOM     91  F   UNL A   1      41.379  35.254  36.801  1.00  0.00    -0.206 F 
ATOM     92  C   UNL A   1      40.309  35.620  38.858  1.00  0.00     0.059 A 
ATOM     93  C   UNL A   1      38.591  34.080  39.618  1.00  0.00     0.059 A 
ATOM     94  F   UNL A   1      38.033  32.221  38.302  1.00  0.00    -0.206 F 
ATOM     95  C   UNL A   1      39.365  35.223  39.808  1.00  0.00     0.060 A 
BRANCH  95  96
ATOM     96  S   UNL A   1      39.134  36.245  41.278  1.00  0.00     0.124 S 
ATOM     97  O   UNL A   1      38.838  37.545  40.688  1.00  0.00    -0.237 OA
ATOM     98  O   UNL A   1      38.019  35.583  41.948  1.00  0.00    -0.237 OA
ATOM     99  O   UNL A   1      40.418  36.144  41.966  1.00  0.00    -0.744 OA
ENDBRANCH  95  96
ENDBRANCH  63  88
ENDBRANCH  37  38
ENDBRANCH  29  32
ENDBRANCH  27  28
ENDBRANCH  26  27
ENDBRANCH   1  26
TORSDOF 17
ENDMDL
