MODEL 1
REMARK VINA RESULT:     -14.0      0.000      0.000
REMARK SMILES Cc1nn(-c2nc3ccccc3o2)c2c1[C@H](c1ccc(C(=O)NCCCCNC(=O)c3ccc(-c4c5nc(c(-c6c(F)cc(S(=O)(=O)[O-])cc6F)c6ccc([nH]6)c(-c6c(F)cc(S(=O)(=O)[O-])cc6F)c6nc(c(-c7c(F)cc(S(=O)(=O)[O-])cc7F)c7ccc4[nH]7)C=C6)C=C5)cc3)cc1)CC(=O)N2
REMARK SMILES IDX 26 1 25 2 24 3 23 4 21 5 22 6 20 8 17 9 18 10 98 11 19 12
REMARK SMILES IDX 97 13 16 14 1 15 2 16 3 17 15 18 4 19 14 20 102 21 99 22
REMARK SMILES IDX 100 23 101 25 5 26 6 27 13 28 7 29 12 30 8 31 11 32 9 33
REMARK SMILES IDX 10 34 27 35 28 36 29 37 30 39 31 40 32 41 96 42 33 43 95 44
REMARK SMILES IDX 34 45 35 46 36 47 89 48 37 49 94 50 88 51 90 52 38 53 93 54
REMARK SMILES IDX 87 55 86 56 39 58 73 59 52 60 72 61 53 62 56 63 71 64 91 65
REMARK SMILES IDX 54 66 55 67 70 69 92 70 57 71 40 72 41 73 50 74 42 75 43 76
REMARK SMILES IDX 49 77 51 78 44 79 45 80 46 81 47 82 48 83 74 84 75 85 84 86
REMARK SMILES IDX 76 87 77 88 83 89 85 90 78 91 79 92 80 93 81 94 82 95 58 96
REMARK SMILES IDX 59 97 68 98 60 99 61 100 67 101 69 102 62 103 63 104 64 105
REMARK SMILES IDX 65 106 66 107
REMARK H PARENT 23 7 102 24 28 38 90 57 56 68
REMARK Flexibility Score: inf
ROOT
ATOM      1  C   UNL A   1      32.464  29.525  26.840  1.00  0.00     0.023 C 
ENDROOT
BRANCH   1   2
ATOM      2  C   UNL A   1      32.234  30.078  25.428  1.00  0.00     0.023 C 
BRANCH   2   3
ATOM      3  C   UNL A   1      30.768  30.290  25.025  1.00  0.00     0.116 C 
BRANCH   3   4
ATOM      4  N   UNL A   1      30.555  30.029  23.612  1.00  0.00    -0.352 N 
ATOM      5  C   UNL A   1      30.618  28.872  22.873  1.00  0.00     0.251 C 
ATOM      6  O   UNL A   1      30.319  28.923  21.680  1.00  0.00    -0.269 OA
ATOM      7  H   UNL A   1      30.321  30.828  23.087  1.00  0.00     0.163 HD
BRANCH   5   8
ATOM      8  C   UNL A   1      31.007  27.559  23.454  1.00  0.00     0.039 A 
ATOM      9  C   UNL A   1      31.640  25.003  24.539  1.00  0.00    -0.040 A 
ATOM     10  C   UNL A   1      30.322  25.338  24.185  1.00  0.00     0.005 A 
ATOM     11  C   UNL A   1      32.632  25.967  24.297  1.00  0.00     0.005 A 
ATOM     12  C   UNL A   1      30.015  26.589  23.628  1.00  0.00     0.014 A 
ATOM     13  C   UNL A   1      32.320  27.222  23.769  1.00  0.00     0.014 A 
BRANCH   9  14
ATOM     14  C   UNL A   1      31.953  23.648  25.165  1.00  0.00     0.064 C 
ATOM     15  C   UNL A   1      33.247  23.249  21.988  1.00  0.00     0.069 C 
ATOM     16  C   UNL A   1      33.841  23.013  23.329  1.00  0.00     0.066 A 
ATOM     17  N   UNL A   1      35.081  22.496  23.392  1.00  0.00    -0.167 NA
ATOM     18  C   UNL A   1      33.277  23.202  24.629  1.00  0.00     0.026 A 
ATOM     19  N   UNL A   1      35.323  22.368  24.716  1.00  0.00    -0.166 N 
ATOM     20  C   UNL A   1      34.217  22.652  25.467  1.00  0.00     0.145 A 
ATOM     21  N   UNL A   1      34.041  22.360  26.797  1.00  0.00    -0.310 N 
ATOM     22  C   UNL A   1      31.958  23.682  26.718  1.00  0.00     0.113 C 
ATOM     23  C   UNL A   1      32.852  22.664  27.406  1.00  0.00     0.226 C 
ATOM     24  H   UNL A   1      34.765  21.931  27.310  1.00  0.00     0.171 HD
ATOM     25  O   UNL A   1      32.607  22.233  28.533  1.00  0.00    -0.275 OA
BRANCH  19  26
ATOM     26  C   UNL A   1      36.610  22.083  25.155  1.00  0.00     0.325 A 
ATOM     27  N   UNL A   1      37.273  22.939  25.920  1.00  0.00    -0.191 NA
ATOM     28  O   UNL A   1      37.254  20.881  24.964  1.00  0.00    -0.422 OA
ATOM     29  C   UNL A   1      38.474  22.325  26.134  1.00  0.00     0.111 A 
ATOM     30  C   UNL A   1      38.453  21.051  25.592  1.00  0.00     0.156 A 
ATOM     31  C   UNL A   1      39.633  22.780  26.770  1.00  0.00     0.032 A 
ATOM     32  C   UNL A   1      39.500  20.143  25.672  1.00  0.00     0.049 A 
ATOM     33  C   UNL A   1      40.739  21.919  26.810  1.00  0.00     0.003 A 
ATOM     34  C   UNL A   1      40.667  20.622  26.282  1.00  0.00     0.004 A 
ENDBRANCH  19  26
ENDBRANCH   9  14
ENDBRANCH   5   8
ENDBRANCH   3   4
ENDBRANCH   2   3
ENDBRANCH   1   2
BRANCH   1  35
ATOM     35  C   UNL A   1      33.794  29.913  27.472  1.00  0.00     0.116 C 
BRANCH  35  36
ATOM     36  N   UNL A   1      34.166  31.302  27.205  1.00  0.00    -0.352 N 
ATOM     37  C   UNL A   1      35.260  31.998  27.692  1.00  0.00     0.251 C 
ATOM     38  H   UNL A   1      33.566  31.804  26.607  1.00  0.00     0.163 HD
ATOM     39  O   UNL A   1      35.257  33.216  27.749  1.00  0.00    -0.269 OA
BRANCH  37  40
ATOM     40  C   UNL A   1      36.440  31.224  28.119  1.00  0.00     0.039 A 
ATOM     41  C   UNL A   1      36.728  29.966  27.584  1.00  0.00     0.014 A 
ATOM     42  C   UNL A   1      37.289  31.820  29.048  1.00  0.00     0.014 A 
ATOM     43  C   UNL A   1      37.929  29.352  27.934  1.00  0.00     0.010 A 
ATOM     44  C   UNL A   1      38.533  31.288  29.268  1.00  0.00     0.010 A 
ATOM     45  C   UNL A   1      38.840  30.031  28.762  1.00  0.00    -0.014 A 
BRANCH  45  46
ATOM     46  C   UNL A   1      40.180  29.502  28.998  1.00  0.00     0.031 A 
ATOM     47  C   UNL A   1      40.466  29.194  30.429  1.00  0.00     0.074 A 
ATOM     48  C   UNL A   1      40.993  29.090  27.998  1.00  0.00     0.049 A 
ATOM     49  N   UNL A   1      41.285  29.796  31.226  1.00  0.00    -0.248 NA
ATOM     50  C   UNL A   1      39.614  28.198  31.107  1.00  0.00     0.031 C 
ATOM     51  C   UNL A   1      40.700  29.015  26.559  1.00  0.00     0.029 A 
ATOM     52  N   UNL A   1      42.234  28.538  28.065  1.00  0.00    -0.354 N 
ATOM     53  C   UNL A   1      41.243  29.086  32.424  1.00  0.00     0.074 A 
ATOM     54  C   UNL A   1      40.055  28.278  32.364  1.00  0.00     0.031 C 
ATOM     55  C   UNL A   1      41.618  28.236  25.945  1.00  0.00     0.029 A 
ATOM     56  C   UNL A   1      42.661  27.908  26.897  1.00  0.00     0.049 A 
ATOM     57  H   UNL A   1      42.789  28.580  28.878  1.00  0.00     0.167 HD
ATOM     58  C   UNL A   1      42.333  29.012  33.238  1.00  0.00     0.037 A 
ATOM     59  C   UNL A   1      43.782  27.158  26.736  1.00  0.00     0.037 A 
ATOM     60  C   UNL A   1      43.295  30.035  32.903  1.00  0.00     0.049 A 
ATOM     61  C   UNL A   1      44.692  27.506  27.859  1.00  0.00     0.074 A 
ATOM     62  C   UNL A   1      43.260  31.414  32.824  1.00  0.00     0.029 A 
ATOM     63  N   UNL A   1      44.404  29.651  32.186  1.00  0.00    -0.354 N 
ATOM     64  N   UNL A   1      45.239  28.682  28.013  1.00  0.00    -0.248 NA
ATOM     65  C   UNL A   1      44.610  26.693  29.060  1.00  0.00     0.031 C 
ATOM     66  C   UNL A   1      44.029  31.735  31.668  1.00  0.00     0.029 A 
ATOM     67  C   UNL A   1      44.562  30.548  31.161  1.00  0.00     0.049 A 
ATOM     68  H   UNL A   1      44.980  28.876  32.375  1.00  0.00     0.167 HD
ATOM     69  C   UNL A   1      45.170  28.927  29.377  1.00  0.00     0.074 A 
ATOM     70  C   UNL A   1      44.842  27.634  29.977  1.00  0.00     0.031 C 
ATOM     71  C   UNL A   1      45.101  30.201  29.864  1.00  0.00     0.037 A 
BRANCH  58  72
ATOM     72  C   UNL A   1      42.711  27.793  34.057  1.00  0.00     0.058 A 
ATOM     73  C   UNL A   1      42.747  27.892  35.464  1.00  0.00     0.135 A 
ATOM     74  C   UNL A   1      43.306  26.628  33.521  1.00  0.00     0.135 A 
ATOM     75  F   UNL A   1      42.221  28.960  36.088  1.00  0.00    -0.206 F 
ATOM     76  C   UNL A   1      43.389  26.948  36.267  1.00  0.00     0.059 A 
ATOM     77  C   UNL A   1      43.901  25.648  34.306  1.00  0.00     0.059 A 
ATOM     78  F   UNL A   1      43.428  26.422  32.205  1.00  0.00    -0.206 F 
ATOM     79  C   UNL A   1      43.974  25.834  35.675  1.00  0.00     0.060 A 
BRANCH  79  80
ATOM     80  S   UNL A   1      44.878  24.658  36.695  1.00  0.00     0.124 S 
ATOM     81  O   UNL A   1      44.312  24.921  38.012  1.00  0.00    -0.237 OA
ATOM     82  O   UNL A   1      44.512  23.385  36.082  1.00  0.00    -0.237 OA
ATOM     83  O   UNL A   1      46.270  25.058  36.512  1.00  0.00    -0.744 OA
ENDBRANCH  79  80
ENDBRANCH  58  72
BRANCH  59  84
ATOM     84  C   UNL A   1      43.981  25.933  25.913  1.00  0.00     0.058 A 
ATOM     85  C   UNL A   1      45.244  25.616  25.378  1.00  0.00     0.135 A 
ATOM     86  C   UNL A   1      43.025  24.897  25.896  1.00  0.00     0.135 A 
ATOM     87  F   UNL A   1      46.221  26.536  25.366  1.00  0.00    -0.206 F 
ATOM     88  C   UNL A   1      45.562  24.333  24.914  1.00  0.00     0.059 A 
ATOM     89  C   UNL A   1      43.317  23.612  25.432  1.00  0.00     0.059 A 
ATOM     90  F   UNL A   1      41.804  25.078  26.420  1.00  0.00    -0.206 F 
ATOM     91  C   UNL A   1      44.597  23.329  24.970  1.00  0.00     0.060 A 
BRANCH  91  92
ATOM     92  S   UNL A   1      45.058  21.628  24.551  1.00  0.00     0.124 S 
ATOM     93  O   UNL A   1      44.289  20.859  25.522  1.00  0.00    -0.237 OA
ATOM     94  O   UNL A   1      44.619  21.523  23.163  1.00  0.00    -0.237 OA
ATOM     95  O   UNL A   1      46.505  21.611  24.747  1.00  0.00    -0.744 OA
ENDBRANCH  91  92
ENDBRANCH  59  84
BRANCH  71  96
ATOM     96  C   UNL A   1      45.419  31.347  28.935  1.00  0.00     0.058 A 
ATOM     97  C   UNL A   1      46.712  31.810  28.628  1.00  0.00     0.135 A 
ATOM     98  C   UNL A   1      44.355  31.905  28.210  1.00  0.00     0.135 A 
ATOM     99  F   UNL A   1      47.795  31.265  29.200  1.00  0.00    -0.206 F 
ATOM    100  C   UNL A   1      46.929  32.808  27.674  1.00  0.00     0.059 A 
ATOM    101  C   UNL A   1      44.551  32.875  27.233  1.00  0.00     0.059 A 
ATOM    102  F   UNL A   1      43.102  31.466  28.412  1.00  0.00    -0.206 F 
ATOM    103  C   UNL A   1      45.840  33.335  26.979  1.00  0.00     0.060 A 
BRANCH 103 104
ATOM    104  S   UNL A   1      46.119  34.582  25.702  1.00  0.00     0.124 S 
ATOM    105  O   UNL A   1      47.533  34.395  25.395  1.00  0.00    -0.237 OA
ATOM    106  O   UNL A   1      45.184  34.181  24.656  1.00  0.00    -0.237 OA
ATOM    107  O   UNL A   1      45.789  35.838  26.373  1.00  0.00    -0.744 OA
ENDBRANCH 103 104
ENDBRANCH  71  96
ENDBRANCH  45  46
ENDBRANCH  37  40
ENDBRANCH  35  36
ENDBRANCH   1  35
TORSDOF 16
ENDMDL
MODEL 2
REMARK VINA RESULT:     -13.7      1.869      2.750
REMARK SMILES Cc1nn(-c2nc3ccccc3o2)c2c1[C@H](c1ccc(C(=O)NCCCCNC(=O)c3ccc(-c4c5nc(c(-c6c(F)cc(S(=O)(=O)[O-])cc6F)c6ccc([nH]6)c(-c6c(F)cc(S(=O)(=O)[O-])cc6F)c6nc(c(-c7c(F)cc(S(=O)(=O)[O-])cc7F)c7ccc4[nH]7)C=C6)C=C5)cc3)cc1)CC(=O)N2
REMARK SMILES IDX 26 1 25 2 24 3 23 4 21 5 22 6 20 8 17 9 18 10 98 11 19 12
REMARK SMILES IDX 97 13 16 14 1 15 2 16 3 17 15 18 4 19 14 20 102 21 99 22
REMARK SMILES IDX 100 23 101 25 5 26 6 27 13 28 7 29 12 30 8 31 11 32 9 33
REMARK SMILES IDX 10 34 27 35 28 36 29 37 30 39 31 40 32 41 96 42 33 43 95 44
REMARK SMILES IDX 34 45 35 46 36 47 89 48 37 49 94 50 88 51 90 52 38 53 93 54
REMARK SMILES IDX 87 55 86 56 39 58 73 59 52 60 72 61 53 62 56 63 71 64 91 65
REMARK SMILES IDX 54 66 55 67 70 69 92 70 57 71 40 72 41 73 50 74 42 75 43 76
REMARK SMILES IDX 49 77 51 78 44 79 45 80 46 81 47 82 48 83 74 84 75 85 84 86
REMARK SMILES IDX 76 87 77 88 83 89 85 90 78 91 79 92 80 93 81 94 82 95 58 96
REMARK SMILES IDX 59 97 68 98 60 99 61 100 67 101 69 102 62 103 63 104 64 105
REMARK SMILES IDX 65 106 66 107
REMARK H PARENT 23 7 102 24 28 38 90 57 56 68
REMARK Flexibility Score: inf
ROOT
ATOM      1  C   UNL A   1      32.540  30.283  27.134  1.00  0.00     0.023 C 
ENDROOT
BRANCH   1   2
ATOM      2  C   UNL A   1      31.814  30.770  25.873  1.00  0.00     0.023 C 
BRANCH   2   3
ATOM      3  C   UNL A   1      31.070  29.693  25.073  1.00  0.00     0.116 C 
BRANCH   3   4
ATOM      4  N   UNL A   1      31.596  29.563  23.725  1.00  0.00    -0.352 N 
ATOM      5  C   UNL A   1      32.507  28.692  23.177  1.00  0.00     0.251 C 
ATOM      6  O   UNL A   1      32.726  28.761  21.967  1.00  0.00    -0.269 OA
ATOM      7  H   UNL A   1      31.233  30.218  23.088  1.00  0.00     0.163 HD
BRANCH   5   8
ATOM      8  C   UNL A   1      33.220  27.656  23.972  1.00  0.00     0.039 A 
ATOM      9  C   UNL A   1      34.592  25.605  25.392  1.00  0.00    -0.040 A 
ATOM     10  C   UNL A   1      34.097  25.387  24.095  1.00  0.00     0.005 A 
ATOM     11  C   UNL A   1      34.414  26.886  25.938  1.00  0.00     0.005 A 
ATOM     12  C   UNL A   1      33.443  26.406  23.386  1.00  0.00     0.014 A 
ATOM     13  C   UNL A   1      33.737  27.890  25.241  1.00  0.00     0.014 A 
BRANCH   9  14
ATOM     14  C   UNL A   1      35.279  24.479  26.157  1.00  0.00     0.064 C 
ATOM     15  C   UNL A   1      31.996  24.075  27.149  1.00  0.00     0.069 C 
ATOM     16  C   UNL A   1      32.984  23.111  26.600  1.00  0.00     0.066 A 
ATOM     17  N   UNL A   1      32.622  21.819  26.499  1.00  0.00    -0.167 NA
ATOM     18  C   UNL A   1      34.337  23.317  26.186  1.00  0.00     0.026 A 
ATOM     19  N   UNL A   1      33.721  21.201  26.011  1.00  0.00    -0.166 N 
ATOM     20  C   UNL A   1      34.795  22.044  25.946  1.00  0.00     0.145 A 
ATOM     21  N   UNL A   1      36.105  21.678  25.763  1.00  0.00    -0.310 N 
ATOM     22  C   UNL A   1      36.649  24.075  25.545  1.00  0.00     0.113 C 
ATOM     23  C   UNL A   1      37.084  22.636  25.768  1.00  0.00     0.226 C 
ATOM     24  H   UNL A   1      36.341  20.730  25.632  1.00  0.00     0.171 HD
ATOM     25  O   UNL A   1      38.269  22.309  25.806  1.00  0.00    -0.275 OA
BRANCH  19  26
ATOM     26  C   UNL A   1      33.628  19.891  25.557  1.00  0.00     0.325 A 
ATOM     27  N   UNL A   1      32.689  19.076  26.019  1.00  0.00    -0.191 NA
ATOM     28  O   UNL A   1      34.381  19.361  24.534  1.00  0.00    -0.422 OA
ATOM     29  C   UNL A   1      32.921  17.903  25.359  1.00  0.00     0.111 A 
ATOM     30  C   UNL A   1      33.921  18.082  24.420  1.00  0.00     0.156 A 
ATOM     31  C   UNL A   1      32.333  16.643  25.502  1.00  0.00     0.032 A 
ATOM     32  C   UNL A   1      34.370  17.099  23.549  1.00  0.00     0.049 A 
ATOM     33  C   UNL A   1      32.807  15.603  24.690  1.00  0.00     0.003 A 
ATOM     34  C   UNL A   1      33.797  15.832  23.724  1.00  0.00     0.004 A 
ENDBRANCH  19  26
ENDBRANCH   9  14
ENDBRANCH   5   8
ENDBRANCH   3   4
ENDBRANCH   2   3
ENDBRANCH   1   2
BRANCH   1  35
ATOM     35  C   UNL A   1      33.882  30.951  27.400  1.00  0.00     0.116 C 
BRANCH  35  36
ATOM     36  N   UNL A   1      33.845  31.867  28.540  1.00  0.00    -0.352 N 
ATOM     37  C   UNL A   1      34.718  31.924  29.614  1.00  0.00     0.251 C 
ATOM     38  H   UNL A   1      33.110  32.522  28.545  1.00  0.00     0.163 HD
ATOM     39  O   UNL A   1      34.378  32.417  30.675  1.00  0.00    -0.269 OA
BRANCH  37  40
ATOM     40  C   UNL A   1      36.080  31.390  29.429  1.00  0.00     0.039 A 
ATOM     41  C   UNL A   1      37.168  32.225  29.170  1.00  0.00     0.014 A 
ATOM     42  C   UNL A   1      36.248  30.014  29.571  1.00  0.00     0.014 A 
ATOM     43  C   UNL A   1      38.445  31.666  29.141  1.00  0.00     0.010 A 
ATOM     44  C   UNL A   1      37.509  29.495  29.696  1.00  0.00     0.010 A 
ATOM     45  C   UNL A   1      38.611  30.300  29.427  1.00  0.00    -0.014 A 
BRANCH  45  46
ATOM     46  C   UNL A   1      39.942  29.720  29.588  1.00  0.00     0.031 A 
ATOM     47  C   UNL A   1      40.316  29.447  31.006  1.00  0.00     0.074 A 
ATOM     48  C   UNL A   1      40.662  29.239  28.549  1.00  0.00     0.049 A 
ATOM     49  N   UNL A   1      41.215  30.039  31.720  1.00  0.00    -0.248 NA
ATOM     50  C   UNL A   1      39.474  28.514  31.777  1.00  0.00     0.031 C 
ATOM     51  C   UNL A   1      40.264  29.130  27.138  1.00  0.00     0.029 A 
ATOM     52  N   UNL A   1      41.881  28.636  28.549  1.00  0.00    -0.354 N 
ATOM     53  C   UNL A   1      41.229  29.372  32.943  1.00  0.00     0.074 A 
ATOM     54  C   UNL A   1      40.006  28.616  32.997  1.00  0.00     0.031 C 
ATOM     55  C   UNL A   1      41.102  28.290  26.490  1.00  0.00     0.029 A 
ATOM     56  C   UNL A   1      42.196  27.949  27.378  1.00  0.00     0.049 A 
ATOM     57  H   UNL A   1      42.494  28.680  29.318  1.00  0.00     0.167 HD
ATOM     58  C   UNL A   1      42.371  29.277  33.681  1.00  0.00     0.037 A 
ATOM     59  C   UNL A   1      43.270  27.144  27.166  1.00  0.00     0.037 A 
ATOM     60  C   UNL A   1      43.348  30.244  33.243  1.00  0.00     0.049 A 
ATOM     61  C   UNL A   1      44.273  27.489  28.208  1.00  0.00     0.074 A 
ATOM     62  C   UNL A   1      43.365  31.620  33.116  1.00  0.00     0.029 A 
ATOM     63  N   UNL A   1      44.385  29.788  32.464  1.00  0.00    -0.354 N 
ATOM     64  N   UNL A   1      44.878  28.644  28.280  1.00  0.00    -0.248 NA
ATOM     65  C   UNL A   1      44.242  26.721  29.441  1.00  0.00     0.031 C 
ATOM     66  C   UNL A   1      44.062  31.868  31.897  1.00  0.00     0.029 A 
ATOM     67  C   UNL A   1      44.507  30.642  31.398  1.00  0.00     0.049 A 
ATOM     68  H   UNL A   1      44.940  28.995  32.641  1.00  0.00     0.167 HD
ATOM     69  C   UNL A   1      44.917  28.937  29.636  1.00  0.00     0.074 A 
ATOM     70  C   UNL A   1      44.579  27.681  30.305  1.00  0.00     0.031 C 
ATOM     71  C   UNL A   1      44.936  30.228  30.080  1.00  0.00     0.037 A 
BRANCH  58  72
ATOM     72  C   UNL A   1      42.754  28.071  34.516  1.00  0.00     0.058 A 
ATOM     73  C   UNL A   1      42.977  28.232  35.900  1.00  0.00     0.135 A 
ATOM     74  C   UNL A   1      43.185  26.837  33.977  1.00  0.00     0.135 A 
ATOM     75  F   UNL A   1      42.618  29.368  36.522  1.00  0.00    -0.206 F 
ATOM     76  C   UNL A   1      43.641  27.277  36.670  1.00  0.00     0.059 A 
ATOM     77  C   UNL A   1      43.798  25.848  34.739  1.00  0.00     0.059 A 
ATOM     78  F   UNL A   1      43.123  26.560  32.671  1.00  0.00    -0.206 F 
ATOM     79  C   UNL A   1      44.059  26.092  36.074  1.00  0.00     0.060 A 
BRANCH  79  80
ATOM     80  S   UNL A   1      44.992  24.893  37.041  1.00  0.00     0.124 S 
ATOM     81  O   UNL A   1      44.477  25.138  38.383  1.00  0.00    -0.237 OA
ATOM     82  O   UNL A   1      44.596  23.632  36.421  1.00  0.00    -0.237 OA
ATOM     83  O   UNL A   1      46.379  25.287  36.813  1.00  0.00    -0.744 OA
ENDBRANCH  79  80
ENDBRANCH  58  72
BRANCH  59  84
ATOM     84  C   UNL A   1      43.358  25.884  26.376  1.00  0.00     0.058 A 
ATOM     85  C   UNL A   1      44.384  25.690  25.431  1.00  0.00     0.135 A 
ATOM     86  C   UNL A   1      42.637  24.733  26.749  1.00  0.00     0.135 A 
ATOM     87  F   UNL A   1      45.133  26.729  25.028  1.00  0.00    -0.206 F 
ATOM     88  C   UNL A   1      44.718  24.424  24.935  1.00  0.00     0.059 A 
ATOM     89  C   UNL A   1      42.947  23.460  26.263  1.00  0.00     0.059 A 
ATOM     90  F   UNL A   1      41.667  24.797  27.674  1.00  0.00    -0.206 F 
ATOM     91  C   UNL A   1      44.008  23.309  25.378  1.00  0.00     0.060 A 
BRANCH  91  92
ATOM     92  S   UNL A   1      44.556  21.654  24.888  1.00  0.00     0.124 S 
ATOM     93  O   UNL A   1      45.850  21.555  25.554  1.00  0.00    -0.237 OA
ATOM     94  O   UNL A   1      43.497  20.807  25.426  1.00  0.00    -0.237 OA
ATOM     95  O   UNL A   1      44.609  21.733  23.430  1.00  0.00    -0.744 OA
ENDBRANCH  91  92
ENDBRANCH  59  84
BRANCH  71  96
ATOM     96  C   UNL A   1      45.235  31.328  29.090  1.00  0.00     0.058 A 
ATOM     97  C   UNL A   1      46.520  31.713  28.666  1.00  0.00     0.135 A 
ATOM     98  C   UNL A   1      44.145  31.918  28.432  1.00  0.00     0.135 A 
ATOM     99  F   UNL A   1      47.617  31.130  29.169  1.00  0.00    -0.206 F 
ATOM    100  C   UNL A   1      46.709  32.669  27.664  1.00  0.00     0.059 A 
ATOM    101  C   UNL A   1      44.309  32.847  27.410  1.00  0.00     0.059 A 
ATOM    102  F   UNL A   1      42.892  31.551  28.749  1.00  0.00    -0.206 F 
ATOM    103  C   UNL A   1      45.594  33.230  27.040  1.00  0.00     0.060 A 
BRANCH 103 104
ATOM    104  S   UNL A   1      45.831  34.421  25.702  1.00  0.00     0.124 S 
ATOM    105  O   UNL A   1      47.261  34.303  25.436  1.00  0.00    -0.237 OA
ATOM    106  O   UNL A   1      44.947  33.909  24.660  1.00  0.00    -0.237 OA
ATOM    107  O   UNL A   1      45.412  35.690  26.295  1.00  0.00    -0.744 OA
ENDBRANCH 103 104
ENDBRANCH  71  96
ENDBRANCH  45  46
ENDBRANCH  37  40
ENDBRANCH  35  36
ENDBRANCH   1  35
TORSDOF 16
ENDMDL
MODEL 3
REMARK VINA RESULT:     -13.7      0.873      1.480
REMARK SMILES Cc1nn(-c2nc3ccccc3o2)c2c1[C@H](c1ccc(C(=O)NCCCCNC(=O)c3ccc(-c4c5nc(c(-c6c(F)cc(S(=O)(=O)[O-])cc6F)c6ccc([nH]6)c(-c6c(F)cc(S(=O)(=O)[O-])cc6F)c6nc(c(-c7c(F)cc(S(=O)(=O)[O-])cc7F)c7ccc4[nH]7)C=C6)C=C5)cc3)cc1)CC(=O)N2
REMARK SMILES IDX 26 1 25 2 24 3 23 4 21 5 22 6 20 8 17 9 18 10 98 11 19 12
REMARK SMILES IDX 97 13 16 14 1 15 2 16 3 17 15 18 4 19 14 20 102 21 99 22
REMARK SMILES IDX 100 23 101 25 5 26 6 27 13 28 7 29 12 30 8 31 11 32 9 33
REMARK SMILES IDX 10 34 27 35 28 36 29 37 30 39 31 40 32 41 96 42 33 43 95 44
REMARK SMILES IDX 34 45 35 46 36 47 89 48 37 49 94 50 88 51 90 52 38 53 93 54
REMARK SMILES IDX 87 55 86 56 39 58 73 59 52 60 72 61 53 62 56 63 71 64 91 65
REMARK SMILES IDX 54 66 55 67 70 69 92 70 57 71 40 72 41 73 50 74 42 75 43 76
REMARK SMILES IDX 49 77 51 78 44 79 45 80 46 81 47 82 48 83 74 84 75 85 84 86
REMARK SMILES IDX 76 87 77 88 83 89 85 90 78 91 79 92 80 93 81 94 82 95 58 96
REMARK SMILES IDX 59 97 68 98 60 99 61 100 67 101 69 102 62 103 63 104 64 105
REMARK SMILES IDX 65 106 66 107
REMARK H PARENT 23 7 102 24 28 38 90 57 56 68
REMARK Flexibility Score: inf
ROOT
ATOM      1  C   UNL A   1      32.815  30.403  27.218  1.00  0.00     0.023 C 
ENDROOT
BRANCH   1   2
ATOM      2  C   UNL A   1      32.482  30.236  25.730  1.00  0.00     0.023 C 
BRANCH   2   3
ATOM      3  C   UNL A   1      30.995  30.340  25.363  1.00  0.00     0.116 C 
BRANCH   3   4
ATOM      4  N   UNL A   1      30.775  30.135  23.942  1.00  0.00    -0.352 N 
ATOM      5  C   UNL A   1      30.780  28.999  23.169  1.00  0.00     0.251 C 
ATOM      6  O   UNL A   1      30.490  29.102  21.977  1.00  0.00    -0.269 OA
ATOM      7  H   UNL A   1      30.586  30.961  23.442  1.00  0.00     0.163 HD
BRANCH   5   8
ATOM      8  C   UNL A   1      31.097  27.650  23.710  1.00  0.00     0.039 A 
ATOM      9  C   UNL A   1      31.590  25.031  24.714  1.00  0.00    -0.040 A 
ATOM     10  C   UNL A   1      30.297  25.437  24.342  1.00  0.00     0.005 A 
ATOM     11  C   UNL A   1      32.628  25.958  24.533  1.00  0.00     0.005 A 
ATOM     12  C   UNL A   1      30.059  26.719  23.823  1.00  0.00     0.014 A 
ATOM     13  C   UNL A   1      32.385  27.244  24.044  1.00  0.00     0.014 A 
BRANCH   9  14
ATOM     14  C   UNL A   1      31.827  23.642  25.297  1.00  0.00     0.064 C 
ATOM     15  C   UNL A   1      32.934  23.221  22.053  1.00  0.00     0.069 C 
ATOM     16  C   UNL A   1      33.571  22.910  23.358  1.00  0.00     0.066 A 
ATOM     17  N   UNL A   1      34.770  22.299  23.350  1.00  0.00    -0.167 NA
ATOM     18  C   UNL A   1      33.086  23.110  24.688  1.00  0.00     0.026 A 
ATOM     19  N   UNL A   1      35.064  22.122  24.658  1.00  0.00    -0.166 N 
ATOM     20  C   UNL A   1      34.019  22.471  25.468  1.00  0.00     0.145 A 
ATOM     21  N   UNL A   1      33.885  22.161  26.798  1.00  0.00    -0.310 N 
ATOM     22  C   UNL A   1      31.909  23.639  26.848  1.00  0.00     0.113 C 
ATOM     23  C   UNL A   1      32.754  22.541  27.472  1.00  0.00     0.226 C 
ATOM     24  H   UNL A   1      34.598  21.667  27.266  1.00  0.00     0.171 HD
ATOM     25  O   UNL A   1      32.530  22.103  28.600  1.00  0.00    -0.275 OA
BRANCH  19  26
ATOM     26  C   UNL A   1      36.344  21.729  25.027  1.00  0.00     0.325 A 
ATOM     27  N   UNL A   1      37.134  22.544  25.714  1.00  0.00    -0.191 NA
ATOM     28  O   UNL A   1      36.860  20.466  24.845  1.00  0.00    -0.422 OA
ATOM     29  C   UNL A   1      38.283  21.825  25.877  1.00  0.00     0.111 A 
ATOM     30  C   UNL A   1      38.108  20.542  25.390  1.00  0.00     0.156 A 
ATOM     31  C   UNL A   1      39.519  22.188  26.421  1.00  0.00     0.032 A 
ATOM     32  C   UNL A   1      39.068  19.541  25.441  1.00  0.00     0.049 A 
ATOM     33  C   UNL A   1      40.539  21.227  26.427  1.00  0.00     0.003 A 
ATOM     34  C   UNL A   1      40.312  19.926  25.958  1.00  0.00     0.004 A 
ENDBRANCH  19  26
ENDBRANCH   9  14
ENDBRANCH   5   8
ENDBRANCH   3   4
ENDBRANCH   2   3
ENDBRANCH   1   2
BRANCH   1  35
ATOM     35  C   UNL A   1      34.118  31.137  27.505  1.00  0.00     0.116 C 
BRANCH  35  36
ATOM     36  N   UNL A   1      34.059  31.945  28.723  1.00  0.00    -0.352 N 
ATOM     37  C   UNL A   1      34.907  31.898  29.817  1.00  0.00     0.251 C 
ATOM     38  H   UNL A   1      33.327  32.602  28.771  1.00  0.00     0.163 HD
ATOM     39  O   UNL A   1      34.545  32.295  30.911  1.00  0.00    -0.269 OA
BRANCH  37  40
ATOM     40  C   UNL A   1      36.270  31.374  29.615  1.00  0.00     0.039 A 
ATOM     41  C   UNL A   1      37.357  32.220  29.385  1.00  0.00     0.014 A 
ATOM     42  C   UNL A   1      36.442  29.995  29.709  1.00  0.00     0.014 A 
ATOM     43  C   UNL A   1      38.635  31.666  29.338  1.00  0.00     0.010 A 
ATOM     44  C   UNL A   1      37.705  29.475  29.817  1.00  0.00     0.010 A 
ATOM     45  C   UNL A   1      38.804  30.291  29.577  1.00  0.00    -0.014 A 
BRANCH  45  46
ATOM     46  C   UNL A   1      40.136  29.709  29.718  1.00  0.00     0.031 A 
ATOM     47  C   UNL A   1      40.568  29.522  31.134  1.00  0.00     0.074 A 
ATOM     48  C   UNL A   1      40.809  29.157  28.682  1.00  0.00     0.049 A 
ATOM     49  N   UNL A   1      41.500  30.149  31.772  1.00  0.00    -0.248 NA
ATOM     50  C   UNL A   1      39.753  28.648  31.997  1.00  0.00     0.031 C 
ATOM     51  C   UNL A   1      40.351  28.963  27.299  1.00  0.00     0.029 A 
ATOM     52  N   UNL A   1      42.022  28.543  28.670  1.00  0.00    -0.354 N 
ATOM     53  C   UNL A   1      41.561  29.560  33.033  1.00  0.00     0.074 A 
ATOM     54  C   UNL A   1      40.336  28.821  33.185  1.00  0.00     0.031 C 
ATOM     55  C   UNL A   1      41.155  28.077  26.671  1.00  0.00     0.029 A 
ATOM     56  C   UNL A   1      42.283  27.781  27.532  1.00  0.00     0.049 A 
ATOM     57  H   UNL A   1      42.667  28.629  29.409  1.00  0.00     0.167 HD
ATOM     58  C   UNL A   1      42.732  29.500  33.727  1.00  0.00     0.037 A 
ATOM     59  C   UNL A   1      43.341  26.954  27.327  1.00  0.00     0.037 A 
ATOM     60  C   UNL A   1      43.697  30.428  33.188  1.00  0.00     0.049 A 
ATOM     61  C   UNL A   1      44.389  27.353  28.303  1.00  0.00     0.074 A 
ATOM     62  C   UNL A   1      43.719  31.793  32.974  1.00  0.00     0.029 A 
ATOM     63  N   UNL A   1      44.698  29.914  32.397  1.00  0.00    -0.354 N 
ATOM     64  N   UNL A   1      45.005  28.504  28.277  1.00  0.00    -0.248 NA
ATOM     65  C   UNL A   1      44.405  26.664  29.582  1.00  0.00     0.031 C 
ATOM     66  C   UNL A   1      44.366  31.957  31.714  1.00  0.00     0.029 A 
ATOM     67  C   UNL A   1      44.781  30.698  31.276  1.00  0.00     0.049 A 
ATOM     68  H   UNL A   1      45.254  29.128  32.600  1.00  0.00     0.167 HD
ATOM     69  C   UNL A   1      45.104  28.882  29.609  1.00  0.00     0.074 A 
ATOM     70  C   UNL A   1      44.785  27.674  30.370  1.00  0.00     0.031 C 
ATOM     71  C   UNL A   1      45.151  30.198  29.969  1.00  0.00     0.037 A 
BRANCH  58  72
ATOM     72  C   UNL A   1      43.142  28.345  34.620  1.00  0.00     0.058 A 
ATOM     73  C   UNL A   1      43.594  28.612  35.929  1.00  0.00     0.135 A 
ATOM     74  C   UNL A   1      43.378  27.029  34.158  1.00  0.00     0.135 A 
ATOM     75  F   UNL A   1      43.434  29.830  36.472  1.00  0.00    -0.206 F 
ATOM     76  C   UNL A   1      44.290  27.671  36.690  1.00  0.00     0.059 A 
ATOM     77  C   UNL A   1      44.020  26.061  34.921  1.00  0.00     0.059 A 
ATOM     78  F   UNL A   1      43.087  26.639  32.913  1.00  0.00    -0.206 F 
ATOM     79  C   UNL A   1      44.509  26.400  36.169  1.00  0.00     0.060 A 
BRANCH  79  80
ATOM     80  S   UNL A   1      45.481  25.211  37.108  1.00  0.00     0.124 S 
ATOM     81  O   UNL A   1      45.882  24.275  36.065  1.00  0.00    -0.237 OA
ATOM     82  O   UNL A   1      46.539  26.053  37.657  1.00  0.00    -0.237 OA
ATOM     83  O   UNL A   1      44.526  24.698  38.086  1.00  0.00    -0.744 OA
ENDBRANCH  79  80
ENDBRANCH  58  72
BRANCH  59  84
ATOM     84  C   UNL A   1      43.387  25.646  26.615  1.00  0.00     0.058 A 
ATOM     85  C   UNL A   1      44.135  25.490  25.433  1.00  0.00     0.135 A 
ATOM     86  C   UNL A   1      42.962  24.456  27.240  1.00  0.00     0.135 A 
ATOM     87  F   UNL A   1      44.594  26.568  24.779  1.00  0.00    -0.206 F 
ATOM     88  C   UNL A   1      44.496  24.231  24.934  1.00  0.00     0.059 A 
ATOM     89  C   UNL A   1      43.304  23.190  26.757  1.00  0.00     0.059 A 
ATOM     90  F   UNL A   1      42.280  24.489  28.395  1.00  0.00    -0.206 F 
ATOM     91  C   UNL A   1      44.096  23.086  25.619  1.00  0.00     0.060 A 
BRANCH  91  92
ATOM     92  S   UNL A   1      44.716  21.469  25.088  1.00  0.00     0.124 S 
ATOM     93  O   UNL A   1      46.065  21.467  25.641  1.00  0.00    -0.237 OA
ATOM     94  O   UNL A   1      43.769  20.554  25.716  1.00  0.00    -0.237 OA
ATOM     95  O   UNL A   1      44.639  21.540  23.631  1.00  0.00    -0.744 OA
ENDBRANCH  91  92
ENDBRANCH  59  84
BRANCH  71  96
ATOM     96  C   UNL A   1      45.416  31.230  28.900  1.00  0.00     0.058 A 
ATOM     97  C   UNL A   1      44.429  31.901  28.155  1.00  0.00     0.135 A 
ATOM     98  C   UNL A   1      46.742  31.659  28.733  1.00  0.00     0.135 A 
ATOM     99  F   UNL A   1      43.129  31.625  28.323  1.00  0.00    -0.206 F 
ATOM    100  C   UNL A   1      44.753  32.923  27.257  1.00  0.00     0.059 A 
ATOM    101  C   UNL A   1      47.083  32.695  27.871  1.00  0.00     0.059 A 
ATOM    102  F   UNL A   1      47.725  31.100  29.458  1.00  0.00    -0.206 F 
ATOM    103  C   UNL A   1      46.086  33.314  27.123  1.00  0.00     0.060 A 
BRANCH 103 104
ATOM    104  S   UNL A   1      46.504  34.674  26.010  1.00  0.00     0.124 S 
ATOM    105  O   UNL A   1      46.021  35.836  26.750  1.00  0.00    -0.237 OA
ATOM    106  O   UNL A   1      47.953  34.555  25.892  1.00  0.00    -0.237 OA
ATOM    107  O   UNL A   1      45.760  34.361  24.792  1.00  0.00    -0.744 OA
ENDBRANCH 103 104
ENDBRANCH  71  96
ENDBRANCH  45  46
ENDBRANCH  37  40
ENDBRANCH  35  36
ENDBRANCH   1  35
TORSDOF 16
ENDMDL
