MODEL 1
REMARK VINA RESULT:     -13.7      0.000      0.000
REMARK SMILES O=C(NCCCCNC(=O)[C@@H]1CC=CC[C@H]1C(=O)N1CC[NH+](Cc2ccc3c(c2)OCO3)CC1)c1ccc(-c2c3nc(c(-c4c(F)cc(S(=O)(=O)[O-])cc4F)c4ccc([nH]4)c(-c4c(F)cc(S(=O)(=O)[O-])cc4F)c4nc(c(-c5c(F)cc(S(=O)(=O)[O-])cc5F)c5ccc2[nH]5)C=C4)C=C3)cc1
REMARK SMILES IDX 5 1 4 2 3 3 1 4 2 5 35 7 36 8 100 9 37 10 99 11 38 12 39 13
REMARK SMILES IDX 40 14 93 15 41 16 98 17 92 18 94 19 42 20 97 21 91 22 90 23
REMARK SMILES IDX 43 25 77 26 56 27 76 28 57 29 60 30 75 31 95 32 58 33 59 34
REMARK SMILES IDX 74 36 96 37 61 38 44 39 45 40 54 41 46 42 47 43 53 44 55 45
REMARK SMILES IDX 48 46 49 47 50 48 51 49 52 50 78 51 79 52 88 53 80 54 81 55
REMARK SMILES IDX 87 56 89 57 82 58 83 59 84 60 85 61 86 62 62 63 63 64 72 65
REMARK SMILES IDX 64 66 65 67 71 68 73 69 66 70 67 71 68 72 69 73 70 74 6 75
REMARK SMILES IDX 7 76 8 77 9 78 10 80 11 81 12 82 16 83 13 84 15 85 14 86
REMARK SMILES IDX 17 87 18 88 19 89 20 90 34 91 21 92 33 93 22 94 23 96 24 97
REMARK SMILES IDX 25 98 29 99 26 100 28 101 27 102 30 103 32 104 31 105
REMARK H PARENT 3 6 94 24 60 35 8 79 22 95
REMARK Flexibility Score: inf
ROOT
ATOM      1  C   UNL A   1      35.145  31.676  27.742  1.00  0.00     0.023 C 
ENDROOT
BRANCH   1   2
ATOM      2  C   UNL A   1      35.630  32.110  29.134  1.00  0.00     0.116 C 
BRANCH   2   3
ATOM      3  N   UNL A   1      35.522  31.074  30.155  1.00  0.00    -0.352 N 
ATOM      4  O   UNL A   1      36.217  29.312  31.391  1.00  0.00    -0.269 OA
ATOM      5  C   UNL A   1      36.495  30.188  30.576  1.00  0.00     0.251 C 
ATOM      6  H   UNL A   1      34.646  30.997  30.599  1.00  0.00     0.163 HD
BRANCH   5   7
ATOM      7  C   UNL A   1      37.854  30.256  29.986  1.00  0.00     0.039 A 
ATOM      8  C   UNL A   1      38.063  29.960  28.640  1.00  0.00     0.014 A 
ATOM      9  C   UNL A   1      38.946  30.549  30.806  1.00  0.00     0.014 A 
ATOM     10  C   UNL A   1      39.353  29.751  28.159  1.00  0.00     0.010 A 
ATOM     11  C   UNL A   1      40.246  30.400  30.308  1.00  0.00     0.010 A 
ATOM     12  C   UNL A   1      40.459  29.915  29.005  1.00  0.00    -0.014 A 
BRANCH  12  13
ATOM     13  C   UNL A   1      41.794  29.405  28.581  1.00  0.00     0.031 A 
ATOM     14  C   UNL A   1      42.983  30.338  28.624  1.00  0.00     0.074 A 
ATOM     15  C   UNL A   1      41.977  28.115  28.240  1.00  0.00     0.049 A 
ATOM     16  N   UNL A   1      44.218  30.131  28.241  1.00  0.00    -0.248 NA
ATOM     17  C   UNL A   1      42.747  31.688  29.163  1.00  0.00     0.031 C 
ATOM     18  C   UNL A   1      40.933  27.091  28.203  1.00  0.00     0.029 A 
ATOM     19  N   UNL A   1      43.117  27.441  27.875  1.00  0.00    -0.354 N 
ATOM     20  C   UNL A   1      44.884  31.339  28.434  1.00  0.00     0.074 A 
ATOM     21  C   UNL A   1      43.917  32.274  28.962  1.00  0.00     0.031 C 
ATOM     22  C   UNL A   1      41.486  25.912  27.872  1.00  0.00     0.029 A 
ATOM     23  C   UNL A   1      42.913  26.105  27.620  1.00  0.00     0.049 A 
ATOM     24  H   UNL A   1      43.998  27.874  27.802  1.00  0.00     0.167 HD
ATOM     25  C   UNL A   1      46.183  31.641  28.199  1.00  0.00     0.037 A 
ATOM     26  C   UNL A   1      43.773  25.149  27.219  1.00  0.00     0.037 A 
ATOM     27  C   UNL A   1      47.164  30.695  27.741  1.00  0.00     0.049 A 
ATOM     28  C   UNL A   1      45.218  25.502  26.982  1.00  0.00     0.074 A 
ATOM     29  C   UNL A   1      48.510  30.902  27.489  1.00  0.00     0.029 A 
ATOM     30  N   UNL A   1      46.912  29.355  27.489  1.00  0.00    -0.354 N 
ATOM     31  N   UNL A   1      45.818  26.660  27.126  1.00  0.00    -0.248 NA
ATOM     32  C   UNL A   1      46.101  24.421  26.522  1.00  0.00     0.031 C 
ATOM     33  C   UNL A   1      49.067  29.689  27.064  1.00  0.00     0.029 A 
ATOM     34  C   UNL A   1      48.075  28.722  27.086  1.00  0.00     0.049 A 
ATOM     35  H   UNL A   1      46.035  28.918  27.584  1.00  0.00     0.167 HD
ATOM     36  C   UNL A   1      47.151  26.440  26.793  1.00  0.00     0.074 A 
ATOM     37  C   UNL A   1      47.272  25.038  26.454  1.00  0.00     0.031 C 
ATOM     38  C   UNL A   1      48.182  27.321  26.768  1.00  0.00     0.037 A 
BRANCH  25  39
ATOM     39  C   UNL A   1      46.609  33.069  28.404  1.00  0.00     0.058 A 
ATOM     40  C   UNL A   1      46.519  34.030  27.385  1.00  0.00     0.135 A 
ATOM     41  C   UNL A   1      47.111  33.481  29.650  1.00  0.00     0.135 A 
ATOM     42  F   UNL A   1      46.068  33.683  26.168  1.00  0.00    -0.206 F 
ATOM     43  C   UNL A   1      46.942  35.340  27.582  1.00  0.00     0.059 A 
ATOM     44  C   UNL A   1      47.517  34.793  29.878  1.00  0.00     0.059 A 
ATOM     45  F   UNL A   1      47.218  32.603  30.659  1.00  0.00    -0.206 F 
ATOM     46  C   UNL A   1      47.446  35.710  28.830  1.00  0.00     0.060 A 
BRANCH  46  47
ATOM     47  S   UNL A   1      48.011  37.409  29.070  1.00  0.00     0.124 S 
ATOM     48  O   UNL A   1      47.177  38.127  28.110  1.00  0.00    -0.237 OA
ATOM     49  O   UNL A   1      47.704  37.647  30.477  1.00  0.00    -0.237 OA
ATOM     50  O   UNL A   1      49.432  37.343  28.743  1.00  0.00    -0.744 OA
ENDBRANCH  46  47
ENDBRANCH  25  39
BRANCH  26  51
ATOM     51  C   UNL A   1      43.293  23.755  27.012  1.00  0.00     0.058 A 
ATOM     52  C   UNL A   1      43.060  23.255  25.723  1.00  0.00     0.135 A 
ATOM     53  C   UNL A   1      43.061  22.897  28.098  1.00  0.00     0.135 A 
ATOM     54  F   UNL A   1      43.255  24.042  24.654  1.00  0.00    -0.206 F 
ATOM     55  C   UNL A   1      42.608  21.956  25.516  1.00  0.00     0.059 A 
ATOM     56  C   UNL A   1      42.632  21.587  27.915  1.00  0.00     0.059 A 
ATOM     57  F   UNL A   1      43.277  23.326  29.351  1.00  0.00    -0.206 F 
ATOM     58  C   UNL A   1      42.400  21.128  26.620  1.00  0.00     0.060 A 
BRANCH  58  59
ATOM     59  S   UNL A   1      41.871  19.423  26.342  1.00  0.00     0.124 S 
ATOM     60  O   UNL A   1      42.398  18.757  27.528  1.00  0.00    -0.237 OA
ATOM     61  O   UNL A   1      40.419  19.555  26.276  1.00  0.00    -0.237 OA
ATOM     62  O   UNL A   1      42.519  19.075  25.081  1.00  0.00    -0.744 OA
ENDBRANCH  58  59
ENDBRANCH  26  51
BRANCH  38  63
ATOM     63  C   UNL A   1      49.538  26.787  26.402  1.00  0.00     0.058 A 
ATOM     64  C   UNL A   1      50.339  26.109  27.332  1.00  0.00     0.135 A 
ATOM     65  C   UNL A   1      50.022  26.925  25.091  1.00  0.00     0.135 A 
ATOM     66  F   UNL A   1      49.921  25.954  28.597  1.00  0.00    -0.206 F 
ATOM     67  C   UNL A   1      51.589  25.607  26.983  1.00  0.00     0.059 A 
ATOM     68  C   UNL A   1      51.260  26.414  24.715  1.00  0.00     0.059 A 
ATOM     69  F   UNL A   1      49.287  27.556  24.161  1.00  0.00    -0.206 F 
ATOM     70  C   UNL A   1      52.042  25.768  25.672  1.00  0.00     0.060 A 
BRANCH  70  71
ATOM     71  S   UNL A   1      53.659  25.100  25.221  1.00  0.00     0.124 S 
ATOM     72  O   UNL A   1      54.514  25.687  26.247  1.00  0.00    -0.237 OA
ATOM     73  O   UNL A   1      53.445  23.659  25.322  1.00  0.00    -0.237 OA
ATOM     74  O   UNL A   1      53.865  25.602  23.866  1.00  0.00    -0.744 OA
ENDBRANCH  70  71
ENDBRANCH  38  63
ENDBRANCH  12  13
ENDBRANCH   5   7
ENDBRANCH   2   3
ENDBRANCH   1   2
BRANCH   1  75
ATOM     75  C   UNL A   1      33.842  30.856  27.706  1.00  0.00     0.023 C 
BRANCH  75  76
ATOM     76  C   UNL A   1      34.025  29.386  27.315  1.00  0.00     0.116 C 
BRANCH  76  77
ATOM     77  N   UNL A   1      32.871  28.543  27.550  1.00  0.00    -0.356 N 
ATOM     78  C   UNL A   1      32.268  27.646  26.719  1.00  0.00     0.224 C 
ATOM     79  H   UNL A   1      32.463  28.631  28.442  1.00  0.00     0.163 HD
ATOM     80  O   UNL A   1      31.670  26.708  27.254  1.00  0.00    -0.275 OA
BRANCH  78  81
ATOM     81  C   UNL A   1      32.239  27.855  25.196  1.00  0.00     0.095 C 
ATOM     82  C   UNL A   1      31.173  28.970  24.972  1.00  0.00     0.041 C 
ATOM     83  C   UNL A   1      31.854  26.565  24.443  1.00  0.00     0.095 C 
ATOM     84  C   UNL A   1      30.538  29.033  23.619  1.00  0.00    -0.030 C 
ATOM     85  C   UNL A   1      31.300  26.752  23.010  1.00  0.00     0.041 C 
ATOM     86  C   UNL A   1      30.584  28.029  22.742  1.00  0.00    -0.030 C 
BRANCH  83  87
ATOM     87  C   UNL A   1      32.924  25.474  24.353  1.00  0.00     0.227 C 
ATOM     88  O   UNL A   1      34.024  25.749  23.869  1.00  0.00    -0.275 OA
ATOM     89  N   UNL A   1      32.691  24.247  24.982  1.00  0.00    -0.331 N 
ATOM     90  C   UNL A   1      33.877  23.586  25.529  1.00  0.00     0.181 C 
ATOM     91  C   UNL A   1      31.553  23.406  24.610  1.00  0.00     0.181 C 
ATOM     92  C   UNL A   1      33.619  22.254  26.256  1.00  0.00     0.284 C 
ATOM     93  C   UNL A   1      31.440  22.036  25.300  1.00  0.00     0.284 C 
ATOM     94  N   UNL A   1      32.695  21.341  25.578  1.00  0.00    -0.328 N 
ATOM     95  H   UNL A   1      32.487  20.584  26.230  1.00  0.00     0.348 HD
BRANCH  94  96
ATOM     96  C   UNL A   1      33.252  20.526  24.483  1.00  0.00     0.299 C 
BRANCH  96  97
ATOM     97  C   UNL A   1      33.549  19.067  24.757  1.00  0.00     0.010 A 
ATOM     98  C   UNL A   1      34.847  18.546  24.518  1.00  0.00     0.013 A 
ATOM     99  C   UNL A   1      32.544  18.199  25.201  1.00  0.00     0.060 A 
ATOM    100  C   UNL A   1      35.119  17.179  24.655  1.00  0.00     0.051 A 
ATOM    101  C   UNL A   1      32.839  16.854  25.316  1.00  0.00     0.166 A 
ATOM    102  C   UNL A   1      34.089  16.357  25.048  1.00  0.00     0.165 A 
ATOM    103  O   UNL A   1      31.965  15.878  25.682  1.00  0.00    -0.454 OA
ATOM    104  O   UNL A   1      34.162  15.011  25.213  1.00  0.00    -0.454 OA
ATOM    105  C   UNL A   1      32.817  14.713  25.635  1.00  0.00     0.468 C 
ENDBRANCH  96  97
ENDBRANCH  94  96
ENDBRANCH  83  87
ENDBRANCH  78  81
ENDBRANCH  76  77
ENDBRANCH  75  76
ENDBRANCH   1  75
TORSDOF 17
ENDMDL
MODEL 2
REMARK VINA RESULT:     -13.4      1.927      2.802
REMARK SMILES O=C(NCCCCNC(=O)[C@@H]1CC=CC[C@H]1C(=O)N1CC[NH+](Cc2ccc3c(c2)OCO3)CC1)c1ccc(-c2c3nc(c(-c4c(F)cc(S(=O)(=O)[O-])cc4F)c4ccc([nH]4)c(-c4c(F)cc(S(=O)(=O)[O-])cc4F)c4nc(c(-c5c(F)cc(S(=O)(=O)[O-])cc5F)c5ccc2[nH]5)C=C4)C=C3)cc1
REMARK SMILES IDX 5 1 4 2 3 3 1 4 2 5 35 7 36 8 100 9 37 10 99 11 38 12 39 13
REMARK SMILES IDX 40 14 93 15 41 16 98 17 92 18 94 19 42 20 97 21 91 22 90 23
REMARK SMILES IDX 43 25 77 26 56 27 76 28 57 29 60 30 75 31 95 32 58 33 59 34
REMARK SMILES IDX 74 36 96 37 61 38 44 39 45 40 54 41 46 42 47 43 53 44 55 45
REMARK SMILES IDX 48 46 49 47 50 48 51 49 52 50 78 51 79 52 88 53 80 54 81 55
REMARK SMILES IDX 87 56 89 57 82 58 83 59 84 60 85 61 86 62 62 63 63 64 72 65
REMARK SMILES IDX 64 66 65 67 71 68 73 69 66 70 67 71 68 72 69 73 70 74 6 75
REMARK SMILES IDX 7 76 8 77 9 78 10 80 11 81 12 82 16 83 13 84 15 85 14 86
REMARK SMILES IDX 17 87 18 88 19 89 20 90 34 91 21 92 33 93 22 94 23 96 24 97
REMARK SMILES IDX 25 98 29 99 26 100 28 101 27 102 30 103 32 104 31 105
REMARK H PARENT 3 6 94 24 60 35 8 79 22 95
REMARK Flexibility Score: inf
ROOT
ATOM      1  C   UNL A   1      35.427  31.774  27.670  1.00  0.00     0.023 C 
ENDROOT
BRANCH   1   2
ATOM      2  C   UNL A   1      35.868  32.059  29.114  1.00  0.00     0.116 C 
BRANCH   2   3
ATOM      3  N   UNL A   1      35.720  30.925  30.020  1.00  0.00    -0.352 N 
ATOM      4  O   UNL A   1      36.343  29.012  31.052  1.00  0.00    -0.269 OA
ATOM      5  C   UNL A   1      36.656  29.957  30.333  1.00  0.00     0.251 C 
ATOM      6  H   UNL A   1      34.845  30.839  30.463  1.00  0.00     0.163 HD
BRANCH   5   7
ATOM      7  C   UNL A   1      38.013  30.029  29.739  1.00  0.00     0.039 A 
ATOM      8  C   UNL A   1      38.225  29.692  28.404  1.00  0.00     0.014 A 
ATOM      9  C   UNL A   1      39.100  30.368  30.548  1.00  0.00     0.014 A 
ATOM     10  C   UNL A   1      39.519  29.489  27.928  1.00  0.00     0.010 A 
ATOM     11  C   UNL A   1      40.402  30.225  30.052  1.00  0.00     0.010 A 
ATOM     12  C   UNL A   1      40.622  29.700  28.766  1.00  0.00    -0.014 A 
BRANCH  12  13
ATOM     13  C   UNL A   1      41.966  29.199  28.358  1.00  0.00     0.031 A 
ATOM     14  C   UNL A   1      43.148  30.139  28.418  1.00  0.00     0.074 A 
ATOM     15  C   UNL A   1      42.161  27.911  28.015  1.00  0.00     0.049 A 
ATOM     16  N   UNL A   1      44.389  29.940  28.050  1.00  0.00    -0.248 NA
ATOM     17  C   UNL A   1      42.897  31.486  28.958  1.00  0.00     0.031 C 
ATOM     18  C   UNL A   1      41.123  26.881  27.963  1.00  0.00     0.029 A 
ATOM     19  N   UNL A   1      43.309  27.244  27.663  1.00  0.00    -0.354 N 
ATOM     20  C   UNL A   1      45.046  31.151  28.254  1.00  0.00     0.074 A 
ATOM     21  C   UNL A   1      44.067  32.079  28.773  1.00  0.00     0.031 C 
ATOM     22  C   UNL A   1      41.687  25.706  27.636  1.00  0.00     0.029 A 
ATOM     23  C   UNL A   1      43.116  25.908  27.403  1.00  0.00     0.049 A 
ATOM     24  H   UNL A   1      44.188  27.683  27.603  1.00  0.00     0.167 HD
ATOM     25  C   UNL A   1      46.345  31.462  28.036  1.00  0.00     0.037 A 
ATOM     26  C   UNL A   1      43.987  24.958  27.009  1.00  0.00     0.037 A 
ATOM     27  C   UNL A   1      47.338  30.522  27.588  1.00  0.00     0.049 A 
ATOM     28  C   UNL A   1      45.433  25.320  26.792  1.00  0.00     0.074 A 
ATOM     29  C   UNL A   1      48.686  30.738  27.353  1.00  0.00     0.029 A 
ATOM     30  N   UNL A   1      47.097  29.182  27.329  1.00  0.00    -0.354 N 
ATOM     31  N   UNL A   1      46.024  26.481  26.946  1.00  0.00    -0.248 NA
ATOM     32  C   UNL A   1      46.327  24.245  26.340  1.00  0.00     0.031 C 
ATOM     33  C   UNL A   1      49.255  29.530  26.932  1.00  0.00     0.029 A 
ATOM     34  C   UNL A   1      48.269  28.557  26.939  1.00  0.00     0.049 A 
ATOM     35  H   UNL A   1      46.222  28.739  27.412  1.00  0.00     0.167 HD
ATOM     36  C   UNL A   1      47.362  26.270  26.629  1.00  0.00     0.074 A 
ATOM     37  C   UNL A   1      47.496  24.870  26.288  1.00  0.00     0.031 C 
ATOM     38  C   UNL A   1      48.388  27.158  26.619  1.00  0.00     0.037 A 
BRANCH  25  39
ATOM     39  C   UNL A   1      46.761  32.891  28.251  1.00  0.00     0.058 A 
ATOM     40  C   UNL A   1      47.290  33.340  29.471  1.00  0.00     0.135 A 
ATOM     41  C   UNL A   1      46.633  33.826  27.209  1.00  0.00     0.135 A 
ATOM     42  F   UNL A   1      47.412  32.494  30.506  1.00  0.00    -0.206 F 
ATOM     43  C   UNL A   1      47.645  34.672  29.663  1.00  0.00     0.059 A 
ATOM     44  C   UNL A   1      47.005  35.157  27.371  1.00  0.00     0.059 A 
ATOM     45  F   UNL A   1      46.133  33.449  26.022  1.00  0.00    -0.206 F 
ATOM     46  C   UNL A   1      47.492  35.574  28.608  1.00  0.00     0.060 A 
BRANCH  46  47
ATOM     47  S   UNL A   1      47.938  37.304  28.874  1.00  0.00     0.124 S 
ATOM     48  O   UNL A   1      48.540  37.245  30.204  1.00  0.00    -0.237 OA
ATOM     49  O   UNL A   1      48.861  37.563  27.773  1.00  0.00    -0.237 OA
ATOM     50  O   UNL A   1      46.658  38.000  28.795  1.00  0.00    -0.744 OA
ENDBRANCH  46  47
ENDBRANCH  25  39
BRANCH  26  51
ATOM     51  C   UNL A   1      43.517  23.562  26.793  1.00  0.00     0.058 A 
ATOM     52  C   UNL A   1      43.365  23.044  25.499  1.00  0.00     0.135 A 
ATOM     53  C   UNL A   1      43.216  22.721  27.875  1.00  0.00     0.135 A 
ATOM     54  F   UNL A   1      43.629  23.815  24.433  1.00  0.00    -0.206 F 
ATOM     55  C   UNL A   1      42.924  21.742  25.283  1.00  0.00     0.059 A 
ATOM     56  C   UNL A   1      42.796  21.408  27.684  1.00  0.00     0.059 A 
ATOM     57  F   UNL A   1      43.353  23.168  29.133  1.00  0.00    -0.206 F 
ATOM     58  C   UNL A   1      42.645  20.931  26.384  1.00  0.00     0.060 A 
BRANCH  58  59
ATOM     59  S   UNL A   1      42.131  19.223  26.098  1.00  0.00     0.124 S 
ATOM     60  O   UNL A   1      42.899  18.881  24.906  1.00  0.00    -0.237 OA
ATOM     61  O   UNL A   1      42.543  18.564  27.334  1.00  0.00    -0.237 OA
ATOM     62  O   UNL A   1      40.687  19.336  25.911  1.00  0.00    -0.744 OA
ENDBRANCH  58  59
ENDBRANCH  26  51
BRANCH  38  63
ATOM     63  C   UNL A   1      49.751  26.633  26.268  1.00  0.00     0.058 A 
ATOM     64  C   UNL A   1      50.287  26.776  24.980  1.00  0.00     0.135 A 
ATOM     65  C   UNL A   1      50.544  26.011  27.247  1.00  0.00     0.135 A 
ATOM     66  F   UNL A   1      49.568  27.361  24.010  1.00  0.00    -0.206 F 
ATOM     67  C   UNL A   1      51.555  26.297  24.665  1.00  0.00     0.059 A 
ATOM     68  C   UNL A   1      51.821  25.543  26.959  1.00  0.00     0.059 A 
ATOM     69  F   UNL A   1      50.080  25.861  28.497  1.00  0.00    -0.206 F 
ATOM     70  C   UNL A   1      52.313  25.678  25.661  1.00  0.00     0.060 A 
BRANCH  70  71
ATOM     71  S   UNL A   1      53.965  25.073  25.250  1.00  0.00     0.124 S 
ATOM     72  O   UNL A   1      54.285  25.877  24.075  1.00  0.00    -0.237 OA
ATOM     73  O   UNL A   1      54.725  25.384  26.457  1.00  0.00    -0.237 OA
ATOM     74  O   UNL A   1      53.751  23.651  25.002  1.00  0.00    -0.744 OA
ENDBRANCH  70  71
ENDBRANCH  38  63
ENDBRANCH  12  13
ENDBRANCH   5   7
ENDBRANCH   2   3
ENDBRANCH   1   2
BRANCH   1  75
ATOM     75  C   UNL A   1      33.940  31.422  27.476  1.00  0.00     0.023 C 
BRANCH  75  76
ATOM     76  C   UNL A   1      33.675  29.961  27.100  1.00  0.00     0.116 C 
BRANCH  76  77
ATOM     77  N   UNL A   1      32.449  29.405  27.635  1.00  0.00    -0.356 N 
ATOM     78  C   UNL A   1      31.689  28.373  27.170  1.00  0.00     0.224 C 
ATOM     79  H   UNL A   1      32.116  29.837  28.455  1.00  0.00     0.163 HD
ATOM     80  O   UNL A   1      31.025  27.753  28.005  1.00  0.00    -0.275 OA
BRANCH  78  81
ATOM     81  C   UNL A   1      31.581  28.068  25.666  1.00  0.00     0.095 C 
ATOM     82  C   UNL A   1      31.377  29.461  24.997  1.00  0.00     0.041 C 
ATOM     83  C   UNL A   1      30.400  27.128  25.352  1.00  0.00     0.095 C 
ATOM     84  C   UNL A   1      30.728  29.473  23.650  1.00  0.00    -0.030 C 
ATOM     85  C   UNL A   1      29.876  27.156  23.895  1.00  0.00     0.041 C 
ATOM     86  C   UNL A   1      30.039  28.440  23.161  1.00  0.00    -0.030 C 
BRANCH  83  87
ATOM     87  C   UNL A   1      30.576  25.652  25.718  1.00  0.00     0.227 C 
ATOM     88  O   UNL A   1      29.883  25.169  26.616  1.00  0.00    -0.275 OA
ATOM     89  N   UNL A   1      31.385  24.848  24.909  1.00  0.00    -0.331 N 
ATOM     90  C   UNL A   1      30.962  23.452  24.787  1.00  0.00     0.181 C 
ATOM     91  C   UNL A   1      32.804  25.150  24.714  1.00  0.00     0.181 C 
ATOM     92  C   UNL A   1      31.828  22.574  23.867  1.00  0.00     0.284 C 
ATOM     93  C   UNL A   1      33.623  24.152  23.880  1.00  0.00     0.284 C 
ATOM     94  N   UNL A   1      33.275  22.740  24.026  1.00  0.00    -0.328 N 
ATOM     95  H   UNL A   1      33.723  22.234  23.261  1.00  0.00     0.348 HD
BRANCH  94  96
ATOM     96  C   UNL A   1      33.905  22.021  25.147  1.00  0.00     0.299 C 
BRANCH  96  97
ATOM     97  C   UNL A   1      35.414  22.073  25.274  1.00  0.00     0.010 A 
ATOM     98  C   UNL A   1      36.210  21.018  24.759  1.00  0.00     0.013 A 
ATOM     99  C   UNL A   1      36.043  23.132  25.940  1.00  0.00     0.060 A 
ATOM    100  C   UNL A   1      37.595  20.986  24.962  1.00  0.00     0.051 A 
ATOM    101  C   UNL A   1      37.409  23.068  26.134  1.00  0.00     0.166 A 
ATOM    102  C   UNL A   1      38.164  22.024  25.663  1.00  0.00     0.165 A 
ATOM    103  O   UNL A   1      38.160  23.983  26.804  1.00  0.00    -0.454 OA
ATOM    104  O   UNL A   1      39.481  22.151  25.970  1.00  0.00    -0.454 OA
ATOM    105  C   UNL A   1      39.478  23.406  26.678  1.00  0.00     0.468 C 
ENDBRANCH  96  97
ENDBRANCH  94  96
ENDBRANCH  83  87
ENDBRANCH  78  81
ENDBRANCH  76  77
ENDBRANCH  75  76
ENDBRANCH   1  75
TORSDOF 17
ENDMDL
MODEL 3
REMARK VINA RESULT:     -13.3      0.464      7.971
REMARK SMILES O=C(NCCCCNC(=O)[C@@H]1CC=CC[C@H]1C(=O)N1CC[NH+](Cc2ccc3c(c2)OCO3)CC1)c1ccc(-c2c3nc(c(-c4c(F)cc(S(=O)(=O)[O-])cc4F)c4ccc([nH]4)c(-c4c(F)cc(S(=O)(=O)[O-])cc4F)c4nc(c(-c5c(F)cc(S(=O)(=O)[O-])cc5F)c5ccc2[nH]5)C=C4)C=C3)cc1
REMARK SMILES IDX 5 1 4 2 3 3 1 4 2 5 35 7 36 8 100 9 37 10 99 11 38 12 39 13
REMARK SMILES IDX 40 14 93 15 41 16 98 17 92 18 94 19 42 20 97 21 91 22 90 23
REMARK SMILES IDX 43 25 77 26 56 27 76 28 57 29 60 30 75 31 95 32 58 33 59 34
REMARK SMILES IDX 74 36 96 37 61 38 44 39 45 40 54 41 46 42 47 43 53 44 55 45
REMARK SMILES IDX 48 46 49 47 50 48 51 49 52 50 78 51 79 52 88 53 80 54 81 55
REMARK SMILES IDX 87 56 89 57 82 58 83 59 84 60 85 61 86 62 62 63 63 64 72 65
REMARK SMILES IDX 64 66 65 67 71 68 73 69 66 70 67 71 68 72 69 73 70 74 6 75
REMARK SMILES IDX 7 76 8 77 9 78 10 80 11 81 12 82 16 83 13 84 15 85 14 86
REMARK SMILES IDX 17 87 18 88 19 89 20 90 34 91 21 92 33 93 22 94 23 96 24 97
REMARK SMILES IDX 25 98 29 99 26 100 28 101 27 102 30 103 32 104 31 105
REMARK H PARENT 3 6 94 24 60 35 8 79 22 95
REMARK Flexibility Score: inf
ROOT
ATOM      1  C   UNL A   1      35.261  31.565  27.654  1.00  0.00     0.023 C 
ENDROOT
BRANCH   1   2
ATOM      2  C   UNL A   1      35.828  31.908  29.039  1.00  0.00     0.116 C 
BRANCH   2   3
ATOM      3  N   UNL A   1      35.755  30.816  30.003  1.00  0.00    -0.352 N 
ATOM      4  O   UNL A   1      36.516  29.023  31.154  1.00  0.00    -0.269 OA
ATOM      5  C   UNL A   1      36.763  29.953  30.391  1.00  0.00     0.251 C 
ATOM      6  H   UNL A   1      34.879  30.675  30.430  1.00  0.00     0.163 HD
BRANCH   5   7
ATOM      7  C   UNL A   1      38.125  30.114  29.825  1.00  0.00     0.039 A 
ATOM      8  C   UNL A   1      38.389  29.781  28.498  1.00  0.00     0.014 A 
ATOM      9  C   UNL A   1      39.168  30.536  30.653  1.00  0.00     0.014 A 
ATOM     10  C   UNL A   1      39.704  29.665  28.052  1.00  0.00     0.010 A 
ATOM     11  C   UNL A   1      40.487  30.480  30.187  1.00  0.00     0.010 A 
ATOM     12  C   UNL A   1      40.771  29.960  28.911  1.00  0.00    -0.014 A 
BRANCH  12  13
ATOM     13  C   UNL A   1      42.155  29.551  28.537  1.00  0.00     0.031 A 
ATOM     14  C   UNL A   1      42.402  28.134  28.072  1.00  0.00     0.074 A 
ATOM     15  C   UNL A   1      43.171  30.437  28.528  1.00  0.00     0.049 A 
ATOM     16  N   UNL A   1      43.528  27.543  27.762  1.00  0.00    -0.248 NA
ATOM     17  C   UNL A   1      41.220  27.263  27.947  1.00  0.00     0.031 C 
ATOM     18  C   UNL A   1      43.069  31.847  28.902  1.00  0.00     0.029 A 
ATOM     19  N   UNL A   1      44.488  30.281  28.172  1.00  0.00    -0.354 N 
ATOM     20  C   UNL A   1      43.198  26.223  27.469  1.00  0.00     0.074 A 
ATOM     21  C   UNL A   1      41.769  26.097  27.643  1.00  0.00     0.031 C 
ATOM     22  C   UNL A   1      44.264  32.436  28.722  1.00  0.00     0.029 A 
ATOM     23  C   UNL A   1      45.229  31.436  28.271  1.00  0.00     0.049 A 
ATOM     24  H   UNL A   1      44.867  29.423  27.874  1.00  0.00     0.167 HD
ATOM     25  C   UNL A   1      44.008  25.208  27.085  1.00  0.00     0.037 A 
ATOM     26  C   UNL A   1      46.537  31.659  28.037  1.00  0.00     0.037 A 
ATOM     27  C   UNL A   1      45.419  25.346  26.841  1.00  0.00     0.049 A 
ATOM     28  C   UNL A   1      47.416  30.521  27.590  1.00  0.00     0.074 A 
ATOM     29  C   UNL A   1      46.323  24.380  26.433  1.00  0.00     0.029 A 
ATOM     30  N   UNL A   1      46.128  26.531  26.960  1.00  0.00    -0.354 N 
ATOM     31  N   UNL A   1      47.094  29.270  27.364  1.00  0.00    -0.248 NA
ATOM     32  C   UNL A   1      48.838  30.824  27.375  1.00  0.00     0.031 C 
ATOM     33  C   UNL A   1      47.584  24.978  26.324  1.00  0.00     0.029 A 
ATOM     34  C   UNL A   1      47.457  26.323  26.632  1.00  0.00     0.049 A 
ATOM     35  H   UNL A   1      45.743  27.395  27.236  1.00  0.00     0.167 HD
ATOM     36  C   UNL A   1      48.269  28.643  26.960  1.00  0.00     0.074 A 
ATOM     37  C   UNL A   1      49.305  29.654  26.961  1.00  0.00     0.031 C 
ATOM     38  C   UNL A   1      48.472  27.345  26.622  1.00  0.00     0.037 A 
BRANCH  25  39
ATOM     39  C   UNL A   1      43.388  23.846  26.934  1.00  0.00     0.058 A 
ATOM     40  C   UNL A   1      43.151  23.007  28.035  1.00  0.00     0.135 A 
ATOM     41  C   UNL A   1      43.019  23.377  25.662  1.00  0.00     0.135 A 
ATOM     42  F   UNL A   1      43.507  23.397  29.270  1.00  0.00    -0.206 F 
ATOM     43  C   UNL A   1      42.601  21.739  27.877  1.00  0.00     0.059 A 
ATOM     44  C   UNL A   1      42.444  22.122  25.484  1.00  0.00     0.059 A 
ATOM     45  F   UNL A   1      43.223  24.139  24.576  1.00  0.00    -0.206 F 
ATOM     46  C   UNL A   1      42.258  21.303  26.596  1.00  0.00     0.060 A 
BRANCH  46  47
ATOM     47  S   UNL A   1      41.562  19.648  26.400  1.00  0.00     0.124 S 
ATOM     48  O   UNL A   1      41.849  19.059  27.705  1.00  0.00    -0.237 OA
ATOM     49  O   UNL A   1      40.155  19.928  26.127  1.00  0.00    -0.237 OA
ATOM     50  O   UNL A   1      42.317  19.093  25.281  1.00  0.00    -0.744 OA
ENDBRANCH  46  47
ENDBRANCH  25  39
BRANCH  26  51
ATOM     51  C   UNL A   1      47.102  33.024  28.220  1.00  0.00     0.058 A 
ATOM     52  C   UNL A   1      47.618  33.431  29.458  1.00  0.00     0.135 A 
ATOM     53  C   UNL A   1      47.141  33.943  27.160  1.00  0.00     0.135 A 
ATOM     54  F   UNL A   1      47.591  32.592  30.505  1.00  0.00    -0.206 F 
ATOM     55  C   UNL A   1      48.146  34.705  29.644  1.00  0.00     0.059 A 
ATOM     56  C   UNL A   1      47.686  35.214  27.315  1.00  0.00     0.059 A 
ATOM     57  F   UNL A   1      46.667  33.598  25.953  1.00  0.00    -0.206 F 
ATOM     58  C   UNL A   1      48.178  35.588  28.564  1.00  0.00     0.060 A 
BRANCH  58  59
ATOM     59  S   UNL A   1      48.920  37.219  28.795  1.00  0.00     0.124 S 
ATOM     60  O   UNL A   1      48.026  37.811  29.782  1.00  0.00    -0.237 OA
ATOM     61  O   UNL A   1      50.261  36.886  29.266  1.00  0.00    -0.237 OA
ATOM     62  O   UNL A   1      48.863  37.803  27.458  1.00  0.00    -0.744 OA
ENDBRANCH  58  59
ENDBRANCH  26  51
BRANCH  38  63
ATOM     63  C   UNL A   1      49.855  26.954  26.185  1.00  0.00     0.058 A 
ATOM     64  C   UNL A   1      50.253  27.031  24.842  1.00  0.00     0.135 A 
ATOM     65  C   UNL A   1      50.804  26.533  27.131  1.00  0.00     0.135 A 
ATOM     66  F   UNL A   1      49.382  27.425  23.901  1.00  0.00    -0.206 F 
ATOM     67  C   UNL A   1      51.540  26.678  24.446  1.00  0.00     0.059 A 
ATOM     68  C   UNL A   1      52.101  26.195  26.760  1.00  0.00     0.059 A 
ATOM     69  F   UNL A   1      50.475  26.454  28.430  1.00  0.00    -0.206 F 
ATOM     70  C   UNL A   1      52.456  26.257  25.413  1.00  0.00     0.060 A 
BRANCH  70  71
ATOM     71  S   UNL A   1      54.128  25.816  24.894  1.00  0.00     0.124 S 
ATOM     72  O   UNL A   1      54.113  24.367  25.060  1.00  0.00    -0.237 OA
ATOM     73  O   UNL A   1      54.169  26.295  23.515  1.00  0.00    -0.237 OA
ATOM     74  O   UNL A   1      54.976  26.549  25.829  1.00  0.00    -0.744 OA
ENDBRANCH  70  71
ENDBRANCH  38  63
ENDBRANCH  12  13
ENDBRANCH   5   7
ENDBRANCH   2   3
ENDBRANCH   1   2
BRANCH   1  75
ATOM     75  C   UNL A   1      33.924  30.800  27.642  1.00  0.00     0.023 C 
BRANCH  75  76
ATOM     76  C   UNL A   1      34.045  29.313  27.292  1.00  0.00     0.116 C 
BRANCH  76  77
ATOM     77  N   UNL A   1      32.843  28.535  27.514  1.00  0.00    -0.356 N 
ATOM     78  C   UNL A   1      32.211  27.660  26.681  1.00  0.00     0.224 C 
ATOM     79  H   UNL A   1      32.423  28.655  28.396  1.00  0.00     0.163 HD
ATOM     80  O   UNL A   1      31.554  26.762  27.215  1.00  0.00    -0.275 OA
BRANCH  78  81
ATOM     81  C   UNL A   1      32.223  27.851  25.155  1.00  0.00     0.095 C 
ATOM     82  C   UNL A   1      31.161  28.961  24.889  1.00  0.00     0.041 C 
ATOM     83  C   UNL A   1      31.862  26.552  24.408  1.00  0.00     0.095 C 
ATOM     84  C   UNL A   1      30.563  29.007  23.519  1.00  0.00    -0.030 C 
ATOM     85  C   UNL A   1      31.347  26.721  22.958  1.00  0.00     0.041 C 
ATOM     86  C   UNL A   1      30.635  27.992  22.655  1.00  0.00    -0.030 C 
BRANCH  83  87
ATOM     87  C   UNL A   1      32.937  25.463  24.359  1.00  0.00     0.227 C 
ATOM     88  O   UNL A   1      34.056  25.742  23.926  1.00  0.00    -0.275 OA
ATOM     89  N   UNL A   1      32.678  24.232  24.972  1.00  0.00    -0.331 N 
ATOM     90  C   UNL A   1      33.841  23.570  25.567  1.00  0.00     0.181 C 
ATOM     91  C   UNL A   1      31.559  23.391  24.547  1.00  0.00     0.181 C 
ATOM     92  C   UNL A   1      33.553  22.234  26.276  1.00  0.00     0.284 C 
ATOM     93  C   UNL A   1      31.418  22.019  25.224  1.00  0.00     0.284 C 
ATOM     94  N   UNL A   1      32.661  21.324  25.554  1.00  0.00    -0.328 N 
ATOM     95  H   UNL A   1      32.426  20.563  26.192  1.00  0.00     0.348 HD
BRANCH  94  96
ATOM     96  C   UNL A   1      33.266  20.515  24.481  1.00  0.00     0.299 C 
BRANCH  96  97
ATOM     97  C   UNL A   1      33.551  19.054  24.759  1.00  0.00     0.010 A 
ATOM     98  C   UNL A   1      34.851  18.527  24.549  1.00  0.00     0.013 A 
ATOM     99  C   UNL A   1      32.532  18.190  25.180  1.00  0.00     0.060 A 
ATOM    100  C   UNL A   1      35.114  17.159  24.690  1.00  0.00     0.051 A 
ATOM    101  C   UNL A   1      32.817  16.844  25.301  1.00  0.00     0.166 A 
ATOM    102  C   UNL A   1      34.071  16.341  25.059  1.00  0.00     0.165 A 
ATOM    103  O   UNL A   1      31.932  15.872  25.645  1.00  0.00    -0.454 OA
ATOM    104  O   UNL A   1      34.134  14.994  25.225  1.00  0.00    -0.454 OA
ATOM    105  C   UNL A   1      32.779  14.702  25.616  1.00  0.00     0.468 C 
ENDBRANCH  96  97
ENDBRANCH  94  96
ENDBRANCH  83  87
ENDBRANCH  78  81
ENDBRANCH  76  77
ENDBRANCH  75  76
ENDBRANCH   1  75
TORSDOF 17
ENDMDL
