MODEL 1
REMARK VINA RESULT:     -11.5      0.000      0.000
REMARK SMILES COc1ccccc1C[N@@H+](C)[C@@H](C)c1ccc(C(=O)NCCCCNC(=O)c2ccc(-c3c4nc(c(-c5c(F)cc(S(=O)(=O)[O-])cc5F)c5ccc([nH]5)c(-c5c(F)cc(S(=O)(=O)[O-])cc5F)c5nc(c(-c6c(F)cc(S(=O)(=O)[O-])cc6F)c6ccc3[nH]6)C=C5)C=C4)cc2)o1
REMARK SMILES IDX 21 1 20 2 18 3 19 4 17 6 14 7 15 8 94 9 16 10 12 11 13 12
REMARK SMILES IDX 10 13 11 14 9 16 8 17 3 18 4 19 5 20 7 21 6 22 2 23 1 24
REMARK SMILES IDX 22 25 23 26 24 27 25 28 26 29 27 31 28 32 29 33 93 34 30 35
REMARK SMILES IDX 92 36 31 37 32 38 33 39 86 40 34 41 91 42 85 43 87 44 35 45
REMARK SMILES IDX 90 46 84 47 83 48 36 50 70 51 49 52 69 53 50 54 53 55 68 56
REMARK SMILES IDX 88 57 51 58 52 59 67 61 89 62 54 63 37 64 38 65 47 66 39 67
REMARK SMILES IDX 40 68 46 69 48 70 41 71 42 72 43 73 44 74 45 75 71 76 72 77
REMARK SMILES IDX 81 78 73 79 74 80 80 81 82 82 75 83 76 84 77 85 78 86 79 87
REMARK SMILES IDX 55 88 56 89 65 90 57 91 58 92 64 93 66 94 59 95 60 96 61 97
REMARK SMILES IDX 62 98 63 99
REMARK H PARENT 20 5 10 15 25 30 87 49 53 60
REMARK Flexibility Score: inf
ROOT
ATOM      1  C   UNL A   1      33.714  30.124  26.768  1.00  0.00     0.116 C 
ENDROOT
BRANCH   1   2
ATOM      2  N   UNL A   1      32.677  29.411  27.476  1.00  0.00    -0.349 N 
ATOM      3  C   UNL A   1      31.744  28.480  27.068  1.00  0.00     0.287 C 
ATOM      4  O   UNL A   1      31.193  27.880  27.997  1.00  0.00    -0.266 OA
ATOM      5  H   UNL A   1      32.626  29.631  28.433  1.00  0.00     0.163 HD
BRANCH   3   6
ATOM      6  C   UNL A   1      31.431  28.237  25.665  1.00  0.00     0.191 A 
ATOM      7  C   UNL A   1      31.285  26.894  23.888  1.00  0.00     0.161 A 
ATOM      8  C   UNL A   1      30.816  28.129  23.494  1.00  0.00     0.053 A 
ATOM      9  O   UNL A   1      31.711  26.973  25.180  1.00  0.00    -0.450 OA
ATOM     10  C   UNL A   1      30.910  28.978  24.620  1.00  0.00     0.057 A 
BRANCH   7  11
ATOM     11  C   UNL A   1      31.430  25.606  23.111  1.00  0.00     0.248 C 
ATOM     12  C   UNL A   1      30.372  24.587  23.571  1.00  0.00     0.084 C 
BRANCH  11  13
ATOM     13  N   UNL A   1      32.811  25.071  22.969  1.00  0.00    -0.325 N 
ATOM     14  C   UNL A   1      33.643  26.023  22.222  1.00  0.00     0.333 C 
ATOM     15  H   UNL A   1      33.140  24.947  23.926  1.00  0.00     0.348 HD
BRANCH  13  16
ATOM     16  C   UNL A   1      32.915  23.746  22.324  1.00  0.00     0.303 C 
BRANCH  16  17
ATOM     17  C   UNL A   1      33.359  22.611  23.212  1.00  0.00     0.048 A 
ATOM     18  C   UNL A   1      34.594  22.599  23.874  1.00  0.00     0.127 A 
ATOM     19  C   UNL A   1      34.990  21.502  24.647  1.00  0.00     0.047 A 
ATOM     20  C   UNL A   1      34.122  20.429  24.826  1.00  0.00     0.004 A 
ATOM     21  C   UNL A   1      32.494  21.520  23.414  1.00  0.00     0.013 A 
ATOM     22  C   UNL A   1      32.868  20.445  24.223  1.00  0.00     0.001 A 
BRANCH  18  23
ATOM     23  O   UNL A   1      35.481  23.637  23.748  1.00  0.00    -0.496 OA
ATOM     24  C   UNL A   1      36.730  23.289  24.343  1.00  0.00     0.278 C 
ENDBRANCH  18  23
ENDBRANCH  16  17
ENDBRANCH  13  16
ENDBRANCH  11  13
ENDBRANCH   7  11
ENDBRANCH   3   6
ENDBRANCH   1   2
BRANCH   1  25
ATOM     25  C   UNL A   1      34.942  30.442  27.614  1.00  0.00     0.023 C 
BRANCH  25  26
ATOM     26  C   UNL A   1      35.098  31.904  28.039  1.00  0.00     0.023 C 
BRANCH  26  27
ATOM     27  C   UNL A   1      35.911  32.161  29.308  1.00  0.00     0.116 C 
BRANCH  27  28
ATOM     28  N   UNL A   1      35.695  31.183  30.366  1.00  0.00    -0.352 N 
ATOM     29  C   UNL A   1      36.592  30.312  30.941  1.00  0.00     0.251 C 
ATOM     30  H   UNL A   1      34.777  31.139  30.719  1.00  0.00     0.163 HD
ATOM     31  O   UNL A   1      36.228  29.551  31.827  1.00  0.00    -0.269 OA
BRANCH  29  32
ATOM     32  C   UNL A   1      37.977  30.259  30.429  1.00  0.00     0.039 A 
ATOM     33  C   UNL A   1      39.024  30.314  31.352  1.00  0.00     0.014 A 
ATOM     34  C   UNL A   1      38.238  30.081  29.068  1.00  0.00     0.014 A 
ATOM     35  C   UNL A   1      40.332  30.085  30.924  1.00  0.00     0.010 A 
ATOM     36  C   UNL A   1      39.535  29.793  28.653  1.00  0.00     0.010 A 
ATOM     37  C   UNL A   1      40.588  29.767  29.580  1.00  0.00    -0.014 A 
BRANCH  37  38
ATOM     38  C   UNL A   1      41.940  29.342  29.139  1.00  0.00     0.031 A 
ATOM     39  C   UNL A   1      43.055  30.342  29.044  1.00  0.00     0.074 A 
ATOM     40  C   UNL A   1      42.131  28.067  28.744  1.00  0.00     0.049 A 
ATOM     41  N   UNL A   1      44.272  30.177  28.594  1.00  0.00    -0.248 NA
ATOM     42  C   UNL A   1      42.758  31.712  29.491  1.00  0.00     0.031 C 
ATOM     43  C   UNL A   1      41.107  27.019  28.741  1.00  0.00     0.029 A 
ATOM     44  N   UNL A   1      43.247  27.439  28.250  1.00  0.00    -0.354 N 
ATOM     45  C   UNL A   1      44.882  31.421  28.688  1.00  0.00     0.074 A 
ATOM     46  C   UNL A   1      43.888  32.341  29.201  1.00  0.00     0.031 C 
ATOM     47  C   UNL A   1      41.646  25.877  28.283  1.00  0.00     0.029 A 
ATOM     48  C   UNL A   1      43.039  26.119  27.924  1.00  0.00     0.049 A 
ATOM     49  H   UNL A   1      44.114  27.891  28.139  1.00  0.00     0.167 HD
ATOM     50  C   UNL A   1      46.159  31.759  28.392  1.00  0.00     0.037 A 
ATOM     51  C   UNL A   1      43.873  25.210  27.385  1.00  0.00     0.037 A 
ATOM     52  C   UNL A   1      47.148  30.832  27.907  1.00  0.00     0.049 A 
ATOM     53  C   UNL A   1      45.285  25.611  27.063  1.00  0.00     0.074 A 
ATOM     54  C   UNL A   1      48.488  31.062  27.647  1.00  0.00     0.029 A 
ATOM     55  N   UNL A   1      46.905  29.501  27.604  1.00  0.00    -0.354 N 
ATOM     56  N   UNL A   1      45.865  26.777  27.223  1.00  0.00    -0.248 NA
ATOM     57  C   UNL A   1      46.156  24.579  26.485  1.00  0.00     0.031 C 
ATOM     58  C   UNL A   1      49.047  29.879  27.153  1.00  0.00     0.029 A 
ATOM     59  C   UNL A   1      48.064  28.902  27.139  1.00  0.00     0.049 A 
ATOM     60  H   UNL A   1      46.037  29.048  27.707  1.00  0.00     0.167 HD
ATOM     61  C   UNL A   1      47.172  26.614  26.779  1.00  0.00     0.074 A 
ATOM     62  C   UNL A   1      47.303  25.234  26.359  1.00  0.00     0.031 C 
ATOM     63  C   UNL A   1      48.174  27.526  26.722  1.00  0.00     0.037 A 
BRANCH  50  64
ATOM     64  C   UNL A   1      46.562  33.192  28.596  1.00  0.00     0.058 A 
ATOM     65  C   UNL A   1      46.444  34.140  27.566  1.00  0.00     0.135 A 
ATOM     66  C   UNL A   1      47.038  33.633  29.841  1.00  0.00     0.135 A 
ATOM     67  F   UNL A   1      46.008  33.767  26.351  1.00  0.00    -0.206 F 
ATOM     68  C   UNL A   1      46.810  35.468  27.755  1.00  0.00     0.059 A 
ATOM     69  C   UNL A   1      47.388  34.962  30.059  1.00  0.00     0.059 A 
ATOM     70  F   UNL A   1      47.172  32.767  30.858  1.00  0.00    -0.206 F 
ATOM     71  C   UNL A   1      47.283  35.870  29.005  1.00  0.00     0.060 A 
BRANCH  71  72
ATOM     72  S   UNL A   1      47.750  37.598  29.236  1.00  0.00     0.124 S 
ATOM     73  O   UNL A   1      46.579  38.289  28.703  1.00  0.00    -0.237 OA
ATOM     74  O   UNL A   1      47.932  37.682  30.681  1.00  0.00    -0.237 OA
ATOM     75  O   UNL A   1      48.970  37.729  28.445  1.00  0.00    -0.744 OA
ENDBRANCH  71  72
ENDBRANCH  50  64
BRANCH  51  76
ATOM     76  C   UNL A   1      43.396  23.826  27.125  1.00  0.00     0.058 A 
ATOM     77  C   UNL A   1      43.255  22.905  28.174  1.00  0.00     0.135 A 
ATOM     78  C   UNL A   1      43.056  23.402  25.831  1.00  0.00     0.135 A 
ATOM     79  F   UNL A   1      43.573  23.264  29.427  1.00  0.00    -0.206 F 
ATOM     80  C   UNL A   1      42.805  21.609  27.949  1.00  0.00     0.059 A 
ATOM     81  C   UNL A   1      42.584  22.116  25.584  1.00  0.00     0.059 A 
ATOM     82  F   UNL A   1      43.158  24.251  24.797  1.00  0.00    -0.206 F 
ATOM     83  C   UNL A   1      42.472  21.224  26.649  1.00  0.00     0.060 A 
BRANCH  83  84
ATOM     84  S   UNL A   1      41.839  19.555  26.374  1.00  0.00     0.124 S 
ATOM     85  O   UNL A   1      42.515  19.186  25.136  1.00  0.00    -0.237 OA
ATOM     86  O   UNL A   1      42.279  18.854  27.575  1.00  0.00    -0.237 OA
ATOM     87  O   UNL A   1      40.397  19.758  26.270  1.00  0.00    -0.744 OA
ENDBRANCH  83  84
ENDBRANCH  51  76
BRANCH  63  88
ATOM     88  C   UNL A   1      49.501  27.060  26.196  1.00  0.00     0.058 A 
ATOM     89  C   UNL A   1      50.431  26.419  27.028  1.00  0.00     0.135 A 
ATOM     90  C   UNL A   1      49.820  27.204  24.837  1.00  0.00     0.135 A 
ATOM     91  F   UNL A   1      50.176  26.266  28.336  1.00  0.00    -0.206 F 
ATOM     92  C   UNL A   1      51.642  25.948  26.532  1.00  0.00     0.059 A 
ATOM     93  C   UNL A   1      51.016  26.720  24.315  1.00  0.00     0.059 A 
ATOM     94  F   UNL A   1      48.959  27.804  24.000  1.00  0.00    -0.206 F 
ATOM     95  C   UNL A   1      51.924  26.101  25.173  1.00  0.00     0.060 A 
BRANCH  95  96
ATOM     96  S   UNL A   1      53.479  25.444  24.531  1.00  0.00     0.124 S 
ATOM     97  O   UNL A   1      53.322  25.666  23.097  1.00  0.00    -0.237 OA
ATOM     98  O   UNL A   1      54.473  26.281  25.197  1.00  0.00    -0.237 OA
ATOM     99  O   UNL A   1      53.459  24.048  24.958  1.00  0.00    -0.744 OA
ENDBRANCH  95  96
ENDBRANCH  63  88
ENDBRANCH  37  38
ENDBRANCH  29  32
ENDBRANCH  27  28
ENDBRANCH  26  27
ENDBRANCH  25  26
ENDBRANCH   1  25
TORSDOF 19
ENDMDL
MODEL 2
REMARK VINA RESULT:     -11.3      6.686     13.100
REMARK SMILES COc1ccccc1C[N@@H+](C)[C@@H](C)c1ccc(C(=O)NCCCCNC(=O)c2ccc(-c3c4nc(c(-c5c(F)cc(S(=O)(=O)[O-])cc5F)c5ccc([nH]5)c(-c5c(F)cc(S(=O)(=O)[O-])cc5F)c5nc(c(-c6c(F)cc(S(=O)(=O)[O-])cc6F)c6ccc3[nH]6)C=C5)C=C4)cc2)o1
REMARK SMILES IDX 21 1 20 2 18 3 19 4 17 6 14 7 15 8 94 9 16 10 12 11 13 12
REMARK SMILES IDX 10 13 11 14 9 16 8 17 3 18 4 19 5 20 7 21 6 22 2 23 1 24
REMARK SMILES IDX 22 25 23 26 24 27 25 28 26 29 27 31 28 32 29 33 93 34 30 35
REMARK SMILES IDX 92 36 31 37 32 38 33 39 86 40 34 41 91 42 85 43 87 44 35 45
REMARK SMILES IDX 90 46 84 47 83 48 36 50 70 51 49 52 69 53 50 54 53 55 68 56
REMARK SMILES IDX 88 57 51 58 52 59 67 61 89 62 54 63 37 64 38 65 47 66 39 67
REMARK SMILES IDX 40 68 46 69 48 70 41 71 42 72 43 73 44 74 45 75 71 76 72 77
REMARK SMILES IDX 81 78 73 79 74 80 80 81 82 82 75 83 76 84 77 85 78 86 79 87
REMARK SMILES IDX 55 88 56 89 65 90 57 91 58 92 64 93 66 94 59 95 60 96 61 97
REMARK SMILES IDX 62 98 63 99
REMARK H PARENT 20 5 10 15 25 30 87 49 53 60
REMARK Flexibility Score: inf
ROOT
ATOM      1  C   UNL A   1      41.318  20.444  26.846  1.00  0.00     0.116 C 
ENDROOT
BRANCH   1   2
ATOM      2  N   UNL A   1      41.546  19.103  26.364  1.00  0.00    -0.349 N 
ATOM      3  C   UNL A   1      42.668  18.470  25.872  1.00  0.00     0.287 C 
ATOM      4  O   UNL A   1      42.566  17.240  25.809  1.00  0.00    -0.266 OA
ATOM      5  H   UNL A   1      40.747  18.529  26.393  1.00  0.00     0.163 HD
BRANCH   3   6
ATOM      6  C   UNL A   1      43.863  19.192  25.453  1.00  0.00     0.191 A 
ATOM      7  C   UNL A   1      44.946  21.079  24.955  1.00  0.00     0.161 A 
ATOM      8  C   UNL A   1      45.862  20.055  24.850  1.00  0.00     0.053 A 
ATOM      9  O   UNL A   1      43.726  20.554  25.261  1.00  0.00    -0.450 OA
ATOM     10  C   UNL A   1      45.175  18.861  25.165  1.00  0.00     0.057 A 
BRANCH   7  11
ATOM     11  C   UNL A   1      45.104  22.565  24.726  1.00  0.00     0.248 C 
ATOM     12  C   UNL A   1      46.428  22.850  23.994  1.00  0.00     0.084 C 
BRANCH  11  13
ATOM     13  N   UNL A   1      44.816  23.448  25.889  1.00  0.00    -0.325 N 
ATOM     14  C   UNL A   1      44.845  24.854  25.468  1.00  0.00     0.333 C 
ATOM     15  H   UNL A   1      43.890  23.164  26.206  1.00  0.00     0.348 HD
BRANCH  13  16
ATOM     16  C   UNL A   1      45.716  23.283  27.049  1.00  0.00     0.303 C 
BRANCH  16  17
ATOM     17  C   UNL A   1      45.161  23.715  28.383  1.00  0.00     0.048 A 
ATOM     18  C   UNL A   1      45.637  24.832  29.080  1.00  0.00     0.127 A 
ATOM     19  C   UNL A   1      45.131  25.168  30.341  1.00  0.00     0.047 A 
ATOM     20  C   UNL A   1      44.088  24.429  30.891  1.00  0.00     0.004 A 
ATOM     21  C   UNL A   1      44.102  22.986  28.953  1.00  0.00     0.013 A 
ATOM     22  C   UNL A   1      43.563  23.348  30.189  1.00  0.00     0.001 A 
BRANCH  18  23
ATOM     23  O   UNL A   1      46.651  25.608  28.579  1.00  0.00    -0.496 OA
ATOM     24  C   UNL A   1      47.700  25.725  29.539  1.00  0.00     0.278 C 
ENDBRANCH  18  23
ENDBRANCH  16  17
ENDBRANCH  13  16
ENDBRANCH  11  13
ENDBRANCH   7  11
ENDBRANCH   3   6
ENDBRANCH   1   2
BRANCH   1  25
ATOM     25  C   UNL A   1      40.007  21.063  26.374  1.00  0.00     0.023 C 
BRANCH  25  26
ATOM     26  C   UNL A   1      39.777  22.524  26.774  1.00  0.00     0.023 C 
BRANCH  26  27
ATOM     27  C   UNL A   1      41.029  23.375  26.989  1.00  0.00     0.116 C 
BRANCH  27  28
ATOM     28  N   UNL A   1      41.239  24.398  25.973  1.00  0.00    -0.352 N 
ATOM     29  C   UNL A   1      41.451  25.748  26.130  1.00  0.00     0.251 C 
ATOM     30  H   UNL A   1      41.227  24.077  25.043  1.00  0.00     0.163 HD
ATOM     31  O   UNL A   1      41.607  26.464  25.150  1.00  0.00    -0.269 OA
BRANCH  29  32
ATOM     32  C   UNL A   1      41.417  26.332  27.487  1.00  0.00     0.039 A 
ATOM     33  C   UNL A   1      42.439  27.210  27.853  1.00  0.00     0.014 A 
ATOM     34  C   UNL A   1      40.353  26.077  28.357  1.00  0.00     0.014 A 
ATOM     35  C   UNL A   1      42.343  27.917  29.052  1.00  0.00     0.010 A 
ATOM     36  C   UNL A   1      40.229  26.827  29.523  1.00  0.00     0.010 A 
ATOM     37  C   UNL A   1      41.209  27.771  29.867  1.00  0.00    -0.014 A 
BRANCH  37  38
ATOM     38  C   UNL A   1      40.999  28.643  31.050  1.00  0.00     0.031 A 
ATOM     39  C   UNL A   1      39.944  29.710  31.027  1.00  0.00     0.074 A 
ATOM     40  C   UNL A   1      41.824  28.523  32.109  1.00  0.00     0.049 A 
ATOM     41  N   UNL A   1      39.677  30.623  31.924  1.00  0.00    -0.248 NA
ATOM     42  C   UNL A   1      39.091  29.774  29.829  1.00  0.00     0.031 C 
ATOM     43  C   UNL A   1      42.921  27.557  32.223  1.00  0.00     0.029 A 
ATOM     44  N   UNL A   1      41.882  29.228  33.286  1.00  0.00    -0.354 N 
ATOM     45  C   UNL A   1      38.639  31.379  31.397  1.00  0.00     0.074 A 
ATOM     46  C   UNL A   1      38.351  30.844  30.083  1.00  0.00     0.031 C 
ATOM     47  C   UNL A   1      43.532  27.721  33.407  1.00  0.00     0.029 A 
ATOM     48  C   UNL A   1      42.898  28.825  34.121  1.00  0.00     0.049 A 
ATOM     49  H   UNL A   1      41.256  29.952  33.510  1.00  0.00     0.167 HD
ATOM     50  C   UNL A   1      37.975  32.413  31.966  1.00  0.00     0.037 A 
ATOM     51  C   UNL A   1      43.284  29.300  35.320  1.00  0.00     0.037 A 
ATOM     52  C   UNL A   1      38.251  32.924  33.283  1.00  0.00     0.049 A 
ATOM     53  C   UNL A   1      42.533  30.451  35.928  1.00  0.00     0.074 A 
ATOM     54  C   UNL A   1      37.586  33.920  33.977  1.00  0.00     0.029 A 
ATOM     55  N   UNL A   1      39.277  32.481  34.105  1.00  0.00    -0.354 N 
ATOM     56  N   UNL A   1      41.508  31.111  35.445  1.00  0.00    -0.248 NA
ATOM     57  C   UNL A   1      42.988  30.924  37.243  1.00  0.00     0.031 C 
ATOM     58  C   UNL A   1      38.232  34.105  35.203  1.00  0.00     0.029 A 
ATOM     59  C   UNL A   1      39.277  33.199  35.290  1.00  0.00     0.049 A 
ATOM     60  H   UNL A   1      39.910  31.761  33.880  1.00  0.00     0.167 HD
ATOM     61  C   UNL A   1      41.188  32.068  36.400  1.00  0.00     0.074 A 
ATOM     62  C   UNL A   1      42.116  31.891  37.497  1.00  0.00     0.031 C 
ATOM     63  C   UNL A   1      40.213  33.010  36.371  1.00  0.00     0.037 A 
BRANCH  50  64
ATOM     64  C   UNL A   1      36.877  33.056  31.167  1.00  0.00     0.058 A 
ATOM     65  C   UNL A   1      37.158  33.913  30.091  1.00  0.00     0.135 A 
ATOM     66  C   UNL A   1      35.529  32.788  31.455  1.00  0.00     0.135 A 
ATOM     67  F   UNL A   1      38.431  34.215  29.782  1.00  0.00    -0.206 F 
ATOM     68  C   UNL A   1      36.143  34.503  29.345  1.00  0.00     0.059 A 
ATOM     69  C   UNL A   1      34.497  33.348  30.708  1.00  0.00     0.059 A 
ATOM     70  F   UNL A   1      35.205  31.977  32.475  1.00  0.00    -0.206 F 
ATOM     71  C   UNL A   1      34.815  34.216  29.663  1.00  0.00     0.060 A 
BRANCH  71  72
ATOM     72  S   UNL A   1      33.508  34.985  28.685  1.00  0.00     0.124 S 
ATOM     73  O   UNL A   1      34.244  36.043  27.998  1.00  0.00    -0.237 OA
ATOM     74  O   UNL A   1      33.055  33.882  27.845  1.00  0.00    -0.237 OA
ATOM     75  O   UNL A   1      32.551  35.437  29.691  1.00  0.00    -0.744 OA
ENDBRANCH  71  72
ENDBRANCH  50  64
BRANCH  51  76
ATOM     76  C   UNL A   1      44.434  28.680  36.030  1.00  0.00     0.058 A 
ATOM     77  C   UNL A   1      44.246  27.581  36.880  1.00  0.00     0.135 A 
ATOM     78  C   UNL A   1      45.742  29.162  35.860  1.00  0.00     0.135 A 
ATOM     79  F   UNL A   1      43.013  27.090  37.078  1.00  0.00    -0.206 F 
ATOM     80  C   UNL A   1      45.311  26.986  37.548  1.00  0.00     0.059 A 
ATOM     81  C   UNL A   1      46.826  28.571  36.502  1.00  0.00     0.059 A 
ATOM     82  F   UNL A   1      45.975  30.201  35.045  1.00  0.00    -0.206 F 
ATOM     83  C   UNL A   1      46.599  27.489  37.352  1.00  0.00     0.060 A 
BRANCH  83  84
ATOM     84  S   UNL A   1      47.983  26.678  38.181  1.00  0.00     0.124 S 
ATOM     85  O   UNL A   1      49.121  27.219  37.448  1.00  0.00    -0.237 OA
ATOM     86  O   UNL A   1      47.833  27.138  39.558  1.00  0.00    -0.237 OA
ATOM     87  O   UNL A   1      47.713  25.259  37.971  1.00  0.00    -0.744 OA
ENDBRANCH  83  84
ENDBRANCH  51  76
BRANCH  63  88
ATOM     88  C   UNL A   1      40.095  33.916  37.562  1.00  0.00     0.058 A 
ATOM     89  C   UNL A   1      40.824  35.111  37.647  1.00  0.00     0.135 A 
ATOM     90  C   UNL A   1      39.200  33.615  38.602  1.00  0.00     0.135 A 
ATOM     91  F   UNL A   1      41.699  35.438  36.683  1.00  0.00    -0.206 F 
ATOM     92  C   UNL A   1      40.683  35.972  38.730  1.00  0.00     0.059 A 
ATOM     93  C   UNL A   1      39.026  34.473  39.683  1.00  0.00     0.059 A 
ATOM     94  F   UNL A   1      38.474  32.487  38.563  1.00  0.00    -0.206 F 
ATOM     95  C   UNL A   1      39.778  35.645  39.742  1.00  0.00     0.060 A 
BRANCH  95  96
ATOM     96  S   UNL A   1      39.568  36.793  41.120  1.00  0.00     0.124 S 
ATOM     97  O   UNL A   1      39.261  38.037  40.422  1.00  0.00    -0.237 OA
ATOM     98  O   UNL A   1      38.464  36.194  41.863  1.00  0.00    -0.237 OA
ATOM     99  O   UNL A   1      40.863  36.753  41.794  1.00  0.00    -0.744 OA
ENDBRANCH  95  96
ENDBRANCH  63  88
ENDBRANCH  37  38
ENDBRANCH  29  32
ENDBRANCH  27  28
ENDBRANCH  26  27
ENDBRANCH  25  26
ENDBRANCH   1  25
TORSDOF 19
ENDMDL
MODEL 3
REMARK VINA RESULT:     -11.2      6.265     12.139
REMARK SMILES COc1ccccc1C[N@@H+](C)[C@@H](C)c1ccc(C(=O)NCCCCNC(=O)c2ccc(-c3c4nc(c(-c5c(F)cc(S(=O)(=O)[O-])cc5F)c5ccc([nH]5)c(-c5c(F)cc(S(=O)(=O)[O-])cc5F)c5nc(c(-c6c(F)cc(S(=O)(=O)[O-])cc6F)c6ccc3[nH]6)C=C5)C=C4)cc2)o1
REMARK SMILES IDX 21 1 20 2 18 3 19 4 17 6 14 7 15 8 94 9 16 10 12 11 13 12
REMARK SMILES IDX 10 13 11 14 9 16 8 17 3 18 4 19 5 20 7 21 6 22 2 23 1 24
REMARK SMILES IDX 22 25 23 26 24 27 25 28 26 29 27 31 28 32 29 33 93 34 30 35
REMARK SMILES IDX 92 36 31 37 32 38 33 39 86 40 34 41 91 42 85 43 87 44 35 45
REMARK SMILES IDX 90 46 84 47 83 48 36 50 70 51 49 52 69 53 50 54 53 55 68 56
REMARK SMILES IDX 88 57 51 58 52 59 67 61 89 62 54 63 37 64 38 65 47 66 39 67
REMARK SMILES IDX 40 68 46 69 48 70 41 71 42 72 43 73 44 74 45 75 71 76 72 77
REMARK SMILES IDX 81 78 73 79 74 80 80 81 82 82 75 83 76 84 77 85 78 86 79 87
REMARK SMILES IDX 55 88 56 89 65 90 57 91 58 92 64 93 66 94 59 95 60 96 61 97
REMARK SMILES IDX 62 98 63 99
REMARK H PARENT 20 5 10 15 25 30 87 49 53 60
REMARK Flexibility Score: inf
ROOT
ATOM      1  C   UNL A   1      41.738  22.361  28.463  1.00  0.00     0.116 C 
ENDROOT
BRANCH   1   2
ATOM      2  N   UNL A   1      41.313  21.192  27.731  1.00  0.00    -0.349 N 
ATOM      3  C   UNL A   1      40.383  21.010  26.728  1.00  0.00     0.287 C 
ATOM      4  O   UNL A   1      40.475  19.923  26.147  1.00  0.00    -0.266 OA
ATOM      5  H   UNL A   1      41.775  20.366  27.997  1.00  0.00     0.163 HD
BRANCH   3   6
ATOM      6  C   UNL A   1      39.375  22.009  26.394  1.00  0.00     0.191 A 
ATOM      7  C   UNL A   1      37.421  22.606  25.496  1.00  0.00     0.161 A 
ATOM      8  C   UNL A   1      37.964  23.741  26.058  1.00  0.00     0.053 A 
ATOM      9  O   UNL A   1      38.298  21.573  25.645  1.00  0.00    -0.450 OA
ATOM     10  C   UNL A   1      39.201  23.362  26.626  1.00  0.00     0.057 A 
BRANCH   7  11
ATOM     11  C   UNL A   1      36.124  22.407  24.745  1.00  0.00     0.248 C 
ATOM     12  C   UNL A   1      36.297  22.816  23.271  1.00  0.00     0.084 C 
BRANCH  11  13
ATOM     13  N   UNL A   1      34.892  22.913  25.407  1.00  0.00    -0.325 N 
ATOM     14  C   UNL A   1      34.238  21.826  26.147  1.00  0.00     0.333 C 
ATOM     15  H   UNL A   1      35.217  23.654  26.027  1.00  0.00     0.348 HD
BRANCH  13  16
ATOM     16  C   UNL A   1      33.899  23.537  24.508  1.00  0.00     0.303 C 
BRANCH  16  17
ATOM     17  C   UNL A   1      33.788  25.039  24.585  1.00  0.00     0.048 A 
ATOM     18  C   UNL A   1      33.711  25.856  23.451  1.00  0.00     0.127 A 
ATOM     19  C   UNL A   1      33.661  27.250  23.566  1.00  0.00     0.047 A 
ATOM     20  C   UNL A   1      33.616  27.843  24.824  1.00  0.00     0.004 A 
ATOM     21  C   UNL A   1      33.732  25.657  25.847  1.00  0.00     0.013 A 
ATOM     22  C   UNL A   1      33.635  27.045  25.964  1.00  0.00     0.001 A 
BRANCH  18  23
ATOM     23  O   UNL A   1      33.734  25.327  22.186  1.00  0.00    -0.496 OA
ATOM     24  C   UNL A   1      32.732  25.944  21.378  1.00  0.00     0.278 C 
ENDBRANCH  18  23
ENDBRANCH  16  17
ENDBRANCH  13  16
ENDBRANCH  11  13
ENDBRANCH   7  11
ENDBRANCH   3   6
ENDBRANCH   1   2
BRANCH   1  25
ATOM     25  C   UNL A   1      43.240  22.431  28.712  1.00  0.00     0.023 C 
BRANCH  25  26
ATOM     26  C   UNL A   1      43.812  23.831  28.950  1.00  0.00     0.023 C 
BRANCH  26  27
ATOM     27  C   UNL A   1      44.478  24.507  27.751  1.00  0.00     0.116 C 
BRANCH  27  28
ATOM     28  N   UNL A   1      43.672  24.505  26.538  1.00  0.00    -0.352 N 
ATOM     29  C   UNL A   1      42.631  25.331  26.184  1.00  0.00     0.251 C 
ATOM     30  H   UNL A   1      43.907  23.814  25.877  1.00  0.00     0.163 HD
ATOM     31  O   UNL A   1      42.062  25.179  25.113  1.00  0.00    -0.269 OA
BRANCH  29  32
ATOM     32  C   UNL A   1      42.163  26.355  27.143  1.00  0.00     0.039 A 
ATOM     33  C   UNL A   1      41.188  25.990  28.073  1.00  0.00     0.014 A 
ATOM     34  C   UNL A   1      42.733  27.630  27.173  1.00  0.00     0.014 A 
ATOM     35  C   UNL A   1      40.856  26.870  29.103  1.00  0.00     0.010 A 
ATOM     36  C   UNL A   1      42.446  28.482  28.235  1.00  0.00     0.010 A 
ATOM     37  C   UNL A   1      41.524  28.100  29.222  1.00  0.00    -0.014 A 
BRANCH  37  38
ATOM     38  C   UNL A   1      41.321  28.969  30.408  1.00  0.00     0.031 A 
ATOM     39  C   UNL A   1      42.174  28.796  31.631  1.00  0.00     0.074 A 
ATOM     40  C   UNL A   1      40.306  29.857  30.405  1.00  0.00     0.049 A 
ATOM     41  N   UNL A   1      42.083  29.396  32.789  1.00  0.00    -0.248 NA
ATOM     42  C   UNL A   1      43.255  27.801  31.550  1.00  0.00     0.031 C 
ATOM     43  C   UNL A   1      39.377  30.077  29.293  1.00  0.00     0.029 A 
ATOM     44  N   UNL A   1      39.873  30.727  31.374  1.00  0.00    -0.354 N 
ATOM     45  C   UNL A   1      43.082  28.844  33.580  1.00  0.00     0.074 A 
ATOM     46  C   UNL A   1      43.742  27.831  32.782  1.00  0.00     0.031 C 
ATOM     47  C   UNL A   1      38.495  31.029  29.637  1.00  0.00     0.029 A 
ATOM     48  C   UNL A   1      38.770  31.461  31.003  1.00  0.00     0.049 A 
ATOM     49  H   UNL A   1      40.310  30.819  32.250  1.00  0.00     0.167 HD
ATOM     50  C   UNL A   1      43.430  29.167  34.848  1.00  0.00     0.037 A 
ATOM     51  C   UNL A   1      38.052  32.368  31.692  1.00  0.00     0.037 A 
ATOM     52  C   UNL A   1      42.785  30.193  35.626  1.00  0.00     0.049 A 
ATOM     53  C   UNL A   1      38.456  32.707  33.099  1.00  0.00     0.074 A 
ATOM     54  C   UNL A   1      43.111  30.644  36.893  1.00  0.00     0.029 A 
ATOM     55  N   UNL A   1      41.682  30.924  35.212  1.00  0.00    -0.354 N 
ATOM     56  N   UNL A   1      39.448  32.223  33.809  1.00  0.00    -0.248 NA
ATOM     57  C   UNL A   1      37.646  33.711  33.803  1.00  0.00     0.031 C 
ATOM     58  C   UNL A   1      42.183  31.623  37.260  1.00  0.00     0.029 A 
ATOM     59  C   UNL A   1      41.300  31.809  36.208  1.00  0.00     0.049 A 
ATOM     60  H   UNL A   1      41.237  30.831  34.339  1.00  0.00     0.167 HD
ATOM     61  C   UNL A   1      39.389  32.873  35.035  1.00  0.00     0.074 A 
ATOM     62  C   UNL A   1      38.274  33.796  34.968  1.00  0.00     0.031 C 
ATOM     63  C   UNL A   1      40.185  32.718  36.122  1.00  0.00     0.037 A 
BRANCH  50  64
ATOM     64  C   UNL A   1      44.566  28.407  35.471  1.00  0.00     0.058 A 
ATOM     65  C   UNL A   1      45.885  28.886  35.418  1.00  0.00     0.135 A 
ATOM     66  C   UNL A   1      44.333  27.204  36.158  1.00  0.00     0.135 A 
ATOM     67  F   UNL A   1      46.165  30.024  34.760  1.00  0.00    -0.206 F 
ATOM     68  C   UNL A   1      46.937  28.187  36.000  1.00  0.00     0.059 A 
ATOM     69  C   UNL A   1      45.367  26.500  36.768  1.00  0.00     0.059 A 
ATOM     70  F   UNL A   1      43.091  26.701  36.237  1.00  0.00    -0.206 F 
ATOM     71  C   UNL A   1      46.668  26.994  36.672  1.00  0.00     0.060 A 
BRANCH  71  72
ATOM     72  S   UNL A   1      48.043  26.101  37.426  1.00  0.00     0.124 S 
ATOM     73  O   UNL A   1      48.974  25.999  36.305  1.00  0.00    -0.237 OA
ATOM     74  O   UNL A   1      48.446  26.998  38.504  1.00  0.00    -0.237 OA
ATOM     75  O   UNL A   1      47.437  24.844  37.855  1.00  0.00    -0.744 OA
ENDBRANCH  71  72
ENDBRANCH  50  64
BRANCH  51  76
ATOM     76  C   UNL A   1      36.882  33.029  31.055  1.00  0.00     0.058 A 
ATOM     77  C   UNL A   1      37.060  34.031  30.090  1.00  0.00     0.135 A 
ATOM     78  C   UNL A   1      35.568  32.662  31.384  1.00  0.00     0.135 A 
ATOM     79  F   UNL A   1      38.298  34.420  29.748  1.00  0.00    -0.206 F 
ATOM     80  C   UNL A   1      35.978  34.657  29.481  1.00  0.00     0.059 A 
ATOM     81  C   UNL A   1      34.469  33.258  30.773  1.00  0.00     0.059 A 
ATOM     82  F   UNL A   1      35.346  31.697  32.289  1.00  0.00    -0.206 F 
ATOM     83  C   UNL A   1      34.685  34.263  29.830  1.00  0.00     0.060 A 
BRANCH  83  84
ATOM     84  S   UNL A   1      33.285  35.042  28.996  1.00  0.00     0.124 S 
ATOM     85  O   UNL A   1      32.388  35.307  30.115  1.00  0.00    -0.237 OA
ATOM     86  O   UNL A   1      33.903  36.213  28.382  1.00  0.00    -0.237 OA
ATOM     87  O   UNL A   1      32.841  34.015  28.059  1.00  0.00    -0.744 OA
ENDBRANCH  83  84
ENDBRANCH  51  76
BRANCH  63  88
ATOM     88  C   UNL A   1      39.886  33.571  37.322  1.00  0.00     0.058 A 
ATOM     89  C   UNL A   1      40.548  34.789  37.535  1.00  0.00     0.135 A 
ATOM     90  C   UNL A   1      38.888  33.194  38.235  1.00  0.00     0.135 A 
ATOM     91  F   UNL A   1      41.517  35.188  36.696  1.00  0.00    -0.206 F 
ATOM     92  C   UNL A   1      40.242  35.599  38.623  1.00  0.00     0.059 A 
ATOM     93  C   UNL A   1      38.549  34.001  39.316  1.00  0.00     0.059 A 
ATOM     94  F   UNL A   1      38.221  32.041  38.069  1.00  0.00    -0.206 F 
ATOM     95  C   UNL A   1      39.238  35.198  39.507  1.00  0.00     0.060 A 
BRANCH  95  96
ATOM     96  S   UNL A   1      38.816  36.281  40.888  1.00  0.00     0.124 S 
ATOM     97  O   UNL A   1      37.780  35.506  41.563  1.00  0.00    -0.237 OA
ATOM     98  O   UNL A   1      40.087  36.394  41.599  1.00  0.00    -0.237 OA
ATOM     99  O   UNL A   1      38.361  37.504  40.233  1.00  0.00    -0.744 OA
ENDBRANCH  95  96
ENDBRANCH  63  88
ENDBRANCH  37  38
ENDBRANCH  29  32
ENDBRANCH  27  28
ENDBRANCH  26  27
ENDBRANCH  25  26
ENDBRANCH   1  25
TORSDOF 19
ENDMDL
