MODEL 1
REMARK VINA RESULT:     -11.9      0.000      0.000
REMARK SMILES O=C(NCCCCNC(=O)[C@H]1CC[C@@H](CNc2ccccc2C(F)(F)F)O1)c1ccc(-c2c3nc(c(-c4c(F)cc(S(=O)(=O)[O-])cc4F)c4ccc([nH]4)c(-c4c(F)cc(S(=O)(=O)[O-])cc4F)c4nc(c(-c5c(F)cc(S(=O)(=O)[O-])cc5F)c5ccc2[nH]5)C=C4)C=C3)cc1
REMARK SMILES IDX 6 1 5 2 4 3 3 4 1 5 2 6 28 8 29 9 93 10 30 11 92 12 31 13
REMARK SMILES IDX 32 14 33 15 86 16 34 17 91 18 85 19 87 20 35 21 90 22 84 23
REMARK SMILES IDX 83 24 36 26 70 27 49 28 69 29 50 30 53 31 68 32 88 33 51 34
REMARK SMILES IDX 52 35 67 37 89 38 54 39 37 40 38 41 47 42 39 43 40 44 46 45
REMARK SMILES IDX 48 46 41 47 42 48 43 49 44 50 45 51 71 52 72 53 81 54 73 55
REMARK SMILES IDX 74 56 80 57 82 58 75 59 76 60 77 61 78 62 79 63 55 64 56 65
REMARK SMILES IDX 65 66 57 67 58 68 64 69 66 70 59 71 60 72 61 73 62 74 63 75
REMARK SMILES IDX 7 76 8 77 9 78 10 80 11 81 12 82 27 83 13 84 14 85 15 86
REMARK SMILES IDX 16 87 17 89 18 90 22 91 19 92 21 93 20 94 23 95 24 96 25 97
REMARK SMILES IDX 26 98
REMARK H PARENT 3 7 87 25 53 36 8 79 16 88
REMARK Flexibility Score: inf
ROOT
ATOM      1  C   UNL A   1      32.752  29.999  26.776  1.00  0.00     0.023 C 
ENDROOT
BRANCH   1   2
ATOM      2  C   UNL A   1      33.704  28.859  27.141  1.00  0.00     0.023 C 
BRANCH   2   3
ATOM      3  C   UNL A   1      35.110  29.277  27.564  1.00  0.00     0.116 C 
BRANCH   3   4
ATOM      4  N   UNL A   1      35.116  30.095  28.767  1.00  0.00    -0.352 N 
ATOM      5  O   UNL A   1      35.897  30.950  30.695  1.00  0.00    -0.269 OA
ATOM      6  C   UNL A   1      36.137  30.350  29.650  1.00  0.00     0.251 C 
ATOM      7  H   UNL A   1      34.260  30.530  28.980  1.00  0.00     0.163 HD
BRANCH   6   8
ATOM      8  C   UNL A   1      37.512  29.884  29.363  1.00  0.00     0.039 A 
ATOM      9  C   UNL A   1      38.349  29.424  30.384  1.00  0.00     0.014 A 
ATOM     10  C   UNL A   1      37.961  29.888  28.039  1.00  0.00     0.014 A 
ATOM     11  C   UNL A   1      39.672  29.091  30.100  1.00  0.00     0.010 A 
ATOM     12  C   UNL A   1      39.269  29.491  27.747  1.00  0.00     0.010 A 
ATOM     13  C   UNL A   1      40.145  29.120  28.780  1.00  0.00    -0.014 A 
BRANCH  13  14
ATOM     14  C   UNL A   1      41.547  28.731  28.478  1.00  0.00     0.031 A 
ATOM     15  C   UNL A   1      42.647  29.756  28.489  1.00  0.00     0.074 A 
ATOM     16  C   UNL A   1      41.823  27.448  28.176  1.00  0.00     0.049 A 
ATOM     17  N   UNL A   1      43.913  29.611  28.191  1.00  0.00    -0.248 NA
ATOM     18  C   UNL A   1      42.275  31.124  28.881  1.00  0.00     0.031 C 
ATOM     19  C   UNL A   1      40.840  26.364  28.128  1.00  0.00     0.029 A 
ATOM     20  N   UNL A   1      43.007  26.839  27.846  1.00  0.00    -0.354 N 
ATOM     21  C   UNL A   1      44.485  30.871  28.334  1.00  0.00     0.074 A 
ATOM     22  C   UNL A   1      43.422  31.772  28.727  1.00  0.00     0.031 C 
ATOM     23  C   UNL A   1      41.461  25.222  27.803  1.00  0.00     0.029 A 
ATOM     24  C   UNL A   1      42.875  25.500  27.566  1.00  0.00     0.049 A 
ATOM     25  H   UNL A   1      43.869  27.315  27.813  1.00  0.00     0.167 HD
ATOM     26  C   UNL A   1      45.778  31.238  28.156  1.00  0.00     0.037 A 
ATOM     27  C   UNL A   1      43.781  24.600  27.140  1.00  0.00     0.037 A 
ATOM     28  C   UNL A   1      46.832  30.332  27.776  1.00  0.00     0.049 A 
ATOM     29  C   UNL A   1      45.204  25.031  26.932  1.00  0.00     0.074 A 
ATOM     30  C   UNL A   1      48.178  30.601  27.601  1.00  0.00     0.029 A 
ATOM     31  N   UNL A   1      46.657  28.982  27.505  1.00  0.00    -0.354 N 
ATOM     32  N   UNL A   1      45.734  26.220  27.095  1.00  0.00    -0.248 NA
ATOM     33  C   UNL A   1      46.153  24.004  26.486  1.00  0.00     0.031 C 
ATOM     34  C   UNL A   1      48.811  29.423  27.188  1.00  0.00     0.029 A 
ATOM     35  C   UNL A   1      47.867  28.409  27.149  1.00  0.00     0.049 A 
ATOM     36  H   UNL A   1      45.799  28.501  27.559  1.00  0.00     0.167 HD
ATOM     37  C   UNL A   1      47.082  26.081  26.792  1.00  0.00     0.074 A 
ATOM     38  C   UNL A   1      47.289  24.691  26.439  1.00  0.00     0.031 C 
ATOM     39  C   UNL A   1      48.059  27.020  26.808  1.00  0.00     0.037 A 
BRANCH  26  40
ATOM     40  C   UNL A   1      46.117  32.691  28.346  1.00  0.00     0.058 A 
ATOM     41  C   UNL A   1      46.057  33.611  27.286  1.00  0.00     0.135 A 
ATOM     42  C   UNL A   1      46.499  33.174  29.609  1.00  0.00     0.135 A 
ATOM     43  F   UNL A   1      45.710  33.202  26.056  1.00  0.00    -0.206 F 
ATOM     44  C   UNL A   1      46.400  34.948  27.462  1.00  0.00     0.059 A 
ATOM     45  C   UNL A   1      46.824  34.512  29.814  1.00  0.00     0.059 A 
ATOM     46  F   UNL A   1      46.570  32.339  30.658  1.00  0.00    -0.206 F 
ATOM     47  C   UNL A   1      46.791  35.387  28.729  1.00  0.00     0.060 A 
BRANCH  47  48
ATOM     48  S   UNL A   1      47.267  37.117  28.938  1.00  0.00     0.124 S 
ATOM     49  O   UNL A   1      46.225  37.796  28.173  1.00  0.00    -0.237 OA
ATOM     50  O   UNL A   1      47.201  37.289  30.386  1.00  0.00    -0.237 OA
ATOM     51  O   UNL A   1      48.607  37.173  28.364  1.00  0.00    -0.744 OA
ENDBRANCH  47  48
ENDBRANCH  26  40
BRANCH  27  52
ATOM     52  C   UNL A   1      43.349  23.201  26.888  1.00  0.00     0.058 A 
ATOM     53  C   UNL A   1      43.249  22.700  25.583  1.00  0.00     0.135 A 
ATOM     54  C   UNL A   1      43.102  22.319  27.952  1.00  0.00     0.135 A 
ATOM     55  F   UNL A   1      43.471  23.509  24.535  1.00  0.00    -0.206 F 
ATOM     56  C   UNL A   1      42.924  21.371  25.339  1.00  0.00     0.059 A 
ATOM     57  C   UNL A   1      42.799  20.980  27.734  1.00  0.00     0.059 A 
ATOM     58  F   UNL A   1      43.203  22.748  29.219  1.00  0.00    -0.206 F 
ATOM     59  C   UNL A   1      42.710  20.515  26.421  1.00  0.00     0.060 A 
BRANCH  59  60
ATOM     60  S   UNL A   1      42.383  18.769  26.095  1.00  0.00     0.124 S 
ATOM     61  O   UNL A   1      43.348  18.481  25.041  1.00  0.00    -0.237 OA
ATOM     62  O   UNL A   1      42.653  18.158  27.393  1.00  0.00    -0.237 OA
ATOM     63  O   UNL A   1      40.980  18.762  25.690  1.00  0.00    -0.744 OA
ENDBRANCH  59  60
ENDBRANCH  27  52
BRANCH  39  64
ATOM     64  C   UNL A   1      49.454  26.574  26.471  1.00  0.00     0.058 A 
ATOM     65  C   UNL A   1      50.277  25.945  27.416  1.00  0.00     0.135 A 
ATOM     66  C   UNL A   1      49.945  26.721  25.163  1.00  0.00     0.135 A 
ATOM     67  F   UNL A   1      49.857  25.789  28.682  1.00  0.00    -0.206 F 
ATOM     68  C   UNL A   1      51.545  25.482  27.079  1.00  0.00     0.059 A 
ATOM     69  C   UNL A   1      51.201  26.246  24.799  1.00  0.00     0.059 A 
ATOM     70  F   UNL A   1      49.193  27.312  24.221  1.00  0.00    -0.206 F 
ATOM     71  C   UNL A   1      51.996  25.633  25.766  1.00  0.00     0.060 A 
BRANCH  71  72
ATOM     72  S   UNL A   1      53.621  24.980  25.326  1.00  0.00     0.124 S 
ATOM     73  O   UNL A   1      54.415  25.360  26.489  1.00  0.00    -0.237 OA
ATOM     74  O   UNL A   1      53.356  23.552  25.179  1.00  0.00    -0.237 OA
ATOM     75  O   UNL A   1      53.945  25.681  24.087  1.00  0.00    -0.744 OA
ENDBRANCH  71  72
ENDBRANCH  39  64
ENDBRANCH  13  14
ENDBRANCH   6   8
ENDBRANCH   3   4
ENDBRANCH   2   3
ENDBRANCH   1   2
BRANCH   1  76
ATOM     76  C   UNL A   1      32.219  29.990  25.345  1.00  0.00     0.116 C 
BRANCH  76  77
ATOM     77  N   UNL A   1      33.180  29.465  24.392  1.00  0.00    -0.354 N 
ATOM     78  C   UNL A   1      33.064  28.398  23.548  1.00  0.00     0.249 C 
ATOM     79  H   UNL A   1      34.037  29.946  24.349  1.00  0.00     0.163 HD
ATOM     80  O   UNL A   1      33.985  28.192  22.753  1.00  0.00    -0.272 OA
BRANCH  78  81
ATOM     81  C   UNL A   1      31.825  27.484  23.625  1.00  0.00     0.207 C 
ATOM     82  C   UNL A   1      31.125  27.351  22.283  1.00  0.00     0.045 C 
ATOM     83  O   UNL A   1      32.215  26.154  24.008  1.00  0.00    -0.363 OA
ATOM     84  C   UNL A   1      31.833  26.180  21.651  1.00  0.00     0.037 C 
ATOM     85  C   UNL A   1      32.141  25.294  22.849  1.00  0.00     0.138 C 
BRANCH  85  86
ATOM     86  C   UNL A   1      33.438  24.482  22.689  1.00  0.00     0.145 C 
BRANCH  86  87
ATOM     87  N   UNL A   1      33.286  23.114  23.191  1.00  0.00    -0.382 N 
ATOM     88  H   UNL A   1      32.402  22.683  23.166  1.00  0.00     0.160 HD
BRANCH  87  89
ATOM     89  C   UNL A   1      34.376  22.416  23.701  1.00  0.00     0.046 A 
ATOM     90  C   UNL A   1      35.650  22.980  23.500  1.00  0.00     0.026 A 
ATOM     91  C   UNL A   1      34.284  21.240  24.466  1.00  0.00     0.079 A 
ATOM     92  C   UNL A   1      36.802  22.420  24.056  1.00  0.00     0.002 A 
ATOM     93  C   UNL A   1      35.456  20.692  25.036  1.00  0.00     0.015 A 
ATOM     94  C   UNL A   1      36.704  21.277  24.834  1.00  0.00     0.001 A 
BRANCH  91  95
ATOM     95  C   UNL A   1      32.989  20.499  24.705  1.00  0.00     0.418 C 
ATOM     96  F   UNL A   1      32.076  21.257  25.389  1.00  0.00    -0.166 F 
ATOM     97  F   UNL A   1      32.365  20.147  23.546  1.00  0.00    -0.166 F 
ATOM     98  F   UNL A   1      33.101  19.354  25.436  1.00  0.00    -0.166 F 
ENDBRANCH  91  95
ENDBRANCH  87  89
ENDBRANCH  86  87
ENDBRANCH  85  86
ENDBRANCH  78  81
ENDBRANCH  76  77
ENDBRANCH   1  76
TORSDOF 18
ENDMDL
MODEL 2
REMARK VINA RESULT:     -11.9      6.766     12.129
REMARK SMILES O=C(NCCCCNC(=O)[C@H]1CC[C@@H](CNc2ccccc2C(F)(F)F)O1)c1ccc(-c2c3nc(c(-c4c(F)cc(S(=O)(=O)[O-])cc4F)c4ccc([nH]4)c(-c4c(F)cc(S(=O)(=O)[O-])cc4F)c4nc(c(-c5c(F)cc(S(=O)(=O)[O-])cc5F)c5ccc2[nH]5)C=C4)C=C3)cc1
REMARK SMILES IDX 6 1 5 2 4 3 3 4 1 5 2 6 28 8 29 9 93 10 30 11 92 12 31 13
REMARK SMILES IDX 32 14 33 15 86 16 34 17 91 18 85 19 87 20 35 21 90 22 84 23
REMARK SMILES IDX 83 24 36 26 70 27 49 28 69 29 50 30 53 31 68 32 88 33 51 34
REMARK SMILES IDX 52 35 67 37 89 38 54 39 37 40 38 41 47 42 39 43 40 44 46 45
REMARK SMILES IDX 48 46 41 47 42 48 43 49 44 50 45 51 71 52 72 53 81 54 73 55
REMARK SMILES IDX 74 56 80 57 82 58 75 59 76 60 77 61 78 62 79 63 55 64 56 65
REMARK SMILES IDX 65 66 57 67 58 68 64 69 66 70 59 71 60 72 61 73 62 74 63 75
REMARK SMILES IDX 7 76 8 77 9 78 10 80 11 81 12 82 27 83 13 84 14 85 15 86
REMARK SMILES IDX 16 87 17 89 18 90 22 91 19 92 21 93 20 94 23 95 24 96 25 97
REMARK SMILES IDX 26 98
REMARK H PARENT 3 7 87 25 53 36 8 79 16 88
REMARK Flexibility Score: inf
ROOT
ATOM      1  C   UNL A   1      38.665  23.113  26.378  1.00  0.00     0.023 C 
ENDROOT
BRANCH   1   2
ATOM      2  C   UNL A   1      39.870  22.277  26.815  1.00  0.00     0.023 C 
BRANCH   2   3
ATOM      3  C   UNL A   1      41.122  23.063  27.190  1.00  0.00     0.116 C 
BRANCH   3   4
ATOM      4  N   UNL A   1      41.633  23.866  26.089  1.00  0.00    -0.352 N 
ATOM      5  O   UNL A   1      42.119  25.729  24.925  1.00  0.00    -0.269 OA
ATOM      6  C   UNL A   1      41.816  25.226  26.005  1.00  0.00     0.251 C 
ATOM      7  H   UNL A   1      41.884  23.360  25.284  1.00  0.00     0.163 HD
BRANCH   6   8
ATOM      8  C   UNL A   1      41.625  26.084  27.194  1.00  0.00     0.039 A 
ATOM      9  C   UNL A   1      40.542  25.895  28.057  1.00  0.00     0.014 A 
ATOM     10  C   UNL A   1      42.566  27.084  27.462  1.00  0.00     0.014 A 
ATOM     11  C   UNL A   1      40.329  26.783  29.110  1.00  0.00     0.010 A 
ATOM     12  C   UNL A   1      42.386  27.933  28.557  1.00  0.00     0.010 A 
ATOM     13  C   UNL A   1      41.249  27.810  29.371  1.00  0.00    -0.014 A 
BRANCH  13  14
ATOM     14  C   UNL A   1      41.036  28.734  30.515  1.00  0.00     0.031 A 
ATOM     15  C   UNL A   1      41.886  28.634  31.751  1.00  0.00     0.074 A 
ATOM     16  C   UNL A   1      40.058  29.657  30.441  1.00  0.00     0.049 A 
ATOM     17  N   UNL A   1      41.803  29.313  32.867  1.00  0.00    -0.248 NA
ATOM     18  C   UNL A   1      42.967  27.637  31.734  1.00  0.00     0.031 C 
ATOM     19  C   UNL A   1      39.165  29.848  29.296  1.00  0.00     0.029 A 
ATOM     20  N   UNL A   1      39.646  30.602  31.346  1.00  0.00    -0.354 N 
ATOM     21  C   UNL A   1      42.801  28.811  33.695  1.00  0.00     0.074 A 
ATOM     22  C   UNL A   1      43.466  27.756  32.957  1.00  0.00     0.031 C 
ATOM     23  C   UNL A   1      38.321  30.855  29.562  1.00  0.00     0.029 A 
ATOM     24  C   UNL A   1      38.575  31.345  30.913  1.00  0.00     0.049 A 
ATOM     25  H   UNL A   1      40.076  30.734  32.222  1.00  0.00     0.167 HD
ATOM     26  C   UNL A   1      43.134  29.197  34.951  1.00  0.00     0.037 A 
ATOM     27  C   UNL A   1      37.857  32.297  31.539  1.00  0.00     0.037 A 
ATOM     28  C   UNL A   1      42.474  30.256  35.672  1.00  0.00     0.049 A 
ATOM     29  C   UNL A   1      38.230  32.698  32.937  1.00  0.00     0.074 A 
ATOM     30  C   UNL A   1      42.757  30.742  36.937  1.00  0.00     0.029 A 
ATOM     31  N   UNL A   1      41.395  30.987  35.196  1.00  0.00    -0.354 N 
ATOM     32  N   UNL A   1      39.193  32.230  33.696  1.00  0.00    -0.248 NA
ATOM     33  C   UNL A   1      37.426  33.754  33.565  1.00  0.00     0.031 C 
ATOM     34  C   UNL A   1      41.826  31.742  37.240  1.00  0.00     0.029 A 
ATOM     35  C   UNL A   1      40.990  31.909  36.148  1.00  0.00     0.049 A 
ATOM     36  H   UNL A   1      40.978  30.869  34.312  1.00  0.00     0.167 HD
ATOM     37  C   UNL A   1      39.124  32.949  34.883  1.00  0.00     0.074 A 
ATOM     38  C   UNL A   1      38.028  33.886  34.741  1.00  0.00     0.031 C 
ATOM     39  C   UNL A   1      39.902  32.843  35.988  1.00  0.00     0.037 A 
BRANCH  26  40
ATOM     40  C   UNL A   1      44.246  28.449  35.634  1.00  0.00     0.058 A 
ATOM     41  C   UNL A   1      45.593  28.806  35.465  1.00  0.00     0.135 A 
ATOM     42  C   UNL A   1      43.958  27.365  36.480  1.00  0.00     0.135 A 
ATOM     43  F   UNL A   1      45.925  29.827  34.659  1.00  0.00    -0.206 F 
ATOM     44  C   UNL A   1      46.618  28.091  36.077  1.00  0.00     0.059 A 
ATOM     45  C   UNL A   1      44.966  26.650  37.121  1.00  0.00     0.059 A 
ATOM     46  F   UNL A   1      42.687  26.982  36.681  1.00  0.00    -0.206 F 
ATOM     47  C   UNL A   1      46.294  27.009  36.896  1.00  0.00     0.060 A 
BRANCH  47  48
ATOM     48  S   UNL A   1      47.634  26.067  37.660  1.00  0.00     0.124 S 
ATOM     49  O   UNL A   1      48.535  25.879  36.527  1.00  0.00    -0.237 OA
ATOM     50  O   UNL A   1      48.106  26.977  38.698  1.00  0.00    -0.237 OA
ATOM     51  O   UNL A   1      46.969  24.861  38.142  1.00  0.00    -0.744 OA
ENDBRANCH  47  48
ENDBRANCH  26  40
BRANCH  27  52
ATOM     52  C   UNL A   1      36.714  32.927  30.830  1.00  0.00     0.058 A 
ATOM     53  C   UNL A   1      35.393  32.589  31.146  1.00  0.00     0.135 A 
ATOM     54  C   UNL A   1      36.924  33.935  29.875  1.00  0.00     0.135 A 
ATOM     55  F   UNL A   1      35.144  31.627  32.049  1.00  0.00    -0.206 F 
ATOM     56  C   UNL A   1      34.315  33.230  30.546  1.00  0.00     0.059 A 
ATOM     57  C   UNL A   1      35.864  34.607  29.278  1.00  0.00     0.059 A 
ATOM     58  F   UNL A   1      38.173  34.306  29.552  1.00  0.00    -0.206 F 
ATOM     59  C   UNL A   1      34.561  34.246  29.620  1.00  0.00     0.060 A 
BRANCH  59  60
ATOM     60  S   UNL A   1      33.156  35.138  28.917  1.00  0.00     0.124 S 
ATOM     61  O   UNL A   1      32.636  34.164  27.965  1.00  0.00    -0.237 OA
ATOM     62  O   UNL A   1      32.330  35.386  30.094  1.00  0.00    -0.237 OA
ATOM     63  O   UNL A   1      33.773  36.326  28.334  1.00  0.00    -0.744 OA
ENDBRANCH  59  60
ENDBRANCH  27  52
BRANCH  39  64
ATOM     64  C   UNL A   1      39.625  33.787  37.123  1.00  0.00     0.058 A 
ATOM     65  C   UNL A   1      38.791  33.431  38.193  1.00  0.00     0.135 A 
ATOM     66  C   UNL A   1      40.259  35.040  37.171  1.00  0.00     0.135 A 
ATOM     67  F   UNL A   1      38.155  32.249  38.190  1.00  0.00    -0.206 F 
ATOM     68  C   UNL A   1      38.587  34.289  39.270  1.00  0.00     0.059 A 
ATOM     69  C   UNL A   1      40.087  35.904  38.248  1.00  0.00     0.059 A 
ATOM     70  F   UNL A   1      41.072  35.424  36.174  1.00  0.00    -0.206 F 
ATOM     71  C   UNL A   1      39.243  35.521  39.290  1.00  0.00     0.060 A 
BRANCH  71  72
ATOM     72  S   UNL A   1      39.016  36.603  40.718  1.00  0.00     0.124 S 
ATOM     73  O   UNL A   1      38.050  35.846  41.508  1.00  0.00    -0.237 OA
ATOM     74  O   UNL A   1      40.364  36.682  41.271  1.00  0.00    -0.237 OA
ATOM     75  O   UNL A   1      38.513  37.841  40.130  1.00  0.00    -0.744 OA
ENDBRANCH  71  72
ENDBRANCH  39  64
ENDBRANCH  13  14
ENDBRANCH   6   8
ENDBRANCH   3   4
ENDBRANCH   2   3
ENDBRANCH   1   2
BRANCH   1  76
ATOM     76  C   UNL A   1      37.658  22.408  25.473  1.00  0.00     0.116 C 
BRANCH  76  77
ATOM     77  N   UNL A   1      36.439  22.040  26.169  1.00  0.00    -0.354 N 
ATOM     78  C   UNL A   1      35.217  22.650  26.152  1.00  0.00     0.249 C 
ATOM     79  H   UNL A   1      36.502  21.237  26.734  1.00  0.00     0.163 HD
ATOM     80  O   UNL A   1      34.293  22.100  26.756  1.00  0.00    -0.272 OA
BRANCH  78  81
ATOM     81  C   UNL A   1      35.035  23.993  25.417  1.00  0.00     0.207 C 
ATOM     82  C   UNL A   1      34.389  23.818  24.053  1.00  0.00     0.045 C 
ATOM     83  O   UNL A   1      34.161  24.852  26.168  1.00  0.00    -0.363 OA
ATOM     84  C   UNL A   1      32.917  23.897  24.367  1.00  0.00     0.037 C 
ATOM     85  C   UNL A   1      32.877  24.904  25.508  1.00  0.00     0.138 C 
BRANCH  85  86
ATOM     86  C   UNL A   1      31.737  24.645  26.509  1.00  0.00     0.145 C 
BRANCH  86  87
ATOM     87  N   UNL A   1      30.796  25.766  26.561  1.00  0.00    -0.382 N 
ATOM     88  H   UNL A   1      30.101  25.785  27.258  1.00  0.00     0.160 HD
BRANCH  87  89
ATOM     89  C   UNL A   1      30.872  26.805  25.640  1.00  0.00     0.046 A 
ATOM     90  C   UNL A   1      30.249  26.604  24.393  1.00  0.00     0.026 A 
ATOM     91  C   UNL A   1      31.453  28.059  25.897  1.00  0.00     0.079 A 
ATOM     92  C   UNL A   1      30.176  27.616  23.433  1.00  0.00     0.002 A 
ATOM     93  C   UNL A   1      31.356  29.080  24.923  1.00  0.00     0.015 A 
ATOM     94  C   UNL A   1      30.723  28.860  23.702  1.00  0.00     0.001 A 
BRANCH  91  95
ATOM     95  C   UNL A   1      32.204  28.386  27.166  1.00  0.00     0.418 C 
ATOM     96  F   UNL A   1      33.420  27.760  27.226  1.00  0.00    -0.166 F 
ATOM     97  F   UNL A   1      32.481  29.715  27.284  1.00  0.00    -0.166 F 
ATOM     98  F   UNL A   1      31.577  28.028  28.322  1.00  0.00    -0.166 F 
ENDBRANCH  91  95
ENDBRANCH  87  89
ENDBRANCH  86  87
ENDBRANCH  85  86
ENDBRANCH  78  81
ENDBRANCH  76  77
ENDBRANCH   1  76
TORSDOF 18
ENDMDL
MODEL 3
REMARK VINA RESULT:     -11.9      2.578      3.280
REMARK SMILES O=C(NCCCCNC(=O)[C@H]1CC[C@@H](CNc2ccccc2C(F)(F)F)O1)c1ccc(-c2c3nc(c(-c4c(F)cc(S(=O)(=O)[O-])cc4F)c4ccc([nH]4)c(-c4c(F)cc(S(=O)(=O)[O-])cc4F)c4nc(c(-c5c(F)cc(S(=O)(=O)[O-])cc5F)c5ccc2[nH]5)C=C4)C=C3)cc1
REMARK SMILES IDX 6 1 5 2 4 3 3 4 1 5 2 6 28 8 29 9 93 10 30 11 92 12 31 13
REMARK SMILES IDX 32 14 33 15 86 16 34 17 91 18 85 19 87 20 35 21 90 22 84 23
REMARK SMILES IDX 83 24 36 26 70 27 49 28 69 29 50 30 53 31 68 32 88 33 51 34
REMARK SMILES IDX 52 35 67 37 89 38 54 39 37 40 38 41 47 42 39 43 40 44 46 45
REMARK SMILES IDX 48 46 41 47 42 48 43 49 44 50 45 51 71 52 72 53 81 54 73 55
REMARK SMILES IDX 74 56 80 57 82 58 75 59 76 60 77 61 78 62 79 63 55 64 56 65
REMARK SMILES IDX 65 66 57 67 58 68 64 69 66 70 59 71 60 72 61 73 62 74 63 75
REMARK SMILES IDX 7 76 8 77 9 78 10 80 11 81 12 82 27 83 13 84 14 85 15 86
REMARK SMILES IDX 16 87 17 89 18 90 22 91 19 92 21 93 20 94 23 95 24 96 25 97
REMARK SMILES IDX 26 98
REMARK H PARENT 3 7 87 25 53 36 8 79 16 88
REMARK Flexibility Score: inf
ROOT
ATOM      1  C   UNL A   1      33.331  29.154  24.497  1.00  0.00     0.023 C 
ENDROOT
BRANCH   1   2
ATOM      2  C   UNL A   1      34.028  28.145  25.412  1.00  0.00     0.023 C 
BRANCH   2   3
ATOM      3  C   UNL A   1      33.715  28.271  26.900  1.00  0.00     0.116 C 
BRANCH   3   4
ATOM      4  N   UNL A   1      33.539  29.652  27.323  1.00  0.00    -0.352 N 
ATOM      5  O   UNL A   1      34.005  31.573  28.397  1.00  0.00    -0.269 OA
ATOM      6  C   UNL A   1      34.403  30.481  27.998  1.00  0.00     0.251 C 
ATOM      7  H   UNL A   1      32.671  30.052  27.090  1.00  0.00     0.163 HD
BRANCH   6   8
ATOM      8  C   UNL A   1      35.794  30.056  28.268  1.00  0.00     0.039 A 
ATOM      9  C   UNL A   1      36.168  29.555  29.518  1.00  0.00     0.014 A 
ATOM     10  C   UNL A   1      36.736  30.140  27.238  1.00  0.00     0.014 A 
ATOM     11  C   UNL A   1      37.505  29.261  29.777  1.00  0.00     0.010 A 
ATOM     12  C   UNL A   1      38.065  29.783  27.481  1.00  0.00     0.010 A 
ATOM     13  C   UNL A   1      38.467  29.370  28.761  1.00  0.00    -0.014 A 
BRANCH  13  14
ATOM     14  C   UNL A   1      39.886  29.023  29.032  1.00  0.00     0.031 A 
ATOM     15  C   UNL A   1      40.826  30.039  29.620  1.00  0.00     0.074 A 
ATOM     16  C   UNL A   1      40.330  27.788  28.730  1.00  0.00     0.049 A 
ATOM     17  N   UNL A   1      42.107  29.933  29.865  1.00  0.00    -0.248 NA
ATOM     18  C   UNL A   1      40.253  31.347  29.972  1.00  0.00     0.031 C 
ATOM     19  C   UNL A   1      39.514  26.718  28.152  1.00  0.00     0.029 A 
ATOM     20  N   UNL A   1      41.574  27.225  28.860  1.00  0.00    -0.354 N 
ATOM     21  C   UNL A   1      42.501  31.165  30.377  1.00  0.00     0.074 A 
ATOM     22  C   UNL A   1      41.324  32.010  30.388  1.00  0.00     0.031 C 
ATOM     23  C   UNL A   1      40.274  25.626  27.990  1.00  0.00     0.029 A 
ATOM     24  C   UNL A   1      41.641  25.932  28.401  1.00  0.00     0.049 A 
ATOM     25  H   UNL A   1      42.345  27.702  29.245  1.00  0.00     0.167 HD
ATOM     26  C   UNL A   1      43.729  31.552  30.800  1.00  0.00     0.037 A 
ATOM     27  C   UNL A   1      42.689  25.093  28.294  1.00  0.00     0.037 A 
ATOM     28  C   UNL A   1      44.891  30.701  30.796  1.00  0.00     0.049 A 
ATOM     29  C   UNL A   1      44.044  25.547  28.752  1.00  0.00     0.074 A 
ATOM     30  C   UNL A   1      46.173  30.991  31.232  1.00  0.00     0.029 A 
ATOM     31  N   UNL A   1      44.917  29.396  30.325  1.00  0.00    -0.354 N 
ATOM     32  N   UNL A   1      44.395  26.707  29.256  1.00  0.00    -0.248 NA
ATOM     33  C   UNL A   1      45.146  24.584  28.631  1.00  0.00     0.031 C 
ATOM     34  C   UNL A   1      46.981  29.874  30.992  1.00  0.00     0.029 A 
ATOM     35  C   UNL A   1      46.194  28.872  30.446  1.00  0.00     0.049 A 
ATOM     36  H   UNL A   1      44.141  28.912  29.960  1.00  0.00     0.167 HD
ATOM     37  C   UNL A   1      45.752  26.607  29.531  1.00  0.00     0.074 A 
ATOM     38  C   UNL A   1      46.160  25.272  29.143  1.00  0.00     0.031 C 
ATOM     39  C   UNL A   1      46.583  27.537  30.063  1.00  0.00     0.037 A 
BRANCH  26  40
ATOM     40  C   UNL A   1      43.882  32.971  31.278  1.00  0.00     0.058 A 
ATOM     41  C   UNL A   1      44.137  34.028  30.390  1.00  0.00     0.135 A 
ATOM     42  C   UNL A   1      43.760  33.278  32.643  1.00  0.00     0.135 A 
ATOM     43  F   UNL A   1      44.275  33.789  29.077  1.00  0.00    -0.206 F 
ATOM     44  C   UNL A   1      44.307  35.333  30.842  1.00  0.00     0.059 A 
ATOM     45  C   UNL A   1      43.901  34.580  33.115  1.00  0.00     0.059 A 
ATOM     46  F   UNL A   1      43.512  32.307  33.535  1.00  0.00    -0.206 F 
ATOM     47  C   UNL A   1      44.195  35.598  32.208  1.00  0.00     0.060 A 
BRANCH  47  48
ATOM     48  S   UNL A   1      44.449  37.289  32.788  1.00  0.00     0.124 S 
ATOM     49  O   UNL A   1      45.593  37.120  33.679  1.00  0.00    -0.237 OA
ATOM     50  O   UNL A   1      44.714  38.011  31.548  1.00  0.00    -0.237 OA
ATOM     51  O   UNL A   1      43.186  37.617  33.443  1.00  0.00    -0.744 OA
ENDBRANCH  47  48
ENDBRANCH  26  40
BRANCH  27  52
ATOM     52  C   UNL A   1      42.475  23.736  27.728  1.00  0.00     0.058 A 
ATOM     53  C   UNL A   1      42.494  23.521  26.344  1.00  0.00     0.135 A 
ATOM     54  C   UNL A   1      42.323  22.619  28.565  1.00  0.00     0.135 A 
ATOM     55  F   UNL A   1      42.632  24.559  25.505  1.00  0.00    -0.206 F 
ATOM     56  C   UNL A   1      42.377  22.244  25.806  1.00  0.00     0.059 A 
ATOM     57  C   UNL A   1      42.227  21.331  28.052  1.00  0.00     0.059 A 
ATOM     58  F   UNL A   1      42.316  22.774  29.898  1.00  0.00    -0.206 F 
ATOM     59  C   UNL A   1      42.253  21.153  26.669  1.00  0.00     0.060 A 
BRANCH  59  60
ATOM     60  S   UNL A   1      42.196  19.492  25.964  1.00  0.00     0.124 S 
ATOM     61  O   UNL A   1      43.096  19.625  24.825  1.00  0.00    -0.237 OA
ATOM     62  O   UNL A   1      42.681  18.672  27.070  1.00  0.00    -0.237 OA
ATOM     63  O   UNL A   1      40.784  19.315  25.638  1.00  0.00    -0.744 OA
ENDBRANCH  59  60
ENDBRANCH  27  52
BRANCH  39  64
ATOM     64  C   UNL A   1      48.013  27.138  30.292  1.00  0.00     0.058 A 
ATOM     65  C   UNL A   1      49.018  27.423  29.357  1.00  0.00     0.135 A 
ATOM     66  C   UNL A   1      48.390  26.522  31.497  1.00  0.00     0.135 A 
ATOM     67  F   UNL A   1      48.708  28.002  28.186  1.00  0.00    -0.206 F 
ATOM     68  C   UNL A   1      50.350  27.102  29.603  1.00  0.00     0.059 A 
ATOM     69  C   UNL A   1      49.718  26.213  31.774  1.00  0.00     0.059 A 
ATOM     70  F   UNL A   1      47.465  26.234  32.427  1.00  0.00    -0.206 F 
ATOM     71  C   UNL A   1      50.690  26.502  30.817  1.00  0.00     0.060 A 
BRANCH  71  72
ATOM     72  S   UNL A   1      52.428  26.141  31.151  1.00  0.00     0.124 S 
ATOM     73  O   UNL A   1      52.798  27.257  32.016  1.00  0.00    -0.237 OA
ATOM     74  O   UNL A   1      52.360  24.834  31.797  1.00  0.00    -0.237 OA
ATOM     75  O   UNL A   1      53.037  26.146  29.824  1.00  0.00    -0.744 OA
ENDBRANCH  71  72
ENDBRANCH  39  64
ENDBRANCH  13  14
ENDBRANCH   6   8
ENDBRANCH   3   4
ENDBRANCH   2   3
ENDBRANCH   1   2
BRANCH   1  76
ATOM     76  C   UNL A   1      32.598  28.566  23.293  1.00  0.00     0.116 C 
BRANCH  76  77
ATOM     77  N   UNL A   1      33.226  27.360  22.788  1.00  0.00    -0.354 N 
ATOM     78  C   UNL A   1      32.759  26.077  22.789  1.00  0.00     0.249 C 
ATOM     79  H   UNL A   1      34.116  27.485  22.387  1.00  0.00     0.163 HD
ATOM     80  O   UNL A   1      33.435  25.220  22.215  1.00  0.00    -0.272 OA
BRANCH  78  81
ATOM     81  C   UNL A   1      31.441  25.736  23.513  1.00  0.00     0.207 C 
ATOM     82  C   UNL A   1      30.916  24.362  23.134  1.00  0.00     0.045 C 
ATOM     83  O   UNL A   1      31.652  25.707  24.934  1.00  0.00    -0.363 OA
ATOM     84  C   UNL A   1      31.590  23.459  24.134  1.00  0.00     0.037 C 
ATOM     85  C   UNL A   1      31.652  24.333  25.379  1.00  0.00     0.138 C 
BRANCH  85  86
ATOM     86  C   UNL A   1      32.878  24.045  26.263  1.00  0.00     0.145 C 
BRANCH  86  87
ATOM     87  N   UNL A   1      33.349  22.667  26.104  1.00  0.00    -0.382 N 
ATOM     88  H   UNL A   1      32.725  21.920  26.249  1.00  0.00     0.160 HD
BRANCH  87  89
ATOM     89  C   UNL A   1      34.667  22.400  25.749  1.00  0.00     0.046 A 
ATOM     90  C   UNL A   1      35.618  23.405  26.009  1.00  0.00     0.026 A 
ATOM     91  C   UNL A   1      35.121  21.175  25.228  1.00  0.00     0.079 A 
ATOM     92  C   UNL A   1      36.983  23.206  25.788  1.00  0.00     0.002 A 
ATOM     93  C   UNL A   1      36.508  20.982  25.025  1.00  0.00     0.015 A 
ATOM     94  C   UNL A   1      37.430  21.987  25.302  1.00  0.00     0.001 A 
BRANCH  91  95
ATOM     95  C   UNL A   1      34.203  20.038  24.847  1.00  0.00     0.418 C 
ATOM     96  F   UNL A   1      33.424  19.626  25.895  1.00  0.00    -0.166 F 
ATOM     97  F   UNL A   1      33.325  20.382  23.863  1.00  0.00    -0.166 F 
ATOM     98  F   UNL A   1      34.827  18.905  24.417  1.00  0.00    -0.166 F 
ENDBRANCH  91  95
ENDBRANCH  87  89
ENDBRANCH  86  87
ENDBRANCH  85  86
ENDBRANCH  78  81
ENDBRANCH  76  77
ENDBRANCH   1  76
TORSDOF 18
ENDMDL
