MODEL 1
REMARK VINA RESULT:     -12.0      0.000      0.000
REMARK SMILES Cn1c(C[NH+](C)C)nnc1[C@@H]1CCC[N@@H+](Cc2ccccc2C(=O)NCCCCNC(=O)c2ccc(-c3c4nc(c(-c5c(F)cc(S(=O)(=O)[O-])cc5F)c5ccc([nH]5)c(-c5c(F)cc(S(=O)(=O)[O-])cc5F)c5nc(c(-c6c(F)cc(S(=O)(=O)[O-])cc6F)c6ccc3[nH]6)C=C5)C=C4)cc2)C1
REMARK SMILES IDX 26 1 25 2 23 3 24 4 22 6 17 7 18 8 19 9 21 10 20 11 16 12
REMARK SMILES IDX 15 13 11 14 12 15 99 16 13 17 14 18 10 20 3 21 8 22 2 23
REMARK SMILES IDX 9 24 1 25 4 26 5 27 6 28 7 29 27 31 28 32 29 33 30 34 31 35
REMARK SMILES IDX 32 37 33 38 34 39 98 40 35 41 97 42 36 43 37 44 38 45 91 46
REMARK SMILES IDX 39 47 96 48 90 49 92 50 40 51 95 52 89 53 88 54 41 56 75 57
REMARK SMILES IDX 54 58 74 59 55 60 58 61 73 62 93 63 56 64 57 65 72 67 94 68
REMARK SMILES IDX 59 69 42 70 43 71 52 72 44 73 45 74 51 75 53 76 46 77 47 78
REMARK SMILES IDX 48 79 49 80 50 81 76 82 77 83 86 84 78 85 79 86 85 87 87 88
REMARK SMILES IDX 80 89 81 90 82 91 83 92 84 93 60 94 61 95 70 96 62 97 63 98
REMARK SMILES IDX 69 99 71 100 64 101 65 102 66 103 67 104 68 105
REMARK H PARENT 25 5 15 19 5 30 30 36 92 55 58 66
REMARK Flexibility Score: inf
ROOT
ATOM      1  C   UNL A   1      41.666  20.209  27.026  1.00  0.00     0.116 C 
ENDROOT
BRANCH   1   2
ATOM      2  N   UNL A   1      40.581  19.564  26.290  1.00  0.00    -0.352 N 
ATOM      3  C   UNL A   1      39.389  20.020  25.759  1.00  0.00     0.251 C 
ATOM      4  O   UNL A   1      38.733  19.326  24.981  1.00  0.00    -0.269 OA
ATOM      5  H   UNL A   1      40.730  18.602  26.141  1.00  0.00     0.163 HD
BRANCH   3   6
ATOM      6  C   UNL A   1      38.807  21.335  25.966  1.00  0.00     0.048 A 
ATOM      7  C   UNL A   1      37.564  21.774  25.520  1.00  0.00     0.019 A 
ATOM      8  C   UNL A   1      37.455  23.188  25.483  1.00  0.00     0.010 A 
ATOM      9  C   UNL A   1      38.392  24.044  26.109  1.00  0.00     0.001 A 
ATOM     10  C   UNL A   1      39.632  22.154  26.779  1.00  0.00     0.014 A 
ATOM     11  C   UNL A   1      39.424  23.513  26.862  1.00  0.00     0.001 A 
BRANCH   7  12
ATOM     12  C   UNL A   1      36.379  20.900  25.039  1.00  0.00     0.299 C 
BRANCH  12  13
ATOM     13  N   UNL A   1      34.961  21.377  24.889  1.00  0.00    -0.331 N 
ATOM     14  C   UNL A   1      33.273  22.717  23.116  1.00  0.00     0.113 C 
ATOM     15  C   UNL A   1      32.181  22.421  24.150  1.00  0.00     0.023 C 
ATOM     16  C   UNL A   1      34.569  22.232  23.789  1.00  0.00     0.274 C 
ATOM     17  C   UNL A   1      32.597  21.593  25.426  1.00  0.00     0.062 C 
ATOM     18  C   UNL A   1      33.839  20.653  25.399  1.00  0.00     0.262 C 
ATOM     19  H   UNL A   1      35.250  21.974  25.664  1.00  0.00     0.348 HD
BRANCH  14  20
ATOM     20  C   UNL A   1      33.371  24.219  22.525  1.00  0.00     0.141 A 
ATOM     21  C   UNL A   1      33.158  26.470  22.270  1.00  0.00     0.187 A 
ATOM     22  N   UNL A   1      33.193  25.900  21.079  1.00  0.00    -0.129 NA
ATOM     23  N   UNL A   1      33.504  25.467  23.179  1.00  0.00    -0.313 N 
ATOM     24  N   UNL A   1      33.316  24.524  21.238  1.00  0.00    -0.135 NA
ATOM     25  C   UNL A   1      33.887  25.810  24.522  1.00  0.00     0.153 C 
BRANCH  21  26
ATOM     26  C   UNL A   1      32.401  27.767  22.621  1.00  0.00     0.340 C 
BRANCH  26  27
ATOM     27  N   UNL A   1      30.943  27.900  22.699  1.00  0.00    -0.333 N 
ATOM     28  C   UNL A   1      30.251  27.331  23.828  1.00  0.00     0.332 C 
ATOM     29  C   UNL A   1      30.420  29.194  22.291  1.00  0.00     0.332 C 
ATOM     30  H   UNL A   1      30.691  27.239  21.964  1.00  0.00     0.348 HD
ENDBRANCH  26  27
ENDBRANCH  21  26
ENDBRANCH  14  20
ENDBRANCH  12  13
ENDBRANCH   7  12
ENDBRANCH   3   6
ENDBRANCH   1   2
BRANCH   1  31
ATOM     31  C   UNL A   1      42.735  20.857  26.131  1.00  0.00     0.023 C 
BRANCH  31  32
ATOM     32  C   UNL A   1      43.729  21.954  26.602  1.00  0.00     0.023 C 
BRANCH  32  33
ATOM     33  C   UNL A   1      43.392  23.410  26.957  1.00  0.00     0.116 C 
BRANCH  33  34
ATOM     34  N   UNL A   1      43.003  24.224  25.822  1.00  0.00    -0.352 N 
ATOM     35  C   UNL A   1      42.423  25.474  25.769  1.00  0.00     0.251 C 
ATOM     36  H   UNL A   1      43.182  23.817  24.944  1.00  0.00     0.163 HD
ATOM     37  O   UNL A   1      42.034  25.881  24.674  1.00  0.00    -0.269 OA
BRANCH  35  38
ATOM     38  C   UNL A   1      42.231  26.348  26.966  1.00  0.00     0.039 A 
ATOM     39  C   UNL A   1      41.226  26.001  27.882  1.00  0.00     0.014 A 
ATOM     40  C   UNL A   1      42.912  27.556  27.151  1.00  0.00     0.014 A 
ATOM     41  C   UNL A   1      40.940  26.821  28.987  1.00  0.00     0.010 A 
ATOM     42  C   UNL A   1      42.650  28.358  28.280  1.00  0.00     0.010 A 
ATOM     43  C   UNL A   1      41.663  28.002  29.216  1.00  0.00    -0.014 A 
BRANCH  43  44
ATOM     44  C   UNL A   1      41.402  28.843  30.429  1.00  0.00     0.031 A 
ATOM     45  C   UNL A   1      42.231  28.689  31.682  1.00  0.00     0.074 A 
ATOM     46  C   UNL A   1      40.391  29.738  30.423  1.00  0.00     0.049 A 
ATOM     47  N   UNL A   1      42.126  29.313  32.831  1.00  0.00    -0.248 NA
ATOM     48  C   UNL A   1      43.313  27.694  31.644  1.00  0.00     0.031 C 
ATOM     49  C   UNL A   1      39.484  29.974  29.299  1.00  0.00     0.029 A 
ATOM     50  N   UNL A   1      39.945  30.609  31.392  1.00  0.00    -0.354 N 
ATOM     51  C   UNL A   1      43.117  28.784  33.652  1.00  0.00     0.074 A 
ATOM     52  C   UNL A   1      43.783  27.753  32.883  1.00  0.00     0.031 C 
ATOM     53  C   UNL A   1      38.603  30.931  29.633  1.00  0.00     0.029 A 
ATOM     54  C   UNL A   1      38.851  31.354  31.009  1.00  0.00     0.049 A 
ATOM     55  H   UNL A   1      40.370  30.693  32.276  1.00  0.00     0.167 HD
ATOM     56  C   UNL A   1      43.455  29.130  34.921  1.00  0.00     0.037 A 
ATOM     57  C   UNL A   1      38.117  32.261  31.686  1.00  0.00     0.037 A 
ATOM     58  C   UNL A   1      42.794  30.159  35.688  1.00  0.00     0.049 A 
ATOM     59  C   UNL A   1      38.493  32.614  33.102  1.00  0.00     0.074 A 
ATOM     60  C   UNL A   1      43.095  30.610  36.963  1.00  0.00     0.029 A 
ATOM     61  N   UNL A   1      41.696  30.891  35.260  1.00  0.00    -0.354 N 
ATOM     62  N   UNL A   1      39.474  32.145  33.836  1.00  0.00    -0.248 NA
ATOM     63  C   UNL A   1      37.669  33.625  33.780  1.00  0.00     0.031 C 
ATOM     64  C   UNL A   1      42.148  31.573  37.325  1.00  0.00     0.029 A 
ATOM     65  C   UNL A   1      41.293  31.771  36.254  1.00  0.00     0.049 A 
ATOM     66  H   UNL A   1      41.264  30.799  34.380  1.00  0.00     0.167 HD
ATOM     67  C   UNL A   1      39.401  32.823  35.049  1.00  0.00     0.074 A 
ATOM     68  C   UNL A   1      38.289  33.745  34.945  1.00  0.00     0.031 C 
ATOM     69  C   UNL A   1      40.188  32.692  36.147  1.00  0.00     0.037 A 
BRANCH  56  70
ATOM     70  C   UNL A   1      44.597  28.389  35.570  1.00  0.00     0.058 A 
ATOM     71  C   UNL A   1      44.386  27.221  36.324  1.00  0.00     0.135 A 
ATOM     72  C   UNL A   1      45.923  28.821  35.403  1.00  0.00     0.135 A 
ATOM     73  F   UNL A   1      43.141  26.761  36.522  1.00  0.00    -0.206 F 
ATOM     74  C   UNL A   1      45.441  26.536  36.919  1.00  0.00     0.059 A 
ATOM     75  C   UNL A   1      46.998  28.133  35.963  1.00  0.00     0.059 A 
ATOM     76  F   UNL A   1      46.190  29.924  34.684  1.00  0.00    -0.206 F 
ATOM     77  C   UNL A   1      46.743  26.999  36.736  1.00  0.00     0.060 A 
BRANCH  77  78
ATOM     78  S   UNL A   1      48.106  26.106  37.513  1.00  0.00     0.124 S 
ATOM     79  O   UNL A   1      49.233  27.004  37.240  1.00  0.00    -0.237 OA
ATOM     80  O   UNL A   1      47.679  26.054  38.918  1.00  0.00    -0.237 OA
ATOM     81  O   UNL A   1      48.133  24.839  36.824  1.00  0.00    -0.744 OA
ENDBRANCH  77  78
ENDBRANCH  56  70
BRANCH  57  82
ATOM     82  C   UNL A   1      36.948  32.912  31.028  1.00  0.00     0.058 A 
ATOM     83  C   UNL A   1      35.634  32.534  31.341  1.00  0.00     0.135 A 
ATOM     84  C   UNL A   1      37.122  33.931  30.078  1.00  0.00     0.135 A 
ATOM     85  F   UNL A   1      35.410  31.556  32.231  1.00  0.00    -0.206 F 
ATOM     86  C   UNL A   1      34.535  33.132  30.728  1.00  0.00     0.059 A 
ATOM     87  C   UNL A   1      36.040  34.564  29.473  1.00  0.00     0.059 A 
ATOM     88  F   UNL A   1      38.357  34.338  29.748  1.00  0.00    -0.206 F 
ATOM     89  C   UNL A   1      34.749  34.151  29.799  1.00  0.00     0.060 A 
BRANCH  89  90
ATOM     90  S   UNL A   1      33.318  34.958  29.049  1.00  0.00     0.124 S 
ATOM     91  O   UNL A   1      32.490  35.238  30.219  1.00  0.00    -0.237 OA
ATOM     92  O   UNL A   1      33.926  36.123  28.407  1.00  0.00    -0.237 OA
ATOM     93  O   UNL A   1      32.800  33.949  28.136  1.00  0.00    -0.744 OA
ENDBRANCH  89  90
ENDBRANCH  57  82
BRANCH  69  94
ATOM     94  C   UNL A   1      39.905  33.593  37.321  1.00  0.00     0.058 A 
ATOM     95  C   UNL A   1      40.606  34.792  37.525  1.00  0.00     0.135 A 
ATOM     96  C   UNL A   1      38.880  33.276  38.229  1.00  0.00     0.135 A 
ATOM     97  F   UNL A   1      41.600  35.144  36.693  1.00  0.00    -0.206 F 
ATOM     98  C   UNL A   1      40.317  35.633  38.596  1.00  0.00     0.059 A 
ATOM     99  C   UNL A   1      38.553  34.117  39.289  1.00  0.00     0.059 A 
ATOM    100  F   UNL A   1      38.170  32.146  38.080  1.00  0.00    -0.206 F 
ATOM    101  C   UNL A   1      39.285  35.288  39.472  1.00  0.00     0.060 A 
BRANCH 101 102
ATOM    102  S   UNL A   1      38.899  36.406  40.837  1.00  0.00     0.124 S 
ATOM    103  O   UNL A   1      37.863  35.660  41.545  1.00  0.00    -0.237 OA
ATOM    104  O   UNL A   1      40.182  36.517  41.522  1.00  0.00    -0.237 OA
ATOM    105  O   UNL A   1      38.447  37.621  40.164  1.00  0.00    -0.744 OA
ENDBRANCH 101 102
ENDBRANCH  69  94
ENDBRANCH  43  44
ENDBRANCH  35  38
ENDBRANCH  33  34
ENDBRANCH  32  33
ENDBRANCH  31  32
ENDBRANCH   1  31
TORSDOF 19
ENDMDL
MODEL 2
REMARK VINA RESULT:     -11.4      3.354      6.510
REMARK SMILES Cn1c(C[NH+](C)C)nnc1[C@@H]1CCC[N@@H+](Cc2ccccc2C(=O)NCCCCNC(=O)c2ccc(-c3c4nc(c(-c5c(F)cc(S(=O)(=O)[O-])cc5F)c5ccc([nH]5)c(-c5c(F)cc(S(=O)(=O)[O-])cc5F)c5nc(c(-c6c(F)cc(S(=O)(=O)[O-])cc6F)c6ccc3[nH]6)C=C5)C=C4)cc2)C1
REMARK SMILES IDX 26 1 25 2 23 3 24 4 22 6 17 7 18 8 19 9 21 10 20 11 16 12
REMARK SMILES IDX 15 13 11 14 12 15 99 16 13 17 14 18 10 20 3 21 8 22 2 23
REMARK SMILES IDX 9 24 1 25 4 26 5 27 6 28 7 29 27 31 28 32 29 33 30 34 31 35
REMARK SMILES IDX 32 37 33 38 34 39 98 40 35 41 97 42 36 43 37 44 38 45 91 46
REMARK SMILES IDX 39 47 96 48 90 49 92 50 40 51 95 52 89 53 88 54 41 56 75 57
REMARK SMILES IDX 54 58 74 59 55 60 58 61 73 62 93 63 56 64 57 65 72 67 94 68
REMARK SMILES IDX 59 69 42 70 43 71 52 72 44 73 45 74 51 75 53 76 46 77 47 78
REMARK SMILES IDX 48 79 49 80 50 81 76 82 77 83 86 84 78 85 79 86 85 87 87 88
REMARK SMILES IDX 80 89 81 90 82 91 83 92 84 93 60 94 61 95 70 96 62 97 63 98
REMARK SMILES IDX 69 99 71 100 64 101 65 102 66 103 67 104 68 105
REMARK H PARENT 25 5 15 19 5 30 30 36 92 55 58 66
REMARK Flexibility Score: inf
ROOT
ATOM      1  C   UNL A   1      40.325  19.902  25.558  1.00  0.00     0.116 C 
ENDROOT
BRANCH   1   2
ATOM      2  N   UNL A   1      41.192  18.823  26.025  1.00  0.00    -0.352 N 
ATOM      3  C   UNL A   1      42.558  18.713  26.211  1.00  0.00     0.251 C 
ATOM      4  O   UNL A   1      43.040  17.764  26.831  1.00  0.00    -0.269 OA
ATOM      5  H   UNL A   1      40.701  18.002  26.257  1.00  0.00     0.163 HD
BRANCH   3   6
ATOM      6  C   UNL A   1      43.559  19.679  25.796  1.00  0.00     0.048 A 
ATOM      7  C   UNL A   1      43.627  21.019  26.167  1.00  0.00     0.019 A 
ATOM      8  C   UNL A   1      44.421  21.800  25.288  1.00  0.00     0.010 A 
ATOM      9  C   UNL A   1      45.284  21.225  24.324  1.00  0.00     0.001 A 
ATOM     10  C   UNL A   1      44.568  19.083  24.996  1.00  0.00     0.014 A 
ATOM     11  C   UNL A   1      45.441  19.852  24.261  1.00  0.00     0.001 A 
BRANCH   7  12
ATOM     12  C   UNL A   1      42.906  21.699  27.358  1.00  0.00     0.299 C 
BRANCH  12  13
ATOM     13  N   UNL A   1      43.571  22.582  28.377  1.00  0.00    -0.331 N 
ATOM     14  C   UNL A   1      45.328  24.738  28.597  1.00  0.00     0.113 C 
ATOM     15  C   UNL A   1      45.038  24.642  30.099  1.00  0.00     0.023 C 
ATOM     16  C   UNL A   1      44.603  23.521  27.996  1.00  0.00     0.274 C 
ATOM     17  C   UNL A   1      44.006  23.546  30.569  1.00  0.00     0.062 C 
ATOM     18  C   UNL A   1      42.931  22.989  29.589  1.00  0.00     0.262 C 
ATOM     19  H   UNL A   1      44.021  21.698  28.613  1.00  0.00     0.348 HD
BRANCH  14  20
ATOM     20  C   UNL A   1      46.871  24.871  28.130  1.00  0.00     0.141 A 
ATOM     21  C   UNL A   1      48.918  25.719  27.612  1.00  0.00     0.187 A 
ATOM     22  N   UNL A   1      48.683  24.662  26.857  1.00  0.00    -0.129 NA
ATOM     23  N   UNL A   1      47.905  25.728  28.576  1.00  0.00    -0.313 N 
ATOM     24  N   UNL A   1      47.429  24.149  27.170  1.00  0.00    -0.135 NA
ATOM     25  C   UNL A   1      48.037  26.541  29.754  1.00  0.00     0.153 C 
BRANCH  21  26
ATOM     26  C   UNL A   1      49.771  26.938  27.209  1.00  0.00     0.340 C 
BRANCH  26  27
ATOM     27  N   UNL A   1      49.243  28.218  26.725  1.00  0.00    -0.333 N 
ATOM     28  C   UNL A   1      47.868  28.286  26.296  1.00  0.00     0.332 C 
ATOM     29  C   UNL A   1      49.674  29.386  27.475  1.00  0.00     0.332 C 
ATOM     30  H   UNL A   1      49.727  28.252  25.828  1.00  0.00     0.348 HD
ENDBRANCH  26  27
ENDBRANCH  21  26
ENDBRANCH  14  20
ENDBRANCH  12  13
ENDBRANCH   7  12
ENDBRANCH   3   6
ENDBRANCH   1   2
BRANCH   1  31
ATOM     31  C   UNL A   1      39.900  20.889  26.659  1.00  0.00     0.023 C 
BRANCH  31  32
ATOM     32  C   UNL A   1      39.067  22.177  26.411  1.00  0.00     0.023 C 
BRANCH  32  33
ATOM     33  C   UNL A   1      39.561  23.627  26.524  1.00  0.00     0.116 C 
BRANCH  33  34
ATOM     34  N   UNL A   1      40.869  23.856  25.942  1.00  0.00    -0.352 N 
ATOM     35  C   UNL A   1      41.804  24.838  26.192  1.00  0.00     0.251 C 
ATOM     36  H   UNL A   1      41.133  23.202  25.255  1.00  0.00     0.163 HD
ATOM     37  O   UNL A   1      42.776  24.912  25.439  1.00  0.00    -0.269 OA
BRANCH  35  38
ATOM     38  C   UNL A   1      41.693  25.821  27.313  1.00  0.00     0.039 A 
ATOM     39  C   UNL A   1      40.642  25.661  28.228  1.00  0.00     0.014 A 
ATOM     40  C   UNL A   1      42.503  26.956  27.419  1.00  0.00     0.014 A 
ATOM     41  C   UNL A   1      40.434  26.593  29.259  1.00  0.00     0.010 A 
ATOM     42  C   UNL A   1      42.317  27.870  28.476  1.00  0.00     0.010 A 
ATOM     43  C   UNL A   1      41.282  27.701  29.413  1.00  0.00    -0.014 A 
BRANCH  43  44
ATOM     44  C   UNL A   1      41.099  28.660  30.551  1.00  0.00     0.031 A 
ATOM     45  C   UNL A   1      41.962  28.581  31.788  1.00  0.00     0.074 A 
ATOM     46  C   UNL A   1      40.129  29.598  30.493  1.00  0.00     0.049 A 
ATOM     47  N   UNL A   1      41.923  29.311  32.877  1.00  0.00    -0.248 NA
ATOM     48  C   UNL A   1      42.997  27.537  31.811  1.00  0.00     0.031 C 
ATOM     49  C   UNL A   1      39.197  29.774  29.378  1.00  0.00     0.029 A 
ATOM     50  N   UNL A   1      39.755  30.573  31.390  1.00  0.00    -0.354 N 
ATOM     51  C   UNL A   1      42.917  28.812  33.715  1.00  0.00     0.074 A 
ATOM     52  C   UNL A   1      43.511  27.685  33.024  1.00  0.00     0.031 C 
ATOM     53  C   UNL A   1      38.371  30.797  29.649  1.00  0.00     0.029 A 
ATOM     54  C   UNL A   1      38.683  31.331  30.973  1.00  0.00     0.049 A 
ATOM     55  H   UNL A   1      40.213  30.716  32.250  1.00  0.00     0.167 HD
ATOM     56  C   UNL A   1      43.312  29.255  34.936  1.00  0.00     0.037 A 
ATOM     57  C   UNL A   1      38.013  32.329  31.584  1.00  0.00     0.037 A 
ATOM     58  C   UNL A   1      42.724  30.380  35.624  1.00  0.00     0.049 A 
ATOM     59  C   UNL A   1      38.452  32.790  32.951  1.00  0.00     0.074 A 
ATOM     60  C   UNL A   1      43.087  30.929  36.843  1.00  0.00     0.029 A 
ATOM     61  N   UNL A   1      41.645  31.120  35.163  1.00  0.00    -0.354 N 
ATOM     62  N   UNL A   1      39.435  32.344  33.695  1.00  0.00    -0.248 NA
ATOM     63  C   UNL A   1      37.696  33.896  33.556  1.00  0.00     0.031 C 
ATOM     64  C   UNL A   1      42.196  31.965  37.143  1.00  0.00     0.029 A 
ATOM     65  C   UNL A   1      41.315  32.105  36.083  1.00  0.00     0.049 A 
ATOM     66  H   UNL A   1      41.181  30.970  34.308  1.00  0.00     0.167 HD
ATOM     67  C   UNL A   1      39.433  33.132  34.843  1.00  0.00     0.074 A 
ATOM     68  C   UNL A   1      38.360  34.092  34.687  1.00  0.00     0.031 C 
ATOM     69  C   UNL A   1      40.249  33.064  35.925  1.00  0.00     0.037 A 
BRANCH  56  70
ATOM     70  C   UNL A   1      44.441  28.522  35.617  1.00  0.00     0.058 A 
ATOM     71  C   UNL A   1      44.204  27.440  36.481  1.00  0.00     0.135 A 
ATOM     72  C   UNL A   1      45.779  28.875  35.371  1.00  0.00     0.135 A 
ATOM     73  F   UNL A   1      42.947  27.059  36.757  1.00  0.00    -0.206 F 
ATOM     74  C   UNL A   1      45.247  26.762  37.105  1.00  0.00     0.059 A 
ATOM     75  C   UNL A   1      46.840  28.190  35.960  1.00  0.00     0.059 A 
ATOM     76  F   UNL A   1      46.070  29.893  34.546  1.00  0.00    -0.206 F 
ATOM     77  C   UNL A   1      46.562  27.144  36.842  1.00  0.00     0.060 A 
BRANCH  77  78
ATOM     78  S   UNL A   1      47.909  26.262  37.658  1.00  0.00     0.124 S 
ATOM     79  O   UNL A   1      47.443  26.246  39.049  1.00  0.00    -0.237 OA
ATOM     80  O   UNL A   1      47.879  24.959  36.978  1.00  0.00    -0.237 OA
ATOM     81  O   UNL A   1      49.071  27.075  37.394  1.00  0.00    -0.744 OA
ENDBRANCH  77  78
ENDBRANCH  56  70
BRANCH  57  82
ATOM     82  C   UNL A   1      36.853  32.972  30.904  1.00  0.00     0.058 A 
ATOM     83  C   UNL A   1      35.537  32.565  31.169  1.00  0.00     0.135 A 
ATOM     84  C   UNL A   1      37.037  34.014  29.980  1.00  0.00     0.135 A 
ATOM     85  F   UNL A   1      35.304  31.565  32.032  1.00  0.00    -0.206 F 
ATOM     86  C   UNL A   1      34.446  33.155  30.534  1.00  0.00     0.059 A 
ATOM     87  C   UNL A   1      35.962  34.640  29.355  1.00  0.00     0.059 A 
ATOM     88  F   UNL A   1      38.274  34.449  29.696  1.00  0.00    -0.206 F 
ATOM     89  C   UNL A   1      34.670  34.197  29.633  1.00  0.00     0.060 A 
BRANCH  89  90
ATOM     90  S   UNL A   1      33.247  34.994  28.856  1.00  0.00     0.124 S 
ATOM     91  O   UNL A   1      33.873  36.136  28.196  1.00  0.00    -0.237 OA
ATOM     92  O   UNL A   1      32.753  33.940  27.971  1.00  0.00    -0.237 OA
ATOM     93  O   UNL A   1      32.381  35.313  29.982  1.00  0.00    -0.744 OA
ENDBRANCH  89  90
ENDBRANCH  57  82
BRANCH  69  94
ATOM     94  C   UNL A   1      40.046  34.080  37.018  1.00  0.00     0.058 A 
ATOM     95  C   UNL A   1      40.612  35.363  36.957  1.00  0.00     0.135 A 
ATOM     96  C   UNL A   1      39.229  33.780  38.123  1.00  0.00     0.135 A 
ATOM     97  F   UNL A   1      41.407  35.703  35.929  1.00  0.00    -0.206 F 
ATOM     98  C   UNL A   1      40.393  36.304  37.958  1.00  0.00     0.059 A 
ATOM     99  C   UNL A   1      38.972  34.717  39.120  1.00  0.00     0.059 A 
ATOM    100  F   UNL A   1      38.654  32.572  38.231  1.00  0.00    -0.206 F 
ATOM    101  C   UNL A   1      39.569  35.974  39.036  1.00  0.00     0.060 A 
BRANCH 101 102
ATOM    102  S   UNL A   1      39.267  37.217  40.309  1.00  0.00     0.124 S 
ATOM    103  O   UNL A   1      40.625  37.542  40.733  1.00  0.00    -0.237 OA
ATOM    104  O   UNL A   1      38.566  38.260  39.567  1.00  0.00    -0.237 OA
ATOM    105  O   UNL A   1      38.457  36.506  41.295  1.00  0.00    -0.744 OA
ENDBRANCH 101 102
ENDBRANCH  69  94
ENDBRANCH  43  44
ENDBRANCH  35  38
ENDBRANCH  33  34
ENDBRANCH  32  33
ENDBRANCH  31  32
ENDBRANCH   1  31
TORSDOF 19
ENDMDL
MODEL 3
REMARK VINA RESULT:     -11.4      3.398      6.891
REMARK SMILES Cn1c(C[NH+](C)C)nnc1[C@@H]1CCC[N@@H+](Cc2ccccc2C(=O)NCCCCNC(=O)c2ccc(-c3c4nc(c(-c5c(F)cc(S(=O)(=O)[O-])cc5F)c5ccc([nH]5)c(-c5c(F)cc(S(=O)(=O)[O-])cc5F)c5nc(c(-c6c(F)cc(S(=O)(=O)[O-])cc6F)c6ccc3[nH]6)C=C5)C=C4)cc2)C1
REMARK SMILES IDX 26 1 25 2 23 3 24 4 22 6 17 7 18 8 19 9 21 10 20 11 16 12
REMARK SMILES IDX 15 13 11 14 12 15 99 16 13 17 14 18 10 20 3 21 8 22 2 23
REMARK SMILES IDX 9 24 1 25 4 26 5 27 6 28 7 29 27 31 28 32 29 33 30 34 31 35
REMARK SMILES IDX 32 37 33 38 34 39 98 40 35 41 97 42 36 43 37 44 38 45 91 46
REMARK SMILES IDX 39 47 96 48 90 49 92 50 40 51 95 52 89 53 88 54 41 56 75 57
REMARK SMILES IDX 54 58 74 59 55 60 58 61 73 62 93 63 56 64 57 65 72 67 94 68
REMARK SMILES IDX 59 69 42 70 43 71 52 72 44 73 45 74 51 75 53 76 46 77 47 78
REMARK SMILES IDX 48 79 49 80 50 81 76 82 77 83 86 84 78 85 79 86 85 87 87 88
REMARK SMILES IDX 80 89 81 90 82 91 83 92 84 93 60 94 61 95 70 96 62 97 63 98
REMARK SMILES IDX 69 99 71 100 64 101 65 102 66 103 67 104 68 105
REMARK H PARENT 25 5 15 19 5 30 30 36 92 55 58 66
REMARK Flexibility Score: inf
ROOT
ATOM      1  C   UNL A   1      40.133  19.827  25.795  1.00  0.00     0.116 C 
ENDROOT
BRANCH   1   2
ATOM      2  N   UNL A   1      41.156  18.945  26.351  1.00  0.00    -0.352 N 
ATOM      3  C   UNL A   1      42.527  19.050  26.496  1.00  0.00     0.251 C 
ATOM      4  O   UNL A   1      43.154  18.259  27.203  1.00  0.00    -0.269 OA
ATOM      5  H   UNL A   1      40.793  18.096  26.695  1.00  0.00     0.163 HD
BRANCH   3   6
ATOM      6  C   UNL A   1      43.370  20.090  25.933  1.00  0.00     0.048 A 
ATOM      7  C   UNL A   1      43.421  21.424  26.326  1.00  0.00     0.019 A 
ATOM      8  C   UNL A   1      43.986  22.273  25.341  1.00  0.00     0.010 A 
ATOM      9  C   UNL A   1      44.688  21.777  24.216  1.00  0.00     0.001 A 
ATOM     10  C   UNL A   1      44.248  19.579  24.942  1.00  0.00     0.014 A 
ATOM     11  C   UNL A   1      44.919  20.420  24.083  1.00  0.00     0.001 A 
BRANCH   7  12
ATOM     12  C   UNL A   1      42.893  22.031  27.651  1.00  0.00     0.299 C 
BRANCH  12  13
ATOM     13  N   UNL A   1      43.530  23.176  28.388  1.00  0.00    -0.331 N 
ATOM     14  C   UNL A   1      44.838  23.793  30.774  1.00  0.00     0.113 C 
ATOM     15  C   UNL A   1      44.990  25.192  30.166  1.00  0.00     0.023 C 
ATOM     16  C   UNL A   1      43.955  23.039  29.764  1.00  0.00     0.274 C 
ATOM     17  C   UNL A   1      44.429  25.415  28.709  1.00  0.00     0.062 C 
ATOM     18  C   UNL A   1      44.255  24.217  27.729  1.00  0.00     0.262 C 
ATOM     19  H   UNL A   1      42.563  23.503  28.388  1.00  0.00     0.348 HD
BRANCH  14  20
ATOM     20  C   UNL A   1      44.317  23.683  32.301  1.00  0.00     0.141 A 
ATOM     21  C   UNL A   1      44.260  23.549  34.572  1.00  0.00     0.187 A 
ATOM     22  N   UNL A   1      43.223  22.901  34.073  1.00  0.00    -0.129 NA
ATOM     23  N   UNL A   1      44.824  24.243  33.497  1.00  0.00    -0.313 N 
ATOM     24  N   UNL A   1      43.263  22.978  32.685  1.00  0.00    -0.135 NA
ATOM     25  C   UNL A   1      45.762  25.305  33.737  1.00  0.00     0.153 C 
BRANCH  21  26
ATOM     26  C   UNL A   1      44.987  23.201  35.886  1.00  0.00     0.340 C 
BRANCH  26  27
ATOM     27  N   UNL A   1      45.738  21.966  36.136  1.00  0.00    -0.333 N 
ATOM     28  C   UNL A   1      46.735  21.552  35.181  1.00  0.00     0.332 C 
ATOM     29  C   UNL A   1      46.138  21.758  37.518  1.00  0.00     0.332 C 
ATOM     30  H   UNL A   1      44.995  21.295  35.943  1.00  0.00     0.348 HD
ENDBRANCH  26  27
ENDBRANCH  21  26
ENDBRANCH  14  20
ENDBRANCH  12  13
ENDBRANCH   7  12
ENDBRANCH   3   6
ENDBRANCH   1   2
BRANCH   1  31
ATOM     31  C   UNL A   1      39.745  20.997  26.715  1.00  0.00     0.023 C 
BRANCH  31  32
ATOM     32  C   UNL A   1      39.213  22.369  26.216  1.00  0.00     0.023 C 
BRANCH  32  33
ATOM     33  C   UNL A   1      39.705  23.758  26.648  1.00  0.00     0.116 C 
BRANCH  33  34
ATOM     34  N   UNL A   1      40.791  24.281  25.843  1.00  0.00    -0.352 N 
ATOM     35  C   UNL A   1      41.506  25.455  25.951  1.00  0.00     0.251 C 
ATOM     36  H   UNL A   1      41.064  23.702  25.094  1.00  0.00     0.163 HD
ATOM     37  O   UNL A   1      42.274  25.748  25.034  1.00  0.00    -0.269 OA
BRANCH  35  38
ATOM     38  C   UNL A   1      41.387  26.393  27.109  1.00  0.00     0.039 A 
ATOM     39  C   UNL A   1      40.530  26.036  28.161  1.00  0.00     0.014 A 
ATOM     40  C   UNL A   1      41.985  27.657  27.136  1.00  0.00     0.014 A 
ATOM     41  C   UNL A   1      40.312  26.907  29.242  1.00  0.00     0.010 A 
ATOM     42  C   UNL A   1      41.796  28.513  28.240  1.00  0.00     0.010 A 
ATOM     43  C   UNL A   1      40.959  28.151  29.310  1.00  0.00    -0.014 A 
BRANCH  43  44
ATOM     44  C   UNL A   1      40.777  29.051  30.495  1.00  0.00     0.031 A 
ATOM     45  C   UNL A   1      41.631  28.901  31.731  1.00  0.00     0.074 A 
ATOM     46  C   UNL A   1      39.816  30.000  30.479  1.00  0.00     0.049 A 
ATOM     47  N   UNL A   1      41.591  29.574  32.857  1.00  0.00    -0.248 NA
ATOM     48  C   UNL A   1      42.656  27.847  31.707  1.00  0.00     0.031 C 
ATOM     49  C   UNL A   1      38.893  30.241  29.369  1.00  0.00     0.029 A 
ATOM     50  N   UNL A   1      39.444  30.931  31.422  1.00  0.00    -0.354 N 
ATOM     51  C   UNL A   1      42.574  29.023  33.673  1.00  0.00     0.074 A 
ATOM     52  C   UNL A   1      43.162  27.928  32.930  1.00  0.00     0.031 C 
ATOM     53  C   UNL A   1      38.074  31.257  29.686  1.00  0.00     0.029 A 
ATOM     54  C   UNL A   1      38.382  31.719  31.038  1.00  0.00     0.049 A 
ATOM     55  H   UNL A   1      39.897  31.025  32.291  1.00  0.00     0.167 HD
ATOM     56  C   UNL A   1      42.965  29.399  34.918  1.00  0.00     0.037 A 
ATOM     57  C   UNL A   1      37.716  32.691  31.695  1.00  0.00     0.037 A 
ATOM     58  C   UNL A   1      42.382  30.492  35.660  1.00  0.00     0.049 A 
ATOM     59  C   UNL A   1      38.150  33.077  33.086  1.00  0.00     0.074 A 
ATOM     60  C   UNL A   1      42.741  30.975  36.907  1.00  0.00     0.029 A 
ATOM     61  N   UNL A   1      41.313  31.266  35.231  1.00  0.00    -0.354 N 
ATOM     62  N   UNL A   1      39.124  32.584  33.813  1.00  0.00    -0.248 NA
ATOM     63  C   UNL A   1      37.400  34.157  33.743  1.00  0.00     0.031 C 
ATOM     64  C   UNL A   1      41.857  32.002  37.255  1.00  0.00     0.029 A 
ATOM     65  C   UNL A   1      40.985  32.205  36.198  1.00  0.00     0.049 A 
ATOM     66  H   UNL A   1      40.853  31.164  34.366  1.00  0.00     0.167 HD
ATOM     67  C   UNL A   1      39.121  33.312  35.000  1.00  0.00     0.074 A 
ATOM     68  C   UNL A   1      38.058  34.288  34.887  1.00  0.00     0.031 C 
ATOM     69  C   UNL A   1      39.929  33.181  36.082  1.00  0.00     0.037 A 
BRANCH  56  70
ATOM     70  C   UNL A   1      44.082  28.622  35.568  1.00  0.00     0.058 A 
ATOM     71  C   UNL A   1      45.430  28.981  35.394  1.00  0.00     0.135 A 
ATOM     72  C   UNL A   1      43.805  27.533  36.411  1.00  0.00     0.135 A 
ATOM     73  F   UNL A   1      45.757  30.010  34.597  1.00  0.00    -0.206 F 
ATOM     74  C   UNL A   1      46.459  28.265  35.998  1.00  0.00     0.059 A 
ATOM     75  C   UNL A   1      44.818  26.822  37.051  1.00  0.00     0.059 A 
ATOM     76  F   UNL A   1      42.536  27.149  36.626  1.00  0.00    -0.206 F 
ATOM     77  C   UNL A   1      46.146  27.186  36.823  1.00  0.00     0.060 A 
BRANCH  77  78
ATOM     78  S   UNL A   1      47.488  26.261  37.600  1.00  0.00     0.124 S 
ATOM     79  O   UNL A   1      48.254  25.824  36.427  1.00  0.00    -0.237 OA
ATOM     80  O   UNL A   1      48.140  27.293  38.418  1.00  0.00    -0.237 OA
ATOM     81  O   UNL A   1      46.815  25.218  38.335  1.00  0.00    -0.744 OA
ENDBRANCH  77  78
ENDBRANCH  56  70
BRANCH  57  82
ATOM     82  C   UNL A   1      36.567  33.379  31.042  1.00  0.00     0.058 A 
ATOM     83  C   UNL A   1      35.254  33.199  31.502  1.00  0.00     0.135 A 
ATOM     84  C   UNL A   1      36.760  34.237  29.947  1.00  0.00     0.135 A 
ATOM     85  F   UNL A   1      35.012  32.379  32.536  1.00  0.00    -0.206 F 
ATOM     86  C   UNL A   1      34.173  33.833  30.895  1.00  0.00     0.059 A 
ATOM     87  C   UNL A   1      35.699  34.905  29.342  1.00  0.00     0.059 A 
ATOM     88  F   UNL A   1      37.995  34.453  29.471  1.00  0.00    -0.206 F 
ATOM     89  C   UNL A   1      34.406  34.689  29.818  1.00  0.00     0.060 A 
BRANCH  89  90
ATOM     90  S   UNL A   1      33.005  35.549  29.071  1.00  0.00     0.124 S 
ATOM     91  O   UNL A   1      32.224  35.919  30.248  1.00  0.00    -0.237 OA
ATOM     92  O   UNL A   1      33.661  36.651  28.370  1.00  0.00    -0.237 OA
ATOM     93  O   UNL A   1      32.407  34.537  28.210  1.00  0.00    -0.744 OA
ENDBRANCH  89  90
ENDBRANCH  57  82
BRANCH  69  94
ATOM     94  C   UNL A   1      39.728  34.141  37.225  1.00  0.00     0.058 A 
ATOM     95  C   UNL A   1      38.945  33.813  38.343  1.00  0.00     0.135 A 
ATOM     96  C   UNL A   1      40.372  35.390  37.225  1.00  0.00     0.135 A 
ATOM     97  F   UNL A   1      38.301  32.636  38.396  1.00  0.00    -0.206 F 
ATOM     98  C   UNL A   1      38.790  34.695  39.409  1.00  0.00     0.059 A 
ATOM     99  C   UNL A   1      40.256  36.275  38.294  1.00  0.00     0.059 A 
ATOM    100  F   UNL A   1      41.140  35.755  36.186  1.00  0.00    -0.206 F 
ATOM    101  C   UNL A   1      39.453  35.924  39.377  1.00  0.00     0.060 A 
BRANCH 101 102
ATOM    102  S   UNL A   1      39.270  37.043  40.782  1.00  0.00     0.124 S 
ATOM    103  O   UNL A   1      40.650  37.455  41.013  1.00  0.00    -0.237 OA
ATOM    104  O   UNL A   1      38.382  38.071  40.248  1.00  0.00    -0.237 OA
ATOM    105  O   UNL A   1      38.687  36.196  41.818  1.00  0.00    -0.744 OA
ENDBRANCH 101 102
ENDBRANCH  69  94
ENDBRANCH  43  44
ENDBRANCH  35  38
ENDBRANCH  33  34
ENDBRANCH  32  33
ENDBRANCH  31  32
ENDBRANCH   1  31
TORSDOF 19
ENDMDL
