MODEL 1
REMARK VINA RESULT:     -11.8      0.000      0.000
REMARK SMILES CC[C@@](C)([NH2+][C@H]1CCC[C@H](S(C)(=O)=O)C1)C(=O)NCCCCNC(=O)c1ccc(-c2c3nc(c(-c4c(F)cc(S(=O)(=O)[O-])cc4F)c4ccc([nH]4)c(-c4c(F)cc(S(=O)(=O)[O-])cc4F)c4nc(c(-c5c(F)cc(S(=O)(=O)[O-])cc5F)c5ccc2[nH]5)C=C4)C=C3)cc1
REMARK SMILES IDX 20 1 19 2 18 3 16 4 17 5 3 7 4 8 2 9 1 10 5 11 6 14 7 15
REMARK SMILES IDX 15 16 8 17 10 18 9 19 11 20 12 21 13 22 14 23 21 24 22 25
REMARK SMILES IDX 23 26 24 27 25 29 26 30 27 31 91 32 28 33 90 34 29 35 30 36
REMARK SMILES IDX 31 37 84 38 32 39 89 40 83 41 85 42 33 43 88 44 82 45 81 46
REMARK SMILES IDX 34 48 68 49 47 50 67 51 48 52 51 53 66 54 86 55 49 56 50 57
REMARK SMILES IDX 65 59 87 60 52 61 35 62 36 63 45 64 37 65 38 66 44 67 46 68
REMARK SMILES IDX 39 69 40 70 41 71 42 72 43 73 69 74 70 75 79 76 71 77 72 78
REMARK SMILES IDX 78 79 80 80 73 81 74 82 75 83 76 84 77 85 53 86 54 87 63 88
REMARK SMILES IDX 55 89 56 90 62 91 64 92 57 93 58 94 59 95 60 96 61 97
REMARK H PARENT 18 6 5 12 5 13 23 28 85 47 51 58
REMARK Flexibility Score: inf
ROOT
ATOM      1  C   UNL A   1      41.837  21.167  26.916  1.00  0.00     0.023 C 
ENDROOT
BRANCH   1   2
ATOM      2  C   UNL A   1      40.289  21.245  26.366  1.00  0.00     0.116 C 
BRANCH   2   3
ATOM      3  N   UNL A   1      38.918  22.671  26.203  1.00  0.00    -0.351 N 
ATOM      4  C   UNL A   1      37.698  23.243  25.847  1.00  0.00     0.281 C 
ATOM      5  O   UNL A   1      37.595  24.406  26.260  1.00  0.00    -0.268 OA
ATOM      6  H   UNL A   1      39.372  23.430  26.634  1.00  0.00     0.163 HD
BRANCH   4   7
ATOM      7  C   UNL A   1      36.558  22.543  25.099  1.00  0.00     0.172 C 
ATOM      8  C   UNL A   1      36.839  22.472  23.578  1.00  0.00     0.090 C 
BRANCH   7   9
ATOM      9  C   UNL A   1      36.401  21.095  25.655  1.00  0.00     0.075 C 
ATOM     10  C   UNL A   1      37.037  19.969  24.819  1.00  0.00     0.011 C 
ENDBRANCH   7   9
BRANCH   7  11
ATOM     11  N   UNL A   1      35.344  23.313  25.431  1.00  0.00    -0.331 N 
ATOM     12  H   UNL A   1      35.576  24.304  25.503  1.00  0.00     0.347 HD
ATOM     13  H   UNL A   1      34.965  22.992  26.322  1.00  0.00     0.347 HD
BRANCH  11  14
ATOM     14  C   UNL A   1      34.341  23.117  24.364  1.00  0.00     0.184 C 
ATOM     15  C   UNL A   1      32.739  22.274  25.103  1.00  0.00     0.065 C 
ATOM     16  C   UNL A   1      34.130  24.766  23.358  1.00  0.00     0.084 C 
ATOM     17  C   UNL A   1      31.012  23.200  25.041  1.00  0.00     0.007 C 
ATOM     18  C   UNL A   1      32.535  25.810  23.580  1.00  0.00     0.114 C 
ATOM     19  C   UNL A   1      30.890  24.932  24.117  1.00  0.00     0.020 C 
BRANCH  18  20
ATOM     20  S   UNL A   1      32.384  27.055  22.330  1.00  0.00     0.150 S 
ATOM     21  C   UNL A   1      32.711  28.543  23.248  1.00  0.00     0.158 C 
ATOM     22  O   UNL A   1      33.480  26.863  21.406  1.00  0.00    -0.229 OA
ATOM     23  O   UNL A   1      31.012  27.091  21.857  1.00  0.00    -0.229 OA
ENDBRANCH  18  20
ENDBRANCH  11  14
ENDBRANCH   7  11
ENDBRANCH   4   7
ENDBRANCH   2   3
ENDBRANCH   1   2
BRANCH   1  24
ATOM     24  C   UNL A   1      42.427  22.285  27.791  1.00  0.00     0.023 C 
BRANCH  24  25
ATOM     25  C   UNL A   1      42.990  23.522  27.106  1.00  0.00     0.116 C 
BRANCH  25  26
ATOM     26  N   UNL A   1      42.171  24.097  26.059  1.00  0.00    -0.352 N 
ATOM     27  C   UNL A   1      41.454  25.274  26.142  1.00  0.00     0.251 C 
ATOM     28  H   UNL A   1      42.121  23.603  25.209  1.00  0.00     0.163 HD
ATOM     29  O   UNL A   1      40.807  25.694  25.189  1.00  0.00    -0.269 OA
BRANCH  27  30
ATOM     30  C   UNL A   1      41.424  25.975  27.444  1.00  0.00     0.039 A 
ATOM     31  C   UNL A   1      42.334  27.010  27.659  1.00  0.00     0.014 A 
ATOM     32  C   UNL A   1      40.396  25.724  28.359  1.00  0.00     0.014 A 
ATOM     33  C   UNL A   1      42.167  27.850  28.760  1.00  0.00     0.010 A 
ATOM     34  C   UNL A   1      40.184  26.617  29.408  1.00  0.00     0.010 A 
ATOM     35  C   UNL A   1      41.066  27.691  29.621  1.00  0.00    -0.014 A 
BRANCH  35  36
ATOM     36  C   UNL A   1      40.841  28.638  30.746  1.00  0.00     0.031 A 
ATOM     37  C   UNL A   1      41.687  28.541  31.988  1.00  0.00     0.074 A 
ATOM     38  C   UNL A   1      39.860  29.563  30.671  1.00  0.00     0.049 A 
ATOM     39  N   UNL A   1      41.643  29.265  33.076  1.00  0.00    -0.248 NA
ATOM     40  C   UNL A   1      42.700  27.473  32.020  1.00  0.00     0.031 C 
ATOM     41  C   UNL A   1      38.934  29.727  29.548  1.00  0.00     0.029 A 
ATOM     42  N   UNL A   1      39.480  30.543  31.554  1.00  0.00    -0.354 N 
ATOM     43  C   UNL A   1      42.607  28.732  33.925  1.00  0.00     0.074 A 
ATOM     44  C   UNL A   1      43.175  27.586  33.252  1.00  0.00     0.031 C 
ATOM     45  C   UNL A   1      38.121  30.766  29.793  1.00  0.00     0.029 A 
ATOM     46  C   UNL A   1      38.440  31.325  31.104  1.00  0.00     0.049 A 
ATOM     47  H   UNL A   1      39.911  30.675  32.429  1.00  0.00     0.167 HD
ATOM     48  C   UNL A   1      43.007  29.175  35.139  1.00  0.00     0.037 A 
ATOM     49  C   UNL A   1      37.817  32.374  31.679  1.00  0.00     0.037 A 
ATOM     50  C   UNL A   1      42.463  30.336  35.791  1.00  0.00     0.049 A 
ATOM     51  C   UNL A   1      38.282  32.851  33.030  1.00  0.00     0.074 A 
ATOM     52  C   UNL A   1      42.846  30.905  36.994  1.00  0.00     0.029 A 
ATOM     53  N   UNL A   1      41.420  31.106  35.298  1.00  0.00    -0.354 N 
ATOM     54  N   UNL A   1      39.247  32.380  33.784  1.00  0.00    -0.248 NA
ATOM     55  C   UNL A   1      37.580  34.007  33.606  1.00  0.00     0.031 C 
ATOM     56  C   UNL A   1      42.000  31.990  37.251  1.00  0.00     0.029 A 
ATOM     57  C   UNL A   1      41.127  32.130  36.184  1.00  0.00     0.049 A 
ATOM     58  H   UNL A   1      40.955  30.947  34.445  1.00  0.00     0.167 HD
ATOM     59  C   UNL A   1      39.287  33.198  34.908  1.00  0.00     0.074 A 
ATOM     60  C   UNL A   1      38.257  34.201  34.730  1.00  0.00     0.031 C 
ATOM     61  C   UNL A   1      40.104  33.126  35.988  1.00  0.00     0.037 A 
BRANCH  48  62
ATOM     62  C   UNL A   1      44.091  28.400  35.839  1.00  0.00     0.058 A 
ATOM     63  C   UNL A   1      43.795  27.349  36.724  1.00  0.00     0.135 A 
ATOM     64  C   UNL A   1      45.444  28.696  35.608  1.00  0.00     0.135 A 
ATOM     65  F   UNL A   1      42.518  27.032  36.994  1.00  0.00    -0.206 F 
ATOM     66  C   UNL A   1      44.798  26.644  37.380  1.00  0.00     0.059 A 
ATOM     67  C   UNL A   1      46.465  27.984  36.230  1.00  0.00     0.059 A 
ATOM     68  F   UNL A   1      45.785  29.692  34.774  1.00  0.00    -0.206 F 
ATOM     69  C   UNL A   1      46.132  26.970  37.127  1.00  0.00     0.060 A 
BRANCH  69  70
ATOM     70  S   UNL A   1      47.422  26.046  37.986  1.00  0.00     0.124 S 
ATOM     71  O   UNL A   1      46.632  25.209  38.884  1.00  0.00    -0.237 OA
ATOM     72  O   UNL A   1      48.086  25.348  36.890  1.00  0.00    -0.237 OA
ATOM     73  O   UNL A   1      48.213  27.087  38.633  1.00  0.00    -0.744 OA
ENDBRANCH  69  70
ENDBRANCH  48  62
BRANCH  49  74
ATOM     74  C   UNL A   1      36.705  33.066  30.969  1.00  0.00     0.058 A 
ATOM     75  C   UNL A   1      36.956  33.890  29.861  1.00  0.00     0.135 A 
ATOM     76  C   UNL A   1      35.371  32.914  31.377  1.00  0.00     0.135 A 
ATOM     77  F   UNL A   1      38.214  34.076  29.435  1.00  0.00    -0.206 F 
ATOM     78  C   UNL A   1      35.928  34.550  29.194  1.00  0.00     0.059 A 
ATOM     79  C   UNL A   1      34.323  33.542  30.711  1.00  0.00     0.059 A 
ATOM     80  F   UNL A   1      35.074  32.126  32.424  1.00  0.00    -0.206 F 
ATOM     81  C   UNL A   1      34.614  34.367  29.624  1.00  0.00     0.060 A 
BRANCH  81  82
ATOM     82  S   UNL A   1      33.282  35.187  28.719  1.00  0.00     0.124 S 
ATOM     83  O   UNL A   1      34.021  36.163  27.929  1.00  0.00    -0.237 OA
ATOM     84  O   UNL A   1      32.690  34.078  27.976  1.00  0.00    -0.237 OA
ATOM     85  O   UNL A   1      32.444  35.736  29.781  1.00  0.00    -0.744 OA
ENDBRANCH  81  82
ENDBRANCH  49  74
BRANCH  61  86
ATOM     86  C   UNL A   1      39.946  34.179  37.051  1.00  0.00     0.058 A 
ATOM     87  C   UNL A   1      40.611  35.413  36.975  1.00  0.00     0.135 A 
ATOM     88  C   UNL A   1      39.067  33.974  38.128  1.00  0.00     0.135 A 
ATOM     89  F   UNL A   1      41.465  35.659  35.969  1.00  0.00    -0.206 F 
ATOM     90  C   UNL A   1      40.429  36.397  37.941  1.00  0.00     0.059 A 
ATOM     91  C   UNL A   1      38.847  34.955  39.089  1.00  0.00     0.059 A 
ATOM     92  F   UNL A   1      38.397  32.816  38.242  1.00  0.00    -0.206 F 
ATOM     93  C   UNL A   1      39.541  36.160  38.993  1.00  0.00     0.060 A 
BRANCH  93  94
ATOM     94  S   UNL A   1      39.286  37.460  40.218  1.00  0.00     0.124 S 
ATOM     95  O   UNL A   1      38.822  36.693  41.369  1.00  0.00    -0.237 OA
ATOM     96  O   UNL A   1      40.619  38.041  40.340  1.00  0.00    -0.237 OA
ATOM     97  O   UNL A   1      38.286  38.323  39.595  1.00  0.00    -0.744 OA
ENDBRANCH  93  94
ENDBRANCH  61  86
ENDBRANCH  35  36
ENDBRANCH  27  30
ENDBRANCH  25  26
ENDBRANCH  24  25
ENDBRANCH   1  24
TORSDOF 18
ENDMDL
MODEL 2
REMARK VINA RESULT:     -11.5      1.194      8.438
REMARK SMILES CC[C@@](C)([NH2+][C@H]1CCC[C@H](S(C)(=O)=O)C1)C(=O)NCCCCNC(=O)c1ccc(-c2c3nc(c(-c4c(F)cc(S(=O)(=O)[O-])cc4F)c4ccc([nH]4)c(-c4c(F)cc(S(=O)(=O)[O-])cc4F)c4nc(c(-c5c(F)cc(S(=O)(=O)[O-])cc5F)c5ccc2[nH]5)C=C4)C=C3)cc1
REMARK SMILES IDX 20 1 19 2 18 3 16 4 17 5 3 7 4 8 2 9 1 10 5 11 6 14 7 15
REMARK SMILES IDX 15 16 8 17 10 18 9 19 11 20 12 21 13 22 14 23 21 24 22 25
REMARK SMILES IDX 23 26 24 27 25 29 26 30 27 31 91 32 28 33 90 34 29 35 30 36
REMARK SMILES IDX 31 37 84 38 32 39 89 40 83 41 85 42 33 43 88 44 82 45 81 46
REMARK SMILES IDX 34 48 68 49 47 50 67 51 48 52 51 53 66 54 86 55 49 56 50 57
REMARK SMILES IDX 65 59 87 60 52 61 35 62 36 63 45 64 37 65 38 66 44 67 46 68
REMARK SMILES IDX 39 69 40 70 41 71 42 72 43 73 69 74 70 75 79 76 71 77 72 78
REMARK SMILES IDX 78 79 80 80 73 81 74 82 75 83 76 84 77 85 53 86 54 87 63 88
REMARK SMILES IDX 55 89 56 90 62 91 64 92 57 93 58 94 59 95 60 96 61 97
REMARK H PARENT 18 6 5 12 5 13 23 28 85 47 51 58
REMARK Flexibility Score: inf
ROOT
ATOM      1  C   UNL A   1      42.270  21.311  26.045  1.00  0.00     0.023 C 
ENDROOT
BRANCH   1   2
ATOM      2  C   UNL A   1      40.630  21.224  26.126  1.00  0.00     0.116 C 
BRANCH   2   3
ATOM      3  N   UNL A   1      39.142  22.537  26.104  1.00  0.00    -0.351 N 
ATOM      4  C   UNL A   1      37.894  23.056  25.764  1.00  0.00     0.281 C 
ATOM      5  O   UNL A   1      37.662  24.122  26.351  1.00  0.00    -0.268 OA
ATOM      6  H   UNL A   1      39.501  23.249  26.680  1.00  0.00     0.163 HD
BRANCH   4   7
ATOM      7  C   UNL A   1      36.864  22.397  24.840  1.00  0.00     0.172 C 
ATOM      8  C   UNL A   1      36.949  22.966  23.403  1.00  0.00     0.090 C 
BRANCH   7   9
ATOM      9  C   UNL A   1      37.132  20.862  24.796  1.00  0.00     0.075 C 
ATOM     10  C   UNL A   1      35.910  19.948  25.004  1.00  0.00     0.011 C 
ENDBRANCH   7   9
BRANCH   7  11
ATOM     11  N   UNL A   1      35.557  22.633  25.483  1.00  0.00    -0.331 N 
ATOM     12  H   UNL A   1      35.692  23.148  26.353  1.00  0.00     0.347 HD
ATOM     13  H   UNL A   1      35.109  21.739  25.690  1.00  0.00     0.347 HD
BRANCH  11  14
ATOM     14  C   UNL A   1      34.703  23.417  24.568  1.00  0.00     0.184 C 
ATOM     15  C   UNL A   1      33.220  22.316  23.931  1.00  0.00     0.065 C 
ATOM     16  C   UNL A   1      34.290  25.135  25.378  1.00  0.00     0.084 C 
ATOM     17  C   UNL A   1      31.367  22.820  24.326  1.00  0.00     0.007 C 
ATOM     18  C   UNL A   1      32.520  25.463  26.045  1.00  0.00     0.114 C 
ATOM     19  C   UNL A   1      31.018  24.513  25.265  1.00  0.00     0.020 C 
BRANCH  18  20
ATOM     20  S   UNL A   1      32.259  27.177  26.404  1.00  0.00     0.150 S 
ATOM     21  C   UNL A   1      31.809  27.825  24.810  1.00  0.00     0.158 C 
ATOM     22  O   UNL A   1      31.092  27.260  27.254  1.00  0.00    -0.229 OA
ATOM     23  O   UNL A   1      33.518  27.775  26.812  1.00  0.00    -0.229 OA
ENDBRANCH  18  20
ENDBRANCH  11  14
ENDBRANCH   7  11
ENDBRANCH   4   7
ENDBRANCH   2   3
ENDBRANCH   1   2
BRANCH   1  24
ATOM     24  C   UNL A   1      43.076  22.100  27.090  1.00  0.00     0.023 C 
BRANCH  24  25
ATOM     25  C   UNL A   1      43.091  23.619  27.000  1.00  0.00     0.116 C 
BRANCH  25  26
ATOM     26  N   UNL A   1      42.218  24.206  26.004  1.00  0.00    -0.352 N 
ATOM     27  C   UNL A   1      41.492  25.371  26.146  1.00  0.00     0.251 C 
ATOM     28  H   UNL A   1      42.135  23.729  25.147  1.00  0.00     0.163 HD
ATOM     29  O   UNL A   1      40.797  25.802  25.233  1.00  0.00    -0.269 OA
BRANCH  27  30
ATOM     30  C   UNL A   1      41.514  26.044  27.463  1.00  0.00     0.039 A 
ATOM     31  C   UNL A   1      42.413  27.093  27.654  1.00  0.00     0.014 A 
ATOM     32  C   UNL A   1      40.539  25.752  28.423  1.00  0.00     0.014 A 
ATOM     33  C   UNL A   1      42.286  27.906  28.781  1.00  0.00     0.010 A 
ATOM     34  C   UNL A   1      40.363  26.618  29.500  1.00  0.00     0.010 A 
ATOM     35  C   UNL A   1      41.233  27.706  29.692  1.00  0.00    -0.014 A 
BRANCH  35  36
ATOM     36  C   UNL A   1      41.046  28.624  30.848  1.00  0.00     0.031 A 
ATOM     37  C   UNL A   1      39.953  29.660  30.814  1.00  0.00     0.074 A 
ATOM     38  C   UNL A   1      41.871  28.552  31.914  1.00  0.00     0.049 A 
ATOM     39  N   UNL A   1      39.634  30.554  31.713  1.00  0.00    -0.248 NA
ATOM     40  C   UNL A   1      39.128  29.715  29.596  1.00  0.00     0.031 C 
ATOM     41  C   UNL A   1      43.002  27.632  32.049  1.00  0.00     0.029 A 
ATOM     42  N   UNL A   1      41.885  29.262  33.089  1.00  0.00    -0.354 N 
ATOM     43  C   UNL A   1      38.585  31.283  31.166  1.00  0.00     0.074 A 
ATOM     44  C   UNL A   1      38.364  30.772  29.832  1.00  0.00     0.031 C 
ATOM     45  C   UNL A   1      43.574  27.807  33.251  1.00  0.00     0.029 A 
ATOM     46  C   UNL A   1      42.877  28.875  33.962  1.00  0.00     0.049 A 
ATOM     47  H   UNL A   1      41.245  29.983  33.290  1.00  0.00     0.167 HD
ATOM     48  C   UNL A   1      37.848  32.268  31.733  1.00  0.00     0.037 A 
ATOM     49  C   UNL A   1      43.187  29.325  35.195  1.00  0.00     0.037 A 
ATOM     50  C   UNL A   1      38.049  32.752  33.072  1.00  0.00     0.049 A 
ATOM     51  C   UNL A   1      42.352  30.419  35.806  1.00  0.00     0.074 A 
ATOM     52  C   UNL A   1      37.314  33.701  33.762  1.00  0.00     0.029 A 
ATOM     53  N   UNL A   1      39.055  32.326  33.927  1.00  0.00    -0.354 N 
ATOM     54  N   UNL A   1      41.315  31.046  35.301  1.00  0.00    -0.248 NA
ATOM     55  C   UNL A   1      42.722  30.864  37.158  1.00  0.00     0.031 C 
ATOM     56  C   UNL A   1      37.908  33.885  35.016  1.00  0.00     0.029 A 
ATOM     57  C   UNL A   1      38.978  33.012  35.128  1.00  0.00     0.049 A 
ATOM     58  H   UNL A   1      39.727  31.639  33.711  1.00  0.00     0.167 HD
ATOM     59  C   UNL A   1      40.892  31.936  36.283  1.00  0.00     0.074 A 
ATOM     60  C   UNL A   1      41.778  31.759  37.416  1.00  0.00     0.031 C 
ATOM     61  C   UNL A   1      39.863  32.818  36.249  1.00  0.00     0.037 A 
BRANCH  48  62
ATOM     62  C   UNL A   1      36.755  32.884  30.902  1.00  0.00     0.058 A 
ATOM     63  C   UNL A   1      37.030  33.837  29.907  1.00  0.00     0.135 A 
ATOM     64  C   UNL A   1      35.416  32.502  31.088  1.00  0.00     0.135 A 
ATOM     65  F   UNL A   1      38.290  34.250  29.696  1.00  0.00    -0.206 F 
ATOM     66  C   UNL A   1      36.015  34.415  29.151  1.00  0.00     0.059 A 
ATOM     67  C   UNL A   1      34.388  33.044  30.323  1.00  0.00     0.059 A 
ATOM     68  F   UNL A   1      35.095  31.597  32.027  1.00  0.00    -0.206 F 
ATOM     69  C   UNL A   1      34.696  34.012  29.368  1.00  0.00     0.060 A 
BRANCH  69  70
ATOM     70  S   UNL A   1      33.391  34.770  28.378  1.00  0.00     0.124 S 
ATOM     71  O   UNL A   1      32.534  35.339  29.415  1.00  0.00    -0.237 OA
ATOM     72  O   UNL A   1      34.132  35.734  27.571  1.00  0.00    -0.237 OA
ATOM     73  O   UNL A   1      32.824  33.645  27.643  1.00  0.00    -0.744 OA
ENDBRANCH  69  70
ENDBRANCH  48  62
BRANCH  49  74
ATOM     74  C   UNL A   1      44.323  28.723  35.948  1.00  0.00     0.058 A 
ATOM     75  C   UNL A   1      44.123  27.632  36.808  1.00  0.00     0.135 A 
ATOM     76  C   UNL A   1      45.629  29.220  35.821  1.00  0.00     0.135 A 
ATOM     77  F   UNL A   1      42.893  27.125  36.973  1.00  0.00    -0.206 F 
ATOM     78  C   UNL A   1      45.172  27.065  37.526  1.00  0.00     0.059 A 
ATOM     79  C   UNL A   1      46.699  28.654  36.507  1.00  0.00     0.059 A 
ATOM     80  F   UNL A   1      45.878  30.254  35.001  1.00  0.00    -0.206 F 
ATOM     81  C   UNL A   1      46.459  27.582  37.365  1.00  0.00     0.060 A 
BRANCH  81  82
ATOM     82  S   UNL A   1      47.823  26.806  38.261  1.00  0.00     0.124 S 
ATOM     83  O   UNL A   1      47.278  26.721  39.611  1.00  0.00    -0.237 OA
ATOM     84  O   UNL A   1      47.974  25.540  37.551  1.00  0.00    -0.237 OA
ATOM     85  O   UNL A   1      48.921  27.751  38.081  1.00  0.00    -0.744 OA
ENDBRANCH  81  82
ENDBRANCH  49  74
BRANCH  61  86
ATOM     86  C   UNL A   1      39.611  33.640  37.484  1.00  0.00     0.058 A 
ATOM     87  C   UNL A   1      38.750  33.200  38.502  1.00  0.00     0.135 A 
ATOM     88  C   UNL A   1      40.289  34.854  37.679  1.00  0.00     0.135 A 
ATOM     89  F   UNL A   1      38.072  32.049  38.364  1.00  0.00    -0.206 F 
ATOM     90  C   UNL A   1      38.552  33.947  39.659  1.00  0.00     0.059 A 
ATOM     91  C   UNL A   1      40.130  35.602  38.841  1.00  0.00     0.059 A 
ATOM     92  F   UNL A   1      41.134  35.315  36.742  1.00  0.00    -0.206 F 
ATOM     93  C   UNL A   1      39.250  35.145  39.821  1.00  0.00     0.060 A 
BRANCH  93  94
ATOM     94  S   UNL A   1      39.013  36.085  41.344  1.00  0.00     0.124 S 
ATOM     95  O   UNL A   1      37.783  35.497  41.863  1.00  0.00    -0.237 OA
ATOM     96  O   UNL A   1      40.228  35.777  42.093  1.00  0.00    -0.237 OA
ATOM     97  O   UNL A   1      38.904  37.464  40.880  1.00  0.00    -0.744 OA
ENDBRANCH  93  94
ENDBRANCH  61  86
ENDBRANCH  35  36
ENDBRANCH  27  30
ENDBRANCH  25  26
ENDBRANCH  24  25
ENDBRANCH   1  24
TORSDOF 18
ENDMDL
MODEL 3
REMARK VINA RESULT:     -11.3      2.623      9.100
REMARK SMILES CC[C@@](C)([NH2+][C@H]1CCC[C@H](S(C)(=O)=O)C1)C(=O)NCCCCNC(=O)c1ccc(-c2c3nc(c(-c4c(F)cc(S(=O)(=O)[O-])cc4F)c4ccc([nH]4)c(-c4c(F)cc(S(=O)(=O)[O-])cc4F)c4nc(c(-c5c(F)cc(S(=O)(=O)[O-])cc5F)c5ccc2[nH]5)C=C4)C=C3)cc1
REMARK SMILES IDX 20 1 19 2 18 3 16 4 17 5 3 7 4 8 2 9 1 10 5 11 6 14 7 15
REMARK SMILES IDX 15 16 8 17 10 18 9 19 11 20 12 21 13 22 14 23 21 24 22 25
REMARK SMILES IDX 23 26 24 27 25 29 26 30 27 31 91 32 28 33 90 34 29 35 30 36
REMARK SMILES IDX 31 37 84 38 32 39 89 40 83 41 85 42 33 43 88 44 82 45 81 46
REMARK SMILES IDX 34 48 68 49 47 50 67 51 48 52 51 53 66 54 86 55 49 56 50 57
REMARK SMILES IDX 65 59 87 60 52 61 35 62 36 63 45 64 37 65 38 66 44 67 46 68
REMARK SMILES IDX 39 69 40 70 41 71 42 72 43 73 69 74 70 75 79 76 71 77 72 78
REMARK SMILES IDX 78 79 80 80 73 81 74 82 75 83 76 84 77 85 53 86 54 87 63 88
REMARK SMILES IDX 55 89 56 90 62 91 64 92 57 93 58 94 59 95 60 96 61 97
REMARK H PARENT 18 6 5 12 5 13 23 28 85 47 51 58
REMARK Flexibility Score: inf
ROOT
ATOM      1  C   UNL A   1      34.680  30.577  27.921  1.00  0.00     0.023 C 
ENDROOT
BRANCH   1   2
ATOM      2  C   UNL A   1      34.594  29.271  26.925  1.00  0.00     0.116 C 
BRANCH   2   3
ATOM      3  N   UNL A   1      34.084  28.970  25.031  1.00  0.00    -0.351 N 
ATOM      4  C   UNL A   1      33.271  28.581  23.967  1.00  0.00     0.281 C 
ATOM      5  O   UNL A   1      33.788  28.843  22.872  1.00  0.00    -0.268 OA
ATOM      6  H   UNL A   1      34.888  29.283  24.558  1.00  0.00     0.163 HD
BRANCH   4   7
ATOM      7  C   UNL A   1      31.871  27.968  24.079  1.00  0.00     0.172 C 
ATOM      8  C   UNL A   1      31.248  28.232  25.471  1.00  0.00     0.090 C 
BRANCH   7   9
ATOM      9  C   UNL A   1      30.954  28.594  22.985  1.00  0.00     0.075 C 
ATOM     10  C   UNL A   1      29.977  29.688  23.454  1.00  0.00     0.011 C 
ENDBRANCH   7   9
BRANCH   7  11
ATOM     11  N   UNL A   1      32.050  26.533  23.784  1.00  0.00    -0.331 N 
ATOM     12  H   UNL A   1      32.824  26.412  23.131  1.00  0.00     0.347 HD
ATOM     13  H   UNL A   1      31.197  26.159  23.365  1.00  0.00     0.347 HD
BRANCH  11  14
ATOM     14  C   UNL A   1      32.343  25.815  25.040  1.00  0.00     0.184 C 
ATOM     15  C   UNL A   1      30.817  24.702  25.545  1.00  0.00     0.065 C 
ATOM     16  C   UNL A   1      34.091  24.974  24.915  1.00  0.00     0.084 C 
ATOM     17  C   UNL A   1      31.007  22.756  25.673  1.00  0.00     0.007 C 
ATOM     18  C   UNL A   1      34.210  23.068  24.719  1.00  0.00     0.114 C 
ATOM     19  C   UNL A   1      32.782  21.950  25.408  1.00  0.00     0.020 C 
BRANCH  18  20
ATOM     20  S   UNL A   1      35.859  22.481  24.984  1.00  0.00     0.150 S 
ATOM     21  C   UNL A   1      36.678  22.989  23.489  1.00  0.00     0.158 C 
ATOM     22  O   UNL A   1      36.416  23.256  26.071  1.00  0.00    -0.229 OA
ATOM     23  O   UNL A   1      35.845  21.030  25.037  1.00  0.00    -0.229 OA
ENDBRANCH  18  20
ENDBRANCH  11  14
ENDBRANCH   7  11
ENDBRANCH   4   7
ENDBRANCH   2   3
ENDBRANCH   1   2
BRANCH   1  24
ATOM     24  C   UNL A   1      33.545  31.614  27.971  1.00  0.00     0.023 C 
BRANCH  24  25
ATOM     25  C   UNL A   1      33.764  32.961  27.298  1.00  0.00     0.116 C 
BRANCH  25  26
ATOM     26  N   UNL A   1      32.955  34.057  27.792  1.00  0.00    -0.352 N 
ATOM     27  C   UNL A   1      33.241  34.850  28.885  1.00  0.00     0.251 C 
ATOM     28  H   UNL A   1      32.124  34.254  27.302  1.00  0.00     0.163 HD
ATOM     29  O   UNL A   1      32.504  35.774  29.211  1.00  0.00    -0.269 OA
BRANCH  27  30
ATOM     30  C   UNL A   1      34.425  34.501  29.701  1.00  0.00     0.039 A 
ATOM     31  C   UNL A   1      34.218  33.886  30.935  1.00  0.00     0.014 A 
ATOM     32  C   UNL A   1      35.712  34.623  29.168  1.00  0.00     0.014 A 
ATOM     33  C   UNL A   1      35.302  33.319  31.607  1.00  0.00     0.010 A 
ATOM     34  C   UNL A   1      36.775  33.980  29.800  1.00  0.00     0.010 A 
ATOM     35  C   UNL A   1      36.583  33.319  31.026  1.00  0.00    -0.014 A 
BRANCH  35  36
ATOM     36  C   UNL A   1      37.722  32.641  31.702  1.00  0.00     0.031 A 
ATOM     37  C   UNL A   1      38.209  33.144  33.035  1.00  0.00     0.074 A 
ATOM     38  C   UNL A   1      38.339  31.596  31.110  1.00  0.00     0.049 A 
ATOM     39  N   UNL A   1      39.188  32.697  33.778  1.00  0.00    -0.248 NA
ATOM     40  C   UNL A   1      37.523  34.320  33.593  1.00  0.00     0.031 C 
ATOM     41  C   UNL A   1      38.001  31.046  29.795  1.00  0.00     0.029 A 
ATOM     42  N   UNL A   1      39.378  30.807  31.537  1.00  0.00    -0.354 N 
ATOM     43  C   UNL A   1      39.243  33.543  34.880  1.00  0.00     0.074 A 
ATOM     44  C   UNL A   1      38.244  34.568  34.676  1.00  0.00     0.031 C 
ATOM     45  C   UNL A   1      38.789  29.989  29.542  1.00  0.00     0.029 A 
ATOM     46  C   UNL A   1      39.714  29.804  30.657  1.00  0.00     0.049 A 
ATOM     47  H   UNL A   1      39.841  30.945  32.395  1.00  0.00     0.167 HD
ATOM     48  C   UNL A   1      40.031  33.458  35.978  1.00  0.00     0.037 A 
ATOM     49  C   UNL A   1      40.657  28.843  30.738  1.00  0.00     0.037 A 
ATOM     50  C   UNL A   1      41.001  32.418  36.192  1.00  0.00     0.049 A 
ATOM     51  C   UNL A   1      41.519  28.765  31.970  1.00  0.00     0.074 A 
ATOM     52  C   UNL A   1      41.802  32.205  37.301  1.00  0.00     0.029 A 
ATOM     53  N   UNL A   1      41.303  31.415  35.282  1.00  0.00    -0.354 N 
ATOM     54  N   UNL A   1      41.505  29.531  33.036  1.00  0.00    -0.248 NA
ATOM     55  C   UNL A   1      42.521  27.690  32.016  1.00  0.00     0.031 C 
ATOM     56  C   UNL A   1      42.625  31.104  37.039  1.00  0.00     0.029 A 
ATOM     57  C   UNL A   1      42.297  30.597  35.792  1.00  0.00     0.049 A 
ATOM     58  H   UNL A   1      40.874  31.303  34.403  1.00  0.00     0.167 HD
ATOM     59  C   UNL A   1      42.473  29.013  33.891  1.00  0.00     0.074 A 
ATOM     60  C   UNL A   1      43.046  27.862  33.223  1.00  0.00     0.031 C 
ATOM     61  C   UNL A   1      42.851  29.449  35.117  1.00  0.00     0.037 A 
BRANCH  48  62
ATOM     62  C   UNL A   1      39.870  34.519  37.032  1.00  0.00     0.058 A 
ATOM     63  C   UNL A   1      40.629  35.702  37.013  1.00  0.00     0.135 A 
ATOM     64  C   UNL A   1      38.932  34.363  38.065  1.00  0.00     0.135 A 
ATOM     65  F   UNL A   1      41.552  35.897  36.058  1.00  0.00    -0.206 F 
ATOM     66  C   UNL A   1      40.489  36.674  37.997  1.00  0.00     0.059 A 
ATOM     67  C   UNL A   1      38.752  35.337  39.043  1.00  0.00     0.059 A 
ATOM     68  F   UNL A   1      38.180  33.252  38.134  1.00  0.00    -0.206 F 
ATOM     69  C   UNL A   1      39.547  36.482  39.010  1.00  0.00     0.060 A 
BRANCH  69  70
ATOM     70  S   UNL A   1      39.376  37.753  40.279  1.00  0.00     0.124 S 
ATOM     71  O   UNL A   1      39.278  36.943  41.490  1.00  0.00    -0.237 OA
ATOM     72  O   UNL A   1      40.610  38.515  40.125  1.00  0.00    -0.237 OA
ATOM     73  O   UNL A   1      38.156  38.455  39.895  1.00  0.00    -0.744 OA
ENDBRANCH  69  70
ENDBRANCH  48  62
BRANCH  49  74
ATOM     74  C   UNL A   1      40.816  27.855  29.634  1.00  0.00     0.058 A 
ATOM     75  C   UNL A   1      41.882  27.949  28.726  1.00  0.00     0.135 A 
ATOM     76  C   UNL A   1      39.912  26.794  29.468  1.00  0.00     0.135 A 
ATOM     77  F   UNL A   1      42.769  28.949  28.835  1.00  0.00    -0.206 F 
ATOM     78  C   UNL A   1      42.038  27.039  27.685  1.00  0.00     0.059 A 
ATOM     79  C   UNL A   1      40.061  25.856  28.451  1.00  0.00     0.059 A 
ATOM     80  F   UNL A   1      38.883  26.649  30.317  1.00  0.00    -0.206 F 
ATOM     81  C   UNL A   1      41.123  25.993  27.558  1.00  0.00     0.060 A 
BRANCH  81  82
ATOM     82  S   UNL A   1      41.363  24.786  26.234  1.00  0.00     0.124 S 
ATOM     83  O   UNL A   1      40.123  24.022  26.304  1.00  0.00    -0.237 OA
ATOM     84  O   UNL A   1      41.520  25.644  25.063  1.00  0.00    -0.237 OA
ATOM     85  O   UNL A   1      42.569  24.074  26.645  1.00  0.00    -0.744 OA
ENDBRANCH  81  82
ENDBRANCH  49  74
BRANCH  61  86
ATOM     86  C   UNL A   1      43.912  28.663  35.839  1.00  0.00     0.058 A 
ATOM     87  C   UNL A   1      43.592  27.586  36.679  1.00  0.00     0.135 A 
ATOM     88  C   UNL A   1      45.272  28.954  35.635  1.00  0.00     0.135 A 
ATOM     89  F   UNL A   1      42.307  27.269  36.912  1.00  0.00    -0.206 F 
ATOM     90  C   UNL A   1      44.580  26.839  37.312  1.00  0.00     0.059 A 
ATOM     91  C   UNL A   1      46.277  28.202  36.233  1.00  0.00     0.059 A 
ATOM     92  F   UNL A   1      45.633  29.966  34.832  1.00  0.00    -0.206 F 
ATOM     93  C   UNL A   1      45.921  27.153  37.079  1.00  0.00     0.060 A 
BRANCH  93  94
ATOM     94  S   UNL A   1      47.194  26.151  37.876  1.00  0.00     0.124 S 
ATOM     95  O   UNL A   1      47.773  25.450  36.735  1.00  0.00    -0.237 OA
ATOM     96  O   UNL A   1      48.044  27.161  38.497  1.00  0.00    -0.237 OA
ATOM     97  O   UNL A   1      46.438  25.318  38.807  1.00  0.00    -0.744 OA
ENDBRANCH  93  94
ENDBRANCH  61  86
ENDBRANCH  35  36
ENDBRANCH  27  30
ENDBRANCH  25  26
ENDBRANCH  24  25
ENDBRANCH   1  24
TORSDOF 18
ENDMDL
