MODEL 1
REMARK VINA RESULT:     -13.3      0.000      0.000
REMARK SMILES C[C@H]1CC[C@H]([NH2+]Cc2c(C(=O)NCCCCNC(=O)c3ccc(-c4c5nc(c(-c6c(F)cc(S(=O)(=O)[O-])cc6F)c6ccc([nH]6)c(-c6c(F)cc(S(=O)(=O)[O-])cc6F)c6nc(c(-c7c(F)cc(S(=O)(=O)[O-])cc7F)c7ccc4[nH]7)C=C6)C=C5)cc3)n(Cc3ccccc3F)c3ccccc23)CC1
REMARK SMILES IDX 14 1 13 2 12 3 10 4 11 5 9 7 8 8 100 9 86 10 95 11 99 12
REMARK SMILES IDX 96 13 98 14 97 15 7 16 6 17 5 20 1 21 2 22 3 23 102 24 4 25
REMARK SMILES IDX 101 26 87 27 88 28 89 29 93 30 90 31 92 32 94 33 91 34 15 35
REMARK SMILES IDX 16 36 17 37 18 38 19 40 20 41 21 42 85 43 22 44 84 45 23 46
REMARK SMILES IDX 24 47 25 48 78 49 26 50 83 51 77 52 79 53 27 54 82 55 76 56
REMARK SMILES IDX 75 57 28 59 62 60 41 61 61 62 42 63 45 64 60 65 80 66 43 67
REMARK SMILES IDX 44 68 59 70 81 71 46 72 29 73 30 74 39 75 31 76 32 77 38 78
REMARK SMILES IDX 40 79 33 80 34 81 35 82 36 83 37 84 63 85 64 86 73 87 65 88
REMARK SMILES IDX 66 89 72 90 74 91 67 92 68 93 69 94 70 95 71 96 47 97 48 98
REMARK SMILES IDX 57 99 49 100 50 101 56 102 58 103 51 104 52 105 53 106
REMARK SMILES IDX 54 107 55 108
REMARK H PARENT 12 6 6 18 6 19 17 39 79 58 45 69
REMARK Flexibility Score: inf
ROOT
ATOM      1  C   UNL A   1      33.131  27.210  26.367  1.00  0.00     0.023 C 
ENDROOT
BRANCH   1   2
ATOM      2  C   UNL A   1      33.643  25.893  25.795  1.00  0.00     0.116 C 
BRANCH   2   3
ATOM      3  N   UNL A   1      34.050  25.836  24.419  1.00  0.00    -0.351 N 
ATOM      4  C   UNL A   1      34.129  24.731  23.587  1.00  0.00     0.268 C 
ATOM      5  O   UNL A   1      34.327  25.007  22.403  1.00  0.00    -0.268 OA
ATOM      6  H   UNL A   1      34.308  26.695  24.013  1.00  0.00     0.163 HD
BRANCH   4   7
ATOM      7  C   UNL A   1      34.048  23.332  24.060  1.00  0.00     0.117 A 
ATOM      8  C   UNL A   1      34.802  22.555  24.965  1.00  0.00     0.045 A 
ATOM      9  C   UNL A   1      34.517  21.190  24.635  1.00  0.00     0.009 A 
ATOM     10  N   UNL A   1      32.943  22.486  23.768  1.00  0.00    -0.331 N 
ATOM     11  C   UNL A   1      33.228  21.177  24.137  1.00  0.00     0.049 A 
ATOM     12  C   UNL A   1      35.169  19.964  24.891  1.00  0.00     0.011 A 
ATOM     13  C   UNL A   1      32.485  19.982  24.096  1.00  0.00     0.027 A 
ATOM     14  C   UNL A   1      34.498  18.762  24.667  1.00  0.00     0.001 A 
ATOM     15  C   UNL A   1      33.154  18.775  24.321  1.00  0.00     0.002 A 
BRANCH   8  16
ATOM     16  C   UNL A   1      35.762  22.822  26.093  1.00  0.00     0.300 C 
BRANCH  16  17
ATOM     17  N   UNL A   1      36.793  23.822  25.891  1.00  0.00    -0.340 N 
ATOM     18  H   UNL A   1      36.618  24.213  24.964  1.00  0.00     0.346 HD
ATOM     19  H   UNL A   1      36.679  24.383  26.735  1.00  0.00     0.346 HD
BRANCH  17  20
ATOM     20  C   UNL A   1      38.230  23.554  25.938  1.00  0.00     0.182 C 
ATOM     21  C   UNL A   1      41.849  22.161  28.084  1.00  0.00     0.007 C 
ATOM     22  C   UNL A   1      40.422  22.457  27.646  1.00  0.00    -0.014 C 
ATOM     23  C   UNL A   1      40.131  21.886  26.254  1.00  0.00     0.009 C 
ATOM     24  C   UNL A   1      40.144  23.960  27.637  1.00  0.00     0.009 C 
ATOM     25  C   UNL A   1      38.660  22.088  25.912  1.00  0.00     0.065 C 
ATOM     26  C   UNL A   1      38.698  24.229  27.249  1.00  0.00     0.065 C 
ENDBRANCH  17  20
ENDBRANCH  16  17
ENDBRANCH   8  16
BRANCH  10  27
ATOM     27  C   UNL A   1      31.618  22.887  23.259  1.00  0.00     0.161 C 
BRANCH  27  28
ATOM     28  C   UNL A   1      30.926  23.966  24.062  1.00  0.00     0.008 A 
ATOM     29  C   UNL A   1      30.645  23.830  25.433  1.00  0.00     0.008 A 
ATOM     30  C   UNL A   1      30.600  25.189  23.471  1.00  0.00     0.128 A 
ATOM     31  C   UNL A   1      30.017  24.843  26.162  1.00  0.00     0.001 A 
ATOM     32  C   UNL A   1      29.960  26.203  24.186  1.00  0.00     0.039 A 
ATOM     33  F   UNL A   1      30.944  25.436  22.200  1.00  0.00    -0.207 F 
ATOM     34  C   UNL A   1      29.658  26.027  25.533  1.00  0.00     0.003 A 
ENDBRANCH  27  28
ENDBRANCH  10  27
ENDBRANCH   4   7
ENDBRANCH   2   3
ENDBRANCH   1   2
BRANCH   1  35
ATOM     35  C   UNL A   1      34.126  28.387  26.385  1.00  0.00     0.023 C 
BRANCH  35  36
ATOM     36  C   UNL A   1      33.577  29.799  26.648  1.00  0.00     0.116 C 
BRANCH  36  37
ATOM     37  N   UNL A   1      33.703  30.350  27.984  1.00  0.00    -0.352 N 
ATOM     38  C   UNL A   1      34.721  31.091  28.538  1.00  0.00     0.251 C 
ATOM     39  H   UNL A   1      32.945  30.167  28.584  1.00  0.00     0.163 HD
ATOM     40  O   UNL A   1      34.431  31.965  29.356  1.00  0.00    -0.269 OA
BRANCH  38  41
ATOM     41  C   UNL A   1      36.140  30.717  28.335  1.00  0.00     0.039 A 
ATOM     42  C   UNL A   1      36.554  29.444  27.958  1.00  0.00     0.014 A 
ATOM     43  C   UNL A   1      37.096  31.671  28.724  1.00  0.00     0.014 A 
ATOM     44  C   UNL A   1      37.855  29.051  28.192  1.00  0.00     0.010 A 
ATOM     45  C   UNL A   1      38.419  31.298  28.905  1.00  0.00     0.010 A 
ATOM     46  C   UNL A   1      38.768  29.965  28.718  1.00  0.00    -0.014 A 
BRANCH  46  47
ATOM     47  C   UNL A   1      40.118  29.471  28.937  1.00  0.00     0.031 A 
ATOM     48  C   UNL A   1      40.435  29.240  30.372  1.00  0.00     0.074 A 
ATOM     49  C   UNL A   1      40.970  29.199  27.931  1.00  0.00     0.049 A 
ATOM     50  N   UNL A   1      41.321  29.833  31.104  1.00  0.00    -0.248 NA
ATOM     51  C   UNL A   1      39.522  28.367  31.130  1.00  0.00     0.031 C 
ATOM     52  C   UNL A   1      40.689  29.156  26.495  1.00  0.00     0.029 A 
ATOM     53  N   UNL A   1      42.269  28.802  27.997  1.00  0.00    -0.354 N 
ATOM     54  C   UNL A   1      41.219  29.251  32.366  1.00  0.00     0.074 A 
ATOM     55  C   UNL A   1      39.992  28.501  32.369  1.00  0.00     0.031 C 
ATOM     56  C   UNL A   1      41.702  28.522  25.864  1.00  0.00     0.029 A 
ATOM     57  C   UNL A   1      42.751  28.232  26.826  1.00  0.00     0.049 A 
ATOM     58  H   UNL A   1      42.821  28.910  28.805  1.00  0.00     0.167 HD
ATOM     59  C   UNL A   1      42.266  29.246  33.235  1.00  0.00     0.037 A 
ATOM     60  C   UNL A   1      43.883  27.494  26.697  1.00  0.00     0.037 A 
ATOM     61  C   UNL A   1      43.222  30.269  32.906  1.00  0.00     0.049 A 
ATOM     62  C   UNL A   1      44.755  27.829  27.858  1.00  0.00     0.074 A 
ATOM     63  C   UNL A   1      43.172  31.648  32.833  1.00  0.00     0.029 A 
ATOM     64  N   UNL A   1      44.359  29.897  32.230  1.00  0.00    -0.354 N 
ATOM     65  N   UNL A   1      45.292  29.006  28.049  1.00  0.00    -0.248 NA
ATOM     66  C   UNL A   1      44.644  26.999  29.048  1.00  0.00     0.031 C 
ATOM     67  C   UNL A   1      44.000  31.989  31.726  1.00  0.00     0.029 A 
ATOM     68  C   UNL A   1      44.555  30.810  31.226  1.00  0.00     0.049 A 
ATOM     69  H   UNL A   1      44.928  29.119  32.430  1.00  0.00     0.167 HD
ATOM     70  C   UNL A   1      45.200  29.225  29.417  1.00  0.00     0.074 A 
ATOM     71  C   UNL A   1      44.864  27.923  29.988  1.00  0.00     0.031 C 
ATOM     72  C   UNL A   1      45.126  30.487  29.934  1.00  0.00     0.037 A 
BRANCH  59  73
ATOM     73  C   UNL A   1      42.593  28.086  34.150  1.00  0.00     0.058 A 
ATOM     74  C   UNL A   1      42.537  28.271  35.547  1.00  0.00     0.135 A 
ATOM     75  C   UNL A   1      43.229  26.899  33.721  1.00  0.00     0.135 A 
ATOM     76  F   UNL A   1      41.959  29.363  36.072  1.00  0.00    -0.206 F 
ATOM     77  C   UNL A   1      43.141  27.387  36.443  1.00  0.00     0.059 A 
ATOM     78  C   UNL A   1      43.789  25.979  34.599  1.00  0.00     0.059 A 
ATOM     79  F   UNL A   1      43.429  26.612  32.430  1.00  0.00    -0.206 F 
ATOM     80  C   UNL A   1      43.781  26.253  35.954  1.00  0.00     0.060 A 
BRANCH  80  81
ATOM     81  S   UNL A   1      44.662  25.172  37.092  1.00  0.00     0.124 S 
ATOM     82  O   UNL A   1      46.051  25.504  36.792  1.00  0.00    -0.237 OA
ATOM     83  O   UNL A   1      44.159  25.623  38.385  1.00  0.00    -0.237 OA
ATOM     84  O   UNL A   1      44.231  23.836  36.689  1.00  0.00    -0.744 OA
ENDBRANCH  80  81
ENDBRANCH  59  73
BRANCH  60  85
ATOM     85  C   UNL A   1      44.058  26.264  25.870  1.00  0.00     0.058 A 
ATOM     86  C   UNL A   1      45.328  25.835  25.443  1.00  0.00     0.135 A 
ATOM     87  C   UNL A   1      43.007  25.338  25.691  1.00  0.00     0.135 A 
ATOM     88  F   UNL A   1      46.397  26.631  25.602  1.00  0.00    -0.206 F 
ATOM     89  C   UNL A   1      45.546  24.560  24.901  1.00  0.00     0.059 A 
ATOM     90  C   UNL A   1      43.197  24.072  25.142  1.00  0.00     0.059 A 
ATOM     91  F   UNL A   1      41.767  25.600  26.129  1.00  0.00    -0.206 F 
ATOM     92  C   UNL A   1      44.473  23.679  24.768  1.00  0.00     0.060 A 
BRANCH  92  93
ATOM     93  S   UNL A   1      44.764  21.986  24.203  1.00  0.00     0.124 S 
ATOM     94  O   UNL A   1      46.196  21.830  24.435  1.00  0.00    -0.237 OA
ATOM     95  O   UNL A   1      43.888  21.215  25.078  1.00  0.00    -0.237 OA
ATOM     96  O   UNL A   1      44.362  22.021  22.799  1.00  0.00    -0.744 OA
ENDBRANCH  92  93
ENDBRANCH  60  85
BRANCH  72  97
ATOM     97  C   UNL A   1      45.420  31.662  29.035  1.00  0.00     0.058 A 
ATOM     98  C   UNL A   1      46.715  32.119  28.731  1.00  0.00     0.135 A 
ATOM     99  C   UNL A   1      44.361  32.195  28.283  1.00  0.00     0.135 A 
ATOM    100  F   UNL A   1      47.790  31.594  29.335  1.00  0.00    -0.206 F 
ATOM    101  C   UNL A   1      46.944  33.067  27.732  1.00  0.00     0.059 A 
ATOM    102  C   UNL A   1      44.569  33.116  27.261  1.00  0.00     0.059 A 
ATOM    103  F   UNL A   1      43.107  31.756  28.485  1.00  0.00    -0.206 F 
ATOM    104  C   UNL A   1      45.865  33.549  26.991  1.00  0.00     0.060 A 
BRANCH 104 105
ATOM    105  S   UNL A   1      46.178  34.672  25.611  1.00  0.00     0.124 S 
ATOM    106  O   UNL A   1      47.583  34.411  25.314  1.00  0.00    -0.237 OA
ATOM    107  O   UNL A   1      45.221  34.212  24.607  1.00  0.00    -0.237 OA
ATOM    108  O   UNL A   1      45.894  35.991  26.171  1.00  0.00    -0.744 OA
ENDBRANCH 104 105
ENDBRANCH  72  97
ENDBRANCH  46  47
ENDBRANCH  38  41
ENDBRANCH  36  37
ENDBRANCH  35  36
ENDBRANCH   1  35
TORSDOF 19
ENDMDL
MODEL 2
REMARK VINA RESULT:     -12.2      2.077      3.797
REMARK SMILES C[C@H]1CC[C@H]([NH2+]Cc2c(C(=O)NCCCCNC(=O)c3ccc(-c4c5nc(c(-c6c(F)cc(S(=O)(=O)[O-])cc6F)c6ccc([nH]6)c(-c6c(F)cc(S(=O)(=O)[O-])cc6F)c6nc(c(-c7c(F)cc(S(=O)(=O)[O-])cc7F)c7ccc4[nH]7)C=C6)C=C5)cc3)n(Cc3ccccc3F)c3ccccc23)CC1
REMARK SMILES IDX 14 1 13 2 12 3 10 4 11 5 9 7 8 8 100 9 86 10 95 11 99 12
REMARK SMILES IDX 96 13 98 14 97 15 7 16 6 17 5 20 1 21 2 22 3 23 102 24 4 25
REMARK SMILES IDX 101 26 87 27 88 28 89 29 93 30 90 31 92 32 94 33 91 34 15 35
REMARK SMILES IDX 16 36 17 37 18 38 19 40 20 41 21 42 85 43 22 44 84 45 23 46
REMARK SMILES IDX 24 47 25 48 78 49 26 50 83 51 77 52 79 53 27 54 82 55 76 56
REMARK SMILES IDX 75 57 28 59 62 60 41 61 61 62 42 63 45 64 60 65 80 66 43 67
REMARK SMILES IDX 44 68 59 70 81 71 46 72 29 73 30 74 39 75 31 76 32 77 38 78
REMARK SMILES IDX 40 79 33 80 34 81 35 82 36 83 37 84 63 85 64 86 73 87 65 88
REMARK SMILES IDX 66 89 72 90 74 91 67 92 68 93 69 94 70 95 71 96 47 97 48 98
REMARK SMILES IDX 57 99 49 100 50 101 56 102 58 103 51 104 52 105 53 106
REMARK SMILES IDX 54 107 55 108
REMARK H PARENT 12 6 6 18 6 19 17 39 79 58 45 69
REMARK Flexibility Score: inf
ROOT
ATOM      1  C   UNL A   1      35.519  29.797  28.121  1.00  0.00     0.023 C 
ENDROOT
BRANCH   1   2
ATOM      2  C   UNL A   1      34.510  29.019  27.285  1.00  0.00     0.116 C 
BRANCH   2   3
ATOM      3  N   UNL A   1      33.138  28.970  27.705  1.00  0.00    -0.351 N 
ATOM      4  C   UNL A   1      32.118  28.162  27.232  1.00  0.00     0.268 C 
ATOM      5  O   UNL A   1      31.090  28.202  27.909  1.00  0.00    -0.268 OA
ATOM      6  H   UNL A   1      32.889  29.595  28.425  1.00  0.00     0.163 HD
BRANCH   4   7
ATOM      7  C   UNL A   1      32.207  27.357  25.994  1.00  0.00     0.117 A 
ATOM      8  C   UNL A   1      32.217  25.973  25.720  1.00  0.00     0.045 A 
ATOM      9  C   UNL A   1      32.785  25.841  24.411  1.00  0.00     0.009 A 
ATOM     10  N   UNL A   1      32.109  27.932  24.697  1.00  0.00    -0.331 N 
ATOM     11  C   UNL A   1      32.449  26.995  23.729  1.00  0.00     0.049 A 
ATOM     12  C   UNL A   1      33.385  24.774  23.707  1.00  0.00     0.011 A 
ATOM     13  C   UNL A   1      32.486  27.034  22.322  1.00  0.00     0.027 A 
ATOM     14  C   UNL A   1      33.602  24.885  22.333  1.00  0.00     0.001 A 
ATOM     15  C   UNL A   1      33.111  25.984  21.643  1.00  0.00     0.002 A 
BRANCH   8  16
ATOM     16  C   UNL A   1      31.807  24.717  26.440  1.00  0.00     0.300 C 
BRANCH  16  17
ATOM     17  N   UNL A   1      31.272  23.622  25.653  1.00  0.00    -0.340 N 
ATOM     18  H   UNL A   1      30.272  23.603  25.854  1.00  0.00     0.346 HD
ATOM     19  H   UNL A   1      31.624  23.867  24.727  1.00  0.00     0.346 HD
BRANCH  17  20
ATOM     20  C   UNL A   1      31.718  22.233  25.753  1.00  0.00     0.182 C 
ATOM     21  C   UNL A   1      34.406  18.925  24.538  1.00  0.00     0.007 C 
ATOM     22  C   UNL A   1      33.756  20.280  24.772  1.00  0.00    -0.014 C 
ATOM     23  C   UNL A   1      33.579  20.569  26.266  1.00  0.00     0.009 C 
ATOM     24  C   UNL A   1      32.396  20.372  24.082  1.00  0.00     0.009 C 
ATOM     25  C   UNL A   1      33.051  21.985  26.459  1.00  0.00     0.065 C 
ATOM     26  C   UNL A   1      31.791  21.753  24.284  1.00  0.00     0.065 C 
ENDBRANCH  17  20
ENDBRANCH  16  17
ENDBRANCH   8  16
BRANCH  10  27
ATOM     27  C   UNL A   1      31.615  29.277  24.348  1.00  0.00     0.161 C 
BRANCH  27  28
ATOM     28  C   UNL A   1      30.185  29.325  23.858  1.00  0.00     0.008 A 
ATOM     29  C   UNL A   1      29.485  28.177  23.447  1.00  0.00     0.008 A 
ATOM     30  C   UNL A   1      29.475  30.527  23.865  1.00  0.00     0.128 A 
ATOM     31  C   UNL A   1      28.160  28.238  23.010  1.00  0.00     0.001 A 
ATOM     32  C   UNL A   1      28.154  30.602  23.418  1.00  0.00     0.039 A 
ATOM     33  F   UNL A   1      30.037  31.640  24.355  1.00  0.00    -0.207 F 
ATOM     34  C   UNL A   1      27.497  29.457  22.979  1.00  0.00     0.003 A 
ENDBRANCH  27  28
ENDBRANCH  10  27
ENDBRANCH   4   7
ENDBRANCH   2   3
ENDBRANCH   1   2
BRANCH   1  35
ATOM     35  C   UNL A   1      35.809  31.245  27.679  1.00  0.00     0.023 C 
BRANCH  35  36
ATOM     36  C   UNL A   1      35.152  32.391  28.467  1.00  0.00     0.116 C 
BRANCH  36  37
ATOM     37  N   UNL A   1      34.518  32.080  29.734  1.00  0.00    -0.352 N 
ATOM     38  C   UNL A   1      35.031  32.123  31.010  1.00  0.00     0.251 C 
ATOM     39  H   UNL A   1      33.577  31.795  29.672  1.00  0.00     0.163 HD
ATOM     40  O   UNL A   1      34.283  32.455  31.931  1.00  0.00    -0.269 OA
BRANCH  38  41
ATOM     41  C   UNL A   1      36.375  31.580  31.314  1.00  0.00     0.039 A 
ATOM     42  C   UNL A   1      37.517  32.367  31.424  1.00  0.00     0.014 A 
ATOM     43  C   UNL A   1      36.495  30.179  31.309  1.00  0.00     0.014 A 
ATOM     44  C   UNL A   1      38.761  31.789  31.287  1.00  0.00     0.010 A 
ATOM     45  C   UNL A   1      37.747  29.588  31.232  1.00  0.00     0.010 A 
ATOM     46  C   UNL A   1      38.867  30.406  31.136  1.00  0.00    -0.014 A 
BRANCH  46  47
ATOM     47  C   UNL A   1      40.214  29.876  30.995  1.00  0.00     0.031 A 
ATOM     48  C   UNL A   1      40.911  29.689  32.296  1.00  0.00     0.074 A 
ATOM     49  C   UNL A   1      40.746  29.539  29.807  1.00  0.00     0.049 A 
ATOM     50  N   UNL A   1      41.979  30.279  32.727  1.00  0.00    -0.248 NA
ATOM     51  C   UNL A   1      40.226  28.876  33.315  1.00  0.00     0.031 C 
ATOM     52  C   UNL A   1      40.077  29.451  28.507  1.00  0.00     0.029 A 
ATOM     53  N   UNL A   1      42.004  29.102  29.529  1.00  0.00    -0.354 N 
ATOM     54  C   UNL A   1      42.218  29.749  33.993  1.00  0.00     0.074 A 
ATOM     55  C   UNL A   1      41.024  29.041  34.369  1.00  0.00     0.031 C 
ATOM     56  C   UNL A   1      40.861  28.761  27.650  1.00  0.00     0.029 A 
ATOM     57  C   UNL A   1      42.129  28.472  28.297  1.00  0.00     0.049 A 
ATOM     58  H   UNL A   1      42.761  29.221  30.147  1.00  0.00     0.167 HD
ATOM     59  C   UNL A   1      43.465  29.741  34.538  1.00  0.00     0.037 A 
ATOM     60  C   UNL A   1      43.165  27.692  27.893  1.00  0.00     0.037 A 
ATOM     61  C   UNL A   1      44.314  30.718  33.911  1.00  0.00     0.049 A 
ATOM     62  C   UNL A   1      44.332  28.041  28.751  1.00  0.00     0.074 A 
ATOM     63  C   UNL A   1      44.276  32.095  33.792  1.00  0.00     0.029 A 
ATOM     64  N   UNL A   1      45.210  30.283  32.965  1.00  0.00    -0.354 N 
ATOM     65  N   UNL A   1      44.926  29.205  28.733  1.00  0.00    -0.248 NA
ATOM     66  C   UNL A   1      44.537  27.260  29.963  1.00  0.00     0.031 C 
ATOM     67  C   UNL A   1      44.771  32.366  32.485  1.00  0.00     0.029 A 
ATOM     68  C   UNL A   1      45.139  31.151  31.905  1.00  0.00     0.049 A 
ATOM     69  H   UNL A   1      45.796  29.495  33.035  1.00  0.00     0.167 HD
ATOM     70  C   UNL A   1      45.222  29.479  30.062  1.00  0.00     0.074 A 
ATOM     71  C   UNL A   1      45.030  28.211  30.762  1.00  0.00     0.031 C 
ATOM     72  C   UNL A   1      45.322  30.761  30.522  1.00  0.00     0.037 A 
BRANCH  59  73
ATOM     73  C   UNL A   1      44.007  28.606  35.378  1.00  0.00     0.058 A 
ATOM     74  C   UNL A   1      44.539  28.884  36.654  1.00  0.00     0.135 A 
ATOM     75  C   UNL A   1      44.288  27.315  34.873  1.00  0.00     0.135 A 
ATOM     76  F   UNL A   1      44.341  30.078  37.235  1.00  0.00    -0.206 F 
ATOM     77  C   UNL A   1      45.356  27.980  37.337  1.00  0.00     0.059 A 
ATOM     78  C   UNL A   1      45.053  26.382  35.561  1.00  0.00     0.059 A 
ATOM     79  F   UNL A   1      43.919  26.923  33.649  1.00  0.00    -0.206 F 
ATOM     80  C   UNL A   1      45.621  26.738  36.770  1.00  0.00     0.060 A 
BRANCH  80  81
ATOM     81  S   UNL A   1      46.766  25.616  37.588  1.00  0.00     0.124 S 
ATOM     82  O   UNL A   1      46.317  24.323  37.084  1.00  0.00    -0.237 OA
ATOM     83  O   UNL A   1      48.054  26.087  37.091  1.00  0.00    -0.237 OA
ATOM     84  O   UNL A   1      46.520  25.860  39.007  1.00  0.00    -0.744 OA
ENDBRANCH  80  81
ENDBRANCH  59  73
BRANCH  60  85
ATOM     85  C   UNL A   1      43.076  26.427  27.107  1.00  0.00     0.058 A 
ATOM     86  C   UNL A   1      43.701  26.291  25.853  1.00  0.00     0.135 A 
ATOM     87  C   UNL A   1      42.588  25.233  27.681  1.00  0.00     0.135 A 
ATOM     88  F   UNL A   1      44.228  27.364  25.243  1.00  0.00    -0.206 F 
ATOM     89  C   UNL A   1      43.856  25.047  25.224  1.00  0.00     0.059 A 
ATOM     90  C   UNL A   1      42.718  23.988  27.068  1.00  0.00     0.059 A 
ATOM     91  F   UNL A   1      42.043  25.221  28.906  1.00  0.00    -0.206 F 
ATOM     92  C   UNL A   1      43.373  23.897  25.849  1.00  0.00     0.060 A 
BRANCH  92  93
ATOM     93  S   UNL A   1      43.692  22.274  25.117  1.00  0.00     0.124 S 
ATOM     94  O   UNL A   1      42.440  21.572  25.379  1.00  0.00    -0.237 OA
ATOM     95  O   UNL A   1      43.954  22.613  23.722  1.00  0.00    -0.237 OA
ATOM     96  O   UNL A   1      44.848  21.784  25.864  1.00  0.00    -0.744 OA
ENDBRANCH  92  93
ENDBRANCH  60  85
BRANCH  72  97
ATOM     97  C   UNL A   1      45.381  31.892  29.524  1.00  0.00     0.058 A 
ATOM     98  C   UNL A   1      46.549  32.290  28.851  1.00  0.00     0.135 A 
ATOM     99  C   UNL A   1      44.166  32.434  29.074  1.00  0.00     0.135 A 
ATOM    100  F   UNL A   1      47.737  31.751  29.154  1.00  0.00    -0.206 F 
ATOM    101  C   UNL A   1      46.511  33.192  27.786  1.00  0.00     0.059 A 
ATOM    102  C   UNL A   1      44.101  33.309  27.994  1.00  0.00     0.059 A 
ATOM    103  F   UNL A   1      43.008  32.047  29.638  1.00  0.00    -0.206 F 
ATOM    104  C   UNL A   1      45.279  33.685  27.354  1.00  0.00     0.060 A 
BRANCH 104 105
ATOM    105  S   UNL A   1      45.220  34.745  25.892  1.00  0.00     0.124 S 
ATOM    106  O   UNL A   1      46.384  35.603  26.087  1.00  0.00    -0.237 OA
ATOM    107  O   UNL A   1      45.318  33.780  24.800  1.00  0.00    -0.237 OA
ATOM    108  O   UNL A   1      43.926  35.414  26.006  1.00  0.00    -0.744 OA
ENDBRANCH 104 105
ENDBRANCH  72  97
ENDBRANCH  46  47
ENDBRANCH  38  41
ENDBRANCH  36  37
ENDBRANCH  35  36
ENDBRANCH   1  35
TORSDOF 19
ENDMDL
MODEL 3
REMARK VINA RESULT:     -11.2      6.817     14.020
REMARK SMILES C[C@H]1CC[C@H]([NH2+]Cc2c(C(=O)NCCCCNC(=O)c3ccc(-c4c5nc(c(-c6c(F)cc(S(=O)(=O)[O-])cc6F)c6ccc([nH]6)c(-c6c(F)cc(S(=O)(=O)[O-])cc6F)c6nc(c(-c7c(F)cc(S(=O)(=O)[O-])cc7F)c7ccc4[nH]7)C=C6)C=C5)cc3)n(Cc3ccccc3F)c3ccccc23)CC1
REMARK SMILES IDX 14 1 13 2 12 3 10 4 11 5 9 7 8 8 100 9 86 10 95 11 99 12
REMARK SMILES IDX 96 13 98 14 97 15 7 16 6 17 5 20 1 21 2 22 3 23 102 24 4 25
REMARK SMILES IDX 101 26 87 27 88 28 89 29 93 30 90 31 92 32 94 33 91 34 15 35
REMARK SMILES IDX 16 36 17 37 18 38 19 40 20 41 21 42 85 43 22 44 84 45 23 46
REMARK SMILES IDX 24 47 25 48 78 49 26 50 83 51 77 52 79 53 27 54 82 55 76 56
REMARK SMILES IDX 75 57 28 59 62 60 41 61 61 62 42 63 45 64 60 65 80 66 43 67
REMARK SMILES IDX 44 68 59 70 81 71 46 72 29 73 30 74 39 75 31 76 32 77 38 78
REMARK SMILES IDX 40 79 33 80 34 81 35 82 36 83 37 84 63 85 64 86 73 87 65 88
REMARK SMILES IDX 66 89 72 90 74 91 67 92 68 93 69 94 70 95 71 96 47 97 48 98
REMARK SMILES IDX 57 99 49 100 50 101 56 102 58 103 51 104 52 105 53 106
REMARK SMILES IDX 54 107 55 108
REMARK H PARENT 12 6 6 18 6 19 17 39 79 58 45 69
REMARK Flexibility Score: inf
ROOT
ATOM      1  C   UNL A   1      42.300  41.919  30.814  1.00  0.00     0.023 C 
ENDROOT
BRANCH   1   2
ATOM      2  C   UNL A   1      41.704  40.818  29.945  1.00  0.00     0.116 C 
BRANCH   2   3
ATOM      3  N   UNL A   1      40.989  41.175  28.751  1.00  0.00    -0.351 N 
ATOM      4  C   UNL A   1      41.252  40.803  27.443  1.00  0.00     0.268 C 
ATOM      5  O   UNL A   1      40.362  41.103  26.647  1.00  0.00    -0.268 OA
ATOM      6  H   UNL A   1      40.210  41.764  28.879  1.00  0.00     0.163 HD
BRANCH   4   7
ATOM      7  C   UNL A   1      42.507  40.155  27.004  1.00  0.00     0.117 A 
ATOM      8  C   UNL A   1      42.927  38.815  26.868  1.00  0.00     0.045 A 
ATOM      9  C   UNL A   1      44.359  38.856  26.856  1.00  0.00     0.009 A 
ATOM     10  N   UNL A   1      43.575  40.879  26.405  1.00  0.00    -0.331 N 
ATOM     11  C   UNL A   1      44.703  40.074  26.300  1.00  0.00     0.049 A 
ATOM     12  C   UNL A   1      45.368  37.897  27.092  1.00  0.00     0.011 A 
ATOM     13  C   UNL A   1      45.988  40.283  25.766  1.00  0.00     0.027 A 
ATOM     14  C   UNL A   1      46.688  38.178  26.738  1.00  0.00     0.001 A 
ATOM     15  C   UNL A   1      46.983  39.339  26.037  1.00  0.00     0.002 A 
BRANCH   8  16
ATOM     16  C   UNL A   1      42.259  37.471  26.754  1.00  0.00     0.300 C 
BRANCH  16  17
ATOM     17  N   UNL A   1      42.985  36.402  26.096  1.00  0.00    -0.340 N 
ATOM     18  H   UNL A   1      42.649  36.394  25.133  1.00  0.00     0.346 HD
ATOM     19  H   UNL A   1      43.946  36.660  26.321  1.00  0.00     0.346 HD
BRANCH  17  20
ATOM     20  C   UNL A   1      42.974  35.004  26.525  1.00  0.00     0.182 C 
ATOM     21  C   UNL A   1      45.074  31.208  27.435  1.00  0.00     0.007 C 
ATOM     22  C   UNL A   1      44.720  32.658  27.140  1.00  0.00    -0.014 C 
ATOM     23  C   UNL A   1      43.744  33.222  28.177  1.00  0.00     0.009 C 
ATOM     24  C   UNL A   1      44.110  32.809  25.747  1.00  0.00     0.009 C 
ATOM     25  C   UNL A   1      43.520  34.707  27.922  1.00  0.00     0.065 C 
ATOM     26  C   UNL A   1      43.815  34.272  25.453  1.00  0.00     0.065 C 
ENDBRANCH  17  20
ENDBRANCH  16  17
ENDBRANCH   8  16
BRANCH  10  27
ATOM     27  C   UNL A   1      43.529  42.243  25.845  1.00  0.00     0.161 C 
BRANCH  27  28
ATOM     28  C   UNL A   1      43.233  42.315  24.364  1.00  0.00     0.008 A 
ATOM     29  C   UNL A   1      41.968  42.020  23.827  1.00  0.00     0.008 A 
ATOM     30  C   UNL A   1      44.209  42.759  23.468  1.00  0.00     0.128 A 
ATOM     31  C   UNL A   1      41.708  42.105  22.457  1.00  0.00     0.001 A 
ATOM     32  C   UNL A   1      43.965  42.835  22.095  1.00  0.00     0.039 A 
ATOM     33  F   UNL A   1      45.401  43.171  23.919  1.00  0.00    -0.207 F 
ATOM     34  C   UNL A   1      42.715  42.499  21.586  1.00  0.00     0.003 A 
ENDBRANCH  27  28
ENDBRANCH  10  27
ENDBRANCH   4   7
ENDBRANCH   2   3
ENDBRANCH   1   2
BRANCH   1  35
ATOM     35  C   UNL A   1      42.297  41.672  32.336  1.00  0.00     0.023 C 
BRANCH  35  36
ATOM     36  C   UNL A   1      43.154  40.520  32.886  1.00  0.00     0.116 C 
BRANCH  36  37
ATOM     37  N   UNL A   1      44.415  40.224  32.232  1.00  0.00    -0.352 N 
ATOM     38  C   UNL A   1      44.764  39.161  31.432  1.00  0.00     0.251 C 
ATOM     39  H   UNL A   1      45.128  40.886  32.382  1.00  0.00     0.163 HD
ATOM     40  O   UNL A   1      45.548  39.359  30.504  1.00  0.00    -0.269 OA
BRANCH  38  41
ATOM     41  C   UNL A   1      44.391  37.774  31.796  1.00  0.00     0.039 A 
ATOM     42  C   UNL A   1      43.805  36.876  30.910  1.00  0.00     0.014 A 
ATOM     43  C   UNL A   1      44.486  37.442  33.159  1.00  0.00     0.014 A 
ATOM     44  C   UNL A   1      43.114  35.787  31.398  1.00  0.00     0.010 A 
ATOM     45  C   UNL A   1      43.843  36.315  33.648  1.00  0.00     0.010 A 
ATOM     46  C   UNL A   1      43.089  35.543  32.771  1.00  0.00    -0.014 A 
BRANCH  46  47
ATOM     47  C   UNL A   1      42.337  34.377  33.203  1.00  0.00     0.031 A 
ATOM     48  C   UNL A   1      42.910  33.093  32.718  1.00  0.00     0.074 A 
ATOM     49  C   UNL A   1      41.262  34.458  34.008  1.00  0.00     0.049 A 
ATOM     50  N   UNL A   1      42.378  32.227  31.918  1.00  0.00    -0.248 NA
ATOM     51  C   UNL A   1      44.329  32.834  33.020  1.00  0.00     0.031 C 
ATOM     52  C   UNL A   1      40.761  35.627  34.734  1.00  0.00     0.029 A 
ATOM     53  N   UNL A   1      40.434  33.464  34.429  1.00  0.00    -0.354 N 
ATOM     54  C   UNL A   1      43.318  31.207  31.787  1.00  0.00     0.074 A 
ATOM     55  C   UNL A   1      44.548  31.716  32.330  1.00  0.00     0.031 C 
ATOM     56  C   UNL A   1      39.886  35.220  35.680  1.00  0.00     0.029 A 
ATOM     57  C   UNL A   1      39.672  33.790  35.543  1.00  0.00     0.049 A 
ATOM     58  H   UNL A   1      40.379  32.588  33.982  1.00  0.00     0.167 HD
ATOM     59  C   UNL A   1      42.952  29.940  31.450  1.00  0.00     0.037 A 
ATOM     60  C   UNL A   1      39.000  32.921  36.341  1.00  0.00     0.037 A 
ATOM     61  C   UNL A   1      41.664  29.923  30.809  1.00  0.00     0.049 A 
ATOM     62  C   UNL A   1      38.793  31.675  35.550  1.00  0.00     0.074 A 
ATOM     63  C   UNL A   1      41.156  30.476  29.649  1.00  0.00     0.029 A 
ATOM     64  N   UNL A   1      40.573  29.559  31.562  1.00  0.00    -0.354 N 
ATOM     65  N   UNL A   1      38.040  31.607  34.484  1.00  0.00    -0.248 NA
ATOM     66  C   UNL A   1      39.795  30.626  35.668  1.00  0.00     0.031 C 
ATOM     67  C   UNL A   1      39.821  30.851  29.973  1.00  0.00     0.029 A 
ATOM     68  C   UNL A   1      39.571  30.453  31.287  1.00  0.00     0.049 A 
ATOM     69  H   UNL A   1      40.521  28.797  32.184  1.00  0.00     0.167 HD
ATOM     70  C   UNL A   1      38.730  30.779  33.608  1.00  0.00     0.074 A 
ATOM     71  C   UNL A   1      39.764  30.144  34.422  1.00  0.00     0.031 C 
ATOM     72  C   UNL A   1      38.586  30.893  32.255  1.00  0.00     0.037 A 
BRANCH  59  73
ATOM     73  C   UNL A   1      43.595  28.698  32.027  1.00  0.00     0.058 A 
ATOM     74  C   UNL A   1      44.022  27.674  31.157  1.00  0.00     0.135 A 
ATOM     75  C   UNL A   1      43.548  28.350  33.396  1.00  0.00     0.135 A 
ATOM     76  F   UNL A   1      44.104  27.887  29.833  1.00  0.00    -0.206 F 
ATOM     77  C   UNL A   1      44.299  26.380  31.604  1.00  0.00     0.059 A 
ATOM     78  C   UNL A   1      43.871  27.084  33.867  1.00  0.00     0.059 A 
ATOM     79  F   UNL A   1      43.094  29.183  34.338  1.00  0.00    -0.206 F 
ATOM     80  C   UNL A   1      44.201  26.093  32.961  1.00  0.00     0.060 A 
BRANCH  80  81
ATOM     81  S   UNL A   1      44.441  24.402  33.530  1.00  0.00     0.124 S 
ATOM     82  O   UNL A   1      43.235  24.187  34.321  1.00  0.00    -0.237 OA
ATOM     83  O   UNL A   1      44.521  23.671  32.270  1.00  0.00    -0.237 OA
ATOM     84  O   UNL A   1      45.689  24.476  34.286  1.00  0.00    -0.744 OA
ENDBRANCH  80  81
ENDBRANCH  59  73
BRANCH  60  85
ATOM     85  C   UNL A   1      38.896  32.972  37.829  1.00  0.00     0.058 A 
ATOM     86  C   UNL A   1      40.031  33.141  38.644  1.00  0.00     0.135 A 
ATOM     87  C   UNL A   1      37.650  33.111  38.478  1.00  0.00     0.135 A 
ATOM     88  F   UNL A   1      41.260  33.061  38.111  1.00  0.00    -0.206 F 
ATOM     89  C   UNL A   1      39.935  33.455  40.007  1.00  0.00     0.059 A 
ATOM     90  C   UNL A   1      37.530  33.409  39.834  1.00  0.00     0.059 A 
ATOM     91  F   UNL A   1      36.498  33.050  37.795  1.00  0.00    -0.206 F 
ATOM     92  C   UNL A   1      38.677  33.602  40.590  1.00  0.00     0.060 A 
BRANCH  92  93
ATOM     93  S   UNL A   1      38.541  34.145  42.310  1.00  0.00     0.124 S 
ATOM     94  O   UNL A   1      38.072  32.934  42.975  1.00  0.00    -0.237 OA
ATOM     95  O   UNL A   1      39.909  34.552  42.613  1.00  0.00    -0.237 OA
ATOM     96  O   UNL A   1      37.569  35.235  42.247  1.00  0.00    -0.744 OA
ENDBRANCH  92  93
ENDBRANCH  60  85
BRANCH  72  97
ATOM     97  C   UNL A   1      37.464  31.741  31.709  1.00  0.00     0.058 A 
ATOM     98  C   UNL A   1      37.573  33.117  31.443  1.00  0.00     0.135 A 
ATOM     99  C   UNL A   1      36.317  31.085  31.231  1.00  0.00     0.135 A 
ATOM    100  F   UNL A   1      38.676  33.799  31.780  1.00  0.00    -0.206 F 
ATOM    101  C   UNL A   1      36.584  33.810  30.741  1.00  0.00     0.059 A 
ATOM    102  C   UNL A   1      35.335  31.748  30.503  1.00  0.00     0.059 A 
ATOM    103  F   UNL A   1      36.182  29.759  31.403  1.00  0.00    -0.206 F 
ATOM    104  C   UNL A   1      35.474  33.113  30.262  1.00  0.00     0.060 A 
BRANCH 104 105
ATOM    105  S   UNL A   1      34.264  33.983  29.240  1.00  0.00     0.124 S 
ATOM    106  O   UNL A   1      35.095  34.961  28.545  1.00  0.00    -0.237 OA
ATOM    107  O   UNL A   1      33.721  32.909  28.412  1.00  0.00    -0.237 OA
ATOM    108  O   UNL A   1      33.330  34.540  30.215  1.00  0.00    -0.744 OA
ENDBRANCH 104 105
ENDBRANCH  72  97
ENDBRANCH  46  47
ENDBRANCH  38  41
ENDBRANCH  36  37
ENDBRANCH  35  36
ENDBRANCH   1  35
TORSDOF 19
ENDMDL
