MODEL 1
REMARK VINA RESULT:     -12.5      0.000      0.000
REMARK SMILES CCc1nn(-c2cc(F)c(F)c(F)c2)c(Cl)c1C(=O)NCCCCNC(=O)c1ccc(-c2c3nc(c(-c4c(F)cc(S(=O)(=O)[O-])cc4F)c4ccc([nH]4)c(-c4c(F)cc(S(=O)(=O)[O-])cc4F)c4nc(c(-c5c(F)cc(S(=O)(=O)[O-])cc5F)c5ccc2[nH]5)C=C4)C=C3)cc1
REMARK SMILES IDX 23 1 22 2 21 3 20 4 18 5 19 6 17 8 3 9 4 10 5 11 15 12 16 13
REMARK SMILES IDX 2 14 1 15 6 16 7 17 14 18 8 19 12 20 9 21 10 22 13 23 11 24
REMARK SMILES IDX 24 25 25 26 26 27 27 29 28 30 29 31 93 32 30 33 92 34 31 35
REMARK SMILES IDX 32 36 33 37 86 38 34 39 91 40 85 41 87 42 35 43 90 44 84 45
REMARK SMILES IDX 83 46 36 48 70 49 49 50 69 51 50 52 53 53 68 54 88 55 51 56
REMARK SMILES IDX 52 57 67 59 89 60 54 61 37 62 38 63 47 64 39 65 40 66 46 67
REMARK SMILES IDX 48 68 41 69 42 70 43 71 44 72 45 73 71 74 72 75 81 76 73 77
REMARK SMILES IDX 74 78 80 79 82 80 75 81 76 82 77 83 78 84 79 85 55 86 56 87
REMARK SMILES IDX 65 88 57 89 58 90 64 91 66 92 59 93 60 94 61 95 62 96 63 97
REMARK H PARENT 20 7 25 28 87 47 53 58
REMARK Flexibility Score: inf
ROOT
ATOM      1  C   UNL A   1      33.268  28.396  25.923  1.00  0.00     0.023 C 
ENDROOT
BRANCH   1   2
ATOM      2  C   UNL A   1      32.179  27.895  26.877  1.00  0.00     0.023 C 
BRANCH   2   3
ATOM      3  C   UNL A   1      31.066  27.049  26.235  1.00  0.00     0.116 C 
BRANCH   3   4
ATOM      4  N   UNL A   1      31.063  25.718  26.796  1.00  0.00    -0.352 N 
ATOM      5  C   UNL A   1      31.783  24.572  26.616  1.00  0.00     0.256 C 
ATOM      6  O   UNL A   1      31.287  23.606  27.204  1.00  0.00    -0.269 OA
ATOM      7  H   UNL A   1      30.364  25.611  27.482  1.00  0.00     0.163 HD
BRANCH   5   8
ATOM      8  C   UNL A   1      33.024  24.414  25.847  1.00  0.00     0.100 A 
ATOM      9  C   UNL A   1      33.570  24.856  24.588  1.00  0.00     0.077 A 
ATOM     10  N   UNL A   1      34.844  24.455  24.409  1.00  0.00    -0.171 NA
ATOM     11  N   UNL A   1      35.088  23.615  25.436  1.00  0.00    -0.221 N 
ATOM     12  C   UNL A   1      34.061  23.634  26.340  1.00  0.00     0.145 A 
ATOM     13  Cl  UNL A   1      34.280  22.897  27.880  1.00  0.00    -0.061 Cl
BRANCH   9  14
ATOM     14  C   UNL A   1      32.978  25.693  23.501  1.00  0.00     0.056 C 
ATOM     15  C   UNL A   1      31.622  25.255  22.967  1.00  0.00     0.011 C 
ENDBRANCH   9  14
BRANCH  11  16
ATOM     16  C   UNL A   1      36.273  22.835  25.451  1.00  0.00     0.072 A 
ATOM     17  C   UNL A   1      36.248  21.506  25.001  1.00  0.00     0.071 A 
ATOM     18  C   UNL A   1      37.460  23.393  25.944  1.00  0.00     0.071 A 
ATOM     19  C   UNL A   1      37.402  20.733  25.088  1.00  0.00     0.164 A 
ATOM     20  C   UNL A   1      38.590  22.582  26.056  1.00  0.00     0.164 A 
ATOM     21  F   UNL A   1      37.378  19.471  24.639  1.00  0.00    -0.204 F 
ATOM     22  C   UNL A   1      38.566  21.259  25.633  1.00  0.00     0.194 A 
ATOM     23  F   UNL A   1      39.706  23.088  26.599  1.00  0.00    -0.204 F 
ATOM     24  F   UNL A   1      39.660  20.492  25.745  1.00  0.00    -0.200 F 
ENDBRANCH  11  16
ENDBRANCH   5   8
ENDBRANCH   3   4
ENDBRANCH   2   3
ENDBRANCH   1   2
BRANCH   1  25
ATOM     25  C   UNL A   1      34.456  29.046  26.622  1.00  0.00     0.116 C 
BRANCH  25  26
ATOM     26  N   UNL A   1      34.257  30.476  26.861  1.00  0.00    -0.352 N 
ATOM     27  C   UNL A   1      34.807  31.249  27.870  1.00  0.00     0.251 C 
ATOM     28  H   UNL A   1      33.663  30.943  26.231  1.00  0.00     0.163 HD
ATOM     29  O   UNL A   1      34.289  32.292  28.223  1.00  0.00    -0.269 OA
BRANCH  27  30
ATOM     30  C   UNL A   1      36.060  30.779  28.485  1.00  0.00     0.039 A 
ATOM     31  C   UNL A   1      36.277  29.426  28.763  1.00  0.00     0.014 A 
ATOM     32  C   UNL A   1      37.050  31.733  28.710  1.00  0.00     0.014 A 
ATOM     33  C   UNL A   1      37.541  29.026  29.191  1.00  0.00     0.010 A 
ATOM     34  C   UNL A   1      38.323  31.321  29.002  1.00  0.00     0.010 A 
ATOM     35  C   UNL A   1      38.567  29.977  29.287  1.00  0.00    -0.014 A 
BRANCH  35  36
ATOM     36  C   UNL A   1      39.958  29.573  29.504  1.00  0.00     0.031 A 
ATOM     37  C   UNL A   1      40.333  29.487  30.947  1.00  0.00     0.074 A 
ATOM     38  C   UNL A   1      40.697  29.042  28.500  1.00  0.00     0.049 A 
ATOM     39  N   UNL A   1      41.205  30.189  31.595  1.00  0.00    -0.248 NA
ATOM     40  C   UNL A   1      39.508  28.634  31.828  1.00  0.00     0.031 C 
ATOM     41  C   UNL A   1      40.254  28.796  27.118  1.00  0.00     0.029 A 
ATOM     42  N   UNL A   1      41.935  28.470  28.512  1.00  0.00    -0.354 N 
ATOM     43  C   UNL A   1      41.235  29.652  32.885  1.00  0.00     0.074 A 
ATOM     44  C   UNL A   1      40.020  28.905  33.031  1.00  0.00     0.031 C 
ATOM     45  C   UNL A   1      41.081  27.909  26.522  1.00  0.00     0.029 A 
ATOM     46  C   UNL A   1      42.206  27.665  27.402  1.00  0.00     0.049 A 
ATOM     47  H   UNL A   1      42.582  28.613  29.240  1.00  0.00     0.167 HD
ATOM     48  C   UNL A   1      42.410  29.577  33.576  1.00  0.00     0.037 A 
ATOM     49  C   UNL A   1      43.272  26.844  27.221  1.00  0.00     0.037 A 
ATOM     50  C   UNL A   1      43.403  30.411  32.946  1.00  0.00     0.049 A 
ATOM     51  C   UNL A   1      44.326  27.300  28.156  1.00  0.00     0.074 A 
ATOM     52  C   UNL A   1      43.628  31.760  32.788  1.00  0.00     0.029 A 
ATOM     53  N   UNL A   1      44.144  29.755  31.999  1.00  0.00    -0.354 N 
ATOM     54  N   UNL A   1      44.904  28.467  28.071  1.00  0.00    -0.248 NA
ATOM     55  C   UNL A   1      44.483  26.618  29.435  1.00  0.00     0.031 C 
ATOM     56  C   UNL A   1      44.356  31.893  31.568  1.00  0.00     0.029 A 
ATOM     57  C   UNL A   1      44.609  30.622  31.052  1.00  0.00     0.049 A 
ATOM     58  H   UNL A   1      44.319  28.785  32.001  1.00  0.00     0.167 HD
ATOM     59  C   UNL A   1      45.112  28.846  29.383  1.00  0.00     0.074 A 
ATOM     60  C   UNL A   1      44.997  27.616  30.158  1.00  0.00     0.031 C 
ATOM     61  C   UNL A   1      45.029  30.159  29.746  1.00  0.00     0.037 A 
BRANCH  48  62
ATOM     62  C   UNL A   1      42.847  28.396  34.443  1.00  0.00     0.058 A 
ATOM     63  C   UNL A   1      43.176  28.638  35.799  1.00  0.00     0.135 A 
ATOM     64  C   UNL A   1      43.264  27.140  33.947  1.00  0.00     0.135 A 
ATOM     65  F   UNL A   1      42.819  29.788  36.394  1.00  0.00    -0.206 F 
ATOM     66  C   UNL A   1      43.946  27.755  36.561  1.00  0.00     0.059 A 
ATOM     67  C   UNL A   1      43.994  26.226  34.704  1.00  0.00     0.059 A 
ATOM     68  F   UNL A   1      43.072  26.758  32.683  1.00  0.00    -0.206 F 
ATOM     69  C   UNL A   1      44.368  26.558  35.994  1.00  0.00     0.060 A 
BRANCH  69  70
ATOM     70  S   UNL A   1      45.441  25.455  36.929  1.00  0.00     0.124 S 
ATOM     71  O   UNL A   1      44.547  25.011  37.992  1.00  0.00    -0.237 OA
ATOM     72  O   UNL A   1      45.793  24.454  35.926  1.00  0.00    -0.237 OA
ATOM     73  O   UNL A   1      46.536  26.327  37.345  1.00  0.00    -0.744 OA
ENDBRANCH  69  70
ENDBRANCH  48  62
BRANCH  49  74
ATOM     74  C   UNL A   1      43.352  25.543  26.500  1.00  0.00     0.058 A 
ATOM     75  C   UNL A   1      44.213  25.366  25.400  1.00  0.00     0.135 A 
ATOM     76  C   UNL A   1      42.812  24.369  27.058  1.00  0.00     0.135 A 
ATOM     77  F   UNL A   1      44.781  26.430  24.811  1.00  0.00    -0.206 F 
ATOM     78  C   UNL A   1      44.565  24.098  24.920  1.00  0.00     0.059 A 
ATOM     79  C   UNL A   1      43.144  23.094  26.594  1.00  0.00     0.059 A 
ATOM     80  F   UNL A   1      42.014  24.423  28.135  1.00  0.00    -0.206 F 
ATOM     81  C   UNL A   1      44.044  22.964  25.542  1.00  0.00     0.060 A 
BRANCH  81  82
ATOM     82  S   UNL A   1      44.638  21.325  25.052  1.00  0.00     0.124 S 
ATOM     83  O   UNL A   1      43.670  20.447  25.702  1.00  0.00    -0.237 OA
ATOM     84  O   UNL A   1      44.563  21.390  23.597  1.00  0.00    -0.237 OA
ATOM     85  O   UNL A   1      45.990  21.278  25.604  1.00  0.00    -0.744 OA
ENDBRANCH  81  82
ENDBRANCH  49  74
BRANCH  61  86
ATOM     86  C   UNL A   1      45.254  31.195  28.683  1.00  0.00     0.058 A 
ATOM     87  C   UNL A   1      44.267  31.711  27.827  1.00  0.00     0.135 A 
ATOM     88  C   UNL A   1      46.534  31.761  28.609  1.00  0.00     0.135 A 
ATOM     89  F   UNL A   1      43.000  31.279  27.892  1.00  0.00    -0.206 F 
ATOM     90  C   UNL A   1      44.554  32.728  26.913  1.00  0.00     0.059 A 
ATOM     91  C   UNL A   1      46.834  32.795  27.731  1.00  0.00     0.059 A 
ATOM     92  F   UNL A   1      47.504  31.341  29.438  1.00  0.00    -0.206 F 
ATOM     93  C   UNL A   1      45.842  33.265  26.875  1.00  0.00     0.060 A 
BRANCH  93  94
ATOM     94  S   UNL A   1      46.202  34.623  25.742  1.00  0.00     0.124 S 
ATOM     95  O   UNL A   1      45.920  35.793  26.565  1.00  0.00    -0.237 OA
ATOM     96  O   UNL A   1      47.608  34.397  25.416  1.00  0.00    -0.237 OA
ATOM     97  O   UNL A   1      45.273  34.399  24.636  1.00  0.00    -0.744 OA
ENDBRANCH  93  94
ENDBRANCH  61  86
ENDBRANCH  35  36
ENDBRANCH  27  30
ENDBRANCH  25  26
ENDBRANCH   1  25
TORSDOF 16
ENDMDL
MODEL 2
REMARK VINA RESULT:     -12.5      3.306      9.471
REMARK SMILES CCc1nn(-c2cc(F)c(F)c(F)c2)c(Cl)c1C(=O)NCCCCNC(=O)c1ccc(-c2c3nc(c(-c4c(F)cc(S(=O)(=O)[O-])cc4F)c4ccc([nH]4)c(-c4c(F)cc(S(=O)(=O)[O-])cc4F)c4nc(c(-c5c(F)cc(S(=O)(=O)[O-])cc5F)c5ccc2[nH]5)C=C4)C=C3)cc1
REMARK SMILES IDX 23 1 22 2 21 3 20 4 18 5 19 6 17 8 3 9 4 10 5 11 15 12 16 13
REMARK SMILES IDX 2 14 1 15 6 16 7 17 14 18 8 19 12 20 9 21 10 22 13 23 11 24
REMARK SMILES IDX 24 25 25 26 26 27 27 29 28 30 29 31 93 32 30 33 92 34 31 35
REMARK SMILES IDX 32 36 33 37 86 38 34 39 91 40 85 41 87 42 35 43 90 44 84 45
REMARK SMILES IDX 83 46 36 48 70 49 49 50 69 51 50 52 53 53 68 54 88 55 51 56
REMARK SMILES IDX 52 57 67 59 89 60 54 61 37 62 38 63 47 64 39 65 40 66 46 67
REMARK SMILES IDX 48 68 41 69 42 70 43 71 44 72 45 73 71 74 72 75 81 76 73 77
REMARK SMILES IDX 74 78 80 79 82 80 75 81 76 82 77 83 78 84 79 85 55 86 56 87
REMARK SMILES IDX 65 88 57 89 58 90 64 91 66 92 59 93 60 94 61 95 62 96 63 97
REMARK H PARENT 20 7 25 28 87 47 53 58
REMARK Flexibility Score: inf
ROOT
ATOM      1  C   UNL A   1      36.550  22.694  24.225  1.00  0.00     0.023 C 
ENDROOT
BRANCH   1   2
ATOM      2  C   UNL A   1      35.436  23.647  23.784  1.00  0.00     0.023 C 
BRANCH   2   3
ATOM      3  C   UNL A   1      34.205  22.986  23.140  1.00  0.00     0.116 C 
BRANCH   3   4
ATOM      4  N   UNL A   1      33.382  23.981  22.494  1.00  0.00    -0.352 N 
ATOM      5  C   UNL A   1      32.655  25.066  22.891  1.00  0.00     0.256 C 
ATOM      6  O   UNL A   1      31.948  25.518  21.984  1.00  0.00    -0.269 OA
ATOM      7  H   UNL A   1      33.334  23.841  21.520  1.00  0.00     0.163 HD
BRANCH   5   8
ATOM      8  C   UNL A   1      32.660  25.703  24.214  1.00  0.00     0.100 A 
ATOM      9  C   UNL A   1      32.267  25.380  25.562  1.00  0.00     0.077 A 
ATOM     10  N   UNL A   1      32.585  26.353  26.440  1.00  0.00    -0.171 NA
ATOM     11  N   UNL A   1      33.014  27.378  25.676  1.00  0.00    -0.221 N 
ATOM     12  C   UNL A   1      33.143  26.996  24.369  1.00  0.00     0.145 A 
ATOM     13  Cl  UNL A   1      33.973  28.025  23.268  1.00  0.00    -0.061 Cl
BRANCH   9  14
ATOM     14  C   UNL A   1      31.617  24.160  26.129  1.00  0.00     0.056 C 
ATOM     15  C   UNL A   1      30.975  23.205  25.134  1.00  0.00     0.011 C 
ENDBRANCH   9  14
BRANCH  11  16
ATOM     16  C   UNL A   1      33.235  28.653  26.257  1.00  0.00     0.072 A 
ATOM     17  C   UNL A   1      34.426  28.916  26.951  1.00  0.00     0.071 A 
ATOM     18  C   UNL A   1      32.244  29.638  26.155  1.00  0.00     0.071 A 
ATOM     19  C   UNL A   1      34.597  30.148  27.574  1.00  0.00     0.164 A 
ATOM     20  C   UNL A   1      32.426  30.849  26.824  1.00  0.00     0.164 A 
ATOM     21  F   UNL A   1      35.745  30.400  28.218  1.00  0.00    -0.204 F 
ATOM     22  C   UNL A   1      33.595  31.107  27.532  1.00  0.00     0.194 A 
ATOM     23  F   UNL A   1      31.449  31.766  26.796  1.00  0.00    -0.204 F 
ATOM     24  F   UNL A   1      33.757  32.276  28.168  1.00  0.00    -0.200 F 
ENDBRANCH  11  16
ENDBRANCH   5   8
ENDBRANCH   3   4
ENDBRANCH   2   3
ENDBRANCH   1   2
BRANCH   1  25
ATOM     25  C   UNL A   1      37.536  23.304  25.213  1.00  0.00     0.116 C 
BRANCH  25  26
ATOM     26  N   UNL A   1      38.167  22.302  26.073  1.00  0.00    -0.352 N 
ATOM     27  C   UNL A   1      39.347  22.424  26.788  1.00  0.00     0.251 C 
ATOM     28  H   UNL A   1      37.697  21.441  26.153  1.00  0.00     0.163 HD
ATOM     29  O   UNL A   1      39.982  21.445  27.134  1.00  0.00    -0.269 OA
BRANCH  27  30
ATOM     30  C   UNL A   1      39.796  23.782  27.140  1.00  0.00     0.039 A 
ATOM     31  C   UNL A   1      38.963  24.892  26.980  1.00  0.00     0.014 A 
ATOM     32  C   UNL A   1      41.062  23.900  27.709  1.00  0.00     0.014 A 
ATOM     33  C   UNL A   1      39.384  26.122  27.483  1.00  0.00     0.010 A 
ATOM     34  C   UNL A   1      41.415  25.075  28.318  1.00  0.00     0.010 A 
ATOM     35  C   UNL A   1      40.604  26.201  28.171  1.00  0.00    -0.014 A 
BRANCH  35  36
ATOM     36  C   UNL A   1      40.977  27.406  28.915  1.00  0.00     0.031 A 
ATOM     37  C   UNL A   1      42.133  28.139  28.316  1.00  0.00     0.074 A 
ATOM     38  C   UNL A   1      40.153  27.936  29.850  1.00  0.00     0.049 A 
ATOM     39  N   UNL A   1      43.303  28.349  28.824  1.00  0.00    -0.248 NA
ATOM     40  C   UNL A   1      42.041  28.537  26.896  1.00  0.00     0.031 C 
ATOM     41  C   UNL A   1      38.830  27.425  30.246  1.00  0.00     0.029 A 
ATOM     42  N   UNL A   1      40.227  29.109  30.542  1.00  0.00    -0.354 N 
ATOM     43  C   UNL A   1      43.974  29.158  27.903  1.00  0.00     0.074 A 
ATOM     44  C   UNL A   1      43.265  29.016  26.664  1.00  0.00     0.031 C 
ATOM     45  C   UNL A   1      38.134  28.394  30.880  1.00  0.00     0.029 A 
ATOM     46  C   UNL A   1      39.015  29.524  31.100  1.00  0.00     0.049 A 
ATOM     47  H   UNL A   1      41.063  29.619  30.640  1.00  0.00     0.167 HD
ATOM     48  C   UNL A   1      44.825  30.135  28.329  1.00  0.00     0.037 A 
ATOM     49  C   UNL A   1      38.746  30.717  31.690  1.00  0.00     0.037 A 
ATOM     50  C   UNL A   1      45.149  29.930  29.719  1.00  0.00     0.049 A 
ATOM     51  C   UNL A   1      40.048  31.306  32.076  1.00  0.00     0.074 A 
ATOM     52  C   UNL A   1      45.880  29.026  30.457  1.00  0.00     0.029 A 
ATOM     53  N   UNL A   1      44.296  30.570  30.578  1.00  0.00    -0.354 N 
ATOM     54  N   UNL A   1      40.841  30.772  32.964  1.00  0.00    -0.248 NA
ATOM     55  C   UNL A   1      40.666  32.294  31.201  1.00  0.00     0.031 C 
ATOM     56  C   UNL A   1      45.272  28.995  31.747  1.00  0.00     0.029 A 
ATOM     57  C   UNL A   1      44.232  29.924  31.780  1.00  0.00     0.049 A 
ATOM     58  H   UNL A   1      43.794  31.389  30.358  1.00  0.00     0.167 HD
ATOM     59  C   UNL A   1      42.113  31.021  32.486  1.00  0.00     0.074 A 
ATOM     60  C   UNL A   1      41.951  32.094  31.510  1.00  0.00     0.031 C 
ATOM     61  C   UNL A   1      43.116  30.118  32.682  1.00  0.00     0.037 A 
BRANCH  48  62
ATOM     62  C   UNL A   1      44.937  31.533  27.720  1.00  0.00     0.058 A 
ATOM     63  C   UNL A   1      46.152  31.905  27.097  1.00  0.00     0.135 A 
ATOM     64  C   UNL A   1      44.061  32.607  27.998  1.00  0.00     0.135 A 
ATOM     65  F   UNL A   1      47.062  30.974  26.765  1.00  0.00    -0.206 F 
ATOM     66  C   UNL A   1      46.510  33.236  26.868  1.00  0.00     0.059 A 
ATOM     67  C   UNL A   1      44.380  33.938  27.737  1.00  0.00     0.059 A 
ATOM     68  F   UNL A   1      42.888  32.447  28.615  1.00  0.00    -0.206 F 
ATOM     69  C   UNL A   1      45.622  34.248  27.214  1.00  0.00     0.060 A 
BRANCH  69  70
ATOM     70  S   UNL A   1      46.109  35.971  27.016  1.00  0.00     0.124 S 
ATOM     71  O   UNL A   1      44.812  36.633  26.945  1.00  0.00    -0.237 OA
ATOM     72  O   UNL A   1      46.885  36.206  28.229  1.00  0.00    -0.237 OA
ATOM     73  O   UNL A   1      46.882  35.959  25.777  1.00  0.00    -0.744 OA
ENDBRANCH  69  70
ENDBRANCH  48  62
BRANCH  49  74
ATOM     74  C   UNL A   1      37.479  31.500  31.705  1.00  0.00     0.058 A 
ATOM     75  C   UNL A   1      36.763  31.715  32.898  1.00  0.00     0.135 A 
ATOM     76  C   UNL A   1      37.106  32.301  30.608  1.00  0.00     0.135 A 
ATOM     77  F   UNL A   1      37.057  31.004  33.997  1.00  0.00    -0.206 F 
ATOM     78  C   UNL A   1      35.779  32.706  33.014  1.00  0.00     0.059 A 
ATOM     79  C   UNL A   1      36.126  33.291  30.697  1.00  0.00     0.059 A 
ATOM     80  F   UNL A   1      37.754  32.205  29.436  1.00  0.00    -0.206 F 
ATOM     81  C   UNL A   1      35.485  33.508  31.912  1.00  0.00     0.060 A 
BRANCH  81  82
ATOM     82  S   UNL A   1      34.354  34.909  32.104  1.00  0.00     0.124 S 
ATOM     83  O   UNL A   1      33.246  34.303  32.836  1.00  0.00    -0.237 OA
ATOM     84  O   UNL A   1      35.166  35.862  32.852  1.00  0.00    -0.237 OA
ATOM     85  O   UNL A   1      34.056  35.293  30.727  1.00  0.00    -0.744 OA
ENDBRANCH  81  82
ENDBRANCH  49  74
BRANCH  61  86
ATOM     86  C   UNL A   1      42.986  29.167  33.836  1.00  0.00     0.058 A 
ATOM     87  C   UNL A   1      43.228  29.482  35.184  1.00  0.00     0.135 A 
ATOM     88  C   UNL A   1      42.485  27.889  33.552  1.00  0.00     0.135 A 
ATOM     89  F   UNL A   1      43.630  30.709  35.545  1.00  0.00    -0.206 F 
ATOM     90  C   UNL A   1      43.011  28.551  36.201  1.00  0.00     0.059 A 
ATOM     91  C   UNL A   1      42.232  26.957  34.551  1.00  0.00     0.059 A 
ATOM     92  F   UNL A   1      42.188  27.549  32.287  1.00  0.00    -0.206 F 
ATOM     93  C   UNL A   1      42.509  27.290  35.873  1.00  0.00     0.060 A 
BRANCH  93  94
ATOM     94  S   UNL A   1      42.166  26.103  37.189  1.00  0.00     0.124 S 
ATOM     95  O   UNL A   1      40.749  26.334  37.449  1.00  0.00    -0.237 OA
ATOM     96  O   UNL A   1      42.498  24.828  36.560  1.00  0.00    -0.237 OA
ATOM     97  O   UNL A   1      43.071  26.512  38.262  1.00  0.00    -0.744 OA
ENDBRANCH  93  94
ENDBRANCH  61  86
ENDBRANCH  35  36
ENDBRANCH  27  30
ENDBRANCH  25  26
ENDBRANCH   1  25
TORSDOF 16
ENDMDL
MODEL 3
REMARK VINA RESULT:     -12.4      3.816      9.614
REMARK SMILES CCc1nn(-c2cc(F)c(F)c(F)c2)c(Cl)c1C(=O)NCCCCNC(=O)c1ccc(-c2c3nc(c(-c4c(F)cc(S(=O)(=O)[O-])cc4F)c4ccc([nH]4)c(-c4c(F)cc(S(=O)(=O)[O-])cc4F)c4nc(c(-c5c(F)cc(S(=O)(=O)[O-])cc5F)c5ccc2[nH]5)C=C4)C=C3)cc1
REMARK SMILES IDX 23 1 22 2 21 3 20 4 18 5 19 6 17 8 3 9 4 10 5 11 15 12 16 13
REMARK SMILES IDX 2 14 1 15 6 16 7 17 14 18 8 19 12 20 9 21 10 22 13 23 11 24
REMARK SMILES IDX 24 25 25 26 26 27 27 29 28 30 29 31 93 32 30 33 92 34 31 35
REMARK SMILES IDX 32 36 33 37 86 38 34 39 91 40 85 41 87 42 35 43 90 44 84 45
REMARK SMILES IDX 83 46 36 48 70 49 49 50 69 51 50 52 53 53 68 54 88 55 51 56
REMARK SMILES IDX 52 57 67 59 89 60 54 61 37 62 38 63 47 64 39 65 40 66 46 67
REMARK SMILES IDX 48 68 41 69 42 70 43 71 44 72 45 73 71 74 72 75 81 76 73 77
REMARK SMILES IDX 74 78 80 79 82 80 75 81 76 82 77 83 78 84 79 85 55 86 56 87
REMARK SMILES IDX 65 88 57 89 58 90 64 91 66 92 59 93 60 94 61 95 62 96 63 97
REMARK H PARENT 20 7 25 28 87 47 53 58
REMARK Flexibility Score: inf
ROOT
ATOM      1  C   UNL A   1      36.604  22.616  24.350  1.00  0.00     0.023 C 
ENDROOT
BRANCH   1   2
ATOM      2  C   UNL A   1      35.339  23.479  24.314  1.00  0.00     0.023 C 
BRANCH   2   3
ATOM      3  C   UNL A   1      35.117  24.393  25.532  1.00  0.00     0.116 C 
BRANCH   3   4
ATOM      4  N   UNL A   1      34.020  23.904  26.332  1.00  0.00    -0.352 N 
ATOM      5  C   UNL A   1      32.657  23.939  26.261  1.00  0.00     0.256 C 
ATOM      6  O   UNL A   1      32.119  23.534  27.297  1.00  0.00    -0.269 OA
ATOM      7  H   UNL A   1      34.335  23.422  27.132  1.00  0.00     0.163 HD
BRANCH   5   8
ATOM      8  C   UNL A   1      31.838  24.374  25.123  1.00  0.00     0.100 A 
ATOM      9  C   UNL A   1      31.500  23.906  23.802  1.00  0.00     0.077 A 
ATOM     10  N   UNL A   1      30.601  24.700  23.187  1.00  0.00    -0.171 NA
ATOM     11  N   UNL A   1      30.476  25.771  23.998  1.00  0.00    -0.221 N 
ATOM     12  C   UNL A   1      31.132  25.569  25.181  1.00  0.00     0.145 A 
ATOM     13  Cl  UNL A   1      30.854  26.647  26.494  1.00  0.00    -0.061 Cl
BRANCH   9  14
ATOM     14  C   UNL A   1      31.945  22.696  23.046  1.00  0.00     0.056 C 
ATOM     15  C   UNL A   1      32.199  21.438  23.863  1.00  0.00     0.011 C 
ENDBRANCH   9  14
BRANCH  11  16
ATOM     16  C   UNL A   1      29.764  26.916  23.559  1.00  0.00     0.072 A 
ATOM     17  C   UNL A   1      28.394  27.043  23.832  1.00  0.00     0.071 A 
ATOM     18  C   UNL A   1      30.434  27.906  22.827  1.00  0.00     0.071 A 
ATOM     19  C   UNL A   1      27.695  28.138  23.334  1.00  0.00     0.164 A 
ATOM     20  C   UNL A   1      29.700  28.972  22.306  1.00  0.00     0.164 A 
ATOM     21  F   UNL A   1      26.392  28.264  23.615  1.00  0.00    -0.204 F 
ATOM     22  C   UNL A   1      28.337  29.091  22.555  1.00  0.00     0.194 A 
ATOM     23  F   UNL A   1      30.319  29.881  21.541  1.00  0.00    -0.204 F 
ATOM     24  F   UNL A   1      27.645  30.123  22.051  1.00  0.00    -0.200 F 
ENDBRANCH  11  16
ENDBRANCH   5   8
ENDBRANCH   3   4
ENDBRANCH   2   3
ENDBRANCH   1   2
BRANCH   1  25
ATOM     25  C   UNL A   1      37.731  23.199  25.195  1.00  0.00     0.116 C 
BRANCH  25  26
ATOM     26  N   UNL A   1      38.327  22.214  26.097  1.00  0.00    -0.352 N 
ATOM     27  C   UNL A   1      39.467  22.358  26.871  1.00  0.00     0.251 C 
ATOM     28  H   UNL A   1      37.864  21.347  26.162  1.00  0.00     0.163 HD
ATOM     29  O   UNL A   1      40.094  21.390  27.261  1.00  0.00    -0.269 OA
BRANCH  27  30
ATOM     30  C   UNL A   1      39.880  23.724  27.232  1.00  0.00     0.039 A 
ATOM     31  C   UNL A   1      38.994  24.802  27.152  1.00  0.00     0.014 A 
ATOM     32  C   UNL A   1      41.173  23.883  27.727  1.00  0.00     0.014 A 
ATOM     33  C   UNL A   1      39.393  26.036  27.661  1.00  0.00     0.010 A 
ATOM     34  C   UNL A   1      41.513  25.058  28.345  1.00  0.00     0.010 A 
ATOM     35  C   UNL A   1      40.649  26.151  28.277  1.00  0.00    -0.014 A 
BRANCH  35  36
ATOM     36  C   UNL A   1      41.017  27.353  29.029  1.00  0.00     0.031 A 
ATOM     37  C   UNL A   1      42.177  28.088  28.441  1.00  0.00     0.074 A 
ATOM     38  C   UNL A   1      40.185  27.878  29.961  1.00  0.00     0.049 A 
ATOM     39  N   UNL A   1      43.343  28.296  28.959  1.00  0.00    -0.248 NA
ATOM     40  C   UNL A   1      42.094  28.492  27.023  1.00  0.00     0.031 C 
ATOM     41  C   UNL A   1      38.860  27.366  30.345  1.00  0.00     0.029 A 
ATOM     42  N   UNL A   1      40.254  29.048  30.658  1.00  0.00    -0.354 N 
ATOM     43  C   UNL A   1      44.020  29.108  28.046  1.00  0.00     0.074 A 
ATOM     44  C   UNL A   1      43.320  28.972  26.802  1.00  0.00     0.031 C 
ATOM     45  C   UNL A   1      38.160  28.331  30.978  1.00  0.00     0.029 A 
ATOM     46  C   UNL A   1      39.039  29.461  31.209  1.00  0.00     0.049 A 
ATOM     47  H   UNL A   1      41.090  29.557  30.764  1.00  0.00     0.167 HD
ATOM     48  C   UNL A   1      44.868  30.084  28.483  1.00  0.00     0.037 A 
ATOM     49  C   UNL A   1      38.765  30.651  31.802  1.00  0.00     0.037 A 
ATOM     50  C   UNL A   1      45.183  29.872  29.873  1.00  0.00     0.049 A 
ATOM     51  C   UNL A   1      40.065  31.238  32.201  1.00  0.00     0.074 A 
ATOM     52  C   UNL A   1      45.908  28.966  30.613  1.00  0.00     0.029 A 
ATOM     53  N   UNL A   1      44.323  30.509  30.729  1.00  0.00    -0.354 N 
ATOM     54  N   UNL A   1      40.852  30.700  33.092  1.00  0.00    -0.248 NA
ATOM     55  C   UNL A   1      40.689  32.230  31.334  1.00  0.00     0.031 C 
ATOM     56  C   UNL A   1      45.291  28.929  31.899  1.00  0.00     0.029 A 
ATOM     57  C   UNL A   1      44.251  29.857  31.928  1.00  0.00     0.049 A 
ATOM     58  H   UNL A   1      43.823  31.329  30.510  1.00  0.00     0.167 HD
ATOM     59  C   UNL A   1      42.127  30.952  32.624  1.00  0.00     0.074 A 
ATOM     60  C   UNL A   1      41.971  32.028  31.652  1.00  0.00     0.031 C 
ATOM     61  C   UNL A   1      43.129  30.047  32.823  1.00  0.00     0.037 A 
BRANCH  48  62
ATOM     62  C   UNL A   1      44.984  31.484  27.881  1.00  0.00     0.058 A 
ATOM     63  C   UNL A   1      46.231  31.890  27.346  1.00  0.00     0.135 A 
ATOM     64  C   UNL A   1      44.061  32.533  28.092  1.00  0.00     0.135 A 
ATOM     65  F   UNL A   1      47.188  30.986  27.082  1.00  0.00    -0.206 F 
ATOM     66  C   UNL A   1      46.566  33.232  27.142  1.00  0.00     0.059 A 
ATOM     67  C   UNL A   1      44.360  33.873  27.853  1.00  0.00     0.059 A 
ATOM     68  F   UNL A   1      42.851  32.340  28.624  1.00  0.00    -0.206 F 
ATOM     69  C   UNL A   1      45.628  34.218  27.420  1.00  0.00     0.060 A 
BRANCH  69  70
ATOM     70  S   UNL A   1      46.078  35.954  27.255  1.00  0.00     0.124 S 
ATOM     71  O   UNL A   1      44.944  36.611  27.893  1.00  0.00    -0.237 OA
ATOM     72  O   UNL A   1      47.344  36.007  27.980  1.00  0.00    -0.237 OA
ATOM     73  O   UNL A   1      46.183  36.135  25.809  1.00  0.00    -0.744 OA
ENDBRANCH  69  70
ENDBRANCH  48  62
BRANCH  49  74
ATOM     74  C   UNL A   1      37.499  31.434  31.812  1.00  0.00     0.058 A 
ATOM     75  C   UNL A   1      36.852  31.769  33.017  1.00  0.00     0.135 A 
ATOM     76  C   UNL A   1      37.060  32.120  30.663  1.00  0.00     0.135 A 
ATOM     77  F   UNL A   1      37.213  31.172  34.163  1.00  0.00    -0.206 F 
ATOM     78  C   UNL A   1      35.873  32.769  33.090  1.00  0.00     0.059 A 
ATOM     79  C   UNL A   1      36.082  33.116  30.709  1.00  0.00     0.059 A 
ATOM     80  F   UNL A   1      37.638  31.905  29.472  1.00  0.00    -0.206 F 
ATOM     81  C   UNL A   1      35.512  33.456  31.931  1.00  0.00     0.060 A 
BRANCH  81  82
ATOM     82  S   UNL A   1      34.389  34.871  32.047  1.00  0.00     0.124 S 
ATOM     83  O   UNL A   1      35.166  35.808  32.852  1.00  0.00    -0.237 OA
ATOM     84  O   UNL A   1      34.203  35.235  30.647  1.00  0.00    -0.237 OA
ATOM     85  O   UNL A   1      33.210  34.313  32.705  1.00  0.00    -0.744 OA
ENDBRANCH  81  82
ENDBRANCH  49  74
BRANCH  61  86
ATOM     86  C   UNL A   1      42.990  29.091  33.972  1.00  0.00     0.058 A 
ATOM     87  C   UNL A   1      43.212  29.403  35.324  1.00  0.00     0.135 A 
ATOM     88  C   UNL A   1      42.503  27.810  33.677  1.00  0.00     0.135 A 
ATOM     89  F   UNL A   1      43.600  30.632  35.694  1.00  0.00    -0.206 F 
ATOM     90  C   UNL A   1      42.988  28.466  36.335  1.00  0.00     0.059 A 
ATOM     91  C   UNL A   1      42.244  26.873  34.668  1.00  0.00     0.059 A 
ATOM     92  F   UNL A   1      42.226  27.472  32.407  1.00  0.00    -0.206 F 
ATOM     93  C   UNL A   1      42.501  27.203  35.996  1.00  0.00     0.060 A 
BRANCH  93  94
ATOM     94  S   UNL A   1      42.149  26.009  37.303  1.00  0.00     0.124 S 
ATOM     95  O   UNL A   1      40.737  26.255  37.572  1.00  0.00    -0.237 OA
ATOM     96  O   UNL A   1      42.462  24.735  36.660  1.00  0.00    -0.237 OA
ATOM     97  O   UNL A   1      43.065  26.397  38.374  1.00  0.00    -0.744 OA
ENDBRANCH  93  94
ENDBRANCH  61  86
ENDBRANCH  35  36
ENDBRANCH  27  30
ENDBRANCH  25  26
ENDBRANCH   1  25
TORSDOF 16
ENDMDL
