MODEL 1
REMARK VINA RESULT:     -12.1      0.000      0.000
REMARK SMILES O=C(NCCCCNC(=O)c1ccc([S@@](=O)[C@H]2CCOC3(CCCC3)C2)cc1)c1ccc(-c2c3nc(c(-c4c(F)cc(S(=O)(=O)[O-])cc4F)c4ccc([nH]4)c(-c4c(F)cc(S(=O)(=O)[O-])cc4F)c4nc(c(-c5c(F)cc(S(=O)(=O)[O-])cc5F)c5ccc2[nH]5)C=C4)C=C3)cc1
REMARK SMILES IDX 5 1 4 2 3 3 1 4 2 5 29 7 30 8 94 9 31 10 93 11 32 12 33 13
REMARK SMILES IDX 34 14 87 15 35 16 92 17 86 18 88 19 36 20 91 21 85 22 84 23
REMARK SMILES IDX 37 25 71 26 50 27 70 28 51 29 54 30 69 31 89 32 52 33 53 34
REMARK SMILES IDX 68 36 90 37 55 38 38 39 39 40 48 41 40 42 41 43 47 44 49 45
REMARK SMILES IDX 42 46 43 47 44 48 45 49 46 50 72 51 73 52 82 53 74 54 75 55
REMARK SMILES IDX 81 56 83 57 76 58 77 59 78 60 79 61 80 62 56 63 57 64 66 65
REMARK SMILES IDX 58 66 59 67 65 68 67 69 60 70 61 71 62 72 63 73 64 74 6 75
REMARK SMILES IDX 7 76 8 77 9 78 10 80 11 81 12 82 28 83 13 84 27 85 14 86
REMARK SMILES IDX 15 87 16 88 17 89 18 90 26 91 19 92 21 93 20 94 22 95 25 96
REMARK SMILES IDX 23 97 24 98
REMARK H PARENT 3 6 88 24 54 35 8 79
REMARK Flexibility Score: inf
ROOT
ATOM      1  C   UNL A   1      33.425  28.004  25.423  1.00  0.00     0.023 C 
ENDROOT
BRANCH   1   2
ATOM      2  C   UNL A   1      33.865  28.230  26.864  1.00  0.00     0.116 C 
BRANCH   2   3
ATOM      3  N   UNL A   1      33.651  29.598  27.309  1.00  0.00    -0.352 N 
ATOM      4  O   UNL A   1      34.050  31.497  28.447  1.00  0.00    -0.269 OA
ATOM      5  C   UNL A   1      34.481  30.425  28.025  1.00  0.00     0.251 C 
ATOM      6  H   UNL A   1      32.783  29.989  27.059  1.00  0.00     0.163 HD
BRANCH   5   7
ATOM      7  C   UNL A   1      35.874  30.020  28.309  1.00  0.00     0.039 A 
ATOM      8  C   UNL A   1      36.246  29.558  29.575  1.00  0.00     0.014 A 
ATOM      9  C   UNL A   1      36.819  30.087  27.282  1.00  0.00     0.014 A 
ATOM     10  C   UNL A   1      37.584  29.285  29.848  1.00  0.00     0.010 A 
ATOM     11  C   UNL A   1      38.149  29.745  27.539  1.00  0.00     0.010 A 
ATOM     12  C   UNL A   1      38.546  29.368  28.832  1.00  0.00    -0.014 A 
BRANCH  12  13
ATOM     13  C   UNL A   1      39.961  29.012  29.106  1.00  0.00     0.031 A 
ATOM     14  C   UNL A   1      40.923  30.037  29.635  1.00  0.00     0.074 A 
ATOM     15  C   UNL A   1      40.385  27.763  28.833  1.00  0.00     0.049 A 
ATOM     16  N   UNL A   1      42.210  29.932  29.841  1.00  0.00    -0.248 NA
ATOM     17  C   UNL A   1      40.366  31.357  29.966  1.00  0.00     0.031 C 
ATOM     18  C   UNL A   1      39.544  26.686  28.310  1.00  0.00     0.029 A 
ATOM     19  N   UNL A   1      41.629  27.195  28.939  1.00  0.00    -0.354 N 
ATOM     20  C   UNL A   1      42.627  31.177  30.299  1.00  0.00     0.074 A 
ATOM     21  C   UNL A   1      41.454  32.027  30.323  1.00  0.00     0.031 C 
ATOM     22  C   UNL A   1      40.294  25.588  28.137  1.00  0.00     0.029 A 
ATOM     23  C   UNL A   1      41.678  25.900  28.482  1.00  0.00     0.049 A 
ATOM     24  H   UNL A   1      42.410  27.668  29.307  1.00  0.00     0.167 HD
ATOM     25  C   UNL A   1      43.871  31.571  30.664  1.00  0.00     0.037 A 
ATOM     26  C   UNL A   1      42.722  25.065  28.317  1.00  0.00     0.037 A 
ATOM     27  C   UNL A   1      45.027  30.712  30.640  1.00  0.00     0.049 A 
ATOM     28  C   UNL A   1      44.096  25.525  28.705  1.00  0.00     0.074 A 
ATOM     29  C   UNL A   1      46.322  31.000  31.033  1.00  0.00     0.029 A 
ATOM     30  N   UNL A   1      45.031  29.400  30.184  1.00  0.00    -0.354 N 
ATOM     31  N   UNL A   1      44.467  26.691  29.177  1.00  0.00    -0.248 NA
ATOM     32  C   UNL A   1      45.193  24.562  28.542  1.00  0.00     0.031 C 
ATOM     33  C   UNL A   1      47.118  29.881  30.770  1.00  0.00     0.029 A 
ATOM     34  C   UNL A   1      46.311  28.875  30.262  1.00  0.00     0.049 A 
ATOM     35  H   UNL A   1      44.241  28.915  29.854  1.00  0.00     0.167 HD
ATOM     36  C   UNL A   1      45.837  26.598  29.389  1.00  0.00     0.074 A 
ATOM     37  C   UNL A   1      46.229  25.260  28.994  1.00  0.00     0.031 C 
ATOM     38  C   UNL A   1      46.687  27.536  29.874  1.00  0.00     0.037 A 
BRANCH  25  39
ATOM     39  C   UNL A   1      44.048  33.005  31.084  1.00  0.00     0.058 A 
ATOM     40  C   UNL A   1      44.348  34.018  30.159  1.00  0.00     0.135 A 
ATOM     41  C   UNL A   1      43.918  33.370  32.434  1.00  0.00     0.135 A 
ATOM     42  F   UNL A   1      44.493  33.725  28.857  1.00  0.00    -0.206 F 
ATOM     43  C   UNL A   1      44.563  35.333  30.564  1.00  0.00     0.059 A 
ATOM     44  C   UNL A   1      44.101  34.684  32.857  1.00  0.00     0.059 A 
ATOM     45  F   UNL A   1      43.625  32.444  33.360  1.00  0.00    -0.206 F 
ATOM     46  C   UNL A   1      44.448  35.653  31.918  1.00  0.00     0.060 A 
BRANCH  46  47
ATOM     47  S   UNL A   1      44.782  37.350  32.438  1.00  0.00     0.124 S 
ATOM     48  O   UNL A   1      44.793  38.047  31.155  1.00  0.00    -0.237 OA
ATOM     49  O   UNL A   1      43.647  37.643  33.307  1.00  0.00    -0.237 OA
ATOM     50  O   UNL A   1      46.074  37.252  33.110  1.00  0.00    -0.744 OA
ENDBRANCH  46  47
ENDBRANCH  25  39
BRANCH  26  51
ATOM     51  C   UNL A   1      42.477  23.717  27.744  1.00  0.00     0.058 A 
ATOM     52  C   UNL A   1      42.477  23.509  26.359  1.00  0.00     0.135 A 
ATOM     53  C   UNL A   1      42.341  22.595  28.578  1.00  0.00     0.135 A 
ATOM     54  F   UNL A   1      42.599  24.551  25.524  1.00  0.00    -0.206 F 
ATOM     55  C   UNL A   1      42.367  22.232  25.818  1.00  0.00     0.059 A 
ATOM     56  C   UNL A   1      42.252  21.307  28.062  1.00  0.00     0.059 A 
ATOM     57  F   UNL A   1      42.355  22.744  29.912  1.00  0.00    -0.206 F 
ATOM     58  C   UNL A   1      42.269  21.136  26.679  1.00  0.00     0.060 A 
BRANCH  58  59
ATOM     59  S   UNL A   1      42.241  19.475  25.968  1.00  0.00     0.124 S 
ATOM     60  O   UNL A   1      40.822  19.309  25.669  1.00  0.00    -0.237 OA
ATOM     61  O   UNL A   1      43.124  19.621  24.815  1.00  0.00    -0.237 OA
ATOM     62  O   UNL A   1      42.762  18.640  27.044  1.00  0.00    -0.744 OA
ENDBRANCH  58  59
ENDBRANCH  26  51
BRANCH  38  63
ATOM     63  C   UNL A   1      48.129  27.151  30.043  1.00  0.00     0.058 A 
ATOM     64  C   UNL A   1      49.062  27.311  29.009  1.00  0.00     0.135 A 
ATOM     65  C   UNL A   1      48.599  26.713  31.292  1.00  0.00     0.135 A 
ATOM     66  F   UNL A   1      48.662  27.716  27.794  1.00  0.00    -0.206 F 
ATOM     67  C   UNL A   1      50.416  27.055  29.209  1.00  0.00     0.059 A 
ATOM     68  C   UNL A   1      49.949  26.472  31.520  1.00  0.00     0.059 A 
ATOM     69  F   UNL A   1      47.745  26.547  32.315  1.00  0.00    -0.206 F 
ATOM     70  C   UNL A   1      50.851  26.646  30.472  1.00  0.00     0.060 A 
BRANCH  70  71
ATOM     71  S   UNL A   1      52.620  26.399  30.741  1.00  0.00     0.124 S 
ATOM     72  O   UNL A   1      53.113  26.280  29.374  1.00  0.00    -0.237 OA
ATOM     73  O   UNL A   1      53.000  27.617  31.449  1.00  0.00    -0.237 OA
ATOM     74  O   UNL A   1      52.673  25.177  31.538  1.00  0.00    -0.744 OA
ENDBRANCH  70  71
ENDBRANCH  38  63
ENDBRANCH  12  13
ENDBRANCH   5   7
ENDBRANCH   2   3
ENDBRANCH   1   2
BRANCH   1  75
ATOM     75  C   UNL A   1      32.847  29.229  24.714  1.00  0.00     0.023 C 
BRANCH  75  76
ATOM     76  C   UNL A   1      31.350  29.459  24.901  1.00  0.00     0.116 C 
BRANCH  76  77
ATOM     77  N   UNL A   1      30.638  29.642  23.648  1.00  0.00    -0.352 N 
ATOM     78  C   UNL A   1      30.338  28.735  22.664  1.00  0.00     0.251 C 
ATOM     79  H   UNL A   1      30.320  30.558  23.479  1.00  0.00     0.163 HD
ATOM     80  O   UNL A   1      29.813  29.119  21.620  1.00  0.00    -0.269 OA
BRANCH  78  81
ATOM     81  C   UNL A   1      30.676  27.302  22.822  1.00  0.00     0.039 A 
ATOM     82  C   UNL A   1      31.726  26.785  22.059  1.00  0.00     0.015 A 
ATOM     83  C   UNL A   1      29.950  26.453  23.663  1.00  0.00     0.015 A 
ATOM     84  C   UNL A   1      32.095  25.445  22.196  1.00  0.00     0.018 A 
ATOM     85  C   UNL A   1      30.358  25.128  23.840  1.00  0.00     0.018 A 
ATOM     86  C   UNL A   1      31.457  24.626  23.133  1.00  0.00     0.039 A 
BRANCH  86  87
ATOM     87  S   UNL A   1      31.936  22.910  23.375  1.00  0.00     0.056 S 
ATOM     88  O   UNL A   1      32.701  22.525  22.143  1.00  0.00    -0.254 OA
BRANCH  87  89
ATOM     89  C   UNL A   1      33.140  23.011  24.746  1.00  0.00     0.089 C 
ATOM     90  C   UNL A   1      32.582  22.611  26.105  1.00  0.00     0.046 C 
ATOM     91  C   UNL A   1      34.443  22.263  24.478  1.00  0.00     0.053 C 
ATOM     92  C   UNL A   1      33.621  22.877  27.181  1.00  0.00     0.162 C 
ATOM     93  C   UNL A   1      35.448  22.518  25.619  1.00  0.00     0.069 C 
ATOM     94  O   UNL A   1      34.849  22.213  26.890  1.00  0.00    -0.375 OA
ATOM     95  C   UNL A   1      36.689  21.600  25.495  1.00  0.00     0.035 C 
ATOM     96  C   UNL A   1      36.027  23.948  25.613  1.00  0.00     0.035 C 
ATOM     97  C   UNL A   1      37.910  22.518  25.491  1.00  0.00     0.003 C 
ATOM     98  C   UNL A   1      37.432  23.785  26.172  1.00  0.00     0.003 C 
ENDBRANCH  87  89
ENDBRANCH  86  87
ENDBRANCH  78  81
ENDBRANCH  76  77
ENDBRANCH  75  76
ENDBRANCH   1  75
TORSDOF 16
ENDMDL
MODEL 2
REMARK VINA RESULT:     -12.0      5.066     10.633
REMARK SMILES O=C(NCCCCNC(=O)c1ccc([S@@](=O)[C@H]2CCOC3(CCCC3)C2)cc1)c1ccc(-c2c3nc(c(-c4c(F)cc(S(=O)(=O)[O-])cc4F)c4ccc([nH]4)c(-c4c(F)cc(S(=O)(=O)[O-])cc4F)c4nc(c(-c5c(F)cc(S(=O)(=O)[O-])cc5F)c5ccc2[nH]5)C=C4)C=C3)cc1
REMARK SMILES IDX 5 1 4 2 3 3 1 4 2 5 29 7 30 8 94 9 31 10 93 11 32 12 33 13
REMARK SMILES IDX 34 14 87 15 35 16 92 17 86 18 88 19 36 20 91 21 85 22 84 23
REMARK SMILES IDX 37 25 71 26 50 27 70 28 51 29 54 30 69 31 89 32 52 33 53 34
REMARK SMILES IDX 68 36 90 37 55 38 38 39 39 40 48 41 40 42 41 43 47 44 49 45
REMARK SMILES IDX 42 46 43 47 44 48 45 49 46 50 72 51 73 52 82 53 74 54 75 55
REMARK SMILES IDX 81 56 83 57 76 58 77 59 78 60 79 61 80 62 56 63 57 64 66 65
REMARK SMILES IDX 58 66 59 67 65 68 67 69 60 70 61 71 62 72 63 73 64 74 6 75
REMARK SMILES IDX 7 76 8 77 9 78 10 80 11 81 12 82 28 83 13 84 27 85 14 86
REMARK SMILES IDX 15 87 16 88 17 89 18 90 26 91 19 92 21 93 20 94 22 95 25 96
REMARK SMILES IDX 23 97 24 98
REMARK H PARENT 3 6 88 24 54 35 8 79
REMARK Flexibility Score: inf
ROOT
ATOM      1  C   UNL A   1      37.029  23.885  25.308  1.00  0.00     0.023 C 
ENDROOT
BRANCH   1   2
ATOM      2  C   UNL A   1      37.975  24.236  26.450  1.00  0.00     0.116 C 
BRANCH   2   3
ATOM      3  N   UNL A   1      39.362  23.918  26.147  1.00  0.00    -0.352 N 
ATOM      4  O   UNL A   1      41.588  24.226  26.050  1.00  0.00    -0.269 OA
ATOM      5  C   UNL A   1      40.512  24.551  26.550  1.00  0.00     0.251 C 
ATOM      6  H   UNL A   1      39.495  23.134  25.568  1.00  0.00     0.163 HD
BRANCH   5   7
ATOM      7  C   UNL A   1      40.456  25.632  27.557  1.00  0.00     0.039 A 
ATOM      8  C   UNL A   1      41.304  26.740  27.471  1.00  0.00     0.014 A 
ATOM      9  C   UNL A   1      39.524  25.540  28.593  1.00  0.00     0.014 A 
ATOM     10  C   UNL A   1      41.307  27.692  28.489  1.00  0.00     0.010 A 
ATOM     11  C   UNL A   1      39.481  26.533  29.576  1.00  0.00     0.010 A 
ATOM     12  C   UNL A   1      40.391  27.601  29.546  1.00  0.00    -0.014 A 
BRANCH  12  13
ATOM     13  C   UNL A   1      40.348  28.651  30.595  1.00  0.00     0.031 A 
ATOM     14  C   UNL A   1      41.225  28.557  31.811  1.00  0.00     0.074 A 
ATOM     15  C   UNL A   1      39.480  29.671  30.464  1.00  0.00     0.049 A 
ATOM     16  N   UNL A   1      41.253  29.326  32.869  1.00  0.00    -0.248 NA
ATOM     17  C   UNL A   1      42.190  27.448  31.847  1.00  0.00     0.031 C 
ATOM     18  C   UNL A   1      38.574  29.863  29.330  1.00  0.00     0.029 A 
ATOM     19  N   UNL A   1      39.202  30.726  31.295  1.00  0.00    -0.354 N 
ATOM     20  C   UNL A   1      42.216  28.781  33.712  1.00  0.00     0.074 A 
ATOM     21  C   UNL A   1      42.736  27.604  33.046  1.00  0.00     0.031 C 
ATOM     22  C   UNL A   1      37.839  30.965  29.537  1.00  0.00     0.029 A 
ATOM     23  C   UNL A   1      38.180  31.524  30.842  1.00  0.00     0.049 A 
ATOM     24  H   UNL A   1      39.689  30.896  32.135  1.00  0.00     0.167 HD
ATOM     25  C   UNL A   1      42.625  29.223  34.925  1.00  0.00     0.037 A 
ATOM     26  C   UNL A   1      37.554  32.566  31.423  1.00  0.00     0.037 A 
ATOM     27  C   UNL A   1      42.102  30.399  35.572  1.00  0.00     0.049 A 
ATOM     28  C   UNL A   1      38.005  33.028  32.777  1.00  0.00     0.074 A 
ATOM     29  C   UNL A   1      42.481  30.958  36.781  1.00  0.00     0.029 A 
ATOM     30  N   UNL A   1      41.076  31.190  35.072  1.00  0.00    -0.354 N 
ATOM     31  N   UNL A   1      38.945  32.529  33.542  1.00  0.00    -0.248 NA
ATOM     32  C   UNL A   1      37.316  34.192  33.349  1.00  0.00     0.031 C 
ATOM     33  C   UNL A   1      41.653  32.057  37.033  1.00  0.00     0.029 A 
ATOM     34  C   UNL A   1      40.792  32.216  35.959  1.00  0.00     0.049 A 
ATOM     35  H   UNL A   1      40.618  31.043  34.213  1.00  0.00     0.167 HD
ATOM     36  C   UNL A   1      38.978  33.329  34.678  1.00  0.00     0.074 A 
ATOM     37  C   UNL A   1      37.962  34.346  34.498  1.00  0.00     0.031 C 
ATOM     38  C   UNL A   1      39.783  33.230  35.764  1.00  0.00     0.037 A 
BRANCH  25  39
ATOM     39  C   UNL A   1      43.663  28.407  35.646  1.00  0.00     0.058 A 
ATOM     40  C   UNL A   1      43.314  27.395  36.555  1.00  0.00     0.135 A 
ATOM     41  C   UNL A   1      45.030  28.643  35.426  1.00  0.00     0.135 A 
ATOM     42  F   UNL A   1      42.023  27.132  36.812  1.00  0.00    -0.206 F 
ATOM     43  C   UNL A   1      44.282  26.681  37.257  1.00  0.00     0.059 A 
ATOM     44  C   UNL A   1      46.015  27.922  36.095  1.00  0.00     0.059 A 
ATOM     45  F   UNL A   1      45.422  29.593  34.562  1.00  0.00    -0.206 F 
ATOM     46  C   UNL A   1      45.630  26.961  37.028  1.00  0.00     0.060 A 
BRANCH  46  47
ATOM     47  S   UNL A   1      46.874  26.066  37.983  1.00  0.00     0.124 S 
ATOM     48  O   UNL A   1      47.388  27.123  38.849  1.00  0.00    -0.237 OA
ATOM     49  O   UNL A   1      46.083  25.035  38.645  1.00  0.00    -0.237 OA
ATOM     50  O   UNL A   1      47.802  25.583  36.965  1.00  0.00    -0.744 OA
ENDBRANCH  46  47
ENDBRANCH  25  39
BRANCH  26  51
ATOM     51  C   UNL A   1      36.428  33.215  30.705  1.00  0.00     0.058 A 
ATOM     52  C   UNL A   1      35.103  33.032  31.120  1.00  0.00     0.135 A 
ATOM     53  C   UNL A   1      36.669  34.114  29.653  1.00  0.00     0.135 A 
ATOM     54  F   UNL A   1      34.824  32.181  32.119  1.00  0.00    -0.206 F 
ATOM     55  C   UNL A   1      34.055  33.730  30.529  1.00  0.00     0.059 A 
ATOM     56  C   UNL A   1      35.642  34.839  29.061  1.00  0.00     0.059 A 
ATOM     57  F   UNL A   1      37.925  34.335  29.233  1.00  0.00    -0.206 F 
ATOM     58  C   UNL A   1      34.337  34.641  29.509  1.00  0.00     0.060 A 
BRANCH  58  59
ATOM     59  S   UNL A   1      32.983  35.624  28.827  1.00  0.00     0.124 S 
ATOM     60  O   UNL A   1      32.318  34.649  27.967  1.00  0.00    -0.237 OA
ATOM     61  O   UNL A   1      32.254  36.017  30.029  1.00  0.00    -0.237 OA
ATOM     62  O   UNL A   1      33.670  36.710  28.136  1.00  0.00    -0.744 OA
ENDBRANCH  58  59
ENDBRANCH  26  51
BRANCH  38  63
ATOM     63  C   UNL A   1      39.633  34.266  36.841  1.00  0.00     0.058 A 
ATOM     64  C   UNL A   1      38.927  34.004  38.024  1.00  0.00     0.135 A 
ATOM     65  C   UNL A   1      40.294  35.501  36.728  1.00  0.00     0.135 A 
ATOM     66  F   UNL A   1      38.270  32.845  38.176  1.00  0.00    -0.206 F 
ATOM     67  C   UNL A   1      38.886  34.930  39.062  1.00  0.00     0.059 A 
ATOM     68  C   UNL A   1      40.284  36.431  37.761  1.00  0.00     0.059 A 
ATOM     69  F   UNL A   1      40.986  35.797  35.616  1.00  0.00    -0.206 F 
ATOM     70  C   UNL A   1      39.577  36.137  38.925  1.00  0.00     0.060 A 
BRANCH  70  71
ATOM     71  S   UNL A   1      39.585  37.293  40.313  1.00  0.00     0.124 S 
ATOM     72  O   UNL A   1      38.348  38.031  40.090  1.00  0.00    -0.237 OA
ATOM     73  O   UNL A   1      39.591  36.397  41.465  1.00  0.00    -0.237 OA
ATOM     74  O   UNL A   1      40.815  38.053  40.112  1.00  0.00    -0.744 OA
ENDBRANCH  70  71
ENDBRANCH  38  63
ENDBRANCH  12  13
ENDBRANCH   5   7
ENDBRANCH   2   3
ENDBRANCH   1   2
BRANCH   1  75
ATOM     75  C   UNL A   1      37.114  22.445  24.804  1.00  0.00     0.023 C 
BRANCH  75  76
ATOM     76  C   UNL A   1      36.733  21.365  25.814  1.00  0.00     0.116 C 
BRANCH  76  77
ATOM     77  N   UNL A   1      35.893  20.323  25.249  1.00  0.00    -0.352 N 
ATOM     78  C   UNL A   1      34.560  20.345  24.925  1.00  0.00     0.251 C 
ATOM     79  H   UNL A   1      36.350  19.470  25.070  1.00  0.00     0.163 HD
ATOM     80  O   UNL A   1      34.007  19.312  24.551  1.00  0.00    -0.269 OA
BRANCH  78  81
ATOM     81  C   UNL A   1      33.765  21.587  25.057  1.00  0.00     0.039 A 
ATOM     82  C   UNL A   1      33.452  22.296  23.895  1.00  0.00     0.015 A 
ATOM     83  C   UNL A   1      33.369  22.091  26.300  1.00  0.00     0.015 A 
ATOM     84  C   UNL A   1      32.683  23.458  23.970  1.00  0.00     0.018 A 
ATOM     85  C   UNL A   1      32.551  23.222  26.368  1.00  0.00     0.018 A 
ATOM     86  C   UNL A   1      32.173  23.892  25.198  1.00  0.00     0.039 A 
BRANCH  86  87
ATOM     87  S   UNL A   1      31.137  25.355  25.333  1.00  0.00     0.056 S 
ATOM     88  O   UNL A   1      30.609  25.349  26.738  1.00  0.00    -0.254 OA
BRANCH  87  89
ATOM     89  C   UNL A   1      32.343  26.723  25.219  1.00  0.00     0.089 C 
ATOM     90  C   UNL A   1      32.762  27.075  23.797  1.00  0.00     0.046 C 
ATOM     91  C   UNL A   1      31.917  27.985  25.963  1.00  0.00     0.053 C 
ATOM     92  C   UNL A   1      33.870  28.113  23.836  1.00  0.00     0.162 C 
ATOM     93  C   UNL A   1      33.049  29.030  25.931  1.00  0.00     0.069 C 
ATOM     94  O   UNL A   1      33.475  29.265  24.578  1.00  0.00    -0.375 OA
ATOM     95  C   UNL A   1      32.571  30.399  26.477  1.00  0.00     0.035 C 
ATOM     96  C   UNL A   1      34.248  28.658  26.828  1.00  0.00     0.035 C 
ATOM     97  C   UNL A   1      33.537  30.780  27.598  1.00  0.00     0.003 C 
ATOM     98  C   UNL A   1      34.798  29.997  27.294  1.00  0.00     0.003 C 
ENDBRANCH  87  89
ENDBRANCH  86  87
ENDBRANCH  78  81
ENDBRANCH  76  77
ENDBRANCH  75  76
ENDBRANCH   1  75
TORSDOF 16
ENDMDL
MODEL 3
REMARK VINA RESULT:     -11.9      3.320      9.434
REMARK SMILES O=C(NCCCCNC(=O)c1ccc([S@@](=O)[C@H]2CCOC3(CCCC3)C2)cc1)c1ccc(-c2c3nc(c(-c4c(F)cc(S(=O)(=O)[O-])cc4F)c4ccc([nH]4)c(-c4c(F)cc(S(=O)(=O)[O-])cc4F)c4nc(c(-c5c(F)cc(S(=O)(=O)[O-])cc5F)c5ccc2[nH]5)C=C4)C=C3)cc1
REMARK SMILES IDX 5 1 4 2 3 3 1 4 2 5 29 7 30 8 94 9 31 10 93 11 32 12 33 13
REMARK SMILES IDX 34 14 87 15 35 16 92 17 86 18 88 19 36 20 91 21 85 22 84 23
REMARK SMILES IDX 37 25 71 26 50 27 70 28 51 29 54 30 69 31 89 32 52 33 53 34
REMARK SMILES IDX 68 36 90 37 55 38 38 39 39 40 48 41 40 42 41 43 47 44 49 45
REMARK SMILES IDX 42 46 43 47 44 48 45 49 46 50 72 51 73 52 82 53 74 54 75 55
REMARK SMILES IDX 81 56 83 57 76 58 77 59 78 60 79 61 80 62 56 63 57 64 66 65
REMARK SMILES IDX 58 66 59 67 65 68 67 69 60 70 61 71 62 72 63 73 64 74 6 75
REMARK SMILES IDX 7 76 8 77 9 78 10 80 11 81 12 82 28 83 13 84 27 85 14 86
REMARK SMILES IDX 15 87 16 88 17 89 18 90 26 91 19 92 21 93 20 94 22 95 25 96
REMARK SMILES IDX 23 97 24 98
REMARK H PARENT 3 6 88 24 54 35 8 79
REMARK Flexibility Score: inf
ROOT
ATOM      1  C   UNL A   1      35.451  23.406  25.973  1.00  0.00     0.023 C 
ENDROOT
BRANCH   1   2
ATOM      2  C   UNL A   1      36.763  23.900  25.375  1.00  0.00     0.116 C 
BRANCH   2   3
ATOM      3  N   UNL A   1      37.828  22.914  25.467  1.00  0.00    -0.352 N 
ATOM      4  O   UNL A   1      39.903  22.128  25.839  1.00  0.00    -0.269 OA
ATOM      5  C   UNL A   1      39.085  23.032  26.007  1.00  0.00     0.251 C 
ATOM      6  H   UNL A   1      37.616  22.032  25.086  1.00  0.00     0.163 HD
BRANCH   5   7
ATOM      7  C   UNL A   1      39.462  24.245  26.762  1.00  0.00     0.039 A 
ATOM      8  C   UNL A   1      40.283  25.222  26.192  1.00  0.00     0.014 A 
ATOM      9  C   UNL A   1      38.967  24.413  28.058  1.00  0.00     0.014 A 
ATOM     10  C   UNL A   1      40.711  26.303  26.960  1.00  0.00     0.010 A 
ATOM     11  C   UNL A   1      39.342  25.535  28.803  1.00  0.00     0.010 A 
ATOM     12  C   UNL A   1      40.239  26.473  28.269  1.00  0.00    -0.014 A 
BRANCH  12  13
ATOM     13  C   UNL A   1      40.642  27.661  29.064  1.00  0.00     0.031 A 
ATOM     14  C   UNL A   1      41.925  27.662  29.845  1.00  0.00     0.074 A 
ATOM     15  C   UNL A   1      39.820  28.725  29.110  1.00  0.00     0.049 A 
ATOM     16  N   UNL A   1      42.389  28.567  30.668  1.00  0.00    -0.248 NA
ATOM     17  C   UNL A   1      42.795  26.487  29.690  1.00  0.00     0.031 C 
ATOM     18  C   UNL A   1      38.546  28.835  28.399  1.00  0.00     0.029 A 
ATOM     19  N   UNL A   1      39.921  29.908  29.798  1.00  0.00    -0.354 N 
ATOM     20  C   UNL A   1      43.591  28.063  31.152  1.00  0.00     0.074 A 
ATOM     21  C   UNL A   1      43.775  26.762  30.542  1.00  0.00     0.031 C 
ATOM     22  C   UNL A   1      37.981  30.017  28.688  1.00  0.00     0.029 A 
ATOM     23  C   UNL A   1      38.825  30.722  29.648  1.00  0.00     0.049 A 
ATOM     24  H   UNL A   1      40.704  30.151  30.344  1.00  0.00     0.167 HD
ATOM     25  C   UNL A   1      44.457  28.634  32.023  1.00  0.00     0.037 A 
ATOM     26  C   UNL A   1      38.507  31.887  30.245  1.00  0.00     0.037 A 
ATOM     27  C   UNL A   1      44.264  29.932  32.618  1.00  0.00     0.049 A 
ATOM     28  C   UNL A   1      39.468  32.494  31.224  1.00  0.00     0.074 A 
ATOM     29  C   UNL A   1      45.104  30.620  33.476  1.00  0.00     0.029 A 
ATOM     30  N   UNL A   1      43.145  30.733  32.428  1.00  0.00    -0.354 N 
ATOM     31  N   UNL A   1      40.620  32.027  31.639  1.00  0.00    -0.248 NA
ATOM     32  C   UNL A   1      39.091  33.785  31.816  1.00  0.00     0.031 C 
ATOM     33  C   UNL A   1      44.472  31.813  33.843  1.00  0.00     0.029 A 
ATOM     34  C   UNL A   1      43.262  31.895  33.173  1.00  0.00     0.049 A 
ATOM     35  H   UNL A   1      42.382  30.507  31.849  1.00  0.00     0.167 HD
ATOM     36  C   UNL A   1      41.119  32.973  32.525  1.00  0.00     0.074 A 
ATOM     37  C   UNL A   1      40.143  34.042  32.585  1.00  0.00     0.031 C 
ATOM     38  C   UNL A   1      42.285  32.957  33.217  1.00  0.00     0.037 A 
BRANCH  25  39
ATOM     39  C   UNL A   1      45.674  27.839  32.413  1.00  0.00     0.058 A 
ATOM     40  C   UNL A   1      45.673  26.971  33.518  1.00  0.00     0.135 A 
ATOM     41  C   UNL A   1      46.861  27.947  31.669  1.00  0.00     0.135 A 
ATOM     42  F   UNL A   1      44.569  26.835  34.270  1.00  0.00    -0.206 F 
ATOM     43  C   UNL A   1      46.818  26.280  33.901  1.00  0.00     0.059 A 
ATOM     44  C   UNL A   1      48.010  27.243  32.018  1.00  0.00     0.059 A 
ATOM     45  F   UNL A   1      46.916  28.755  30.599  1.00  0.00    -0.206 F 
ATOM     46  C   UNL A   1      47.986  26.433  33.151  1.00  0.00     0.060 A 
BRANCH  46  47
ATOM     47  S   UNL A   1      49.480  25.573  33.690  1.00  0.00     0.124 S 
ATOM     48  O   UNL A   1      49.931  24.968  32.439  1.00  0.00    -0.237 OA
ATOM     49  O   UNL A   1      50.305  26.662  34.200  1.00  0.00    -0.237 OA
ATOM     50  O   UNL A   1      48.989  24.637  34.697  1.00  0.00    -0.744 OA
ENDBRANCH  46  47
ENDBRANCH  25  39
BRANCH  26  51
ATOM     51  C   UNL A   1      37.207  32.527  29.919  1.00  0.00     0.058 A 
ATOM     52  C   UNL A   1      36.044  32.204  30.629  1.00  0.00     0.135 A 
ATOM     53  C   UNL A   1      37.129  33.549  28.960  1.00  0.00     0.135 A 
ATOM     54  F   UNL A   1      36.069  31.231  31.552  1.00  0.00    -0.206 F 
ATOM     55  C   UNL A   1      34.849  32.883  30.411  1.00  0.00     0.059 A 
ATOM     56  C   UNL A   1      35.953  34.258  28.740  1.00  0.00     0.059 A 
ATOM     57  F   UNL A   1      38.223  33.907  28.268  1.00  0.00    -0.206 F 
ATOM     58  C   UNL A   1      34.818  33.918  29.474  1.00  0.00     0.060 A 
BRANCH  58  59
ATOM     59  S   UNL A   1      33.292  34.866  29.281  1.00  0.00     0.124 S 
ATOM     60  O   UNL A   1      32.756  34.837  30.638  1.00  0.00    -0.237 OA
ATOM     61  O   UNL A   1      33.792  36.158  28.820  1.00  0.00    -0.237 OA
ATOM     62  O   UNL A   1      32.544  34.102  28.289  1.00  0.00    -0.744 OA
ENDBRANCH  58  59
ENDBRANCH  26  51
BRANCH  38  63
ATOM     63  C   UNL A   1      42.600  34.145  34.081  1.00  0.00     0.058 A 
ATOM     64  C   UNL A   1      42.252  34.183  35.439  1.00  0.00     0.135 A 
ATOM     65  C   UNL A   1      43.352  35.213  33.564  1.00  0.00     0.135 A 
ATOM     66  F   UNL A   1      41.525  33.192  35.978  1.00  0.00    -0.206 F 
ATOM     67  C   UNL A   1      42.644  35.238  36.258  1.00  0.00     0.059 A 
ATOM     68  C   UNL A   1      43.772  36.266  34.368  1.00  0.00     0.059 A 
ATOM     69  F   UNL A   1      43.713  35.221  32.271  1.00  0.00    -0.206 F 
ATOM     70  C   UNL A   1      43.413  36.270  35.715  1.00  0.00     0.060 A 
BRANCH  70  71
ATOM     71  S   UNL A   1      43.986  37.590  36.807  1.00  0.00     0.124 S 
ATOM     72  O   UNL A   1      45.264  37.059  37.267  1.00  0.00    -0.237 OA
ATOM     73  O   UNL A   1      44.064  38.732  35.901  1.00  0.00    -0.237 OA
ATOM     74  O   UNL A   1      42.938  37.672  37.819  1.00  0.00    -0.744 OA
ENDBRANCH  70  71
ENDBRANCH  38  63
ENDBRANCH  12  13
ENDBRANCH   5   7
ENDBRANCH   2   3
ENDBRANCH   1   2
BRANCH   1  75
ATOM     75  C   UNL A   1      35.366  21.899  26.216  1.00  0.00     0.023 C 
BRANCH  75  76
ATOM     76  C   UNL A   1      35.200  21.034  24.969  1.00  0.00     0.116 C 
BRANCH  76  77
ATOM     77  N   UNL A   1      34.161  20.029  25.104  1.00  0.00    -0.352 N 
ATOM     78  C   UNL A   1      32.796  20.162  25.068  1.00  0.00     0.251 C 
ATOM     79  H   UNL A   1      34.485  19.110  25.242  1.00  0.00     0.163 HD
ATOM     80  O   UNL A   1      32.082  19.191  25.311  1.00  0.00    -0.269 OA
BRANCH  78  81
ATOM     81  C   UNL A   1      32.167  21.471  24.781  1.00  0.00     0.039 A 
ATOM     82  C   UNL A   1      31.607  22.181  25.846  1.00  0.00     0.015 A 
ATOM     83  C   UNL A   1      32.073  21.985  23.484  1.00  0.00     0.015 A 
ATOM     84  C   UNL A   1      31.026  23.431  25.625  1.00  0.00     0.018 A 
ATOM     85  C   UNL A   1      31.543  23.262  23.274  1.00  0.00     0.018 A 
ATOM     86  C   UNL A   1      31.049  24.008  24.351  1.00  0.00     0.039 A 
BRANCH  86  87
ATOM     87  S   UNL A   1      30.357  25.637  24.033  1.00  0.00     0.056 S 
ATOM     88  O   UNL A   1      29.445  25.922  25.191  1.00  0.00    -0.254 OA
BRANCH  87  89
ATOM     89  C   UNL A   1      31.806  26.737  24.208  1.00  0.00     0.089 C 
ATOM     90  C   UNL A   1      32.400  27.209  22.887  1.00  0.00     0.046 C 
ATOM     91  C   UNL A   1      31.566  27.931  25.126  1.00  0.00     0.053 C 
ATOM     92  C   UNL A   1      33.677  27.987  23.153  1.00  0.00     0.162 C 
ATOM     93  C   UNL A   1      32.874  28.721  25.326  1.00  0.00     0.069 C 
ATOM     94  O   UNL A   1      33.447  29.069  24.053  1.00  0.00    -0.375 OA
ATOM     95  C   UNL A   1      32.620  30.060  26.063  1.00  0.00     0.035 C 
ATOM     96  C   UNL A   1      33.903  27.986  26.210  1.00  0.00     0.035 C 
ATOM     97  C   UNL A   1      33.544  30.066  27.280  1.00  0.00     0.003 C 
ATOM     98  C   UNL A   1      34.655  29.102  26.917  1.00  0.00     0.003 C 
ENDBRANCH  87  89
ENDBRANCH  86  87
ENDBRANCH  78  81
ENDBRANCH  76  77
ENDBRANCH  75  76
ENDBRANCH   1  75
TORSDOF 16
ENDMDL
