MODEL 1
REMARK VINA RESULT:     -11.4      0.000      0.000
REMARK SMILES Cc1[nH]c2ccc(Br)cc2c(=O)c1CCC(=O)NCCCCNC(=O)c1ccc(-c2c3nc(c(-c4c(F)cc(S(=O)(=O)[O-])cc4F)c4ccc([nH]4)c(-c4c(F)cc(S(=O)(=O)[O-])cc4F)c4nc(c(-c5c(F)cc(S(=O)(=O)[O-])cc5F)c5ccc2[nH]5)C=C4)C=C3)cc1
REMARK SMILES IDX 21 1 20 2 19 3 18 4 16 5 17 6 15 8 14 9 13 10 1 11 2 12 3 13
REMARK SMILES IDX 4 14 11 16 5 17 10 18 12 19 6 20 9 21 7 22 8 23 22 24 23 25
REMARK SMILES IDX 24 26 25 28 26 29 27 30 91 31 28 32 90 33 29 34 30 35 31 36
REMARK SMILES IDX 84 37 32 38 89 39 83 40 85 41 33 42 88 43 82 44 81 45 34 47
REMARK SMILES IDX 68 48 47 49 67 50 48 51 51 52 66 53 86 54 49 55 50 56 65 58
REMARK SMILES IDX 87 59 52 60 35 61 36 62 45 63 37 64 38 65 44 66 46 67 39 68
REMARK SMILES IDX 40 69 41 70 42 71 43 72 69 73 70 74 79 75 71 76 72 77 78 78
REMARK SMILES IDX 80 79 73 80 74 81 75 82 76 83 77 84 53 85 54 86 63 87 55 88
REMARK SMILES IDX 56 89 62 90 64 91 57 92 58 93 59 94 60 95 61 96
REMARK H PARENT 18 7 3 15 23 27 85 46 51 57
REMARK Flexibility Score: inf
ROOT
ATOM      1  C   UNL A   1      32.592  28.035  26.167  1.00  0.00     0.023 C 
ENDROOT
BRANCH   1   2
ATOM      2  C   UNL A   1      31.598  26.929  26.477  1.00  0.00     0.023 C 
BRANCH   2   3
ATOM      3  C   UNL A   1      32.174  25.522  26.517  1.00  0.00     0.116 C 
BRANCH   3   4
ATOM      4  N   UNL A   1      31.137  24.568  26.865  1.00  0.00    -0.356 N 
ATOM      5  C   UNL A   1      31.015  23.263  26.486  1.00  0.00     0.220 C 
ATOM      6  O   UNL A   1      29.976  22.661  26.762  1.00  0.00    -0.275 OA
ATOM      7  H   UNL A   1      30.426  24.909  27.453  1.00  0.00     0.163 HD
BRANCH   5   8
ATOM      8  C   UNL A   1      32.165  22.553  25.793  1.00  0.00     0.105 C 
BRANCH   8   9
ATOM      9  C   UNL A   1      32.046  22.503  24.258  1.00  0.00     0.051 C 
BRANCH   9  10
ATOM     10  C   UNL A   1      32.436  23.794  23.564  1.00  0.00     0.020 A 
ATOM     11  C   UNL A   1      34.914  23.344  23.494  1.00  0.00     0.064 C 
ATOM     12  C   UNL A   1      33.693  24.203  23.270  1.00  0.00     0.019 A 
ATOM     13  N   UNL A   1      33.963  25.463  22.769  1.00  0.00    -0.358 N 
ATOM     14  C   UNL A   1      32.980  26.449  22.650  1.00  0.00     0.050 A 
ATOM     15  H   UNL A   1      34.882  25.673  22.485  1.00  0.00     0.166 HD
ATOM     16  C   UNL A   1      31.305  24.700  23.147  1.00  0.00     0.192 A 
ATOM     17  C   UNL A   1      33.320  27.793  22.476  1.00  0.00     0.028 A 
ATOM     18  C   UNL A   1      31.634  26.111  22.822  1.00  0.00     0.047 A 
ATOM     19  O   UNL A   1      30.146  24.319  23.141  1.00  0.00    -0.289 OA
ATOM     20  C   UNL A   1      32.327  28.779  22.488  1.00  0.00     0.018 A 
ATOM     21  C   UNL A   1      30.630  27.086  22.806  1.00  0.00     0.030 A 
ATOM     22  C   UNL A   1      30.990  28.421  22.655  1.00  0.00     0.018 A 
ATOM     23  Br  UNL A   1      29.666  29.767  22.746  1.00  0.00    -0.051 Br
ENDBRANCH   9  10
ENDBRANCH   8   9
ENDBRANCH   5   8
ENDBRANCH   3   4
ENDBRANCH   2   3
ENDBRANCH   1   2
BRANCH   1  24
ATOM     24  C   UNL A   1      33.559  28.346  27.296  1.00  0.00     0.116 C 
BRANCH  24  25
ATOM     25  N   UNL A   1      33.587  29.755  27.685  1.00  0.00    -0.352 N 
ATOM     26  C   UNL A   1      34.608  30.546  28.166  1.00  0.00     0.251 C 
ATOM     27  H   UNL A   1      32.726  30.220  27.586  1.00  0.00     0.163 HD
ATOM     28  O   UNL A   1      34.365  31.706  28.494  1.00  0.00    -0.269 OA
BRANCH  26  29
ATOM     29  C   UNL A   1      35.977  30.003  28.330  1.00  0.00     0.039 A 
ATOM     30  C   UNL A   1      36.391  29.469  29.544  1.00  0.00     0.014 A 
ATOM     31  C   UNL A   1      36.877  30.050  27.258  1.00  0.00     0.014 A 
ATOM     32  C   UNL A   1      37.739  29.239  29.768  1.00  0.00     0.010 A 
ATOM     33  C   UNL A   1      38.212  29.666  27.443  1.00  0.00     0.010 A 
ATOM     34  C   UNL A   1      38.671  29.315  28.719  1.00  0.00    -0.014 A 
BRANCH  34  35
ATOM     35  C   UNL A   1      40.091  28.985  29.026  1.00  0.00     0.031 A 
ATOM     36  C   UNL A   1      40.700  27.667  28.624  1.00  0.00     0.074 A 
ATOM     37  C   UNL A   1      40.868  29.955  29.554  1.00  0.00     0.049 A 
ATOM     38  N   UNL A   1      41.955  27.296  28.680  1.00  0.00    -0.248 NA
ATOM     39  C   UNL A   1      39.798  26.627  28.102  1.00  0.00     0.031 C 
ATOM     40  C   UNL A   1      40.381  31.266  29.998  1.00  0.00     0.029 A 
ATOM     41  N   UNL A   1      42.225  30.034  29.734  1.00  0.00    -0.354 N 
ATOM     42  C   UNL A   1      41.989  25.981  28.231  1.00  0.00     0.074 A 
ATOM     43  C   UNL A   1      40.627  25.607  27.923  1.00  0.00     0.031 C 
ATOM     44  C   UNL A   1      41.427  32.058  30.265  1.00  0.00     0.029 A 
ATOM     45  C   UNL A   1      42.654  31.288  30.102  1.00  0.00     0.049 A 
ATOM     46  H   UNL A   1      42.832  29.268  29.611  1.00  0.00     0.167 HD
ATOM     47  C   UNL A   1      43.062  25.167  28.084  1.00  0.00     0.037 A 
ATOM     48  C   UNL A   1      43.896  31.777  30.283  1.00  0.00     0.037 A 
ATOM     49  C   UNL A   1      44.419  25.561  28.356  1.00  0.00     0.049 A 
ATOM     50  C   UNL A   1      45.068  30.862  30.090  1.00  0.00     0.074 A 
ATOM     51  C   UNL A   1      45.576  24.810  28.230  1.00  0.00     0.029 A 
ATOM     52  N   UNL A   1      44.807  26.820  28.795  1.00  0.00    -0.354 N 
ATOM     53  N   UNL A   1      45.074  29.617  29.680  1.00  0.00    -0.248 NA
ATOM     54  C   UNL A   1      46.395  31.403  30.409  1.00  0.00     0.031 C 
ATOM     55  C   UNL A   1      46.658  25.603  28.623  1.00  0.00     0.029 A 
ATOM     56  C   UNL A   1      46.182  26.861  28.958  1.00  0.00     0.049 A 
ATOM     57  H   UNL A   1      44.196  27.572  28.966  1.00  0.00     0.167 HD
ATOM     58  C   UNL A   1      46.404  29.220  29.699  1.00  0.00     0.074 A 
ATOM     59  C   UNL A   1      47.178  30.366  30.134  1.00  0.00     0.031 C 
ATOM     60  C   UNL A   1      46.933  28.011  29.395  1.00  0.00     0.037 A 
BRANCH  47  61
ATOM     61  C   UNL A   1      42.820  23.758  27.616  1.00  0.00     0.058 A 
ATOM     62  C   UNL A   1      42.569  22.712  28.518  1.00  0.00     0.135 A 
ATOM     63  C   UNL A   1      42.767  23.463  26.242  1.00  0.00     0.135 A 
ATOM     64  F   UNL A   1      42.621  22.934  29.841  1.00  0.00    -0.206 F 
ATOM     65  C   UNL A   1      42.287  21.422  28.076  1.00  0.00     0.059 A 
ATOM     66  C   UNL A   1      42.466  22.187  25.778  1.00  0.00     0.059 A 
ATOM     67  F   UNL A   1      42.998  24.428  25.337  1.00  0.00    -0.206 F 
ATOM     68  C   UNL A   1      42.235  21.170  26.704  1.00  0.00     0.060 A 
BRANCH  68  69
ATOM     69  S   UNL A   1      41.844  19.497  26.146  1.00  0.00     0.124 S 
ATOM     70  O   UNL A   1      42.704  19.372  24.973  1.00  0.00    -0.237 OA
ATOM     71  O   UNL A   1      42.221  18.686  27.298  1.00  0.00    -0.237 OA
ATOM     72  O   UNL A   1      40.412  19.556  25.868  1.00  0.00    -0.744 OA
ENDBRANCH  68  69
ENDBRANCH  47  61
BRANCH  48  73
ATOM     73  C   UNL A   1      44.076  33.206  30.652  1.00  0.00     0.058 A 
ATOM     74  C   UNL A   1      44.273  34.187  29.671  1.00  0.00     0.135 A 
ATOM     75  C   UNL A   1      43.978  33.626  31.989  1.00  0.00     0.135 A 
ATOM     76  F   UNL A   1      44.378  33.835  28.381  1.00  0.00    -0.206 F 
ATOM     77  C   UNL A   1      44.355  35.538  29.998  1.00  0.00     0.059 A 
ATOM     78  C   UNL A   1      44.031  34.971  32.337  1.00  0.00     0.059 A 
ATOM     79  F   UNL A   1      43.772  32.727  32.963  1.00  0.00    -0.206 F 
ATOM     80  C   UNL A   1      44.221  35.920  31.335  1.00  0.00     0.060 A 
BRANCH  80  81
ATOM     81  S   UNL A   1      44.230  37.680  31.742  1.00  0.00     0.124 S 
ATOM     82  O   UNL A   1      43.515  37.691  33.012  1.00  0.00    -0.237 OA
ATOM     83  O   UNL A   1      45.658  37.975  31.808  1.00  0.00    -0.237 OA
ATOM     84  O   UNL A   1      43.527  38.285  30.614  1.00  0.00    -0.744 OA
ENDBRANCH  80  81
ENDBRANCH  48  73
BRANCH  60  85
ATOM     85  C   UNL A   1      48.418  27.854  29.527  1.00  0.00     0.058 A 
ATOM     86  C   UNL A   1      49.002  27.477  30.745  1.00  0.00     0.135 A 
ATOM     87  C   UNL A   1      49.253  27.991  28.407  1.00  0.00     0.135 A 
ATOM     88  F   UNL A   1      48.245  27.343  31.845  1.00  0.00    -0.206 F 
ATOM     89  C   UNL A   1      50.367  27.239  30.850  1.00  0.00     0.059 A 
ATOM     90  C   UNL A   1      50.619  27.741  28.485  1.00  0.00     0.059 A 
ATOM     91  F   UNL A   1      48.738  28.347  27.219  1.00  0.00    -0.206 F 
ATOM     92  C   UNL A   1      51.167  27.365  29.711  1.00  0.00     0.060 A 
BRANCH  92  93
ATOM     93  S   UNL A   1      52.926  26.986  29.847  1.00  0.00     0.124 S 
ATOM     94  O   UNL A   1      53.189  26.342  28.564  1.00  0.00    -0.237 OA
ATOM     95  O   UNL A   1      53.518  28.308  30.024  1.00  0.00    -0.237 OA
ATOM     96  O   UNL A   1      52.997  26.112  31.014  1.00  0.00    -0.744 OA
ENDBRANCH  92  93
ENDBRANCH  60  85
ENDBRANCH  34  35
ENDBRANCH  26  29
ENDBRANCH  24  25
ENDBRANCH   1  24
TORSDOF 16
ENDMDL
MODEL 2
REMARK VINA RESULT:     -11.4      1.527      3.171
REMARK SMILES Cc1[nH]c2ccc(Br)cc2c(=O)c1CCC(=O)NCCCCNC(=O)c1ccc(-c2c3nc(c(-c4c(F)cc(S(=O)(=O)[O-])cc4F)c4ccc([nH]4)c(-c4c(F)cc(S(=O)(=O)[O-])cc4F)c4nc(c(-c5c(F)cc(S(=O)(=O)[O-])cc5F)c5ccc2[nH]5)C=C4)C=C3)cc1
REMARK SMILES IDX 21 1 20 2 19 3 18 4 16 5 17 6 15 8 14 9 13 10 1 11 2 12 3 13
REMARK SMILES IDX 4 14 11 16 5 17 10 18 12 19 6 20 9 21 7 22 8 23 22 24 23 25
REMARK SMILES IDX 24 26 25 28 26 29 27 30 91 31 28 32 90 33 29 34 30 35 31 36
REMARK SMILES IDX 84 37 32 38 89 39 83 40 85 41 33 42 88 43 82 44 81 45 34 47
REMARK SMILES IDX 68 48 47 49 67 50 48 51 51 52 66 53 86 54 49 55 50 56 65 58
REMARK SMILES IDX 87 59 52 60 35 61 36 62 45 63 37 64 38 65 44 66 46 67 39 68
REMARK SMILES IDX 40 69 41 70 42 71 43 72 69 73 70 74 79 75 71 76 72 77 78 78
REMARK SMILES IDX 80 79 73 80 74 81 75 82 76 83 77 84 53 85 54 86 63 87 55 88
REMARK SMILES IDX 56 89 62 90 64 91 57 92 58 93 59 94 60 95 61 96
REMARK H PARENT 18 7 3 15 23 27 85 46 51 57
REMARK Flexibility Score: inf
ROOT
ATOM      1  C   UNL A   1      33.981  27.684  24.978  1.00  0.00     0.023 C 
ENDROOT
BRANCH   1   2
ATOM      2  C   UNL A   1      33.715  28.972  24.218  1.00  0.00     0.023 C 
BRANCH   2   3
ATOM      3  C   UNL A   1      33.465  28.813  22.727  1.00  0.00     0.116 C 
BRANCH   3   4
ATOM      4  N   UNL A   1      32.076  29.102  22.421  1.00  0.00    -0.356 N 
ATOM      5  C   UNL A   1      31.035  28.232  22.266  1.00  0.00     0.220 C 
ATOM      6  O   UNL A   1      29.958  28.664  21.853  1.00  0.00    -0.275 OA
ATOM      7  H   UNL A   1      31.854  30.054  22.309  1.00  0.00     0.163 HD
BRANCH   5   8
ATOM      8  C   UNL A   1      31.190  26.772  22.657  1.00  0.00     0.105 C 
BRANCH   8   9
ATOM      9  C   UNL A   1      30.141  26.273  23.668  1.00  0.00     0.051 C 
BRANCH   9  10
ATOM     10  C   UNL A   1      30.697  25.344  24.730  1.00  0.00     0.020 A 
ATOM     11  C   UNL A   1      30.755  27.041  26.592  1.00  0.00     0.064 C 
ATOM     12  C   UNL A   1      31.022  25.677  26.002  1.00  0.00     0.019 A 
ATOM     13  N   UNL A   1      31.662  24.799  26.857  1.00  0.00    -0.358 N 
ATOM     14  C   UNL A   1      32.135  23.553  26.436  1.00  0.00     0.050 A 
ATOM     15  H   UNL A   1      31.790  25.062  27.797  1.00  0.00     0.166 HD
ATOM     16  C   UNL A   1      30.888  23.902  24.330  1.00  0.00     0.192 A 
ATOM     17  C   UNL A   1      33.063  22.836  27.196  1.00  0.00     0.028 A 
ATOM     18  C   UNL A   1      31.764  23.059  25.181  1.00  0.00     0.047 A 
ATOM     19  O   UNL A   1      30.403  23.452  23.305  1.00  0.00    -0.289 OA
ATOM     20  C   UNL A   1      33.618  21.653  26.696  1.00  0.00     0.018 A 
ATOM     21  C   UNL A   1      32.292  21.862  24.684  1.00  0.00     0.030 A 
ATOM     22  C   UNL A   1      33.233  21.174  25.445  1.00  0.00     0.018 A 
ATOM     23  Br  UNL A   1      34.047  19.617  24.748  1.00  0.00    -0.051 Br
ENDBRANCH   9  10
ENDBRANCH   8   9
ENDBRANCH   5   8
ENDBRANCH   3   4
ENDBRANCH   2   3
ENDBRANCH   1   2
BRANCH   1  24
ATOM     24  C   UNL A   1      34.257  27.873  26.460  1.00  0.00     0.116 C 
BRANCH  24  25
ATOM     25  N   UNL A   1      33.756  29.134  27.003  1.00  0.00    -0.352 N 
ATOM     26  C   UNL A   1      34.364  30.095  27.781  1.00  0.00     0.251 C 
ATOM     27  H   UNL A   1      32.820  29.332  26.771  1.00  0.00     0.163 HD
ATOM     28  O   UNL A   1      33.703  31.053  28.177  1.00  0.00    -0.269 OA
BRANCH  26  29
ATOM     29  C   UNL A   1      35.786  29.964  28.177  1.00  0.00     0.039 A 
ATOM     30  C   UNL A   1      36.806  30.274  27.286  1.00  0.00     0.014 A 
ATOM     31  C   UNL A   1      36.111  29.498  29.458  1.00  0.00     0.014 A 
ATOM     32  C   UNL A   1      38.104  29.874  27.563  1.00  0.00     0.010 A 
ATOM     33  C   UNL A   1      37.447  29.241  29.795  1.00  0.00     0.010 A 
ATOM     34  C   UNL A   1      38.452  29.368  28.827  1.00  0.00    -0.014 A 
BRANCH  34  35
ATOM     35  C   UNL A   1      39.882  29.026  29.070  1.00  0.00     0.031 A 
ATOM     36  C   UNL A   1      40.463  27.708  28.631  1.00  0.00     0.074 A 
ATOM     37  C   UNL A   1      40.687  29.986  29.572  1.00  0.00     0.049 A 
ATOM     38  N   UNL A   1      41.717  27.328  28.631  1.00  0.00    -0.248 NA
ATOM     39  C   UNL A   1      39.532  26.678  28.140  1.00  0.00     0.031 C 
ATOM     40  C   UNL A   1      40.229  31.297  30.047  1.00  0.00     0.029 A 
ATOM     41  N   UNL A   1      42.051  30.054  29.695  1.00  0.00    -0.354 N 
ATOM     42  C   UNL A   1      41.722  26.017  28.169  1.00  0.00     0.074 A 
ATOM     43  C   UNL A   1      40.345  25.655  27.917  1.00  0.00     0.031 C 
ATOM     44  C   UNL A   1      41.291  32.079  30.276  1.00  0.00     0.029 A 
ATOM     45  C   UNL A   1      42.505  31.303  30.055  1.00  0.00     0.049 A 
ATOM     46  H   UNL A   1      42.647  29.286  29.539  1.00  0.00     0.167 HD
ATOM     47  C   UNL A   1      42.782  25.196  27.970  1.00  0.00     0.037 A 
ATOM     48  C   UNL A   1      43.757  31.782  30.185  1.00  0.00     0.037 A 
ATOM     49  C   UNL A   1      44.153  25.579  28.186  1.00  0.00     0.049 A 
ATOM     50  C   UNL A   1      44.913  30.860  29.935  1.00  0.00     0.074 A 
ATOM     51  C   UNL A   1      45.297  24.822  28.005  1.00  0.00     0.029 A 
ATOM     52  N   UNL A   1      44.568  26.831  28.619  1.00  0.00    -0.354 N 
ATOM     53  N   UNL A   1      44.893  29.619  29.515  1.00  0.00    -0.248 NA
ATOM     54  C   UNL A   1      46.256  31.389  30.202  1.00  0.00     0.031 C 
ATOM     55  C   UNL A   1      46.401  25.603  28.358  1.00  0.00     0.029 A 
ATOM     56  C   UNL A   1      45.949  26.861  28.724  1.00  0.00     0.049 A 
ATOM     57  H   UNL A   1      43.970  27.586  28.823  1.00  0.00     0.167 HD
ATOM     58  C   UNL A   1      46.219  29.213  29.473  1.00  0.00     0.074 A 
ATOM     59  C   UNL A   1      47.019  30.349  29.885  1.00  0.00     0.031 C 
ATOM     60  C   UNL A   1      46.726  28.003  29.137  1.00  0.00     0.037 A 
BRANCH  47  61
ATOM     61  C   UNL A   1      42.510  23.793  27.500  1.00  0.00     0.058 A 
ATOM     62  C   UNL A   1      42.455  23.467  26.136  1.00  0.00     0.135 A 
ATOM     63  C   UNL A   1      42.375  22.746  28.428  1.00  0.00     0.135 A 
ATOM     64  F   UNL A   1      42.565  24.431  25.207  1.00  0.00    -0.206 F 
ATOM     65  C   UNL A   1      42.264  22.157  25.708  1.00  0.00     0.059 A 
ATOM     66  C   UNL A   1      42.204  21.426  28.023  1.00  0.00     0.059 A 
ATOM     67  F   UNL A   1      42.421  23.002  29.745  1.00  0.00    -0.206 F 
ATOM     68  C   UNL A   1      42.141  21.142  26.660  1.00  0.00     0.060 A 
BRANCH  68  69
ATOM     69  S   UNL A   1      41.917  19.443  26.089  1.00  0.00     0.124 S 
ATOM     70  O   UNL A   1      40.479  19.407  25.837  1.00  0.00    -0.237 OA
ATOM     71  O   UNL A   1      42.769  19.395  24.905  1.00  0.00    -0.237 OA
ATOM     72  O   UNL A   1      42.375  18.640  27.218  1.00  0.00    -0.744 OA
ENDBRANCH  68  69
ENDBRANCH  47  61
BRANCH  48  73
ATOM     73  C   UNL A   1      43.962  33.206  30.559  1.00  0.00     0.058 A 
ATOM     74  C   UNL A   1      44.123  33.585  31.899  1.00  0.00     0.135 A 
ATOM     75  C   UNL A   1      44.078  34.203  29.578  1.00  0.00     0.135 A 
ATOM     76  F   UNL A   1      44.016  32.669  32.874  1.00  0.00    -0.206 F 
ATOM     77  C   UNL A   1      44.402  34.902  32.254  1.00  0.00     0.059 A 
ATOM     78  C   UNL A   1      44.382  35.520  29.906  1.00  0.00     0.059 A 
ATOM     79  F   UNL A   1      43.949  33.888  28.280  1.00  0.00    -0.206 F 
ATOM     80  C   UNL A   1      44.542  35.860  31.247  1.00  0.00     0.060 A 
BRANCH  80  81
ATOM     81  S   UNL A   1      45.001  37.545  31.707  1.00  0.00     0.124 S 
ATOM     82  O   UNL A   1      43.871  37.941  32.538  1.00  0.00    -0.237 OA
ATOM     83  O   UNL A   1      46.267  37.341  32.405  1.00  0.00    -0.237 OA
ATOM     84  O   UNL A   1      45.110  38.224  30.419  1.00  0.00    -0.744 OA
ENDBRANCH  80  81
ENDBRANCH  48  73
BRANCH  60  85
ATOM     85  C   UNL A   1      48.214  27.834  29.204  1.00  0.00     0.058 A 
ATOM     86  C   UNL A   1      48.828  27.249  30.321  1.00  0.00     0.135 A 
ATOM     87  C   UNL A   1      49.022  28.176  28.107  1.00  0.00     0.135 A 
ATOM     88  F   UNL A   1      48.098  26.914  31.396  1.00  0.00    -0.206 F 
ATOM     89  C   UNL A   1      50.196  27.005  30.349  1.00  0.00     0.059 A 
ATOM     90  C   UNL A   1      50.389  27.925  28.107  1.00  0.00     0.059 A 
ATOM     91  F   UNL A   1      48.477  28.735  27.016  1.00  0.00    -0.206 F 
ATOM     92  C   UNL A   1      50.968  27.339  29.233  1.00  0.00     0.060 A 
BRANCH  92  93
ATOM     93  S   UNL A   1      52.731  26.953  29.257  1.00  0.00     0.124 S 
ATOM     94  O   UNL A   1      53.325  28.285  29.211  1.00  0.00    -0.237 OA
ATOM     95  O   UNL A   1      52.876  26.238  30.521  1.00  0.00    -0.237 OA
ATOM     96  O   UNL A   1      52.918  26.140  28.059  1.00  0.00    -0.744 OA
ENDBRANCH  92  93
ENDBRANCH  60  85
ENDBRANCH  34  35
ENDBRANCH  26  29
ENDBRANCH  24  25
ENDBRANCH   1  24
TORSDOF 16
ENDMDL
MODEL 3
REMARK VINA RESULT:     -11.3      2.638      8.991
REMARK SMILES Cc1[nH]c2ccc(Br)cc2c(=O)c1CCC(=O)NCCCCNC(=O)c1ccc(-c2c3nc(c(-c4c(F)cc(S(=O)(=O)[O-])cc4F)c4ccc([nH]4)c(-c4c(F)cc(S(=O)(=O)[O-])cc4F)c4nc(c(-c5c(F)cc(S(=O)(=O)[O-])cc5F)c5ccc2[nH]5)C=C4)C=C3)cc1
REMARK SMILES IDX 21 1 20 2 19 3 18 4 16 5 17 6 15 8 14 9 13 10 1 11 2 12 3 13
REMARK SMILES IDX 4 14 11 16 5 17 10 18 12 19 6 20 9 21 7 22 8 23 22 24 23 25
REMARK SMILES IDX 24 26 25 28 26 29 27 30 91 31 28 32 90 33 29 34 30 35 31 36
REMARK SMILES IDX 84 37 32 38 89 39 83 40 85 41 33 42 88 43 82 44 81 45 34 47
REMARK SMILES IDX 68 48 47 49 67 50 48 51 51 52 66 53 86 54 49 55 50 56 65 58
REMARK SMILES IDX 87 59 52 60 35 61 36 62 45 63 37 64 38 65 44 66 46 67 39 68
REMARK SMILES IDX 40 69 41 70 42 71 43 72 69 73 70 74 79 75 71 76 72 77 78 78
REMARK SMILES IDX 80 79 73 80 74 81 75 82 76 83 77 84 53 85 54 86 63 87 55 88
REMARK SMILES IDX 56 89 62 90 64 91 57 92 58 93 59 94 60 95 61 96
REMARK H PARENT 18 7 3 15 23 27 85 46 51 57
REMARK Flexibility Score: inf
ROOT
ATOM      1  C   UNL A   1      34.376  30.442  26.969  1.00  0.00     0.023 C 
ENDROOT
BRANCH   1   2
ATOM      2  C   UNL A   1      32.938  29.957  27.036  1.00  0.00     0.023 C 
BRANCH   2   3
ATOM      3  C   UNL A   1      32.242  29.784  25.695  1.00  0.00     0.116 C 
BRANCH   3   4
ATOM      4  N   UNL A   1      33.226  29.654  24.636  1.00  0.00    -0.356 N 
ATOM      5  C   UNL A   1      33.085  29.087  23.403  1.00  0.00     0.220 C 
ATOM      6  O   UNL A   1      34.086  28.935  22.702  1.00  0.00    -0.275 OA
ATOM      7  H   UNL A   1      34.116  30.024  24.834  1.00  0.00     0.163 HD
BRANCH   5   8
ATOM      8  C   UNL A   1      31.708  28.710  22.884  1.00  0.00     0.105 C 
BRANCH   8   9
ATOM      9  C   UNL A   1      31.632  27.309  22.248  1.00  0.00     0.051 C 
BRANCH   9  10
ATOM     10  C   UNL A   1      31.920  26.174  23.213  1.00  0.00     0.020 A 
ATOM     11  C   UNL A   1      29.691  26.225  24.387  1.00  0.00     0.064 C 
ATOM     12  C   UNL A   1      31.101  25.722  24.192  1.00  0.00     0.019 A 
ATOM     13  N   UNL A   1      31.506  24.780  25.120  1.00  0.00    -0.358 N 
ATOM     14  C   UNL A   1      32.824  24.322  25.197  1.00  0.00     0.050 A 
ATOM     15  H   UNL A   1      30.841  24.420  25.750  1.00  0.00     0.166 HD
ATOM     16  C   UNL A   1      33.245  25.472  23.048  1.00  0.00     0.192 A 
ATOM     17  C   UNL A   1      33.293  23.651  26.329  1.00  0.00     0.028 A 
ATOM     18  C   UNL A   1      33.728  24.637  24.176  1.00  0.00     0.047 A 
ATOM     19  O   UNL A   1      33.938  25.634  22.058  1.00  0.00    -0.289 OA
ATOM     20  C   UNL A   1      34.647  23.314  26.439  1.00  0.00     0.018 A 
ATOM     21  C   UNL A   1      35.078  24.279  24.263  1.00  0.00     0.030 A 
ATOM     22  C   UNL A   1      35.531  23.632  25.409  1.00  0.00     0.018 A 
ATOM     23  Br  UNL A   1      37.370  23.241  25.602  1.00  0.00    -0.051 Br
ENDBRANCH   9  10
ENDBRANCH   8   9
ENDBRANCH   5   8
ENDBRANCH   3   4
ENDBRANCH   2   3
ENDBRANCH   1   2
BRANCH   1  24
ATOM     24  C   UNL A   1      35.374  29.556  27.695  1.00  0.00     0.116 C 
BRANCH  24  25
ATOM     25  N   UNL A   1      35.329  29.677  29.151  1.00  0.00    -0.352 N 
ATOM     26  C   UNL A   1      36.334  29.696  30.094  1.00  0.00     0.251 C 
ATOM     27  H   UNL A   1      34.422  29.760  29.524  1.00  0.00     0.163 HD
ATOM     28  O   UNL A   1      36.037  29.738  31.286  1.00  0.00    -0.269 OA
BRANCH  26  29
ATOM     29  C   UNL A   1      37.758  29.624  29.689  1.00  0.00     0.039 A 
ATOM     30  C   UNL A   1      38.151  29.975  28.403  1.00  0.00     0.014 A 
ATOM     31  C   UNL A   1      38.718  29.173  30.602  1.00  0.00     0.014 A 
ATOM     32  C   UNL A   1      39.417  29.630  27.955  1.00  0.00     0.010 A 
ATOM     33  C   UNL A   1      40.042  28.972  30.188  1.00  0.00     0.010 A 
ATOM     34  C   UNL A   1      40.391  29.139  28.842  1.00  0.00    -0.014 A 
BRANCH  34  35
ATOM     35  C   UNL A   1      41.748  28.857  28.297  1.00  0.00     0.031 A 
ATOM     36  C   UNL A   1      42.874  29.849  28.430  1.00  0.00     0.074 A 
ATOM     37  C   UNL A   1      41.988  27.625  27.798  1.00  0.00     0.049 A 
ATOM     38  N   UNL A   1      44.143  29.686  28.148  1.00  0.00    -0.248 NA
ATOM     39  C   UNL A   1      42.545  31.194  28.930  1.00  0.00     0.031 C 
ATOM     40  C   UNL A   1      40.967  26.589  27.606  1.00  0.00     0.029 A 
ATOM     41  N   UNL A   1      43.155  27.003  27.441  1.00  0.00    -0.354 N 
ATOM     42  C   UNL A   1      44.755  30.907  28.409  1.00  0.00     0.074 A 
ATOM     43  C   UNL A   1      43.718  31.811  28.854  1.00  0.00     0.031 C 
ATOM     44  C   UNL A   1      41.566  25.431  27.301  1.00  0.00     0.029 A 
ATOM     45  C   UNL A   1      43.002  25.659  27.186  1.00  0.00     0.049 A 
ATOM     46  H   UNL A   1      44.020  27.470  27.374  1.00  0.00     0.167 HD
ATOM     47  C   UNL A   1      46.064  31.236  28.293  1.00  0.00     0.037 A 
ATOM     48  C   UNL A   1      43.909  24.706  26.899  1.00  0.00     0.037 A 
ATOM     49  C   UNL A   1      47.096  30.318  27.888  1.00  0.00     0.049 A 
ATOM     50  C   UNL A   1      45.355  25.092  26.801  1.00  0.00     0.074 A 
ATOM     51  C   UNL A   1      48.453  30.555  27.748  1.00  0.00     0.029 A 
ATOM     52  N   UNL A   1      46.890  28.983  27.570  1.00  0.00    -0.354 N 
ATOM     53  N   UNL A   1      45.908  26.257  27.036  1.00  0.00    -0.248 NA
ATOM     54  C   UNL A   1      46.295  24.049  26.372  1.00  0.00     0.031 C 
ATOM     55  C   UNL A   1      49.061  29.373  27.315  1.00  0.00     0.029 A 
ATOM     56  C   UNL A   1      48.091  28.389  27.221  1.00  0.00     0.049 A 
ATOM     57  H   UNL A   1      46.018  28.525  27.588  1.00  0.00     0.167 HD
ATOM     58  C   UNL A   1      47.261  26.091  26.777  1.00  0.00     0.074 A 
ATOM     59  C   UNL A   1      47.449  24.706  26.393  1.00  0.00     0.031 C 
ATOM     60  C   UNL A   1      48.256  27.008  26.840  1.00  0.00     0.037 A 
BRANCH  47  61
ATOM     61  C   UNL A   1      46.465  32.654  28.599  1.00  0.00     0.058 A 
ATOM     62  C   UNL A   1      46.458  33.653  27.614  1.00  0.00     0.135 A 
ATOM     63  C   UNL A   1      46.792  33.033  29.913  1.00  0.00     0.135 A 
ATOM     64  F   UNL A   1      46.167  33.343  26.340  1.00  0.00    -0.206 F 
ATOM     65  C   UNL A   1      46.772  34.975  27.916  1.00  0.00     0.059 A 
ATOM     66  C   UNL A   1      47.089  34.352  30.242  1.00  0.00     0.059 A 
ATOM     67  F   UNL A   1      46.812  32.117  30.894  1.00  0.00    -0.206 F 
ATOM     68  C   UNL A   1      47.084  35.316  29.234  1.00  0.00     0.060 A 
BRANCH  68  69
ATOM     69  S   UNL A   1      47.466  37.039  29.615  1.00  0.00     0.124 S 
ATOM     70  O   UNL A   1      47.098  37.115  31.025  1.00  0.00    -0.237 OA
ATOM     71  O   UNL A   1      48.896  37.114  29.329  1.00  0.00    -0.237 OA
ATOM     72  O   UNL A   1      46.609  37.789  28.703  1.00  0.00    -0.744 OA
ENDBRANCH  68  69
ENDBRANCH  47  61
BRANCH  48  73
ATOM     73  C   UNL A   1      43.462  23.302  26.701  1.00  0.00     0.058 A 
ATOM     74  C   UNL A   1      43.447  22.722  25.425  1.00  0.00     0.135 A 
ATOM     75  C   UNL A   1      43.114  22.492  27.793  1.00  0.00     0.135 A 
ATOM     76  F   UNL A   1      43.767  23.457  24.349  1.00  0.00    -0.206 F 
ATOM     77  C   UNL A   1      43.114  21.384  25.238  1.00  0.00     0.059 A 
ATOM     78  C   UNL A   1      42.803  21.146  27.635  1.00  0.00     0.059 A 
ATOM     79  F   UNL A   1      43.130  22.996  29.037  1.00  0.00    -0.206 F 
ATOM     80  C   UNL A   1      42.804  20.601  26.353  1.00  0.00     0.060 A 
BRANCH  80  81
ATOM     81  S   UNL A   1      42.469  18.842  26.114  1.00  0.00     0.124 S 
ATOM     82  O   UNL A   1      42.732  18.310  27.446  1.00  0.00    -0.237 OA
ATOM     83  O   UNL A   1      41.071  18.847  25.692  1.00  0.00    -0.237 OA
ATOM     84  O   UNL A   1      43.424  18.459  25.079  1.00  0.00    -0.744 OA
ENDBRANCH  80  81
ENDBRANCH  48  73
BRANCH  60  85
ATOM     85  C   UNL A   1      49.639  26.554  26.480  1.00  0.00     0.058 A 
ATOM     86  C   UNL A   1      50.505  26.029  27.450  1.00  0.00     0.135 A 
ATOM     87  C   UNL A   1      50.066  26.558  25.143  1.00  0.00     0.135 A 
ATOM     88  F   UNL A   1      50.144  26.013  28.742  1.00  0.00    -0.206 F 
ATOM     89  C   UNL A   1      51.752  25.520  27.106  1.00  0.00     0.059 A 
ATOM     90  C   UNL A   1      51.302  26.038  24.774  1.00  0.00     0.059 A 
ATOM     91  F   UNL A   1      49.268  27.047  24.180  1.00  0.00    -0.206 F 
ATOM     92  C   UNL A   1      52.139  25.521  25.764  1.00  0.00     0.060 A 
BRANCH  92  93
ATOM     93  S   UNL A   1      53.731  24.794  25.324  1.00  0.00     0.124 S 
ATOM     94  O   UNL A   1      53.349  23.426  24.991  1.00  0.00    -0.237 OA
ATOM     95  O   UNL A   1      54.154  25.625  24.202  1.00  0.00    -0.237 OA
ATOM     96  O   UNL A   1      54.522  24.946  26.542  1.00  0.00    -0.744 OA
ENDBRANCH  92  93
ENDBRANCH  60  85
ENDBRANCH  34  35
ENDBRANCH  26  29
ENDBRANCH  24  25
ENDBRANCH   1  24
TORSDOF 16
ENDMDL
