MODEL 1
REMARK VINA RESULT:     -11.8      0.000      0.000
REMARK SMILES CC(C)c1nc(N2C[C@H](C)OC(C)(C)C2)sc1C(=O)NCCCCNC(=O)c1ccc(-c2c3nc(c(-c4c(F)cc(S(=O)(=O)[O-])cc4F)c4ccc([nH]4)c(-c4c(F)cc(S(=O)(=O)[O-])cc4F)c4nc(c(-c5c(F)cc(S(=O)(=O)[O-])cc5F)c5ccc2[nH]5)C=C4)C=C3)cc1
REMARK SMILES IDX 23 1 22 2 21 3 20 4 18 5 19 6 17 8 4 9 5 10 6 11 16 12 2 13
REMARK SMILES IDX 1 14 3 15 7 16 8 17 15 18 9 19 12 20 11 21 10 22 13 23 14 24
REMARK SMILES IDX 24 25 25 26 26 27 27 29 28 30 29 31 93 32 30 33 92 34 31 35
REMARK SMILES IDX 32 36 33 37 86 38 34 39 91 40 85 41 87 42 35 43 90 44 84 45
REMARK SMILES IDX 83 46 36 48 70 49 49 50 69 51 50 52 53 53 68 54 88 55 51 56
REMARK SMILES IDX 52 57 67 59 89 60 54 61 37 62 38 63 47 64 39 65 40 66 46 67
REMARK SMILES IDX 48 68 41 69 42 70 43 71 44 72 45 73 71 74 72 75 81 76 73 77
REMARK SMILES IDX 74 78 80 79 82 80 75 81 76 82 77 83 78 84 79 85 55 86 56 87
REMARK SMILES IDX 65 88 57 89 58 90 64 91 66 92 59 93 60 94 61 95 62 96 63 97
REMARK H PARENT 20 7 25 28 87 47 53 58
REMARK Flexibility Score: inf
ROOT
ATOM      1  C   UNL A   1      33.270  29.057  25.728  1.00  0.00     0.023 C 
ENDROOT
BRANCH   1   2
ATOM      2  C   UNL A   1      31.991  29.762  25.288  1.00  0.00     0.023 C 
BRANCH   2   3
ATOM      3  C   UNL A   1      31.295  29.136  24.080  1.00  0.00     0.116 C 
BRANCH   3   4
ATOM      4  N   UNL A   1      30.512  27.989  24.453  1.00  0.00    -0.351 N 
ATOM      5  C   UNL A   1      30.719  26.648  24.623  1.00  0.00     0.263 C 
ATOM      6  O   UNL A   1      29.655  26.095  24.946  1.00  0.00    -0.268 OA
ATOM      7  H   UNL A   1      29.578  28.235  24.636  1.00  0.00     0.163 HD
BRANCH   5   8
ATOM      8  C   UNL A   1      31.968  25.885  24.486  1.00  0.00     0.117 A 
ATOM      9  C   UNL A   1      33.072  25.712  23.643  1.00  0.00     0.069 A 
ATOM     10  N   UNL A   1      34.037  24.816  24.117  1.00  0.00    -0.224 NA
ATOM     11  C   UNL A   1      33.649  24.175  25.183  1.00  0.00     0.186 A 
ATOM     12  S   UNL A   1      32.166  24.730  25.803  1.00  0.00    -0.091 S 
BRANCH   9  13
ATOM     13  C   UNL A   1      33.460  26.240  22.286  1.00  0.00     0.034 C 
ATOM     14  C   UNL A   1      32.558  25.712  21.172  1.00  0.00     0.014 C 
ATOM     15  C   UNL A   1      33.796  27.733  22.273  1.00  0.00     0.014 C 
ENDBRANCH   9  13
BRANCH  11  16
ATOM     16  N   UNL A   1      34.367  23.185  25.769  1.00  0.00    -0.343 N 
ATOM     17  C   UNL A   1      33.859  21.815  25.821  1.00  0.00     0.150 C 
ATOM     18  C   UNL A   1      35.822  23.302  25.873  1.00  0.00     0.153 C 
ATOM     19  C   UNL A   1      34.581  20.966  24.754  1.00  0.00     0.135 C 
ATOM     20  C   UNL A   1      36.562  22.336  24.907  1.00  0.00     0.081 C 
ATOM     21  O   UNL A   1      36.008  20.999  24.952  1.00  0.00    -0.369 OA
ATOM     22  C   UNL A   1      34.145  19.509  24.831  1.00  0.00     0.040 C 
ATOM     23  C   UNL A   1      36.586  22.857  23.463  1.00  0.00     0.044 C 
ATOM     24  C   UNL A   1      38.015  22.189  25.387  1.00  0.00     0.044 C 
ENDBRANCH  11  16
ENDBRANCH   5   8
ENDBRANCH   3   4
ENDBRANCH   2   3
ENDBRANCH   1   2
BRANCH   1  25
ATOM     25  C   UNL A   1      33.499  29.004  27.234  1.00  0.00     0.116 C 
BRANCH  25  26
ATOM     26  N   UNL A   1      33.509  30.305  27.893  1.00  0.00    -0.352 N 
ATOM     27  C   UNL A   1      34.559  30.917  28.542  1.00  0.00     0.251 C 
ATOM     28  H   UNL A   1      32.662  30.808  27.870  1.00  0.00     0.163 HD
ATOM     29  O   UNL A   1      34.408  32.003  29.094  1.00  0.00    -0.269 OA
BRANCH  27  30
ATOM     30  C   UNL A   1      35.853  30.209  28.609  1.00  0.00     0.039 A 
ATOM     31  C   UNL A   1      36.689  30.225  27.491  1.00  0.00     0.014 A 
ATOM     32  C   UNL A   1      36.284  29.653  29.816  1.00  0.00     0.014 A 
ATOM     33  C   UNL A   1      38.005  29.777  27.617  1.00  0.00     0.010 A 
ATOM     34  C   UNL A   1      37.615  29.284  29.958  1.00  0.00     0.010 A 
ATOM     35  C   UNL A   1      38.494  29.359  28.866  1.00  0.00    -0.014 A 
BRANCH  35  36
ATOM     36  C   UNL A   1      39.928  29.029  29.068  1.00  0.00     0.031 A 
ATOM     37  C   UNL A   1      40.875  30.080  29.573  1.00  0.00     0.074 A 
ATOM     38  C   UNL A   1      40.393  27.819  28.700  1.00  0.00     0.049 A 
ATOM     39  N   UNL A   1      42.175  30.029  29.698  1.00  0.00    -0.248 NA
ATOM     40  C   UNL A   1      40.286  31.375  29.952  1.00  0.00     0.031 C 
ATOM     41  C   UNL A   1      39.588  26.736  28.126  1.00  0.00     0.029 A 
ATOM     42  N   UNL A   1      41.663  27.299  28.737  1.00  0.00    -0.354 N 
ATOM     43  C   UNL A   1      42.563  31.290  30.133  1.00  0.00     0.074 A 
ATOM     44  C   UNL A   1      41.366  32.098  30.210  1.00  0.00     0.031 C 
ATOM     45  C   UNL A   1      40.377  25.674  27.893  1.00  0.00     0.029 A 
ATOM     46  C   UNL A   1      41.748  26.010  28.266  1.00  0.00     0.049 A 
ATOM     47  H   UNL A   1      42.441  27.802  29.070  1.00  0.00     0.167 HD
ATOM     48  C   UNL A   1      43.802  31.728  30.461  1.00  0.00     0.037 A 
ATOM     49  C   UNL A   1      42.811  25.190  28.148  1.00  0.00     0.037 A 
ATOM     50  C   UNL A   1      44.982  30.907  30.436  1.00  0.00     0.049 A 
ATOM     51  C   UNL A   1      44.164  25.679  28.579  1.00  0.00     0.074 A 
ATOM     52  C   UNL A   1      46.269  31.236  30.822  1.00  0.00     0.029 A 
ATOM     53  N   UNL A   1      45.014  29.586  30.014  1.00  0.00    -0.354 N 
ATOM     54  N   UNL A   1      44.504  26.858  29.042  1.00  0.00    -0.248 NA
ATOM     55  C   UNL A   1      45.279  24.726  28.479  1.00  0.00     0.031 C 
ATOM     56  C   UNL A   1      47.085  30.117  30.617  1.00  0.00     0.029 A 
ATOM     57  C   UNL A   1      46.300  29.085  30.127  1.00  0.00     0.049 A 
ATOM     58  H   UNL A   1      44.239  29.079  29.683  1.00  0.00     0.167 HD
ATOM     59  C   UNL A   1      45.866  26.783  29.307  1.00  0.00     0.074 A 
ATOM     60  C   UNL A   1      46.287  25.440  28.962  1.00  0.00     0.031 C 
ATOM     61  C   UNL A   1      46.695  27.742  29.789  1.00  0.00     0.037 A 
BRANCH  48  62
ATOM     62  C   UNL A   1      43.930  33.162  30.888  1.00  0.00     0.058 A 
ATOM     63  C   UNL A   1      44.125  34.191  29.951  1.00  0.00     0.135 A 
ATOM     64  C   UNL A   1      43.861  33.515  32.245  1.00  0.00     0.135 A 
ATOM     65  F   UNL A   1      44.217  33.903  28.643  1.00  0.00    -0.206 F 
ATOM     66  C   UNL A   1      44.286  35.513  30.347  1.00  0.00     0.059 A 
ATOM     67  C   UNL A   1      43.994  34.836  32.662  1.00  0.00     0.059 A 
ATOM     68  F   UNL A   1      43.677  32.571  33.181  1.00  0.00    -0.206 F 
ATOM     69  C   UNL A   1      44.226  35.826  31.706  1.00  0.00     0.060 A 
BRANCH  69  70
ATOM     70  S   UNL A   1      44.456  37.543  32.212  1.00  0.00     0.124 S 
ATOM     71  O   UNL A   1      43.396  37.696  33.204  1.00  0.00    -0.237 OA
ATOM     72  O   UNL A   1      45.818  37.539  32.737  1.00  0.00    -0.237 OA
ATOM     73  O   UNL A   1      44.268  38.288  30.971  1.00  0.00    -0.744 OA
ENDBRANCH  69  70
ENDBRANCH  48  62
BRANCH  49  74
ATOM     74  C   UNL A   1      42.628  23.809  27.634  1.00  0.00     0.058 A 
ATOM     75  C   UNL A   1      42.684  23.546  26.257  1.00  0.00     0.135 A 
ATOM     76  C   UNL A   1      42.415  22.726  28.499  1.00  0.00     0.135 A 
ATOM     77  F   UNL A   1      42.881  24.552  25.391  1.00  0.00    -0.206 F 
ATOM     78  C   UNL A   1      42.522  22.261  25.753  1.00  0.00     0.059 A 
ATOM     79  C   UNL A   1      42.269  21.427  28.020  1.00  0.00     0.059 A 
ATOM     80  F   UNL A   1      42.373  22.924  29.826  1.00  0.00    -0.206 F 
ATOM     81  C   UNL A   1      42.315  21.207  26.643  1.00  0.00     0.060 A 
BRANCH  81  82
ATOM     82  S   UNL A   1      42.162  19.531  25.985  1.00  0.00     0.124 S 
ATOM     83  O   UNL A   1      43.071  19.579  24.846  1.00  0.00    -0.237 OA
ATOM     84  O   UNL A   1      42.595  18.714  27.115  1.00  0.00    -0.237 OA
ATOM     85  O   UNL A   1      40.742  19.431  25.659  1.00  0.00    -0.744 OA
ENDBRANCH  81  82
ENDBRANCH  49  74
BRANCH  61  86
ATOM     86  C   UNL A   1      48.132  27.365  29.998  1.00  0.00     0.058 A 
ATOM     87  C   UNL A   1      49.129  27.749  29.088  1.00  0.00     0.135 A 
ATOM     88  C   UNL A   1      48.522  26.661  31.148  1.00  0.00     0.135 A 
ATOM     89  F   UNL A   1      48.802  28.417  27.971  1.00  0.00    -0.206 F 
ATOM     90  C   UNL A   1      50.466  27.434  29.305  1.00  0.00     0.059 A 
ATOM     91  C   UNL A   1      49.856  26.352  31.394  1.00  0.00     0.059 A 
ATOM     92  F   UNL A   1      47.605  26.280  32.050  1.00  0.00    -0.206 F 
ATOM     93  C   UNL A   1      50.820  26.735  30.461  1.00  0.00     0.060 A 
BRANCH  93  94
ATOM     94  S   UNL A   1      52.563  26.368  30.756  1.00  0.00     0.124 S 
ATOM     95  O   UNL A   1      53.022  26.030  29.413  1.00  0.00    -0.237 OA
ATOM     96  O   UNL A   1      53.064  27.627  31.299  1.00  0.00    -0.237 OA
ATOM     97  O   UNL A   1      52.518  25.259  31.704  1.00  0.00    -0.744 OA
ENDBRANCH  93  94
ENDBRANCH  61  86
ENDBRANCH  35  36
ENDBRANCH  27  30
ENDBRANCH  25  26
ENDBRANCH   1  25
TORSDOF 16
ENDMDL
MODEL 2
REMARK VINA RESULT:     -11.4      2.582      3.456
REMARK SMILES CC(C)c1nc(N2C[C@H](C)OC(C)(C)C2)sc1C(=O)NCCCCNC(=O)c1ccc(-c2c3nc(c(-c4c(F)cc(S(=O)(=O)[O-])cc4F)c4ccc([nH]4)c(-c4c(F)cc(S(=O)(=O)[O-])cc4F)c4nc(c(-c5c(F)cc(S(=O)(=O)[O-])cc5F)c5ccc2[nH]5)C=C4)C=C3)cc1
REMARK SMILES IDX 23 1 22 2 21 3 20 4 18 5 19 6 17 8 4 9 5 10 6 11 16 12 2 13
REMARK SMILES IDX 1 14 3 15 7 16 8 17 15 18 9 19 12 20 11 21 10 22 13 23 14 24
REMARK SMILES IDX 24 25 25 26 26 27 27 29 28 30 29 31 93 32 30 33 92 34 31 35
REMARK SMILES IDX 32 36 33 37 86 38 34 39 91 40 85 41 87 42 35 43 90 44 84 45
REMARK SMILES IDX 83 46 36 48 70 49 49 50 69 51 50 52 53 53 68 54 88 55 51 56
REMARK SMILES IDX 52 57 67 59 89 60 54 61 37 62 38 63 47 64 39 65 40 66 46 67
REMARK SMILES IDX 48 68 41 69 42 70 43 71 44 72 45 73 71 74 72 75 81 76 73 77
REMARK SMILES IDX 74 78 80 79 82 80 75 81 76 82 77 83 78 84 79 85 55 86 56 87
REMARK SMILES IDX 65 88 57 89 58 90 64 91 66 92 59 93 60 94 61 95 62 96 63 97
REMARK H PARENT 20 7 25 28 87 47 53 58
REMARK Flexibility Score: inf
ROOT
ATOM      1  C   UNL A   1      34.851  31.966  28.057  1.00  0.00     0.023 C 
ENDROOT
BRANCH   1   2
ATOM      2  C   UNL A   1      34.604  30.532  27.601  1.00  0.00     0.023 C 
BRANCH   2   3
ATOM      3  C   UNL A   1      33.341  30.333  26.764  1.00  0.00     0.116 C 
BRANCH   3   4
ATOM      4  N   UNL A   1      32.449  29.379  27.366  1.00  0.00    -0.351 N 
ATOM      5  C   UNL A   1      31.869  28.191  27.018  1.00  0.00     0.263 C 
ATOM      6  O   UNL A   1      31.144  27.788  27.942  1.00  0.00    -0.268 OA
ATOM      7  H   UNL A   1      32.185  29.656  28.273  1.00  0.00     0.163 HD
BRANCH   5   8
ATOM      8  C   UNL A   1      32.028  27.419  25.777  1.00  0.00     0.117 A 
ATOM      9  C   UNL A   1      31.568  27.341  24.457  1.00  0.00     0.069 A 
ATOM     10  N   UNL A   1      32.186  26.355  23.679  1.00  0.00    -0.224 NA
ATOM     11  C   UNL A   1      32.961  25.573  24.377  1.00  0.00     0.186 A 
ATOM     12  S   UNL A   1      33.147  26.075  25.991  1.00  0.00    -0.091 S 
BRANCH   9  13
ATOM     13  C   UNL A   1      30.504  28.054  23.662  1.00  0.00     0.034 C 
ATOM     14  C   UNL A   1      29.194  27.271  23.604  1.00  0.00     0.014 C 
ATOM     15  C   UNL A   1      30.418  29.554  23.948  1.00  0.00     0.014 C 
ENDBRANCH   9  13
BRANCH  11  16
ATOM     16  N   UNL A   1      33.589  24.485  23.867  1.00  0.00    -0.343 N 
ATOM     17  C   UNL A   1      34.882  24.046  24.390  1.00  0.00     0.150 C 
ATOM     18  C   UNL A   1      32.811  23.439  23.203  1.00  0.00     0.153 C 
ATOM     19  C   UNL A   1      34.670  22.821  25.304  1.00  0.00     0.135 C 
ATOM     20  C   UNL A   1      32.721  22.141  24.053  1.00  0.00     0.081 C 
ATOM     21  O   UNL A   1      34.009  21.758  24.590  1.00  0.00    -0.369 OA
ATOM     22  C   UNL A   1      36.001  22.277  25.803  1.00  0.00     0.040 C 
ATOM     23  C   UNL A   1      31.683  22.250  25.179  1.00  0.00     0.044 C 
ATOM     24  C   UNL A   1      32.307  20.984  23.128  1.00  0.00     0.044 C 
ENDBRANCH  11  16
ENDBRANCH   5   8
ENDBRANCH   3   4
ENDBRANCH   2   3
ENDBRANCH   1   2
BRANCH   1  25
ATOM     25  C   UNL A   1      35.870  32.125  29.180  1.00  0.00     0.116 C 
BRANCH  25  26
ATOM     26  N   UNL A   1      35.654  31.246  30.324  1.00  0.00    -0.352 N 
ATOM     27  C   UNL A   1      36.568  30.414  30.935  1.00  0.00     0.251 C 
ATOM     28  H   UNL A   1      34.747  31.248  30.707  1.00  0.00     0.163 HD
ATOM     29  O   UNL A   1      36.231  29.692  31.868  1.00  0.00    -0.269 OA
BRANCH  27  30
ATOM     30  C   UNL A   1      37.944  30.369  30.403  1.00  0.00     0.039 A 
ATOM     31  C   UNL A   1      39.015  30.494  31.290  1.00  0.00     0.014 A 
ATOM     32  C   UNL A   1      38.163  30.069  29.056  1.00  0.00     0.014 A 
ATOM     33  C   UNL A   1      40.307  30.210  30.844  1.00  0.00     0.010 A 
ATOM     34  C   UNL A   1      39.438  29.710  28.637  1.00  0.00     0.010 A 
ATOM     35  C   UNL A   1      40.519  29.758  29.530  1.00  0.00    -0.014 A 
BRANCH  35  36
ATOM     36  C   UNL A   1      41.855  29.296  29.075  1.00  0.00     0.031 A 
ATOM     37  C   UNL A   1      42.991  30.274  28.969  1.00  0.00     0.074 A 
ATOM     38  C   UNL A   1      42.015  28.023  28.660  1.00  0.00     0.049 A 
ATOM     39  N   UNL A   1      44.190  30.097  28.479  1.00  0.00    -0.248 NA
ATOM     40  C   UNL A   1      42.731  31.643  29.442  1.00  0.00     0.031 C 
ATOM     41  C   UNL A   1      40.970  26.995  28.643  1.00  0.00     0.029 A 
ATOM     42  N   UNL A   1      43.117  27.379  28.155  1.00  0.00    -0.354 N 
ATOM     43  C   UNL A   1      44.813  31.336  28.550  1.00  0.00     0.074 A 
ATOM     44  C   UNL A   1      43.847  32.266  29.091  1.00  0.00     0.031 C 
ATOM     45  C   UNL A   1      41.489  25.846  28.180  1.00  0.00     0.029 A 
ATOM     46  C   UNL A   1      42.890  26.061  27.836  1.00  0.00     0.049 A 
ATOM     47  H   UNL A   1      43.990  27.820  28.035  1.00  0.00     0.167 HD
ATOM     48  C   UNL A   1      46.084  31.664  28.216  1.00  0.00     0.037 A 
ATOM     49  C   UNL A   1      43.719  25.131  27.323  1.00  0.00     0.037 A 
ATOM     50  C   UNL A   1      47.059  30.726  27.730  1.00  0.00     0.049 A 
ATOM     51  C   UNL A   1      45.142  25.504  27.021  1.00  0.00     0.074 A 
ATOM     52  C   UNL A   1      48.394  30.944  27.436  1.00  0.00     0.029 A 
ATOM     53  N   UNL A   1      46.807  29.385  27.481  1.00  0.00    -0.354 N 
ATOM     54  N   UNL A   1      45.732  26.668  27.148  1.00  0.00    -0.248 NA
ATOM     55  C   UNL A   1      46.017  24.437  26.513  1.00  0.00     0.031 C 
ATOM     56  C   UNL A   1      48.945  29.737  26.992  1.00  0.00     0.029 A 
ATOM     57  C   UNL A   1      47.961  28.762  27.034  1.00  0.00     0.049 A 
ATOM     58  H   UNL A   1      45.938  28.941  27.603  1.00  0.00     0.167 HD
ATOM     59  C   UNL A   1      47.050  26.470  26.754  1.00  0.00     0.074 A 
ATOM     60  C   UNL A   1      47.175  25.072  26.394  1.00  0.00     0.031 C 
ATOM     61  C   UNL A   1      48.066  27.367  26.692  1.00  0.00     0.037 A 
BRANCH  48  62
ATOM     62  C   UNL A   1      46.487  33.101  28.383  1.00  0.00     0.058 A 
ATOM     63  C   UNL A   1      46.351  34.026  27.334  1.00  0.00     0.135 A 
ATOM     64  C   UNL A   1      47.015  33.561  29.599  1.00  0.00     0.135 A 
ATOM     65  F   UNL A   1      45.869  33.632  26.145  1.00  0.00    -0.206 F 
ATOM     66  C   UNL A   1      46.762  35.347  27.473  1.00  0.00     0.059 A 
ATOM     67  C   UNL A   1      47.409  34.885  29.769  1.00  0.00     0.059 A 
ATOM     68  F   UNL A   1      47.166  32.718  30.633  1.00  0.00    -0.206 F 
ATOM     69  C   UNL A   1      47.297  35.765  28.692  1.00  0.00     0.060 A 
BRANCH  69  70
ATOM     70  S   UNL A   1      47.846  37.477  28.856  1.00  0.00     0.124 S 
ATOM     71  O   UNL A   1      47.322  37.823  30.174  1.00  0.00    -0.237 OA
ATOM     72  O   UNL A   1      49.297  37.355  28.764  1.00  0.00    -0.237 OA
ATOM     73  O   UNL A   1      47.203  38.147  27.729  1.00  0.00    -0.744 OA
ENDBRANCH  69  70
ENDBRANCH  48  62
BRANCH  49  74
ATOM     74  C   UNL A   1      43.231  23.746  27.099  1.00  0.00     0.058 A 
ATOM     75  C   UNL A   1      42.882  23.311  25.811  1.00  0.00     0.135 A 
ATOM     76  C   UNL A   1      43.120  22.828  28.153  1.00  0.00     0.135 A 
ATOM     77  F   UNL A   1      42.968  24.157  24.773  1.00  0.00    -0.206 F 
ATOM     78  C   UNL A   1      42.428  22.018  25.577  1.00  0.00     0.059 A 
ATOM     79  C   UNL A   1      42.686  21.522  27.940  1.00  0.00     0.059 A 
ATOM     80  F   UNL A   1      43.459  23.191  29.400  1.00  0.00    -0.206 F 
ATOM     81  C   UNL A   1      42.334  21.130  26.649  1.00  0.00     0.060 A 
BRANCH  81  82
ATOM     82  S   UNL A   1      41.798  19.435  26.328  1.00  0.00     0.124 S 
ATOM     83  O   UNL A   1      42.488  19.141  25.077  1.00  0.00    -0.237 OA
ATOM     84  O   UNL A   1      42.285  18.727  27.508  1.00  0.00    -0.237 OA
ATOM     85  O   UNL A   1      40.345  19.558  26.237  1.00  0.00    -0.744 OA
ENDBRANCH  81  82
ENDBRANCH  49  74
BRANCH  61  86
ATOM     86  C   UNL A   1      49.404  26.858  26.246  1.00  0.00     0.058 A 
ATOM     87  C   UNL A   1      49.821  26.967  24.911  1.00  0.00     0.135 A 
ATOM     88  C   UNL A   1      50.301  26.308  27.175  1.00  0.00     0.135 A 
ATOM     89  F   UNL A   1      48.995  27.479  23.986  1.00  0.00    -0.206 F 
ATOM     90  C   UNL A   1      51.078  26.531  24.508  1.00  0.00     0.059 A 
ATOM     91  C   UNL A   1      51.571  25.884  26.797  1.00  0.00     0.059 A 
ATOM     92  F   UNL A   1      49.951  26.191  28.466  1.00  0.00    -0.206 F 
ATOM     93  C   UNL A   1      51.947  25.991  25.458  1.00  0.00     0.060 A 
BRANCH  93  94
ATOM     94  S   UNL A   1      53.594  25.469  24.935  1.00  0.00     0.124 S 
ATOM     95  O   UNL A   1      53.517  24.024  25.126  1.00  0.00    -0.237 OA
ATOM     96  O   UNL A   1      53.645  25.924  23.549  1.00  0.00    -0.237 OA
ATOM     97  O   UNL A   1      54.480  26.179  25.852  1.00  0.00    -0.744 OA
ENDBRANCH  93  94
ENDBRANCH  61  86
ENDBRANCH  35  36
ENDBRANCH  27  30
ENDBRANCH  25  26
ENDBRANCH   1  25
TORSDOF 16
ENDMDL
MODEL 3
REMARK VINA RESULT:     -11.3      4.964     10.687
REMARK SMILES CC(C)c1nc(N2C[C@H](C)OC(C)(C)C2)sc1C(=O)NCCCCNC(=O)c1ccc(-c2c3nc(c(-c4c(F)cc(S(=O)(=O)[O-])cc4F)c4ccc([nH]4)c(-c4c(F)cc(S(=O)(=O)[O-])cc4F)c4nc(c(-c5c(F)cc(S(=O)(=O)[O-])cc5F)c5ccc2[nH]5)C=C4)C=C3)cc1
REMARK SMILES IDX 23 1 22 2 21 3 20 4 18 5 19 6 17 8 4 9 5 10 6 11 16 12 2 13
REMARK SMILES IDX 1 14 3 15 7 16 8 17 15 18 9 19 12 20 11 21 10 22 13 23 14 24
REMARK SMILES IDX 24 25 25 26 26 27 27 29 28 30 29 31 93 32 30 33 92 34 31 35
REMARK SMILES IDX 32 36 33 37 86 38 34 39 91 40 85 41 87 42 35 43 90 44 84 45
REMARK SMILES IDX 83 46 36 48 70 49 49 50 69 51 50 52 53 53 68 54 88 55 51 56
REMARK SMILES IDX 52 57 67 59 89 60 54 61 37 62 38 63 47 64 39 65 40 66 46 67
REMARK SMILES IDX 48 68 41 69 42 70 43 71 44 72 45 73 71 74 72 75 81 76 73 77
REMARK SMILES IDX 74 78 80 79 82 80 75 81 76 82 77 83 78 84 79 85 55 86 56 87
REMARK SMILES IDX 65 88 57 89 58 90 64 91 66 92 59 93 60 94 61 95 62 96 63 97
REMARK H PARENT 20 7 25 28 87 47 53 58
REMARK Flexibility Score: inf
ROOT
ATOM      1  C   UNL A   1      40.194  21.648  26.904  1.00  0.00     0.023 C 
ENDROOT
BRANCH   1   2
ATOM      2  C   UNL A   1      39.262  21.359  25.732  1.00  0.00     0.023 C 
BRANCH   2   3
ATOM      3  C   UNL A   1      37.944  22.131  25.753  1.00  0.00     0.116 C 
BRANCH   3   4
ATOM      4  N   UNL A   1      37.517  22.492  24.428  1.00  0.00    -0.351 N 
ATOM      5  C   UNL A   1      36.346  22.830  23.811  1.00  0.00     0.263 C 
ATOM      6  O   UNL A   1      36.549  23.036  22.602  1.00  0.00    -0.268 OA
ATOM      7  H   UNL A   1      38.271  22.496  23.796  1.00  0.00     0.163 HD
BRANCH   5   8
ATOM      8  C   UNL A   1      35.006  22.975  24.397  1.00  0.00     0.117 A 
ATOM      9  C   UNL A   1      33.896  22.232  24.816  1.00  0.00     0.069 A 
ATOM     10  N   UNL A   1      32.867  22.988  25.390  1.00  0.00    -0.224 NA
ATOM     11  C   UNL A   1      33.060  24.272  25.275  1.00  0.00     0.186 A 
ATOM     12  S   UNL A   1      34.581  24.670  24.627  1.00  0.00    -0.091 S 
BRANCH   9  13
ATOM     13  C   UNL A   1      33.511  20.776  24.754  1.00  0.00     0.034 C 
ATOM     14  C   UNL A   1      32.489  20.487  23.657  1.00  0.00     0.014 C 
ATOM     15  C   UNL A   1      34.696  19.816  24.885  1.00  0.00     0.014 C 
ENDBRANCH   9  13
BRANCH  11  16
ATOM     16  N   UNL A   1      32.157  25.207  25.663  1.00  0.00    -0.343 N 
ATOM     17  C   UNL A   1      32.590  26.498  26.196  1.00  0.00     0.150 C 
ATOM     18  C   UNL A   1      30.811  25.202  25.091  1.00  0.00     0.153 C 
ATOM     19  C   UNL A   1      32.426  27.577  25.106  1.00  0.00     0.135 C 
ATOM     20  C   UNL A   1      30.585  26.380  24.103  1.00  0.00     0.081 C 
ATOM     21  O   UNL A   1      31.062  27.635  24.644  1.00  0.00    -0.369 OA
ATOM     22  C   UNL A   1      32.784  28.955  25.645  1.00  0.00     0.040 C 
ATOM     23  C   UNL A   1      31.211  26.119  22.727  1.00  0.00     0.044 C 
ATOM     24  C   UNL A   1      29.071  26.570  23.914  1.00  0.00     0.044 C 
ENDBRANCH  11  16
ENDBRANCH   5   8
ENDBRANCH   3   4
ENDBRANCH   2   3
ENDBRANCH   1   2
BRANCH   1  25
ATOM     25  C   UNL A   1      40.339  23.120  27.273  1.00  0.00     0.116 C 
BRANCH  25  26
ATOM     26  N   UNL A   1      40.679  23.994  26.156  1.00  0.00    -0.352 N 
ATOM     27  C   UNL A   1      40.996  25.335  26.198  1.00  0.00     0.251 C 
ATOM     28  H   UNL A   1      40.683  23.576  25.264  1.00  0.00     0.163 HD
ATOM     29  O   UNL A   1      41.218  25.959  25.165  1.00  0.00    -0.269 OA
BRANCH  27  30
ATOM     30  C   UNL A   1      41.004  26.015  27.508  1.00  0.00     0.039 A 
ATOM     31  C   UNL A   1      42.143  26.724  27.893  1.00  0.00     0.014 A 
ATOM     32  C   UNL A   1      39.841  26.059  28.280  1.00  0.00     0.014 A 
ATOM     33  C   UNL A   1      42.080  27.568  29.004  1.00  0.00     0.010 A 
ATOM     34  C   UNL A   1      39.756  26.958  29.335  1.00  0.00     0.010 A 
ATOM     35  C   UNL A   1      40.868  27.736  29.696  1.00  0.00    -0.014 A 
BRANCH  35  36
ATOM     36  C   UNL A   1      40.726  28.743  30.778  1.00  0.00     0.031 A 
ATOM     37  C   UNL A   1      41.577  28.643  32.012  1.00  0.00     0.074 A 
ATOM     38  C   UNL A   1      39.762  29.682  30.694  1.00  0.00     0.049 A 
ATOM     39  N   UNL A   1      41.519  29.344  33.114  1.00  0.00    -0.248 NA
ATOM     40  C   UNL A   1      42.604  27.588  32.024  1.00  0.00     0.031 C 
ATOM     41  C   UNL A   1      38.821  29.838  29.580  1.00  0.00     0.029 A 
ATOM     42  N   UNL A   1      39.402  30.675  31.570  1.00  0.00    -0.354 N 
ATOM     43  C   UNL A   1      42.473  28.795  33.961  1.00  0.00     0.074 A 
ATOM     44  C   UNL A   1      43.066  27.675  33.263  1.00  0.00     0.031 C 
ATOM     45  C   UNL A   1      38.012  30.881  29.829  1.00  0.00     0.029 A 
ATOM     46  C   UNL A   1      38.352  31.447  31.131  1.00  0.00     0.049 A 
ATOM     47  H   UNL A   1      39.854  30.821  32.433  1.00  0.00     0.167 HD
ATOM     48  C   UNL A   1      42.839  29.200  35.201  1.00  0.00     0.037 A 
ATOM     49  C   UNL A   1      37.732  32.492  31.712  1.00  0.00     0.037 A 
ATOM     50  C   UNL A   1      42.286  30.346  35.871  1.00  0.00     0.049 A 
ATOM     51  C   UNL A   1      38.200  32.963  33.060  1.00  0.00     0.074 A 
ATOM     52  C   UNL A   1      42.643  30.884  37.095  1.00  0.00     0.029 A 
ATOM     53  N   UNL A   1      41.268  31.141  35.364  1.00  0.00    -0.354 N 
ATOM     54  N   UNL A   1      39.143  32.467  33.824  1.00  0.00    -0.248 NA
ATOM     55  C   UNL A   1      37.524  34.141  33.624  1.00  0.00     0.031 C 
ATOM     56  C   UNL A   1      41.827  31.996  37.337  1.00  0.00     0.029 A 
ATOM     57  C   UNL A   1      40.981  32.164  36.252  1.00  0.00     0.049 A 
ATOM     58  H   UNL A   1      40.816  30.999  34.501  1.00  0.00     0.167 HD
ATOM     59  C   UNL A   1      39.187  33.281  34.950  1.00  0.00     0.074 A 
ATOM     60  C   UNL A   1      38.183  34.309  34.763  1.00  0.00     0.031 C 
ATOM     61  C   UNL A   1      39.986  33.184  36.041  1.00  0.00     0.037 A 
BRANCH  48  62
ATOM     62  C   UNL A   1      43.899  28.398  35.900  1.00  0.00     0.058 A 
ATOM     63  C   UNL A   1      45.265  28.659  35.702  1.00  0.00     0.135 A 
ATOM     64  C   UNL A   1      43.550  27.358  36.774  1.00  0.00     0.135 A 
ATOM     65  F   UNL A   1      45.651  29.632  34.860  1.00  0.00    -0.206 F 
ATOM     66  C   UNL A   1      46.247  27.892  36.316  1.00  0.00     0.059 A 
ATOM     67  C   UNL A   1      44.516  26.592  37.419  1.00  0.00     0.059 A 
ATOM     68  F   UNL A   1      42.259  27.066  36.998  1.00  0.00    -0.206 F 
ATOM     69  C   UNL A   1      45.864  26.855  37.167  1.00  0.00     0.060 A 
BRANCH  69  70
ATOM     70  S   UNL A   1      47.147  25.851  37.944  1.00  0.00     0.124 S 
ATOM     71  O   UNL A   1      48.023  26.881  38.496  1.00  0.00    -0.237 OA
ATOM     72  O   UNL A   1      46.393  25.072  38.921  1.00  0.00    -0.237 OA
ATOM     73  O   UNL A   1      47.700  25.088  36.829  1.00  0.00    -0.744 OA
ENDBRANCH  69  70
ENDBRANCH  48  62
BRANCH  49  74
ATOM     74  C   UNL A   1      36.628  33.188  31.003  1.00  0.00     0.058 A 
ATOM     75  C   UNL A   1      36.899  34.050  29.931  1.00  0.00     0.135 A 
ATOM     76  C   UNL A   1      35.287  32.995  31.366  1.00  0.00     0.135 A 
ATOM     77  F   UNL A   1      38.168  34.269  29.552  1.00  0.00    -0.206 F 
ATOM     78  C   UNL A   1      35.882  34.707  29.249  1.00  0.00     0.059 A 
ATOM     79  C   UNL A   1      34.250  33.627  30.686  1.00  0.00     0.059 A 
ATOM     80  F   UNL A   1      34.976  32.165  32.374  1.00  0.00    -0.206 F 
ATOM     81  C   UNL A   1      34.559  34.489  29.634  1.00  0.00     0.060 A 
BRANCH  81  82
ATOM     82  S   UNL A   1      33.238  35.302  28.707  1.00  0.00     0.124 S 
ATOM     83  O   UNL A   1      32.611  34.170  28.035  1.00  0.00    -0.237 OA
ATOM     84  O   UNL A   1      32.456  35.929  29.769  1.00  0.00    -0.237 OA
ATOM     85  O   UNL A   1      33.962  36.231  27.843  1.00  0.00    -0.744 OA
ENDBRANCH  81  82
ENDBRANCH  49  74
BRANCH  61  86
ATOM     86  C   UNL A   1      39.826  34.231  37.104  1.00  0.00     0.058 A 
ATOM     87  C   UNL A   1      39.046  34.000  38.247  1.00  0.00     0.135 A 
ATOM     88  C   UNL A   1      40.505  35.455  37.003  1.00  0.00     0.135 A 
ATOM     89  F   UNL A   1      38.372  32.848  38.383  1.00  0.00    -0.206 F 
ATOM     90  C   UNL A   1      38.932  34.957  39.250  1.00  0.00     0.059 A 
ATOM     91  C   UNL A   1      40.421  36.418  38.004  1.00  0.00     0.059 A 
ATOM     92  F   UNL A   1      41.270  35.717  35.932  1.00  0.00    -0.206 F 
ATOM     93  C   UNL A   1      39.624  36.163  39.120  1.00  0.00     0.060 A 
BRANCH  93  94
ATOM     94  S   UNL A   1      39.506  37.381  40.446  1.00  0.00     0.124 S 
ATOM     95  O   UNL A   1      38.930  36.584  41.525  1.00  0.00    -0.237 OA
ATOM     96  O   UNL A   1      40.896  37.785  40.630  1.00  0.00    -0.237 OA
ATOM     97  O   UNL A   1      38.631  38.407  39.886  1.00  0.00    -0.744 OA
ENDBRANCH  93  94
ENDBRANCH  61  86
ENDBRANCH  35  36
ENDBRANCH  27  30
ENDBRANCH  25  26
ENDBRANCH   1  25
TORSDOF 16
ENDMDL
