MODEL 1
REMARK VINA RESULT:     -11.9      0.000      0.000
REMARK SMILES Cc1ccc(CN2/C(=[NH+]/C(=O)CCC(=O)NCCCCNC(=O)c3ccc(-c4c5nc(c(-c6c(F)cc(S(=O)(=O)[O-])cc6F)c6ccc([nH]6)c(-c6c(F)cc(S(=O)(=O)[O-])cc6F)c6nc(c(-c7c(F)cc(S(=O)(=O)[O-])cc7F)c7ccc4[nH]7)C=C6)C=C5)cc3)S[C@H]3CS(=O)(=O)C[C@@H]32)cc1
REMARK SMILES IDX 18 1 17 2 16 3 14 4 15 5 13 7 12 8 10 9 7 10 8 11 97 12 9 13
REMARK SMILES IDX 90 14 91 15 96 16 92 18 93 19 11 20 94 21 95 22 6 23 5 24
REMARK SMILES IDX 1 25 2 26 3 27 99 28 4 29 98 30 19 31 20 32 21 33 22 34
REMARK SMILES IDX 23 36 24 37 25 38 89 39 26 40 88 41 27 42 28 43 29 44 82 45
REMARK SMILES IDX 30 46 87 47 81 48 83 49 31 50 86 51 80 52 79 53 32 55 66 56
REMARK SMILES IDX 45 57 65 58 46 59 49 60 64 61 84 62 47 63 48 64 63 66 85 67
REMARK SMILES IDX 50 68 33 69 34 70 43 71 35 72 36 73 42 74 44 75 37 76 38 77
REMARK SMILES IDX 39 78 40 79 41 80 67 81 68 82 77 83 69 84 70 85 76 86 78 87
REMARK SMILES IDX 71 88 72 89 73 90 74 91 75 92 51 93 52 94 61 95 53 96 54 97
REMARK SMILES IDX 60 98 62 99 55 100 56 101 57 102 58 103 59 104
REMARK H PARENT 16 6 9 17 21 35 83 54 49 65
REMARK Flexibility Score: inf
ROOT
ATOM      1  C   UNL A   1      32.890  34.269  27.874  1.00  0.00     0.023 C 
ENDROOT
BRANCH   1   2
ATOM      2  C   UNL A   1      33.001  32.797  27.648  1.00  0.00     0.116 C 
BRANCH   2   3
ATOM      3  N   UNL A   1      31.775  32.436  26.977  1.00  0.00    -0.356 N 
ATOM      4  C   UNL A   1      31.587  31.197  26.419  1.00  0.00     0.220 C 
ATOM      5  O   UNL A   1      30.918  31.094  25.392  1.00  0.00    -0.275 OA
ATOM      6  H   UNL A   1      31.051  33.102  26.918  1.00  0.00     0.163 HD
BRANCH   4   7
ATOM      7  C   UNL A   1      32.201  29.990  27.127  1.00  0.00     0.112 C 
BRANCH   7   8
ATOM      8  C   UNL A   1      33.572  29.485  26.607  1.00  0.00     0.138 C 
BRANCH   8   9
ATOM      9  C   UNL A   1      33.592  28.108  25.891  1.00  0.00     0.308 C 
ATOM     10  N   UNL A   1      31.193  25.526  24.531  1.00  0.00    -0.247 N 
ATOM     11  C   UNL A   1      32.179  26.277  25.319  1.00  0.00     0.314 C 
ATOM     12  C   UNL A   1      31.569  24.046  24.640  1.00  0.00     0.206 C 
ATOM     13  N   UNL A   1      32.348  27.548  25.535  1.00  0.00    -0.205 N 
ATOM     14  S   UNL A   1      33.342  25.097  26.124  1.00  0.00    -0.030 SA
ATOM     15  C   UNL A   1      33.102  23.948  24.772  1.00  0.00     0.120 C 
ATOM     16  C   UNL A   1      31.186  23.033  23.584  1.00  0.00     0.187 C 
ATOM     17  H   UNL A   1      31.573  28.147  25.447  1.00  0.00     0.316 HD
ATOM     18  C   UNL A   1      33.562  22.501  24.787  1.00  0.00     0.156 C 
ATOM     19  S   UNL A   1      32.199  21.615  24.028  1.00  0.00     0.155 S 
ATOM     20  O   UNL A   1      34.688  27.676  25.526  1.00  0.00    -0.247 OA
ATOM     21  O   UNL A   1      32.596  20.916  22.816  1.00  0.00    -0.229 OA
ATOM     22  O   UNL A   1      31.498  20.911  25.078  1.00  0.00    -0.229 OA
BRANCH  10  23
ATOM     23  C   UNL A   1      29.689  25.822  24.186  1.00  0.00     0.273 C 
BRANCH  23  24
ATOM     24  C   UNL A   1      29.020  27.137  23.569  1.00  0.00    -0.007 A 
ATOM     25  C   UNL A   1      27.593  31.231  23.437  1.00  0.00     0.044 C 
ATOM     26  C   UNL A   1      27.957  29.801  23.077  1.00  0.00    -0.051 A 
ATOM     27  C   UNL A   1      27.112  28.727  23.371  1.00  0.00     0.004 A 
ATOM     28  C   UNL A   1      29.240  29.457  22.670  1.00  0.00     0.004 A 
ATOM     29  C   UNL A   1      27.636  27.407  23.596  1.00  0.00     0.008 A 
ATOM     30  C   UNL A   1      29.739  28.126  22.859  1.00  0.00     0.008 A 
ENDBRANCH  23  24
ENDBRANCH  10  23
ENDBRANCH   8   9
ENDBRANCH   7   8
ENDBRANCH   4   7
ENDBRANCH   2   3
ENDBRANCH   1   2
BRANCH   1  31
ATOM     31  C   UNL A   1      33.684  34.802  29.022  1.00  0.00     0.023 C 
BRANCH  31  32
ATOM     32  C   UNL A   1      34.257  34.118  30.239  1.00  0.00     0.116 C 
BRANCH  32  33
ATOM     33  N   UNL A   1      35.690  34.174  30.513  1.00  0.00    -0.352 N 
ATOM     34  C   UNL A   1      36.731  33.267  30.284  1.00  0.00     0.251 C 
ATOM     35  H   UNL A   1      35.980  35.011  30.942  1.00  0.00     0.163 HD
ATOM     36  O   UNL A   1      37.886  33.643  30.442  1.00  0.00    -0.269 OA
BRANCH  34  37
ATOM     37  C   UNL A   1      36.616  31.856  29.824  1.00  0.00     0.039 A 
ATOM     38  C   UNL A   1      36.367  30.922  30.825  1.00  0.00     0.014 A 
ATOM     39  C   UNL A   1      37.415  31.474  28.803  1.00  0.00     0.014 A 
ATOM     40  C   UNL A   1      37.405  30.088  31.179  1.00  0.00     0.010 A 
ATOM     41  C   UNL A   1      38.552  30.866  29.194  1.00  0.00     0.010 A 
ATOM     42  C   UNL A   1      38.556  30.239  30.438  1.00  0.00    -0.014 A 
BRANCH  42  43
ATOM     43  C   UNL A   1      39.879  29.807  30.765  1.00  0.00     0.031 A 
ATOM     44  C   UNL A   1      40.201  28.471  30.253  1.00  0.00     0.074 A 
ATOM     45  C   UNL A   1      40.709  30.854  30.980  1.00  0.00     0.049 A 
ATOM     46  N   UNL A   1      41.228  27.792  30.583  1.00  0.00    -0.248 NA
ATOM     47  C   UNL A   1      39.342  27.757  29.295  1.00  0.00     0.031 C 
ATOM     48  C   UNL A   1      42.125  31.022  30.696  1.00  0.00     0.029 A 
ATOM     49  N   UNL A   1      40.368  32.048  31.626  1.00  0.00    -0.354 N 
ATOM     50  C   UNL A   1      41.405  26.863  29.578  1.00  0.00     0.074 A 
ATOM     51  C   UNL A   1      40.125  26.739  28.938  1.00  0.00     0.031 C 
ATOM     52  C   UNL A   1      42.593  32.063  31.416  1.00  0.00     0.029 A 
ATOM     53  C   UNL A   1      41.513  32.507  32.293  1.00  0.00     0.049 A 
ATOM     54  H   UNL A   1      39.485  32.484  31.616  1.00  0.00     0.167 HD
ATOM     55  C   UNL A   1      42.684  26.510  29.271  1.00  0.00     0.037 A 
ATOM     56  C   UNL A   1      41.522  32.398  33.659  1.00  0.00     0.037 A 
ATOM     57  C   UNL A   1      43.600  27.282  30.118  1.00  0.00     0.049 A 
ATOM     58  C   UNL A   1      42.429  31.279  34.142  1.00  0.00     0.074 A 
ATOM     59  C   UNL A   1      44.381  28.402  29.882  1.00  0.00     0.029 A 
ATOM     60  N   UNL A   1      43.504  27.156  31.496  1.00  0.00    -0.354 N 
ATOM     61  N   UNL A   1      42.864  30.309  33.385  1.00  0.00    -0.248 NA
ATOM     62  C   UNL A   1      42.934  31.178  35.507  1.00  0.00     0.031 C 
ATOM     63  C   UNL A   1      44.712  28.974  31.142  1.00  0.00     0.029 A 
ATOM     64  C   UNL A   1      44.124  28.209  32.136  1.00  0.00     0.049 A 
ATOM     65  H   UNL A   1      43.053  26.412  31.957  1.00  0.00     0.167 HD
ATOM     66  C   UNL A   1      43.618  29.436  34.123  1.00  0.00     0.074 A 
ATOM     67  C   UNL A   1      43.668  30.052  35.436  1.00  0.00     0.031 C 
ATOM     68  C   UNL A   1      44.104  28.271  33.592  1.00  0.00     0.037 A 
BRANCH  55  69
ATOM     69  C   UNL A   1      43.166  25.711  28.082  1.00  0.00     0.058 A 
ATOM     70  C   UNL A   1      43.250  24.303  28.192  1.00  0.00     0.135 A 
ATOM     71  C   UNL A   1      43.535  26.216  26.817  1.00  0.00     0.135 A 
ATOM     72  F   UNL A   1      42.894  23.661  29.314  1.00  0.00    -0.206 F 
ATOM     73  C   UNL A   1      43.685  23.477  27.162  1.00  0.00     0.059 A 
ATOM     74  C   UNL A   1      43.991  25.407  25.770  1.00  0.00     0.059 A 
ATOM     75  F   UNL A   1      43.445  27.511  26.507  1.00  0.00    -0.206 F 
ATOM     76  C   UNL A   1      44.054  24.036  25.950  1.00  0.00     0.060 A 
BRANCH  76  77
ATOM     77  S   UNL A   1      44.562  22.937  24.622  1.00  0.00     0.124 S 
ATOM     78  O   UNL A   1      43.306  22.725  23.911  1.00  0.00    -0.237 OA
ATOM     79  O   UNL A   1      45.560  23.745  23.927  1.00  0.00    -0.237 OA
ATOM     80  O   UNL A   1      45.084  21.770  25.327  1.00  0.00    -0.744 OA
ENDBRANCH  76  77
ENDBRANCH  55  69
BRANCH  56  81
ATOM     81  C   UNL A   1      40.174  32.727  34.238  1.00  0.00     0.058 A 
ATOM     82  C   UNL A   1      39.787  34.084  34.281  1.00  0.00     0.135 A 
ATOM     83  C   UNL A   1      39.145  31.772  34.289  1.00  0.00     0.135 A 
ATOM     84  F   UNL A   1      40.725  35.046  34.228  1.00  0.00    -0.206 F 
ATOM     85  C   UNL A   1      38.449  34.479  34.257  1.00  0.00     0.059 A 
ATOM     86  C   UNL A   1      37.797  32.147  34.267  1.00  0.00     0.059 A 
ATOM     87  F   UNL A   1      39.436  30.464  34.229  1.00  0.00    -0.206 F 
ATOM     88  C   UNL A   1      37.456  33.503  34.224  1.00  0.00     0.060 A 
BRANCH  88  89
ATOM     89  S   UNL A   1      35.720  33.998  34.033  1.00  0.00     0.124 S 
ATOM     90  O   UNL A   1      35.855  35.232  33.267  1.00  0.00    -0.237 OA
ATOM     91  O   UNL A   1      35.123  32.885  33.300  1.00  0.00    -0.237 OA
ATOM     92  O   UNL A   1      35.279  34.172  35.413  1.00  0.00    -0.744 OA
ENDBRANCH  88  89
ENDBRANCH  56  81
BRANCH  68  93
ATOM     93  C   UNL A   1      44.648  27.086  34.369  1.00  0.00     0.058 A 
ATOM     94  C   UNL A   1      43.863  26.041  34.878  1.00  0.00     0.135 A 
ATOM     95  C   UNL A   1      46.051  26.902  34.514  1.00  0.00     0.135 A 
ATOM     96  F   UNL A   1      42.540  25.987  34.678  1.00  0.00    -0.206 F 
ATOM     97  C   UNL A   1      44.409  24.970  35.586  1.00  0.00     0.059 A 
ATOM     98  C   UNL A   1      46.621  25.794  35.128  1.00  0.00     0.059 A 
ATOM     99  F   UNL A   1      46.942  27.796  34.059  1.00  0.00    -0.206 F 
ATOM    100  C   UNL A   1      45.789  24.862  35.715  1.00  0.00     0.060 A 
BRANCH 100 101
ATOM    101  S   UNL A   1      46.491  23.509  36.664  1.00  0.00     0.124 S 
ATOM    102  O   UNL A   1      45.331  22.632  36.807  1.00  0.00    -0.237 OA
ATOM    103  O   UNL A   1      47.548  23.018  35.786  1.00  0.00    -0.237 OA
ATOM    104  O   UNL A   1      46.949  24.153  37.890  1.00  0.00    -0.744 OA
ENDBRANCH 100 101
ENDBRANCH  68  93
ENDBRANCH  42  43
ENDBRANCH  34  37
ENDBRANCH  32  33
ENDBRANCH  31  32
ENDBRANCH   1  31
TORSDOF 18
ENDMDL
MODEL 2
REMARK VINA RESULT:     -11.7      4.291     11.136
REMARK SMILES Cc1ccc(CN2/C(=[NH+]/C(=O)CCC(=O)NCCCCNC(=O)c3ccc(-c4c5nc(c(-c6c(F)cc(S(=O)(=O)[O-])cc6F)c6ccc([nH]6)c(-c6c(F)cc(S(=O)(=O)[O-])cc6F)c6nc(c(-c7c(F)cc(S(=O)(=O)[O-])cc7F)c7ccc4[nH]7)C=C6)C=C5)cc3)S[C@H]3CS(=O)(=O)C[C@@H]32)cc1
REMARK SMILES IDX 18 1 17 2 16 3 14 4 15 5 13 7 12 8 10 9 7 10 8 11 97 12 9 13
REMARK SMILES IDX 90 14 91 15 96 16 92 18 93 19 11 20 94 21 95 22 6 23 5 24
REMARK SMILES IDX 1 25 2 26 3 27 99 28 4 29 98 30 19 31 20 32 21 33 22 34
REMARK SMILES IDX 23 36 24 37 25 38 89 39 26 40 88 41 27 42 28 43 29 44 82 45
REMARK SMILES IDX 30 46 87 47 81 48 83 49 31 50 86 51 80 52 79 53 32 55 66 56
REMARK SMILES IDX 45 57 65 58 46 59 49 60 64 61 84 62 47 63 48 64 63 66 85 67
REMARK SMILES IDX 50 68 33 69 34 70 43 71 35 72 36 73 42 74 44 75 37 76 38 77
REMARK SMILES IDX 39 78 40 79 41 80 67 81 68 82 77 83 69 84 70 85 76 86 78 87
REMARK SMILES IDX 71 88 72 89 73 90 74 91 75 92 51 93 52 94 61 95 53 96 54 97
REMARK SMILES IDX 60 98 62 99 55 100 56 101 57 102 58 103 59 104
REMARK H PARENT 16 6 9 17 21 35 83 54 49 65
REMARK Flexibility Score: inf
ROOT
ATOM      1  C   UNL A   1      43.029  19.539  25.980  1.00  0.00     0.023 C 
ENDROOT
BRANCH   1   2
ATOM      2  C   UNL A   1      41.586  19.232  25.752  1.00  0.00     0.116 C 
BRANCH   2   3
ATOM      3  N   UNL A   1      40.920  19.697  26.944  1.00  0.00    -0.356 N 
ATOM      4  C   UNL A   1      40.283  20.911  26.996  1.00  0.00     0.220 C 
ATOM      5  O   UNL A   1      40.290  21.550  28.048  1.00  0.00    -0.275 OA
ATOM      6  H   UNL A   1      40.924  19.124  27.746  1.00  0.00     0.163 HD
BRANCH   4   7
ATOM      7  C   UNL A   1      39.565  21.400  25.739  1.00  0.00     0.112 C 
BRANCH   7   8
ATOM      8  C   UNL A   1      38.193  20.756  25.411  1.00  0.00     0.138 C 
BRANCH   8   9
ATOM      9  C   UNL A   1      36.945  21.677  25.478  1.00  0.00     0.308 C 
ATOM     10  N   UNL A   1      33.351  21.756  24.319  1.00  0.00    -0.247 N 
ATOM     11  C   UNL A   1      34.790  21.978  24.508  1.00  0.00     0.314 C 
ATOM     12  C   UNL A   1      32.742  23.098  23.904  1.00  0.00     0.206 C 
ATOM     13  N   UNL A   1      35.758  21.197  24.888  1.00  0.00    -0.205 N 
ATOM     14  S   UNL A   1      35.197  23.724  24.086  1.00  0.00    -0.030 SA
ATOM     15  C   UNL A   1      33.551  24.221  24.583  1.00  0.00     0.120 C 
ATOM     16  C   UNL A   1      31.289  23.439  24.147  1.00  0.00     0.187 C 
ATOM     17  H   UNL A   1      35.658  20.227  24.759  1.00  0.00     0.316 HD
ATOM     18  C   UNL A   1      32.947  25.585  24.298  1.00  0.00     0.156 C 
ATOM     19  S   UNL A   1      31.253  25.210  23.837  1.00  0.00     0.155 S 
ATOM     20  O   UNL A   1      37.023  22.684  26.186  1.00  0.00    -0.247 OA
ATOM     21  O   UNL A   1      30.284  25.829  24.727  1.00  0.00    -0.229 OA
ATOM     22  O   UNL A   1      31.142  25.382  22.406  1.00  0.00    -0.229 OA
BRANCH  10  23
ATOM     23  C   UNL A   1      32.540  20.481  23.890  1.00  0.00     0.273 C 
BRANCH  23  24
ATOM     24  C   UNL A   1      32.868  18.932  24.121  1.00  0.00    -0.007 A 
ATOM     25  C   UNL A   1      35.226  15.437  25.140  1.00  0.00     0.044 C 
ATOM     26  C   UNL A   1      34.097  16.365  24.728  1.00  0.00    -0.051 A 
ATOM     27  C   UNL A   1      33.940  16.799  23.408  1.00  0.00     0.004 A 
ATOM     28  C   UNL A   1      33.317  17.024  25.670  1.00  0.00     0.004 A 
ATOM     29  C   UNL A   1      33.316  18.059  23.108  1.00  0.00     0.008 A 
ATOM     30  C   UNL A   1      32.663  18.260  25.348  1.00  0.00     0.008 A 
ENDBRANCH  23  24
ENDBRANCH  10  23
ENDBRANCH   8   9
ENDBRANCH   7   8
ENDBRANCH   4   7
ENDBRANCH   2   3
ENDBRANCH   1   2
BRANCH   1  31
ATOM     31  C   UNL A   1      43.512  20.825  25.392  1.00  0.00     0.023 C 
BRANCH  31  32
ATOM     32  C   UNL A   1      43.060  22.249  25.605  1.00  0.00     0.116 C 
BRANCH  32  33
ATOM     33  N   UNL A   1      43.486  22.992  26.787  1.00  0.00    -0.352 N 
ATOM     34  C   UNL A   1      42.848  23.952  27.581  1.00  0.00     0.251 C 
ATOM     35  H   UNL A   1      44.399  22.774  27.085  1.00  0.00     0.163 HD
ATOM     36  O   UNL A   1      43.368  24.283  28.639  1.00  0.00    -0.269 OA
BRANCH  34  37
ATOM     37  C   UNL A   1      41.551  24.630  27.311  1.00  0.00     0.039 A 
ATOM     38  C   UNL A   1      41.544  25.490  26.218  1.00  0.00     0.014 A 
ATOM     39  C   UNL A   1      40.805  24.981  28.382  1.00  0.00     0.014 A 
ATOM     40  C   UNL A   1      41.506  26.842  26.482  1.00  0.00     0.010 A 
ATOM     41  C   UNL A   1      40.970  26.261  28.770  1.00  0.00     0.010 A 
ATOM     42  C   UNL A   1      41.406  27.175  27.814  1.00  0.00    -0.014 A 
BRANCH  42  43
ATOM     43  C   UNL A   1      41.696  28.431  28.433  1.00  0.00     0.031 A 
ATOM     44  C   UNL A   1      40.554  29.351  28.452  1.00  0.00     0.074 A 
ATOM     45  C   UNL A   1      42.716  28.329  29.317  1.00  0.00     0.049 A 
ATOM     46  N   UNL A   1      40.619  30.586  28.759  1.00  0.00    -0.248 NA
ATOM     47  C   UNL A   1      39.190  28.934  28.095  1.00  0.00     0.031 C 
ATOM     48  C   UNL A   1      42.957  29.013  30.577  1.00  0.00     0.029 A 
ATOM     49  N   UNL A   1      43.863  27.543  29.154  1.00  0.00    -0.354 N 
ATOM     50  C   UNL A   1      39.336  30.957  29.105  1.00  0.00     0.074 A 
ATOM     51  C   UNL A   1      38.475  29.990  28.483  1.00  0.00     0.031 C 
ATOM     52  C   UNL A   1      44.258  28.871  30.908  1.00  0.00     0.029 A 
ATOM     53  C   UNL A   1      44.922  28.207  29.790  1.00  0.00     0.049 A 
ATOM     54  H   UNL A   1      43.915  26.682  28.680  1.00  0.00     0.167 HD
ATOM     55  C   UNL A   1      39.197  31.896  30.081  1.00  0.00     0.037 A 
ATOM     56  C   UNL A   1      45.862  28.792  28.982  1.00  0.00     0.037 A 
ATOM     57  C   UNL A   1      40.531  32.270  30.565  1.00  0.00     0.049 A 
ATOM     58  C   UNL A   1      45.733  30.305  28.947  1.00  0.00     0.074 A 
ATOM     59  C   UNL A   1      41.253  31.922  31.695  1.00  0.00     0.029 A 
ATOM     60  N   UNL A   1      41.444  32.803  29.667  1.00  0.00    -0.354 N 
ATOM     61  N   UNL A   1      44.669  30.959  29.326  1.00  0.00    -0.248 NA
ATOM     62  C   UNL A   1      46.798  31.198  28.507  1.00  0.00     0.031 C 
ATOM     63  C   UNL A   1      42.623  32.211  31.442  1.00  0.00     0.029 A 
ATOM     64  C   UNL A   1      42.731  32.721  30.158  1.00  0.00     0.049 A 
ATOM     65  H   UNL A   1      41.205  33.190  28.794  1.00  0.00     0.167 HD
ATOM     66  C   UNL A   1      44.846  32.302  29.129  1.00  0.00     0.074 A 
ATOM     67  C   UNL A   1      46.214  32.402  28.657  1.00  0.00     0.031 C 
ATOM     68  C   UNL A   1      43.838  33.204  29.343  1.00  0.00     0.037 A 
BRANCH  55  69
ATOM     69  C   UNL A   1      37.934  32.305  30.804  1.00  0.00     0.058 A 
ATOM     70  C   UNL A   1      37.510  33.653  30.731  1.00  0.00     0.135 A 
ATOM     71  C   UNL A   1      37.080  31.468  31.553  1.00  0.00     0.135 A 
ATOM     72  F   UNL A   1      38.187  34.568  30.024  1.00  0.00    -0.206 F 
ATOM     73  C   UNL A   1      36.368  34.133  31.362  1.00  0.00     0.059 A 
ATOM     74  C   UNL A   1      35.934  31.930  32.209  1.00  0.00     0.059 A 
ATOM     75  F   UNL A   1      37.280  30.153  31.664  1.00  0.00    -0.206 F 
ATOM     76  C   UNL A   1      35.581  33.265  32.101  1.00  0.00     0.060 A 
BRANCH  76  77
ATOM     77  S   UNL A   1      34.084  33.905  32.861  1.00  0.00     0.124 S 
ATOM     78  O   UNL A   1      33.405  32.679  33.267  1.00  0.00    -0.237 OA
ATOM     79  O   UNL A   1      34.621  34.725  33.943  1.00  0.00    -0.237 OA
ATOM     80  O   UNL A   1      33.442  34.644  31.778  1.00  0.00    -0.744 OA
ENDBRANCH  76  77
ENDBRANCH  55  69
BRANCH  56  81
ATOM     81  C   UNL A   1      46.169  27.924  27.792  1.00  0.00     0.058 A 
ATOM     82  C   UNL A   1      45.612  28.288  26.547  1.00  0.00     0.135 A 
ATOM     83  C   UNL A   1      47.305  27.098  27.762  1.00  0.00     0.135 A 
ATOM     84  F   UNL A   1      44.529  29.084  26.510  1.00  0.00    -0.206 F 
ATOM     85  C   UNL A   1      46.213  27.951  25.334  1.00  0.00     0.059 A 
ATOM     86  C   UNL A   1      47.922  26.747  26.555  1.00  0.00     0.059 A 
ATOM     87  F   UNL A   1      47.903  26.731  28.905  1.00  0.00    -0.206 F 
ATOM     88  C   UNL A   1      47.385  27.200  25.345  1.00  0.00     0.060 A 
BRANCH  88  89
ATOM     89  S   UNL A   1      48.264  26.889  23.788  1.00  0.00     0.124 S 
ATOM     90  O   UNL A   1      47.653  27.880  22.909  1.00  0.00    -0.237 OA
ATOM     91  O   UNL A   1      49.662  27.147  24.124  1.00  0.00    -0.237 OA
ATOM     92  O   UNL A   1      47.917  25.503  23.493  1.00  0.00    -0.744 OA
ENDBRANCH  88  89
ENDBRANCH  56  81
BRANCH  68  93
ATOM     93  C   UNL A   1      43.795  34.640  28.852  1.00  0.00     0.058 A 
ATOM     94  C   UNL A   1      43.704  35.017  27.504  1.00  0.00     0.135 A 
ATOM     95  C   UNL A   1      43.712  35.716  29.779  1.00  0.00     0.135 A 
ATOM     96  F   UNL A   1      43.605  34.113  26.521  1.00  0.00    -0.206 F 
ATOM     97  C   UNL A   1      43.667  36.352  27.101  1.00  0.00     0.059 A 
ATOM     98  C   UNL A   1      43.575  37.046  29.402  1.00  0.00     0.059 A 
ATOM     99  F   UNL A   1      43.758  35.524  31.106  1.00  0.00    -0.206 F 
ATOM    100  C   UNL A   1      43.614  37.359  28.058  1.00  0.00     0.060 A 
BRANCH 100 101
ATOM    101  S   UNL A   1      43.611  39.079  27.539  1.00  0.00     0.124 S 
ATOM    102  O   UNL A   1      43.732  39.762  28.824  1.00  0.00    -0.237 OA
ATOM    103  O   UNL A   1      44.783  39.152  26.673  1.00  0.00    -0.237 OA
ATOM    104  O   UNL A   1      42.327  39.229  26.864  1.00  0.00    -0.744 OA
ENDBRANCH 100 101
ENDBRANCH  68  93
ENDBRANCH  42  43
ENDBRANCH  34  37
ENDBRANCH  32  33
ENDBRANCH  31  32
ENDBRANCH   1  31
TORSDOF 18
ENDMDL
MODEL 3
REMARK VINA RESULT:     -11.5      4.039     10.428
REMARK SMILES Cc1ccc(CN2/C(=[NH+]/C(=O)CCC(=O)NCCCCNC(=O)c3ccc(-c4c5nc(c(-c6c(F)cc(S(=O)(=O)[O-])cc6F)c6ccc([nH]6)c(-c6c(F)cc(S(=O)(=O)[O-])cc6F)c6nc(c(-c7c(F)cc(S(=O)(=O)[O-])cc7F)c7ccc4[nH]7)C=C6)C=C5)cc3)S[C@H]3CS(=O)(=O)C[C@@H]32)cc1
REMARK SMILES IDX 18 1 17 2 16 3 14 4 15 5 13 7 12 8 10 9 7 10 8 11 97 12 9 13
REMARK SMILES IDX 90 14 91 15 96 16 92 18 93 19 11 20 94 21 95 22 6 23 5 24
REMARK SMILES IDX 1 25 2 26 3 27 99 28 4 29 98 30 19 31 20 32 21 33 22 34
REMARK SMILES IDX 23 36 24 37 25 38 89 39 26 40 88 41 27 42 28 43 29 44 82 45
REMARK SMILES IDX 30 46 87 47 81 48 83 49 31 50 86 51 80 52 79 53 32 55 66 56
REMARK SMILES IDX 45 57 65 58 46 59 49 60 64 61 84 62 47 63 48 64 63 66 85 67
REMARK SMILES IDX 50 68 33 69 34 70 43 71 35 72 36 73 42 74 44 75 37 76 38 77
REMARK SMILES IDX 39 78 40 79 41 80 67 81 68 82 77 83 69 84 70 85 76 86 78 87
REMARK SMILES IDX 71 88 72 89 73 90 74 91 75 92 51 93 52 94 61 95 53 96 54 97
REMARK SMILES IDX 60 98 62 99 55 100 56 101 57 102 58 103 59 104
REMARK H PARENT 16 6 9 17 21 35 83 54 49 65
REMARK Flexibility Score: inf
ROOT
ATOM      1  C   UNL A   1      36.669  23.387  24.082  1.00  0.00     0.023 C 
ENDROOT
BRANCH   1   2
ATOM      2  C   UNL A   1      35.296  22.897  23.758  1.00  0.00     0.116 C 
BRANCH   2   3
ATOM      3  N   UNL A   1      35.167  21.661  24.491  1.00  0.00    -0.356 N 
ATOM      4  C   UNL A   1      34.052  21.369  25.237  1.00  0.00     0.220 C 
ATOM      5  O   UNL A   1      34.176  20.721  26.275  1.00  0.00    -0.275 OA
ATOM      6  H   UNL A   1      35.902  21.007  24.454  1.00  0.00     0.163 HD
BRANCH   4   7
ATOM      7  C   UNL A   1      32.696  21.845  24.718  1.00  0.00     0.112 C 
BRANCH   7   8
ATOM      8  C   UNL A   1      32.029  23.031  25.460  1.00  0.00     0.138 C 
BRANCH   8   9
ATOM      9  C   UNL A   1      31.353  24.121  24.587  1.00  0.00     0.308 C 
ATOM     10  N   UNL A   1      31.576  27.832  23.917  1.00  0.00    -0.247 N 
ATOM     11  C   UNL A   1      31.181  26.486  24.350  1.00  0.00     0.314 C 
ATOM     12  C   UNL A   1      30.287  28.605  23.628  1.00  0.00     0.206 C 
ATOM     13  N   UNL A   1      31.867  25.431  24.678  1.00  0.00    -0.205 N 
ATOM     14  S   UNL A   1      29.344  26.384  24.419  1.00  0.00    -0.030 SA
ATOM     15  C   UNL A   1      29.232  27.605  23.115  1.00  0.00     0.120 C 
ATOM     16  C   UNL A   1      30.240  29.774  22.669  1.00  0.00     0.187 C 
ATOM     17  H   UNL A   1      32.786  25.552  25.006  1.00  0.00     0.316 HD
ATOM     18  C   UNL A   1      27.951  28.313  22.713  1.00  0.00     0.156 C 
ATOM     19  S   UNL A   1      28.472  30.008  22.437  1.00  0.00     0.155 S 
ATOM     20  O   UNL A   1      30.530  23.745  23.749  1.00  0.00    -0.247 OA
ATOM     21  O   UNL A   1      28.226  30.450  21.073  1.00  0.00    -0.229 OA
ATOM     22  O   UNL A   1      28.003  30.796  23.554  1.00  0.00    -0.229 OA
BRANCH  10  23
ATOM     23  C   UNL A   1      32.833  28.710  24.258  1.00  0.00     0.273 C 
BRANCH  23  24
ATOM     24  C   UNL A   1      33.354  29.250  25.671  1.00  0.00    -0.007 A 
ATOM     25  C   UNL A   1      35.702  31.614  28.448  1.00  0.00     0.044 C 
ATOM     26  C   UNL A   1      34.707  30.642  27.839  1.00  0.00    -0.051 A 
ATOM     27  C   UNL A   1      35.071  29.343  27.473  1.00  0.00     0.004 A 
ATOM     28  C   UNL A   1      33.462  31.062  27.387  1.00  0.00     0.004 A 
ATOM     29  C   UNL A   1      34.390  28.649  26.414  1.00  0.00     0.008 A 
ATOM     30  C   UNL A   1      32.770  30.338  26.359  1.00  0.00     0.008 A 
ENDBRANCH  23  24
ENDBRANCH  10  23
ENDBRANCH   8   9
ENDBRANCH   7   8
ENDBRANCH   4   7
ENDBRANCH   2   3
ENDBRANCH   1   2
BRANCH   1  31
ATOM     31  C   UNL A   1      37.388  22.622  25.146  1.00  0.00     0.023 C 
BRANCH  31  32
ATOM     32  C   UNL A   1      38.471  23.037  26.111  1.00  0.00     0.116 C 
BRANCH  32  33
ATOM     33  N   UNL A   1      38.314  24.237  26.928  1.00  0.00    -0.352 N 
ATOM     34  C   UNL A   1      39.205  25.251  27.298  1.00  0.00     0.251 C 
ATOM     35  H   UNL A   1      37.406  24.356  27.287  1.00  0.00     0.163 HD
ATOM     36  O   UNL A   1      38.763  26.255  27.843  1.00  0.00    -0.269 OA
BRANCH  34  37
ATOM     37  C   UNL A   1      40.677  25.285  27.079  1.00  0.00     0.039 A 
ATOM     38  C   UNL A   1      41.452  24.982  28.195  1.00  0.00     0.014 A 
ATOM     39  C   UNL A   1      41.152  26.222  26.229  1.00  0.00     0.014 A 
ATOM     40  C   UNL A   1      42.125  26.024  28.794  1.00  0.00     0.010 A 
ATOM     41  C   UNL A   1      41.589  27.343  26.836  1.00  0.00     0.010 A 
ATOM     42  C   UNL A   1      42.000  27.242  28.162  1.00  0.00    -0.014 A 
BRANCH  42  43
ATOM     43  C   UNL A   1      42.258  28.543  28.696  1.00  0.00     0.031 A 
ATOM     44  C   UNL A   1      41.062  29.386  28.784  1.00  0.00     0.074 A 
ATOM     45  C   UNL A   1      43.360  28.552  29.482  1.00  0.00     0.049 A 
ATOM     46  N   UNL A   1      41.068  30.637  29.030  1.00  0.00    -0.248 NA
ATOM     47  C   UNL A   1      39.702  28.863  28.577  1.00  0.00     0.031 C 
ATOM     48  C   UNL A   1      43.668  29.312  30.683  1.00  0.00     0.029 A 
ATOM     49  N   UNL A   1      44.539  27.836  29.245  1.00  0.00    -0.354 N 
ATOM     50  C   UNL A   1      39.799  30.940  29.480  1.00  0.00     0.074 A 
ATOM     51  C   UNL A   1      38.954  29.889  28.986  1.00  0.00     0.031 C 
ATOM     52  C   UNL A   1      45.001  29.272  30.893  1.00  0.00     0.029 A 
ATOM     53  C   UNL A   1      45.603  28.598  29.747  1.00  0.00     0.049 A 
ATOM     54  H   UNL A   1      44.607  26.957  28.805  1.00  0.00     0.167 HD
ATOM     55  C   UNL A   1      39.686  31.915  30.423  1.00  0.00     0.037 A 
ATOM     56  C   UNL A   1      46.422  29.202  28.828  1.00  0.00     0.037 A 
ATOM     57  C   UNL A   1      41.030  32.399  30.761  1.00  0.00     0.049 A 
ATOM     58  C   UNL A   1      46.185  30.700  28.741  1.00  0.00     0.074 A 
ATOM     59  C   UNL A   1      41.876  32.156  31.831  1.00  0.00     0.029 A 
ATOM     60  N   UNL A   1      41.817  32.945  29.758  1.00  0.00    -0.354 N 
ATOM     61  N   UNL A   1      45.117  31.301  29.191  1.00  0.00    -0.248 NA
ATOM     62  C   UNL A   1      47.140  31.638  28.162  1.00  0.00     0.031 C 
ATOM     63  C   UNL A   1      43.193  32.520  31.435  1.00  0.00     0.029 A 
ATOM     64  C   UNL A   1      43.146  32.972  30.127  1.00  0.00     0.049 A 
ATOM     65  H   UNL A   1      41.472  33.272  28.895  1.00  0.00     0.167 HD
ATOM     66  C   UNL A   1      45.181  32.642  28.920  1.00  0.00     0.074 A 
ATOM     67  C   UNL A   1      46.490  32.807  28.315  1.00  0.00     0.031 C 
ATOM     68  C   UNL A   1      44.137  33.485  29.190  1.00  0.00     0.037 A 
BRANCH  55  69
ATOM     69  C   UNL A   1      38.470  32.276  31.244  1.00  0.00     0.058 A 
ATOM     70  C   UNL A   1      37.779  33.476  30.953  1.00  0.00     0.135 A 
ATOM     71  C   UNL A   1      37.903  31.521  32.293  1.00  0.00     0.135 A 
ATOM     72  F   UNL A   1      38.163  34.287  29.958  1.00  0.00    -0.206 F 
ATOM     73  C   UNL A   1      36.654  33.902  31.651  1.00  0.00     0.059 A 
ATOM     74  C   UNL A   1      36.781  31.935  33.019  1.00  0.00     0.059 A 
ATOM     75  F   UNL A   1      38.375  30.325  32.653  1.00  0.00    -0.206 F 
ATOM     76  C   UNL A   1      36.158  33.126  32.684  1.00  0.00     0.060 A 
BRANCH  76  77
ATOM     77  S   UNL A   1      34.673  33.678  33.531  1.00  0.00     0.124 S 
ATOM     78  O   UNL A   1      33.656  32.805  32.955  1.00  0.00    -0.237 OA
ATOM     79  O   UNL A   1      35.011  33.428  34.929  1.00  0.00    -0.237 OA
ATOM     80  O   UNL A   1      34.571  35.085  33.156  1.00  0.00    -0.744 OA
ENDBRANCH  76  77
ENDBRANCH  55  69
BRANCH  56  81
ATOM     81  C   UNL A   1      46.677  28.299  27.654  1.00  0.00     0.058 A 
ATOM     82  C   UNL A   1      45.929  28.517  26.477  1.00  0.00     0.135 A 
ATOM     83  C   UNL A   1      47.890  27.602  27.515  1.00  0.00     0.135 A 
ATOM     84  F   UNL A   1      44.764  29.184  26.543  1.00  0.00    -0.206 F 
ATOM     85  C   UNL A   1      46.409  28.170  25.213  1.00  0.00     0.059 A 
ATOM     86  C   UNL A   1      48.388  27.244  26.257  1.00  0.00     0.059 A 
ATOM     87  F   UNL A   1      48.665  27.379  28.586  1.00  0.00    -0.206 F 
ATOM     88  C   UNL A   1      47.654  27.556  25.107  1.00  0.00     0.060 A 
BRANCH  88  89
ATOM     89  S   UNL A   1      48.361  27.243  23.465  1.00  0.00     0.124 S 
ATOM     90  O   UNL A   1      49.717  27.752  23.634  1.00  0.00    -0.237 OA
ATOM     91  O   UNL A   1      48.265  25.792  23.320  1.00  0.00    -0.237 OA
ATOM     92  O   UNL A   1      47.508  28.037  22.588  1.00  0.00    -0.744 OA
ENDBRANCH  88  89
ENDBRANCH  56  81
BRANCH  68  93
ATOM     93  C   UNL A   1      43.949  34.889  28.643  1.00  0.00     0.058 A 
ATOM     94  C   UNL A   1      43.663  35.189  27.303  1.00  0.00     0.135 A 
ATOM     95  C   UNL A   1      43.924  36.007  29.523  1.00  0.00     0.135 A 
ATOM     96  F   UNL A   1      43.491  34.230  26.384  1.00  0.00    -0.206 F 
ATOM     97  C   UNL A   1      43.498  36.498  26.847  1.00  0.00     0.059 A 
ATOM     98  C   UNL A   1      43.663  37.306  29.106  1.00  0.00     0.059 A 
ATOM     99  F   UNL A   1      44.152  35.889  30.839  1.00  0.00    -0.206 F 
ATOM    100  C   UNL A   1      43.511  37.549  27.756  1.00  0.00     0.060 A 
BRANCH 100 101
ATOM    101  S   UNL A   1      43.343  39.237  27.164  1.00  0.00     0.124 S 
ATOM    102  O   UNL A   1      42.026  39.186  26.535  1.00  0.00    -0.237 OA
ATOM    103  O   UNL A   1      43.425  40.016  28.395  1.00  0.00    -0.237 OA
ATOM    104  O   UNL A   1      44.471  39.393  26.252  1.00  0.00    -0.744 OA
ENDBRANCH 100 101
ENDBRANCH  68  93
ENDBRANCH  42  43
ENDBRANCH  34  37
ENDBRANCH  32  33
ENDBRANCH  31  32
ENDBRANCH   1  31
TORSDOF 18
ENDMDL
