MODEL 1
REMARK VINA RESULT:     -12.0      0.000      0.000
REMARK SMILES CC1(C)CSC[C@H]([NH2+][C@H](C(=O)NCCCCNC(=O)c2ccc(-c3c4nc(c(-c5c(F)cc(S(=O)(=O)[O-])cc5F)c5ccc([nH]5)c(-c5c(F)cc(S(=O)(=O)[O-])cc5F)c5nc(c(-c6c(F)cc(S(=O)(=O)[O-])cc6F)c6ccc3[nH]6)C=C5)C=C4)cc2)c2ccccc2)C1
REMARK SMILES IDX 15 1 14 2 13 3 12 4 10 5 11 6 9 8 8 9 7 12 1 13 2 14 3 15
REMARK SMILES IDX 4 16 92 17 5 18 6 19 86 20 87 21 91 22 88 23 90 24 89 25
REMARK SMILES IDX 16 26 17 27 18 28 19 30 20 31 21 32 85 33 22 34 84 35 23 36
REMARK SMILES IDX 24 37 25 38 78 39 26 40 83 41 77 42 79 43 27 44 82 45 76 46
REMARK SMILES IDX 75 47 28 49 62 50 41 51 61 52 42 53 45 54 60 55 80 56 43 57
REMARK SMILES IDX 44 58 59 60 81 61 46 62 29 63 30 64 39 65 31 66 32 67 38 68
REMARK SMILES IDX 40 69 33 70 34 71 35 72 36 73 37 74 63 75 64 76 73 77 65 78
REMARK SMILES IDX 66 79 72 80 74 81 67 82 68 83 69 84 70 85 71 86 47 87 48 88
REMARK SMILES IDX 57 89 49 90 50 91 56 92 58 93 51 94 52 95 53 96 54 97 55 98
REMARK H PARENT 12 7 8 10 8 11 17 29 79 48 45 59
REMARK Flexibility Score: inf
ROOT
ATOM      1  C   UNL A   1      39.855  21.772  26.601  1.00  0.00     0.023 C 
ENDROOT
BRANCH   1   2
ATOM      2  C   UNL A   1      38.535  21.749  25.811  1.00  0.00     0.023 C 
BRANCH   2   3
ATOM      3  C   UNL A   1      37.761  23.070  25.755  1.00  0.00     0.116 C 
BRANCH   3   4
ATOM      4  N   UNL A   1      37.288  23.339  24.415  1.00  0.00    -0.351 N 
ATOM      5  C   UNL A   1      36.071  23.189  23.824  1.00  0.00     0.283 C 
ATOM      6  O   UNL A   1      36.090  23.388  22.605  1.00  0.00    -0.268 OA
ATOM      7  H   UNL A   1      37.979  23.699  23.813  1.00  0.00     0.163 HD
BRANCH   5   8
ATOM      8  C   UNL A   1      34.792  22.814  24.647  1.00  0.00     0.304 C 
BRANCH   8   9
ATOM      9  N   UNL A   1      33.687  23.796  24.444  1.00  0.00    -0.329 N 
ATOM     10  H   UNL A   1      33.398  23.711  23.469  1.00  0.00     0.347 HD
ATOM     11  H   UNL A   1      33.019  23.535  25.169  1.00  0.00     0.347 HD
BRANCH   9  12
ATOM     12  C   UNL A   1      33.897  25.250  24.698  1.00  0.00     0.193 C 
ATOM     13  C   UNL A   1      34.068  28.170  26.543  1.00  0.00     0.012 C 
ATOM     14  C   UNL A   1      32.870  27.354  26.023  1.00  0.00    -0.021 C 
ATOM     15  C   UNL A   1      31.715  27.523  27.042  1.00  0.00     0.012 C 
ATOM     16  C   UNL A   1      32.360  27.891  24.676  1.00  0.00     0.076 C 
ATOM     17  C   UNL A   1      33.235  25.849  25.966  1.00  0.00     0.073 C 
ATOM     18  S   UNL A   1      33.629  27.781  23.397  1.00  0.00    -0.155 SA
ATOM     19  C   UNL A   1      33.715  25.987  23.354  1.00  0.00     0.134 C 
ENDBRANCH   9  12
ENDBRANCH   8   9
BRANCH   8  20
ATOM     20  C   UNL A   1      34.262  21.367  24.550  1.00  0.00     0.019 A 
ATOM     21  C   UNL A   1      32.954  21.036  24.165  1.00  0.00     0.010 A 
ATOM     22  C   UNL A   1      35.135  20.294  24.833  1.00  0.00     0.010 A 
ATOM     23  C   UNL A   1      32.511  19.706  24.154  1.00  0.00     0.001 A 
ATOM     24  C   UNL A   1      34.699  18.966  24.812  1.00  0.00     0.001 A 
ATOM     25  C   UNL A   1      33.379  18.674  24.487  1.00  0.00     0.000 A 
ENDBRANCH   8  20
ENDBRANCH   5   8
ENDBRANCH   3   4
ENDBRANCH   2   3
ENDBRANCH   1   2
BRANCH   1  26
ATOM     26  C   UNL A   1      40.309  23.144  27.091  1.00  0.00     0.116 C 
BRANCH  26  27
ATOM     27  N   UNL A   1      41.161  23.810  26.120  1.00  0.00    -0.352 N 
ATOM     28  C   UNL A   1      41.572  25.120  26.066  1.00  0.00     0.251 C 
ATOM     29  H   UNL A   1      41.492  23.236  25.393  1.00  0.00     0.163 HD
ATOM     30  O   UNL A   1      42.076  25.547  25.031  1.00  0.00    -0.269 OA
BRANCH  28  31
ATOM     31  C   UNL A   1      41.401  26.019  27.231  1.00  0.00     0.039 A 
ATOM     32  C   UNL A   1      42.356  27.014  27.462  1.00  0.00     0.014 A 
ATOM     33  C   UNL A   1      40.337  25.855  28.122  1.00  0.00     0.014 A 
ATOM     34  C   UNL A   1      42.214  27.877  28.553  1.00  0.00     0.010 A 
ATOM     35  C   UNL A   1      40.162  26.757  29.172  1.00  0.00     0.010 A 
ATOM     36  C   UNL A   1      41.101  27.775  29.404  1.00  0.00    -0.014 A 
BRANCH  36  37
ATOM     37  C   UNL A   1      40.907  28.720  30.538  1.00  0.00     0.031 A 
ATOM     38  C   UNL A   1      41.744  28.596  31.783  1.00  0.00     0.074 A 
ATOM     39  C   UNL A   1      39.940  29.658  30.469  1.00  0.00     0.049 A 
ATOM     40  N   UNL A   1      41.676  29.282  32.896  1.00  0.00    -0.248 NA
ATOM     41  C   UNL A   1      42.778  27.549  31.787  1.00  0.00     0.031 C 
ATOM     42  C   UNL A   1      39.034  29.858  29.336  1.00  0.00     0.029 A 
ATOM     43  N   UNL A   1      39.549  30.611  31.377  1.00  0.00    -0.354 N 
ATOM     44  C   UNL A   1      42.646  28.742  33.735  1.00  0.00     0.074 A 
ATOM     45  C   UNL A   1      43.255  27.642  33.020  1.00  0.00     0.031 C 
ATOM     46  C   UNL A   1      38.208  30.880  29.608  1.00  0.00     0.029 A 
ATOM     47  C   UNL A   1      38.496  31.386  30.948  1.00  0.00     0.049 A 
ATOM     48  H   UNL A   1      39.981  30.730  32.253  1.00  0.00     0.167 HD
ATOM     49  C   UNL A   1      43.013  29.141  34.977  1.00  0.00     0.037 A 
ATOM     50  C   UNL A   1      37.830  32.382  31.563  1.00  0.00     0.037 A 
ATOM     51  C   UNL A   1      42.419  30.251  35.678  1.00  0.00     0.049 A 
ATOM     52  C   UNL A   1      38.251  32.804  32.946  1.00  0.00     0.074 A 
ATOM     53  C   UNL A   1      42.754  30.763  36.920  1.00  0.00     0.029 A 
ATOM     54  N   UNL A   1      41.370  31.022  35.200  1.00  0.00    -0.354 N 
ATOM     55  N   UNL A   1      39.207  32.317  33.701  1.00  0.00    -0.248 NA
ATOM     56  C   UNL A   1      37.507  33.913  33.559  1.00  0.00     0.031 C 
ATOM     57  C   UNL A   1      41.880  31.816  37.211  1.00  0.00     0.029 A 
ATOM     58  C   UNL A   1      41.033  31.993  36.129  1.00  0.00     0.049 A 
ATOM     59  H   UNL A   1      40.928  30.896  34.330  1.00  0.00     0.167 HD
ATOM     60  C   UNL A   1      39.200  33.082  34.863  1.00  0.00     0.074 A 
ATOM     61  C   UNL A   1      38.150  34.068  34.708  1.00  0.00     0.031 C 
ATOM     62  C   UNL A   1      39.993  32.977  35.958  1.00  0.00     0.037 A 
BRANCH  49  63
ATOM     63  C   UNL A   1      44.111  28.373  35.662  1.00  0.00     0.058 A 
ATOM     64  C   UNL A   1      43.832  27.298  36.522  1.00  0.00     0.135 A 
ATOM     65  C   UNL A   1      45.459  28.689  35.429  1.00  0.00     0.135 A 
ATOM     66  F   UNL A   1      42.561  26.960  36.792  1.00  0.00    -0.206 F 
ATOM     67  C   UNL A   1      44.847  26.585  37.151  1.00  0.00     0.059 A 
ATOM     68  C   UNL A   1      46.493  27.970  36.024  1.00  0.00     0.059 A 
ATOM     69  F   UNL A   1      45.785  29.704  34.614  1.00  0.00    -0.206 F 
ATOM     70  C   UNL A   1      46.176  26.930  36.896  1.00  0.00     0.060 A 
BRANCH  70  71
ATOM     71  S   UNL A   1      47.482  25.991  37.717  1.00  0.00     0.124 S 
ATOM     72  O   UNL A   1      48.675  26.706  37.275  1.00  0.00    -0.237 OA
ATOM     73  O   UNL A   1      47.138  26.144  39.126  1.00  0.00    -0.237 OA
ATOM     74  O   UNL A   1      47.322  24.644  37.179  1.00  0.00    -0.744 OA
ENDBRANCH  70  71
ENDBRANCH  49  63
BRANCH  50  75
ATOM     75  C   UNL A   1      36.709  33.070  30.868  1.00  0.00     0.058 A 
ATOM     76  C   UNL A   1      35.378  32.842  31.245  1.00  0.00     0.135 A 
ATOM     77  C   UNL A   1      36.946  33.974  29.821  1.00  0.00     0.135 A 
ATOM     78  F   UNL A   1      35.100  31.981  32.236  1.00  0.00    -0.206 F 
ATOM     79  C   UNL A   1      34.318  33.469  30.597  1.00  0.00     0.059 A 
ATOM     80  C   UNL A   1      35.904  34.634  29.175  1.00  0.00     0.059 A 
ATOM     81  F   UNL A   1      38.203  34.241  29.433  1.00  0.00    -0.206 F 
ATOM     82  C   UNL A   1      34.592  34.365  29.563  1.00  0.00     0.060 A 
BRANCH  82  83
ATOM     83  S   UNL A   1      33.212  35.209  28.760  1.00  0.00     0.124 S 
ATOM     84  O   UNL A   1      32.608  34.122  27.998  1.00  0.00    -0.237 OA
ATOM     85  O   UNL A   1      32.443  35.694  29.901  1.00  0.00    -0.237 OA
ATOM     86  O   UNL A   1      33.869  36.246  27.969  1.00  0.00    -0.744 OA
ENDBRANCH  82  83
ENDBRANCH  50  75
BRANCH  62  87
ATOM     87  C   UNL A   1      39.790  33.980  37.061  1.00  0.00     0.058 A 
ATOM     88  C   UNL A   1      39.037  33.680  38.207  1.00  0.00     0.135 A 
ATOM     89  C   UNL A   1      40.401  35.244  36.990  1.00  0.00     0.135 A 
ATOM     90  F   UNL A   1      38.427  32.490  38.321  1.00  0.00    -0.206 F 
ATOM     91  C   UNL A   1      38.878  34.604  39.234  1.00  0.00     0.059 A 
ATOM     92  C   UNL A   1      40.278  36.173  38.019  1.00  0.00     0.059 A 
ATOM     93  F   UNL A   1      41.140  35.579  35.922  1.00  0.00    -0.206 F 
ATOM     94  C   UNL A   1      39.504  35.848  39.131  1.00  0.00     0.060 A 
BRANCH  94  95
ATOM     95  S   UNL A   1      39.318  37.027  40.487  1.00  0.00     0.124 S 
ATOM     96  O   UNL A   1      40.707  37.256  40.871  1.00  0.00    -0.237 OA
ATOM     97  O   UNL A   1      38.648  38.149  39.837  1.00  0.00    -0.237 OA
ATOM     98  O   UNL A   1      38.509  36.301  41.461  1.00  0.00    -0.744 OA
ENDBRANCH  94  95
ENDBRANCH  62  87
ENDBRANCH  36  37
ENDBRANCH  28  31
ENDBRANCH  26  27
ENDBRANCH   1  26
TORSDOF 17
ENDMDL
MODEL 2
REMARK VINA RESULT:     -12.0      6.766     12.257
REMARK SMILES CC1(C)CSC[C@H]([NH2+][C@H](C(=O)NCCCCNC(=O)c2ccc(-c3c4nc(c(-c5c(F)cc(S(=O)(=O)[O-])cc5F)c5ccc([nH]5)c(-c5c(F)cc(S(=O)(=O)[O-])cc5F)c5nc(c(-c6c(F)cc(S(=O)(=O)[O-])cc6F)c6ccc3[nH]6)C=C5)C=C4)cc2)c2ccccc2)C1
REMARK SMILES IDX 15 1 14 2 13 3 12 4 10 5 11 6 9 8 8 9 7 12 1 13 2 14 3 15
REMARK SMILES IDX 4 16 92 17 5 18 6 19 86 20 87 21 91 22 88 23 90 24 89 25
REMARK SMILES IDX 16 26 17 27 18 28 19 30 20 31 21 32 85 33 22 34 84 35 23 36
REMARK SMILES IDX 24 37 25 38 78 39 26 40 83 41 77 42 79 43 27 44 82 45 76 46
REMARK SMILES IDX 75 47 28 49 62 50 41 51 61 52 42 53 45 54 60 55 80 56 43 57
REMARK SMILES IDX 44 58 59 60 81 61 46 62 29 63 30 64 39 65 31 66 32 67 38 68
REMARK SMILES IDX 40 69 33 70 34 71 35 72 36 73 37 74 63 75 64 76 73 77 65 78
REMARK SMILES IDX 66 79 72 80 74 81 67 82 68 83 69 84 70 85 71 86 47 87 48 88
REMARK SMILES IDX 57 89 49 90 50 91 56 92 58 93 51 94 52 95 53 96 54 97 55 98
REMARK H PARENT 12 7 8 10 8 11 17 29 79 48 45 59
REMARK Flexibility Score: inf
ROOT
ATOM      1  C   UNL A   1      33.879  28.991  27.218  1.00  0.00     0.023 C 
ENDROOT
BRANCH   1   2
ATOM      2  C   UNL A   1      32.705  29.985  27.171  1.00  0.00     0.023 C 
BRANCH   2   3
ATOM      3  C   UNL A   1      32.038  30.174  25.803  1.00  0.00     0.116 C 
BRANCH   3   4
ATOM      4  N   UNL A   1      32.907  29.730  24.736  1.00  0.00    -0.351 N 
ATOM      5  C   UNL A   1      32.787  28.742  23.808  1.00  0.00     0.283 C 
ATOM      6  O   UNL A   1      33.815  28.564  23.147  1.00  0.00    -0.268 OA
ATOM      7  H   UNL A   1      33.747  30.239  24.668  1.00  0.00     0.163 HD
BRANCH   5   8
ATOM      8  C   UNL A   1      31.454  27.940  23.618  1.00  0.00     0.304 C 
BRANCH   8   9
ATOM      9  N   UNL A   1      31.051  27.224  24.864  1.00  0.00    -0.329 N 
ATOM     10  H   UNL A   1      31.412  27.773  25.645  1.00  0.00     0.347 HD
ATOM     11  H   UNL A   1      30.040  27.144  24.758  1.00  0.00     0.347 HD
BRANCH   9  12
ATOM     12  C   UNL A   1      31.469  25.815  25.108  1.00  0.00     0.193 C 
ATOM     13  C   UNL A   1      33.280  23.227  26.518  1.00  0.00     0.012 C 
ATOM     14  C   UNL A   1      33.641  24.260  25.435  1.00  0.00    -0.021 C 
ATOM     15  C   UNL A   1      35.159  24.546  25.552  1.00  0.00     0.012 C 
ATOM     16  C   UNL A   1      33.398  23.707  24.022  1.00  0.00     0.076 C 
ATOM     17  C   UNL A   1      32.888  25.590  25.694  1.00  0.00     0.073 C 
ATOM     18  S   UNL A   1      31.658  23.301  23.760  1.00  0.00    -0.155 SA
ATOM     19  C   UNL A   1      31.039  24.983  23.880  1.00  0.00     0.134 C 
ENDBRANCH   9  12
ENDBRANCH   8   9
BRANCH   8  20
ATOM     20  C   UNL A   1      30.248  28.671  22.992  1.00  0.00     0.019 A 
ATOM     21  C   UNL A   1      30.362  29.730  22.078  1.00  0.00     0.010 A 
ATOM     22  C   UNL A   1      28.941  28.248  23.320  1.00  0.00     0.010 A 
ATOM     23  C   UNL A   1      29.230  30.395  21.588  1.00  0.00     0.001 A 
ATOM     24  C   UNL A   1      27.810  28.904  22.824  1.00  0.00     0.001 A 
ATOM     25  C   UNL A   1      27.956  29.990  21.969  1.00  0.00     0.000 A 
ENDBRANCH   8  20
ENDBRANCH   5   8
ENDBRANCH   3   4
ENDBRANCH   2   3
ENDBRANCH   1   2
BRANCH   1  26
ATOM     26  C   UNL A   1      35.248  29.597  27.515  1.00  0.00     0.116 C 
BRANCH  26  27
ATOM     27  N   UNL A   1      35.273  30.267  28.804  1.00  0.00    -0.352 N 
ATOM     28  C   UNL A   1      36.268  30.312  29.751  1.00  0.00     0.251 C 
ATOM     29  H   UNL A   1      34.454  30.763  29.033  1.00  0.00     0.163 HD
ATOM     30  O   UNL A   1      36.002  30.714  30.880  1.00  0.00    -0.269 OA
BRANCH  28  31
ATOM     31  C   UNL A   1      37.644  29.870  29.427  1.00  0.00     0.039 A 
ATOM     32  C   UNL A   1      38.054  29.863  28.091  1.00  0.00     0.014 A 
ATOM     33  C   UNL A   1      38.513  29.415  30.423  1.00  0.00     0.014 A 
ATOM     34  C   UNL A   1      39.350  29.453  27.760  1.00  0.00     0.010 A 
ATOM     35  C   UNL A   1      39.825  29.068  30.100  1.00  0.00     0.010 A 
ATOM     36  C   UNL A   1      40.257  29.078  28.764  1.00  0.00    -0.014 A 
BRANCH  36  37
ATOM     37  C   UNL A   1      41.656  28.690  28.435  1.00  0.00     0.031 A 
ATOM     38  C   UNL A   1      42.747  29.728  28.406  1.00  0.00     0.074 A 
ATOM     39  C   UNL A   1      41.937  27.412  28.109  1.00  0.00     0.049 A 
ATOM     40  N   UNL A   1      44.007  29.594  28.078  1.00  0.00    -0.248 NA
ATOM     41  C   UNL A   1      42.366  31.102  28.770  1.00  0.00     0.031 C 
ATOM     42  C   UNL A   1      40.965  26.318  28.061  1.00  0.00     0.029 A 
ATOM     43  N   UNL A   1      43.121  26.817  27.745  1.00  0.00    -0.354 N 
ATOM     44  C   UNL A   1      44.566  30.864  28.184  1.00  0.00     0.074 A 
ATOM     45  C   UNL A   1      43.496  31.763  28.559  1.00  0.00     0.031 C 
ATOM     46  C   UNL A   1      41.594  25.185  27.708  1.00  0.00     0.029 A 
ATOM     47  C   UNL A   1      43.004  25.475  27.467  1.00  0.00     0.049 A 
ATOM     48  H   UNL A   1      43.973  27.306  27.688  1.00  0.00     0.167 HD
ATOM     49  C   UNL A   1      45.855  31.243  28.008  1.00  0.00     0.037 A 
ATOM     50  C   UNL A   1      43.923  24.581  27.056  1.00  0.00     0.037 A 
ATOM     51  C   UNL A   1      46.922  30.341  27.655  1.00  0.00     0.049 A 
ATOM     52  C   UNL A   1      45.348  25.026  26.860  1.00  0.00     0.074 A 
ATOM     53  C   UNL A   1      48.269  30.620  27.501  1.00  0.00     0.029 A 
ATOM     54  N   UNL A   1      46.765  28.987  27.402  1.00  0.00    -0.354 N 
ATOM     55  N   UNL A   1      45.867  26.221  27.019  1.00  0.00    -0.248 NA
ATOM     56  C   UNL A   1      46.314  24.003  26.436  1.00  0.00     0.031 C 
ATOM     57  C   UNL A   1      48.920  29.444  27.115  1.00  0.00     0.029 A 
ATOM     58  C   UNL A   1      47.987  28.420  27.076  1.00  0.00     0.049 A 
ATOM     59  H   UNL A   1      45.911  28.499  27.447  1.00  0.00     0.167 HD
ATOM     60  C   UNL A   1      47.225  26.084  26.745  1.00  0.00     0.074 A 
ATOM     61  C   UNL A   1      47.447  24.691  26.419  1.00  0.00     0.031 C 
ATOM     62  C   UNL A   1      48.198  27.029  26.765  1.00  0.00     0.037 A 
BRANCH  49  63
ATOM     63  C   UNL A   1      46.186  32.698  28.196  1.00  0.00     0.058 A 
ATOM     64  C   UNL A   1      46.118  33.613  27.132  1.00  0.00     0.135 A 
ATOM     65  C   UNL A   1      46.542  33.195  29.460  1.00  0.00     0.135 A 
ATOM     66  F   UNL A   1      45.796  33.192  25.898  1.00  0.00    -0.206 F 
ATOM     67  C   UNL A   1      46.419  34.959  27.307  1.00  0.00     0.059 A 
ATOM     68  C   UNL A   1      46.819  34.544  29.666  1.00  0.00     0.059 A 
ATOM     69  F   UNL A   1      46.621  32.367  30.514  1.00  0.00    -0.206 F 
ATOM     70  C   UNL A   1      46.771  35.416  28.579  1.00  0.00     0.060 A 
BRANCH  70  71
ATOM     71  S   UNL A   1      47.155  37.167  28.790  1.00  0.00     0.124 S 
ATOM     72  O   UNL A   1      47.209  37.621  27.404  1.00  0.00    -0.237 OA
ATOM     73  O   UNL A   1      46.019  37.645  29.569  1.00  0.00    -0.237 OA
ATOM     74  O   UNL A   1      48.433  37.152  29.496  1.00  0.00    -0.744 OA
ENDBRANCH  70  71
ENDBRANCH  49  63
BRANCH  50  75
ATOM     75  C   UNL A   1      43.533  23.165  26.822  1.00  0.00     0.058 A 
ATOM     76  C   UNL A   1      43.228  22.314  27.895  1.00  0.00     0.135 A 
ATOM     77  C   UNL A   1      43.447  22.635  25.525  1.00  0.00     0.135 A 
ATOM     78  F   UNL A   1      43.302  22.770  29.154  1.00  0.00    -0.206 F 
ATOM     79  C   UNL A   1      42.873  20.984  27.694  1.00  0.00     0.059 A 
ATOM     80  C   UNL A   1      43.069  21.316  25.296  1.00  0.00     0.059 A 
ATOM     81  F   UNL A   1      43.712  23.413  24.463  1.00  0.00    -0.206 F 
ATOM     82  C   UNL A   1      42.794  20.494  26.389  1.00  0.00     0.060 A 
BRANCH  82  83
ATOM     83  S   UNL A   1      42.287  18.779  26.136  1.00  0.00     0.124 S 
ATOM     84  O   UNL A   1      43.198  18.357  25.079  1.00  0.00    -0.237 OA
ATOM     85  O   UNL A   1      42.520  18.194  27.452  1.00  0.00    -0.237 OA
ATOM     86  O   UNL A   1      40.883  18.899  25.751  1.00  0.00    -0.744 OA
ENDBRANCH  82  83
ENDBRANCH  50  75
BRANCH  62  87
ATOM     87  C   UNL A   1      49.603  26.582  26.468  1.00  0.00     0.058 A 
ATOM     88  C   UNL A   1      50.444  26.065  27.466  1.00  0.00     0.135 A 
ATOM     89  C   UNL A   1      50.098  26.626  25.153  1.00  0.00     0.135 A 
ATOM     90  F   UNL A   1      50.023  26.008  28.740  1.00  0.00    -0.206 F 
ATOM     91  C   UNL A   1      51.732  25.628  27.177  1.00  0.00     0.059 A 
ATOM     92  C   UNL A   1      51.374  26.168  24.836  1.00  0.00     0.059 A 
ATOM     93  F   UNL A   1      49.332  27.101  24.158  1.00  0.00    -0.206 F 
ATOM     94  C   UNL A   1      52.187  25.683  25.858  1.00  0.00     0.060 A 
BRANCH  94  95
ATOM     95  S   UNL A   1      53.850  25.081  25.489  1.00  0.00     0.124 S 
ATOM     96  O   UNL A   1      53.625  23.643  25.382  1.00  0.00    -0.237 OA
ATOM     97  O   UNL A   1      54.161  25.768  24.239  1.00  0.00    -0.237 OA
ATOM     98  O   UNL A   1      54.631  25.510  26.643  1.00  0.00    -0.744 OA
ENDBRANCH  94  95
ENDBRANCH  62  87
ENDBRANCH  36  37
ENDBRANCH  28  31
ENDBRANCH  26  27
ENDBRANCH   1  26
TORSDOF 17
ENDMDL
MODEL 3
REMARK VINA RESULT:     -12.0      1.730      3.621
REMARK SMILES CC1(C)CSC[C@H]([NH2+][C@H](C(=O)NCCCCNC(=O)c2ccc(-c3c4nc(c(-c5c(F)cc(S(=O)(=O)[O-])cc5F)c5ccc([nH]5)c(-c5c(F)cc(S(=O)(=O)[O-])cc5F)c5nc(c(-c6c(F)cc(S(=O)(=O)[O-])cc6F)c6ccc3[nH]6)C=C5)C=C4)cc2)c2ccccc2)C1
REMARK SMILES IDX 15 1 14 2 13 3 12 4 10 5 11 6 9 8 8 9 7 12 1 13 2 14 3 15
REMARK SMILES IDX 4 16 92 17 5 18 6 19 86 20 87 21 91 22 88 23 90 24 89 25
REMARK SMILES IDX 16 26 17 27 18 28 19 30 20 31 21 32 85 33 22 34 84 35 23 36
REMARK SMILES IDX 24 37 25 38 78 39 26 40 83 41 77 42 79 43 27 44 82 45 76 46
REMARK SMILES IDX 75 47 28 49 62 50 41 51 61 52 42 53 45 54 60 55 80 56 43 57
REMARK SMILES IDX 44 58 59 60 81 61 46 62 29 63 30 64 39 65 31 66 32 67 38 68
REMARK SMILES IDX 40 69 33 70 34 71 35 72 36 73 37 74 63 75 64 76 73 77 65 78
REMARK SMILES IDX 66 79 72 80 74 81 67 82 68 83 69 84 70 85 71 86 47 87 48 88
REMARK SMILES IDX 57 89 49 90 50 91 56 92 58 93 51 94 52 95 53 96 54 97 55 98
REMARK H PARENT 12 7 8 10 8 11 17 29 79 48 45 59
REMARK Flexibility Score: inf
ROOT
ATOM      1  C   UNL A   1      37.407  23.565  25.478  1.00  0.00     0.023 C 
ENDROOT
BRANCH   1   2
ATOM      2  C   UNL A   1      37.789  22.146  25.022  1.00  0.00     0.023 C 
BRANCH   2   3
ATOM      3  C   UNL A   1      36.708  21.072  25.188  1.00  0.00     0.116 C 
BRANCH   3   4
ATOM      4  N   UNL A   1      35.877  21.345  26.339  1.00  0.00    -0.351 N 
ATOM      5  C   UNL A   1      34.538  21.548  26.476  1.00  0.00     0.283 C 
ATOM      6  O   UNL A   1      34.210  21.907  27.611  1.00  0.00    -0.268 OA
ATOM      7  H   UNL A   1      36.374  21.395  27.187  1.00  0.00     0.163 HD
BRANCH   5   8
ATOM      8  C   UNL A   1      33.541  21.326  25.287  1.00  0.00     0.304 C 
BRANCH   8   9
ATOM      9  N   UNL A   1      32.451  20.371  25.643  1.00  0.00    -0.329 N 
ATOM     10  H   UNL A   1      32.499  20.237  26.653  1.00  0.00     0.347 HD
ATOM     11  H   UNL A   1      31.623  20.821  25.255  1.00  0.00     0.347 HD
BRANCH   9  12
ATOM     12  C   UNL A   1      32.398  19.009  25.039  1.00  0.00     0.193 C 
ATOM     13  C   UNL A   1      32.791  15.576  24.879  1.00  0.00     0.012 C 
ATOM     14  C   UNL A   1      33.806  16.730  24.787  1.00  0.00    -0.021 C 
ATOM     15  C   UNL A   1      35.144  16.222  25.380  1.00  0.00     0.012 C 
ATOM     16  C   UNL A   1      34.087  17.122  23.327  1.00  0.00     0.076 C 
ATOM     17  C   UNL A   1      33.331  17.929  25.646  1.00  0.00     0.073 C 
ATOM     18  S   UNL A   1      32.592  17.709  22.500  1.00  0.00    -0.155 SA
ATOM     19  C   UNL A   1      32.373  19.182  23.505  1.00  0.00     0.134 C 
ENDBRANCH   9  12
ENDBRANCH   8   9
BRANCH   8  20
ATOM     20  C   UNL A   1      32.968  22.569  24.575  1.00  0.00     0.019 A 
ATOM     21  C   UNL A   1      31.610  22.738  24.265  1.00  0.00     0.010 A 
ATOM     22  C   UNL A   1      33.838  23.626  24.229  1.00  0.00     0.010 A 
ATOM     23  C   UNL A   1      31.156  23.862  23.562  1.00  0.00     0.001 A 
ATOM     24  C   UNL A   1      33.386  24.754  23.537  1.00  0.00     0.001 A 
ATOM     25  C   UNL A   1      32.045  24.864  23.189  1.00  0.00     0.000 A 
ENDBRANCH   8  20
ENDBRANCH   5   8
ENDBRANCH   3   4
ENDBRANCH   2   3
ENDBRANCH   1   2
BRANCH   1  26
ATOM     26  C   UNL A   1      38.317  24.191  26.531  1.00  0.00     0.116 C 
BRANCH  26  27
ATOM     27  N   UNL A   1      39.721  24.034  26.192  1.00  0.00    -0.352 N 
ATOM     28  C   UNL A   1      40.799  24.816  26.532  1.00  0.00     0.251 C 
ATOM     29  H   UNL A   1      39.932  23.249  25.637  1.00  0.00     0.163 HD
ATOM     30  O   UNL A   1      41.862  24.661  25.938  1.00  0.00    -0.269 OA
BRANCH  28  31
ATOM     31  C   UNL A   1      40.686  25.846  27.591  1.00  0.00     0.039 A 
ATOM     32  C   UNL A   1      39.715  25.689  28.584  1.00  0.00     0.014 A 
ATOM     33  C   UNL A   1      41.493  26.987  27.582  1.00  0.00     0.014 A 
ATOM     34  C   UNL A   1      39.591  26.645  29.597  1.00  0.00     0.010 A 
ATOM     35  C   UNL A   1      41.412  27.907  28.628  1.00  0.00     0.010 A 
ATOM     36  C   UNL A   1      40.457  27.750  29.644  1.00  0.00    -0.014 A 
BRANCH  36  37
ATOM     37  C   UNL A   1      40.374  28.750  30.744  1.00  0.00     0.031 A 
ATOM     38  C   UNL A   1      41.262  28.626  31.954  1.00  0.00     0.074 A 
ATOM     39  C   UNL A   1      39.462  29.741  30.680  1.00  0.00     0.049 A 
ATOM     40  N   UNL A   1      41.288  29.358  33.039  1.00  0.00    -0.248 NA
ATOM     41  C   UNL A   1      42.231  27.519  31.955  1.00  0.00     0.031 C 
ATOM     42  C   UNL A   1      38.516  29.951  29.582  1.00  0.00     0.029 A 
ATOM     43  N   UNL A   1      39.171  30.752  31.563  1.00  0.00    -0.354 N 
ATOM     44  C   UNL A   1      42.264  28.795  33.855  1.00  0.00     0.074 A 
ATOM     45  C   UNL A   1      42.772  27.632  33.160  1.00  0.00     0.031 C 
ATOM     46  C   UNL A   1      37.765  31.031  29.848  1.00  0.00     0.029 A 
ATOM     47  C   UNL A   1      38.146  31.571  31.150  1.00  0.00     0.049 A 
ATOM     48  H   UNL A   1      39.652  30.880  32.413  1.00  0.00     0.167 HD
ATOM     49  C   UNL A   1      42.713  29.220  35.061  1.00  0.00     0.037 A 
ATOM     50  C   UNL A   1      37.571  32.630  31.752  1.00  0.00     0.037 A 
ATOM     51  C   UNL A   1      42.220  30.392  35.740  1.00  0.00     0.049 A 
ATOM     52  C   UNL A   1      38.082  33.081  33.094  1.00  0.00     0.074 A 
ATOM     53  C   UNL A   1      42.644  30.932  36.942  1.00  0.00     0.029 A 
ATOM     54  N   UNL A   1      41.196  31.204  35.278  1.00  0.00    -0.354 N 
ATOM     55  N   UNL A   1      39.043  32.567  33.825  1.00  0.00    -0.248 NA
ATOM     56  C   UNL A   1      37.435  34.257  33.693  1.00  0.00     0.031 C 
ATOM     57  C   UNL A   1      41.849  32.047  37.227  1.00  0.00     0.029 A 
ATOM     58  C   UNL A   1      40.962  32.231  36.178  1.00  0.00     0.049 A 
ATOM     59  H   UNL A   1      40.706  31.071  34.434  1.00  0.00     0.167 HD
ATOM     60  C   UNL A   1      39.137  33.377  34.952  1.00  0.00     0.074 A 
ATOM     61  C   UNL A   1      38.141  34.418  34.803  1.00  0.00     0.031 C 
ATOM     62  C   UNL A   1      39.975  33.269  36.014  1.00  0.00     0.037 A 
BRANCH  49  63
ATOM     63  C   UNL A   1      43.796  28.415  35.726  1.00  0.00     0.058 A 
ATOM     64  C   UNL A   1      43.496  27.378  36.625  1.00  0.00     0.135 A 
ATOM     65  C   UNL A   1      45.149  28.656  35.438  1.00  0.00     0.135 A 
ATOM     66  F   UNL A   1      42.220  27.111  36.948  1.00  0.00    -0.206 F 
ATOM     67  C   UNL A   1      44.497  26.630  37.236  1.00  0.00     0.059 A 
ATOM     68  C   UNL A   1      46.167  27.902  36.015  1.00  0.00     0.059 A 
ATOM     69  F   UNL A   1      45.495  29.634  34.584  1.00  0.00    -0.206 F 
ATOM     70  C   UNL A   1      45.831  26.901  36.925  1.00  0.00     0.060 A 
BRANCH  70  71
ATOM     71  S   UNL A   1      47.118  25.918  37.724  1.00  0.00     0.124 S 
ATOM     72  O   UNL A   1      46.993  24.647  37.018  1.00  0.00    -0.237 OA
ATOM     73  O   UNL A   1      48.323  26.687  37.436  1.00  0.00    -0.237 OA
ATOM     74  O   UNL A   1      46.711  25.900  39.126  1.00  0.00    -0.744 OA
ENDBRANCH  70  71
ENDBRANCH  49  63
BRANCH  50  75
ATOM     75  C   UNL A   1      36.460  33.356  31.080  1.00  0.00     0.058 A 
ATOM     76  C   UNL A   1      36.701  34.175  29.967  1.00  0.00     0.135 A 
ATOM     77  C   UNL A   1      35.135  33.241  31.531  1.00  0.00     0.135 A 
ATOM     78  F   UNL A   1      37.951  34.323  29.503  1.00  0.00    -0.206 F 
ATOM     79  C   UNL A   1      35.675  34.870  29.336  1.00  0.00     0.059 A 
ATOM     80  C   UNL A   1      34.087  33.905  30.900  1.00  0.00     0.059 A 
ATOM     81  F   UNL A   1      34.848  32.457  32.582  1.00  0.00    -0.206 F 
ATOM     82  C   UNL A   1      34.369  34.727  29.809  1.00  0.00     0.060 A 
BRANCH  82  83
ATOM     83  S   UNL A   1      33.037  35.596  28.954  1.00  0.00     0.124 S 
ATOM     84  O   UNL A   1      32.432  34.518  28.181  1.00  0.00    -0.237 OA
ATOM     85  O   UNL A   1      32.243  36.110  30.065  1.00  0.00    -0.237 OA
ATOM     86  O   UNL A   1      33.745  36.611  28.178  1.00  0.00    -0.744 OA
ENDBRANCH  82  83
ENDBRANCH  50  75
BRANCH  62  87
ATOM     87  C   UNL A   1      39.884  34.326  37.080  1.00  0.00     0.058 A 
ATOM     88  C   UNL A   1      40.433  35.605  36.904  1.00  0.00     0.135 A 
ATOM     89  C   UNL A   1      39.192  34.068  38.275  1.00  0.00     0.135 A 
ATOM     90  F   UNL A   1      41.110  35.901  35.782  1.00  0.00    -0.206 F 
ATOM     91  C   UNL A   1      40.320  36.586  37.884  1.00  0.00     0.059 A 
ATOM     92  C   UNL A   1      39.043  35.043  39.258  1.00  0.00     0.059 A 
ATOM     93  F   UNL A   1      38.639  32.865  38.491  1.00  0.00    -0.206 F 
ATOM     94  C   UNL A   1      39.621  36.295  39.057  1.00  0.00     0.060 A 
BRANCH  94  95
ATOM     95  S   UNL A   1      39.451  37.587  40.308  1.00  0.00     0.124 S 
ATOM     96  O   UNL A   1      40.836  38.010  40.484  1.00  0.00    -0.237 OA
ATOM     97  O   UNL A   1      38.574  38.549  39.647  1.00  0.00    -0.237 OA
ATOM     98  O   UNL A   1      38.859  36.887  41.442  1.00  0.00    -0.744 OA
ENDBRANCH  94  95
ENDBRANCH  62  87
ENDBRANCH  36  37
ENDBRANCH  28  31
ENDBRANCH  26  27
ENDBRANCH   1  26
TORSDOF 17
ENDMDL
