MODEL 1
REMARK VINA RESULT:     -12.4      0.000      0.000
REMARK SMILES CCC[C@@H]1CCc2nc3c(F)cccc3c(C(=O)NCCCCNC(=O)c3ccc(-c4c5nc(c(-c6c(F)cc(S(=O)(=O)[O-])cc6F)c6ccc([nH]6)c(-c6c(F)cc(S(=O)(=O)[O-])cc6F)c6nc(c(-c7c(F)cc(S(=O)(=O)[O-])cc7F)c7ccc4[nH]7)C=C6)C=C5)cc3)c2C1
REMARK SMILES IDX 22 1 21 2 20 3 19 4 17 5 18 6 16 8 4 9 5 10 94 11 6 12 93 13
REMARK SMILES IDX 7 14 8 15 15 16 9 17 14 18 10 19 13 20 11 21 12 22 3 23 2 24
REMARK SMILES IDX 1 25 23 26 24 27 25 28 26 30 27 31 28 32 92 33 29 34 91 35
REMARK SMILES IDX 30 36 31 37 32 38 85 39 33 40 90 41 84 42 86 43 34 44 89 45
REMARK SMILES IDX 83 46 82 47 35 49 69 50 48 51 68 52 49 53 52 54 67 55 87 56
REMARK SMILES IDX 50 57 51 58 66 60 88 61 53 62 36 63 37 64 46 65 38 66 39 67
REMARK SMILES IDX 45 68 47 69 40 70 41 71 42 72 43 73 44 74 70 75 71 76 80 77
REMARK SMILES IDX 72 78 73 79 79 80 81 81 74 82 75 83 76 84 77 85 78 86 54 87
REMARK SMILES IDX 55 88 64 89 56 90 57 91 63 92 65 93 58 94 59 95 60 96 61 97
REMARK SMILES IDX 62 98
REMARK H PARENT 19 7 24 29 86 48 52 59
REMARK Flexibility Score: inf
ROOT
ATOM      1  C   UNL A   1      38.208  19.906  25.002  1.00  0.00     0.023 C 
ENDROOT
BRANCH   1   2
ATOM      2  C   UNL A   1      37.257  21.045  24.658  1.00  0.00     0.023 C 
BRANCH   2   3
ATOM      3  C   UNL A   1      37.172  22.170  25.703  1.00  0.00     0.116 C 
BRANCH   3   4
ATOM      4  N   UNL A   1      35.974  21.984  26.502  1.00  0.00    -0.352 N 
ATOM      5  C   UNL A   1      34.760  22.633  26.428  1.00  0.00     0.252 C 
ATOM      6  O   UNL A   1      34.242  22.941  27.499  1.00  0.00    -0.269 OA
ATOM      7  H   UNL A   1      36.038  21.290  27.199  1.00  0.00     0.163 HD
BRANCH   5   8
ATOM      8  C   UNL A   1      33.992  22.796  25.143  1.00  0.00     0.054 A 
ATOM      9  C   UNL A   1      32.476  19.229  24.703  1.00  0.00    -0.006 C 
ATOM     10  C   UNL A   1      32.529  19.234  23.174  1.00  0.00     0.010 C 
ATOM     11  C   UNL A   1      33.450  20.279  25.263  1.00  0.00     0.042 C 
ATOM     12  C   UNL A   1      32.119  20.609  22.657  1.00  0.00     0.057 C 
ATOM     13  C   UNL A   1      33.425  21.629  24.574  1.00  0.00    -0.013 A 
ATOM     14  C   UNL A   1      32.875  21.740  23.300  1.00  0.00     0.045 A 
ATOM     15  N   UNL A   1      32.898  22.886  22.588  1.00  0.00    -0.249 NA
ATOM     16  C   UNL A   1      33.808  24.044  24.486  1.00  0.00     0.016 A 
ATOM     17  C   UNL A   1      33.345  24.015  23.160  1.00  0.00     0.107 A 
ATOM     18  C   UNL A   1      33.993  25.317  25.075  1.00  0.00     0.011 A 
ATOM     19  C   UNL A   1      33.315  25.212  22.436  1.00  0.00     0.149 A 
ATOM     20  C   UNL A   1      33.958  26.501  24.340  1.00  0.00     0.004 A 
ATOM     21  F   UNL A   1      32.933  25.204  21.148  1.00  0.00    -0.205 F 
ATOM     22  C   UNL A   1      33.652  26.441  22.996  1.00  0.00     0.041 A 
BRANCH   9  23
ATOM     23  C   UNL A   1      32.642  17.808  25.291  1.00  0.00     0.003 C 
BRANCH  23  24
ATOM     24  C   UNL A   1      33.410  16.773  24.464  1.00  0.00    -0.003 C 
ATOM     25  C   UNL A   1      34.925  16.878  24.625  1.00  0.00     0.004 C 
ENDBRANCH  23  24
ENDBRANCH   9  23
ENDBRANCH   5   8
ENDBRANCH   3   4
ENDBRANCH   2   3
ENDBRANCH   1   2
BRANCH   1  26
ATOM     26  C   UNL A   1      39.349  20.298  25.922  1.00  0.00     0.116 C 
BRANCH  26  27
ATOM     27  N   UNL A   1      40.392  19.282  25.994  1.00  0.00    -0.352 N 
ATOM     28  C   UNL A   1      41.741  19.464  26.171  1.00  0.00     0.251 C 
ATOM     29  H   UNL A   1      40.092  18.349  25.906  1.00  0.00     0.163 HD
ATOM     30  O   UNL A   1      42.521  18.522  26.083  1.00  0.00    -0.269 OA
BRANCH  28  31
ATOM     31  C   UNL A   1      42.224  20.826  26.446  1.00  0.00     0.039 A 
ATOM     32  C   UNL A   1      42.420  21.229  27.768  1.00  0.00     0.014 A 
ATOM     33  C   UNL A   1      42.562  21.662  25.376  1.00  0.00     0.014 A 
ATOM     34  C   UNL A   1      43.011  22.465  28.020  1.00  0.00     0.010 A 
ATOM     35  C   UNL A   1      43.214  22.858  25.629  1.00  0.00     0.010 A 
ATOM     36  C   UNL A   1      43.428  23.274  26.951  1.00  0.00    -0.014 A 
BRANCH  36  37
ATOM     37  C   UNL A   1      44.000  24.617  27.176  1.00  0.00     0.031 A 
ATOM     38  C   UNL A   1      43.074  25.726  27.585  1.00  0.00     0.074 A 
ATOM     39  C   UNL A   1      45.306  24.850  26.953  1.00  0.00     0.049 A 
ATOM     40  N   UNL A   1      43.315  27.004  27.708  1.00  0.00    -0.248 NA
ATOM     41  C   UNL A   1      41.676  25.346  27.861  1.00  0.00     0.031 C 
ATOM     42  C   UNL A   1      46.288  23.848  26.533  1.00  0.00     0.029 A 
ATOM     43  N   UNL A   1      46.029  26.011  27.036  1.00  0.00    -0.354 N 
ATOM     44  C   UNL A   1      42.101  27.578  28.062  1.00  0.00     0.074 A 
ATOM     45  C   UNL A   1      41.113  26.524  28.076  1.00  0.00     0.031 C 
ATOM     46  C   UNL A   1      47.491  24.438  26.413  1.00  0.00     0.029 A 
ATOM     47  C   UNL A   1      47.356  25.861  26.714  1.00  0.00     0.049 A 
ATOM     48  H   UNL A   1      45.634  26.873  27.303  1.00  0.00     0.167 HD
ATOM     49  C   UNL A   1      41.841  28.867  28.376  1.00  0.00     0.037 A 
ATOM     50  C   UNL A   1      48.344  26.775  26.665  1.00  0.00     0.037 A 
ATOM     51  C   UNL A   1      42.836  29.903  28.386  1.00  0.00     0.049 A 
ATOM     52  C   UNL A   1      48.026  28.206  27.006  1.00  0.00     0.074 A 
ATOM     53  C   UNL A   1      42.690  31.239  28.711  1.00  0.00     0.029 A 
ATOM     54  N   UNL A   1      44.173  29.712  28.063  1.00  0.00    -0.354 N 
ATOM     55  N   UNL A   1      46.876  28.737  27.350  1.00  0.00    -0.248 NA
ATOM     56  C   UNL A   1      49.139  29.163  26.952  1.00  0.00     0.031 C 
ATOM     57  C   UNL A   1      43.935  31.861  28.564  1.00  0.00     0.029 A 
ATOM     58  C   UNL A   1      44.863  30.905  28.177  1.00  0.00     0.049 A 
ATOM     59  H   UNL A   1      44.571  28.852  27.793  1.00  0.00     0.167 HD
ATOM     60  C   UNL A   1      47.130  30.086  27.570  1.00  0.00     0.074 A 
ATOM     61  C   UNL A   1      48.546  30.285  27.335  1.00  0.00     0.031 C 
ATOM     62  C   UNL A   1      46.273  31.072  27.934  1.00  0.00     0.037 A 
BRANCH  49  63
ATOM     63  C   UNL A   1      40.427  29.210  28.746  1.00  0.00     0.058 A 
ATOM     64  C   UNL A   1      39.444  29.411  27.763  1.00  0.00     0.135 A 
ATOM     65  C   UNL A   1      40.048  29.348  30.090  1.00  0.00     0.135 A 
ATOM     66  F   UNL A   1      39.762  29.319  26.461  1.00  0.00    -0.206 F 
ATOM     67  C   UNL A   1      38.142  29.762  28.098  1.00  0.00     0.059 A 
ATOM     68  C   UNL A   1      38.744  29.674  30.450  1.00  0.00     0.059 A 
ATOM     69  F   UNL A   1      40.952  29.178  31.068  1.00  0.00    -0.206 F 
ATOM     70  C   UNL A   1      37.801  29.893  29.445  1.00  0.00     0.060 A 
BRANCH  70  71
ATOM     71  S   UNL A   1      36.106  30.350  29.863  1.00  0.00     0.124 S 
ATOM     72  O   UNL A   1      36.187  31.807  29.856  1.00  0.00    -0.237 OA
ATOM     73  O   UNL A   1      35.344  29.751  28.772  1.00  0.00    -0.237 OA
ATOM     74  O   UNL A   1      35.903  29.739  31.174  1.00  0.00    -0.744 OA
ENDBRANCH  70  71
ENDBRANCH  49  63
BRANCH  50  75
ATOM     75  C   UNL A   1      49.726  26.361  26.311  1.00  0.00     0.058 A 
ATOM     76  C   UNL A   1      50.159  26.385  24.977  1.00  0.00     0.135 A 
ATOM     77  C   UNL A   1      50.642  25.947  27.289  1.00  0.00     0.135 A 
ATOM     78  F   UNL A   1      49.315  26.765  24.006  1.00  0.00    -0.206 F 
ATOM     79  C   UNL A   1      51.448  26.004  24.622  1.00  0.00     0.059 A 
ATOM     80  C   UNL A   1      51.944  25.579  26.961  1.00  0.00     0.059 A 
ATOM     81  F   UNL A   1      50.280  25.920  28.581  1.00  0.00    -0.206 F 
ATOM     82  C   UNL A   1      52.336  25.605  25.623  1.00  0.00     0.060 A 
BRANCH  82  83
ATOM     83  S   UNL A   1      54.024  25.164  25.155  1.00  0.00     0.124 S 
ATOM     84  O   UNL A   1      54.195  25.923  23.921  1.00  0.00    -0.237 OA
ATOM     85  O   UNL A   1      54.792  25.633  26.304  1.00  0.00    -0.237 OA
ATOM     86  O   UNL A   1      53.962  23.714  25.002  1.00  0.00    -0.744 OA
ENDBRANCH  82  83
ENDBRANCH  50  75
BRANCH  62  87
ATOM     87  C   UNL A   1      46.849  32.446  28.112  1.00  0.00     0.058 A 
ATOM     88  C   UNL A   1      47.487  32.823  29.303  1.00  0.00     0.135 A 
ATOM     89  C   UNL A   1      46.801  33.379  27.064  1.00  0.00     0.135 A 
ATOM     90  F   UNL A   1      47.553  31.966  30.335  1.00  0.00    -0.206 F 
ATOM     91  C   UNL A   1      48.040  34.089  29.459  1.00  0.00     0.059 A 
ATOM     92  C   UNL A   1      47.369  34.642  27.189  1.00  0.00     0.059 A 
ATOM     93  F   UNL A   1      46.212  33.061  25.902  1.00  0.00    -0.206 F 
ATOM     94  C   UNL A   1      47.975  34.992  28.395  1.00  0.00     0.060 A 
BRANCH  94  95
ATOM     95  S   UNL A   1      48.717  36.625  28.601  1.00  0.00     0.124 S 
ATOM     96  O   UNL A   1      47.624  37.497  28.184  1.00  0.00    -0.237 OA
ATOM     97  O   UNL A   1      49.038  36.646  30.025  1.00  0.00    -0.237 OA
ATOM     98  O   UNL A   1      49.870  36.588  27.706  1.00  0.00    -0.744 OA
ENDBRANCH  94  95
ENDBRANCH  62  87
ENDBRANCH  36  37
ENDBRANCH  28  31
ENDBRANCH  26  27
ENDBRANCH   1  26
TORSDOF 16
ENDMDL
MODEL 2
REMARK VINA RESULT:     -12.3      6.782     12.186
REMARK SMILES CCC[C@@H]1CCc2nc3c(F)cccc3c(C(=O)NCCCCNC(=O)c3ccc(-c4c5nc(c(-c6c(F)cc(S(=O)(=O)[O-])cc6F)c6ccc([nH]6)c(-c6c(F)cc(S(=O)(=O)[O-])cc6F)c6nc(c(-c7c(F)cc(S(=O)(=O)[O-])cc7F)c7ccc4[nH]7)C=C6)C=C5)cc3)c2C1
REMARK SMILES IDX 22 1 21 2 20 3 19 4 17 5 18 6 16 8 4 9 5 10 94 11 6 12 93 13
REMARK SMILES IDX 7 14 8 15 15 16 9 17 14 18 10 19 13 20 11 21 12 22 3 23 2 24
REMARK SMILES IDX 1 25 23 26 24 27 25 28 26 30 27 31 28 32 92 33 29 34 91 35
REMARK SMILES IDX 30 36 31 37 32 38 85 39 33 40 90 41 84 42 86 43 34 44 89 45
REMARK SMILES IDX 83 46 82 47 35 49 69 50 48 51 68 52 49 53 52 54 67 55 87 56
REMARK SMILES IDX 50 57 51 58 66 60 88 61 53 62 36 63 37 64 46 65 38 66 39 67
REMARK SMILES IDX 45 68 47 69 40 70 41 71 42 72 43 73 44 74 70 75 71 76 80 77
REMARK SMILES IDX 72 78 73 79 79 80 81 81 74 82 75 83 76 84 77 85 78 86 54 87
REMARK SMILES IDX 55 88 64 89 56 90 57 91 63 92 65 93 58 94 59 95 60 96 61 97
REMARK SMILES IDX 62 98
REMARK H PARENT 19 7 24 29 86 48 52 59
REMARK Flexibility Score: inf
ROOT
ATOM      1  C   UNL A   1      31.872  31.742  26.928  1.00  0.00     0.023 C 
ENDROOT
BRANCH   1   2
ATOM      2  C   UNL A   1      32.129  30.244  26.826  1.00  0.00     0.023 C 
BRANCH   2   3
ATOM      3  C   UNL A   1      33.476  29.849  26.199  1.00  0.00     0.116 C 
BRANCH   3   4
ATOM      4  N   UNL A   1      33.315  29.747  24.760  1.00  0.00    -0.352 N 
ATOM      5  C   UNL A   1      33.272  28.625  23.959  1.00  0.00     0.252 C 
ATOM      6  O   UNL A   1      33.891  28.690  22.899  1.00  0.00    -0.269 OA
ATOM      7  H   UNL A   1      33.223  30.606  24.287  1.00  0.00     0.163 HD
BRANCH   5   8
ATOM      8  C   UNL A   1      32.373  27.451  24.238  1.00  0.00     0.054 A 
ATOM      9  C   UNL A   1      29.057  28.610  22.540  1.00  0.00    -0.006 C 
ATOM     10  C   UNL A   1      28.129  27.920  23.542  1.00  0.00     0.010 C 
ATOM     11  C   UNL A   1      30.453  28.791  23.161  1.00  0.00     0.042 C 
ATOM     12  C   UNL A   1      28.693  26.547  23.893  1.00  0.00     0.057 C 
ATOM     13  C   UNL A   1      31.004  27.587  23.897  1.00  0.00    -0.013 A 
ATOM     14  C   UNL A   1      30.136  26.583  24.318  1.00  0.00     0.045 A 
ATOM     15  N   UNL A   1      30.538  25.527  25.056  1.00  0.00    -0.249 NA
ATOM     16  C   UNL A   1      32.823  26.231  24.813  1.00  0.00     0.016 A 
ATOM     17  C   UNL A   1      31.846  25.344  25.297  1.00  0.00     0.107 A 
ATOM     18  C   UNL A   1      34.170  25.803  24.883  1.00  0.00     0.011 A 
ATOM     19  C   UNL A   1      32.262  24.218  26.016  1.00  0.00     0.149 A 
ATOM     20  C   UNL A   1      34.569  24.678  25.602  1.00  0.00     0.004 A 
ATOM     21  F   UNL A   1      31.348  23.385  26.541  1.00  0.00    -0.205 F 
ATOM     22  C   UNL A   1      33.604  23.899  26.207  1.00  0.00     0.041 A 
BRANCH   9  23
ATOM     23  C   UNL A   1      28.433  29.898  21.954  1.00  0.00     0.003 C 
BRANCH  23  24
ATOM     24  C   UNL A   1      27.760  30.876  22.923  1.00  0.00    -0.003 C 
ATOM     25  C   UNL A   1      28.746  31.563  23.865  1.00  0.00     0.004 C 
ENDBRANCH  23  24
ENDBRANCH   9  23
ENDBRANCH   5   8
ENDBRANCH   3   4
ENDBRANCH   2   3
ENDBRANCH   1   2
BRANCH   1  26
ATOM     26  C   UNL A   1      33.010  32.534  27.547  1.00  0.00     0.116 C 
BRANCH  26  27
ATOM     27  N   UNL A   1      32.671  33.934  27.767  1.00  0.00    -0.352 N 
ATOM     28  C   UNL A   1      33.186  34.792  28.707  1.00  0.00     0.251 C 
ATOM     29  H   UNL A   1      31.988  34.312  27.168  1.00  0.00     0.163 HD
ATOM     30  O   UNL A   1      32.714  35.913  28.863  1.00  0.00    -0.269 OA
BRANCH  28  31
ATOM     31  C   UNL A   1      34.306  34.318  29.535  1.00  0.00     0.039 A 
ATOM     32  C   UNL A   1      34.040  33.578  30.689  1.00  0.00     0.014 A 
ATOM     33  C   UNL A   1      35.618  34.541  29.104  1.00  0.00     0.014 A 
ATOM     34  C   UNL A   1      35.101  33.011  31.390  1.00  0.00     0.010 A 
ATOM     35  C   UNL A   1      36.665  33.917  29.763  1.00  0.00     0.010 A 
ATOM     36  C   UNL A   1      36.414  33.162  30.918  1.00  0.00    -0.014 A 
BRANCH  36  37
ATOM     37  C   UNL A   1      37.570  32.629  31.669  1.00  0.00     0.031 A 
ATOM     38  C   UNL A   1      38.290  31.434  31.115  1.00  0.00     0.074 A 
ATOM     39  C   UNL A   1      37.921  33.164  32.853  1.00  0.00     0.049 A 
ATOM     40  N   UNL A   1      39.236  30.713  31.654  1.00  0.00    -0.248 NA
ATOM     41  C   UNL A   1      37.861  30.968  29.784  1.00  0.00     0.031 C 
ATOM     42  C   UNL A   1      37.276  34.313  33.491  1.00  0.00     0.029 A 
ATOM     43  N   UNL A   1      38.904  32.801  33.736  1.00  0.00    -0.354 N 
ATOM     44  C   UNL A   1      39.504  29.706  30.737  1.00  0.00     0.074 A 
ATOM     45  C   UNL A   1      38.583  29.870  29.635  1.00  0.00     0.031 C 
ATOM     46  C   UNL A   1      37.893  34.570  34.658  1.00  0.00     0.029 A 
ATOM     47  C   UNL A   1      38.952  33.585  34.863  1.00  0.00     0.049 A 
ATOM     48  H   UNL A   1      39.518  32.048  33.577  1.00  0.00     0.167 HD
ATOM     49  C   UNL A   1      40.455  28.746  30.795  1.00  0.00     0.037 A 
ATOM     50  C   UNL A   1      39.760  33.508  35.937  1.00  0.00     0.037 A 
ATOM     51  C   UNL A   1      41.383  28.607  31.883  1.00  0.00     0.049 A 
ATOM     52  C   UNL A   1      40.802  32.422  35.985  1.00  0.00     0.074 A 
ATOM     53  C   UNL A   1      42.404  27.687  32.036  1.00  0.00     0.029 A 
ATOM     54  N   UNL A   1      41.409  29.427  33.003  1.00  0.00    -0.354 N 
ATOM     55  N   UNL A   1      41.054  31.481  35.106  1.00  0.00    -0.248 NA
ATOM     56  C   UNL A   1      41.669  32.387  37.171  1.00  0.00     0.031 C 
ATOM     57  C   UNL A   1      43.033  27.936  33.261  1.00  0.00     0.029 A 
ATOM     58  C   UNL A   1      42.424  29.031  33.855  1.00  0.00     0.049 A 
ATOM     59  H   UNL A   1      40.794  30.179  33.167  1.00  0.00     0.167 HD
ATOM     60  C   UNL A   1      42.119  30.752  35.624  1.00  0.00     0.074 A 
ATOM     61  C   UNL A   1      42.473  31.373  36.885  1.00  0.00     0.031 C 
ATOM     62  C   UNL A   1      42.749  29.669  35.106  1.00  0.00     0.037 A 
BRANCH  49  63
ATOM     63  C   UNL A   1      40.535  27.790  29.641  1.00  0.00     0.058 A 
ATOM     64  C   UNL A   1      39.631  26.722  29.514  1.00  0.00     0.135 A 
ATOM     65  C   UNL A   1      41.524  27.933  28.657  1.00  0.00     0.135 A 
ATOM     66  F   UNL A   1      38.683  26.525  30.445  1.00  0.00    -0.206 F 
ATOM     67  C   UNL A   1      39.722  25.814  28.466  1.00  0.00     0.059 A 
ATOM     68  C   UNL A   1      41.618  27.049  27.585  1.00  0.00     0.059 A 
ATOM     69  F   UNL A   1      42.421  28.929  28.737  1.00  0.00    -0.206 F 
ATOM     70  C   UNL A   1      40.721  25.985  27.506  1.00  0.00     0.060 A 
BRANCH  70  71
ATOM     71  S   UNL A   1      40.824  24.796  26.152  1.00  0.00     0.124 S 
ATOM     72  O   UNL A   1      41.846  23.879  26.648  1.00  0.00    -0.237 OA
ATOM     73  O   UNL A   1      39.466  24.265  26.099  1.00  0.00    -0.237 OA
ATOM     74  O   UNL A   1      41.219  25.616  25.011  1.00  0.00    -0.744 OA
ENDBRANCH  70  71
ENDBRANCH  49  63
BRANCH  50  75
ATOM     75  C   UNL A   1      39.639  34.501  37.035  1.00  0.00     0.058 A 
ATOM     76  C   UNL A   1      38.913  34.198  38.196  1.00  0.00     0.135 A 
ATOM     77  C   UNL A   1      40.250  35.762  36.956  1.00  0.00     0.135 A 
ATOM     78  F   UNL A   1      38.304  33.008  38.313  1.00  0.00    -0.206 F 
ATOM     79  C   UNL A   1      38.787  35.111  39.237  1.00  0.00     0.059 A 
ATOM     80  C   UNL A   1      40.155  36.685  37.992  1.00  0.00     0.059 A 
ATOM     81  F   UNL A   1      40.966  36.095  35.872  1.00  0.00    -0.206 F 
ATOM     82  C   UNL A   1      39.415  36.353  39.127  1.00  0.00     0.060 A 
BRANCH  82  83
ATOM     83  S   UNL A   1      39.289  37.509  40.510  1.00  0.00     0.124 S 
ATOM     84  O   UNL A   1      40.655  38.011  40.599  1.00  0.00    -0.237 OA
ATOM     85  O   UNL A   1      38.291  38.457  40.024  1.00  0.00    -0.237 OA
ATOM     86  O   UNL A   1      38.853  36.663  41.616  1.00  0.00    -0.744 OA
ENDBRANCH  82  83
ENDBRANCH  50  75
BRANCH  62  87
ATOM     87  C   UNL A   1      43.891  29.100  35.897  1.00  0.00     0.058 A 
ATOM     88  C   UNL A   1      43.711  28.011  36.762  1.00  0.00     0.135 A 
ATOM     89  C   UNL A   1      45.187  29.620  35.751  1.00  0.00     0.135 A 
ATOM     90  F   UNL A   1      42.488  27.482  36.938  1.00  0.00    -0.206 F 
ATOM     91  C   UNL A   1      44.773  27.470  37.477  1.00  0.00     0.059 A 
ATOM     92  C   UNL A   1      46.269  29.080  36.438  1.00  0.00     0.059 A 
ATOM     93  F   UNL A   1      45.412  30.653  34.926  1.00  0.00    -0.206 F 
ATOM     94  C   UNL A   1      46.049  28.013  37.308  1.00  0.00     0.060 A 
BRANCH  94  95
ATOM     95  S   UNL A   1      47.424  27.287  38.224  1.00  0.00     0.124 S 
ATOM     96  O   UNL A   1      46.846  26.024  38.670  1.00  0.00    -0.237 OA
ATOM     97  O   UNL A   1      48.462  27.185  37.203  1.00  0.00    -0.237 OA
ATOM     98  O   UNL A   1      47.684  28.266  39.276  1.00  0.00    -0.744 OA
ENDBRANCH  94  95
ENDBRANCH  62  87
ENDBRANCH  36  37
ENDBRANCH  28  31
ENDBRANCH  26  27
ENDBRANCH   1  26
TORSDOF 16
ENDMDL
MODEL 3
REMARK VINA RESULT:     -12.1      3.136      9.058
REMARK SMILES CCC[C@@H]1CCc2nc3c(F)cccc3c(C(=O)NCCCCNC(=O)c3ccc(-c4c5nc(c(-c6c(F)cc(S(=O)(=O)[O-])cc6F)c6ccc([nH]6)c(-c6c(F)cc(S(=O)(=O)[O-])cc6F)c6nc(c(-c7c(F)cc(S(=O)(=O)[O-])cc7F)c7ccc4[nH]7)C=C6)C=C5)cc3)c2C1
REMARK SMILES IDX 22 1 21 2 20 3 19 4 17 5 18 6 16 8 4 9 5 10 94 11 6 12 93 13
REMARK SMILES IDX 7 14 8 15 15 16 9 17 14 18 10 19 13 20 11 21 12 22 3 23 2 24
REMARK SMILES IDX 1 25 23 26 24 27 25 28 26 30 27 31 28 32 92 33 29 34 91 35
REMARK SMILES IDX 30 36 31 37 32 38 85 39 33 40 90 41 84 42 86 43 34 44 89 45
REMARK SMILES IDX 83 46 82 47 35 49 69 50 48 51 68 52 49 53 52 54 67 55 87 56
REMARK SMILES IDX 50 57 51 58 66 60 88 61 53 62 36 63 37 64 46 65 38 66 39 67
REMARK SMILES IDX 45 68 47 69 40 70 41 71 42 72 43 73 44 74 70 75 71 76 80 77
REMARK SMILES IDX 72 78 73 79 79 80 81 81 74 82 75 83 76 84 77 85 78 86 54 87
REMARK SMILES IDX 55 88 64 89 56 90 57 91 63 92 65 93 58 94 59 95 60 96 61 97
REMARK SMILES IDX 62 98
REMARK H PARENT 19 7 24 29 86 48 52 59
REMARK Flexibility Score: inf
ROOT
ATOM      1  C   UNL A   1      35.142  30.440  27.848  1.00  0.00     0.023 C 
ENDROOT
BRANCH   1   2
ATOM      2  C   UNL A   1      34.430  29.537  26.849  1.00  0.00     0.023 C 
BRANCH   2   3
ATOM      3  C   UNL A   1      33.004  29.970  26.469  1.00  0.00     0.116 C 
BRANCH   3   4
ATOM      4  N   UNL A   1      32.877  29.959  25.024  1.00  0.00    -0.352 N 
ATOM      5  C   UNL A   1      32.922  28.895  24.147  1.00  0.00     0.252 C 
ATOM      6  O   UNL A   1      33.555  29.074  23.107  1.00  0.00    -0.269 OA
ATOM      7  H   UNL A   1      32.735  30.841  24.608  1.00  0.00     0.163 HD
BRANCH   5   8
ATOM      8  C   UNL A   1      32.098  27.648  24.324  1.00  0.00     0.054 A 
ATOM      9  C   UNL A   1      28.729  28.719  22.674  1.00  0.00    -0.006 C 
ATOM     10  C   UNL A   1      27.839  27.897  23.608  1.00  0.00     0.010 C 
ATOM     11  C   UNL A   1      30.105  28.942  23.325  1.00  0.00     0.042 C 
ATOM     12  C   UNL A   1      28.487  26.541  23.862  1.00  0.00     0.057 C 
ATOM     13  C   UNL A   1      30.726  27.723  23.976  1.00  0.00    -0.013 A 
ATOM     14  C   UNL A   1      29.922  26.636  24.308  1.00  0.00     0.045 A 
ATOM     15  N   UNL A   1      30.385  25.555  24.970  1.00  0.00    -0.249 NA
ATOM     16  C   UNL A   1      32.621  26.419  24.811  1.00  0.00     0.016 A 
ATOM     17  C   UNL A   1      31.699  25.437  25.214  1.00  0.00     0.107 A 
ATOM     18  C   UNL A   1      33.992  26.074  24.868  1.00  0.00     0.011 A 
ATOM     19  C   UNL A   1      32.181  24.290  25.852  1.00  0.00     0.149 A 
ATOM     20  C   UNL A   1      34.457  24.925  25.505  1.00  0.00     0.004 A 
ATOM     21  F   UNL A   1      31.318  23.362  26.300  1.00  0.00    -0.205 F 
ATOM     22  C   UNL A   1      33.539  24.042  26.036  1.00  0.00     0.041 A 
BRANCH   9  23
ATOM     23  C   UNL A   1      28.029  30.006  22.178  1.00  0.00     0.003 C 
BRANCH  23  24
ATOM     24  C   UNL A   1      27.640  31.060  23.220  1.00  0.00    -0.003 C 
ATOM     25  C   UNL A   1      28.448  32.350  23.101  1.00  0.00     0.004 C 
ENDBRANCH  23  24
ENDBRANCH   9  23
ENDBRANCH   5   8
ENDBRANCH   3   4
ENDBRANCH   2   3
ENDBRANCH   1   2
BRANCH   1  26
ATOM     26  C   UNL A   1      35.594  29.740  29.115  1.00  0.00     0.116 C 
BRANCH  26  27
ATOM     27  N   UNL A   1      35.766  30.654  30.238  1.00  0.00    -0.352 N 
ATOM     28  C   UNL A   1      36.921  30.958  30.914  1.00  0.00     0.251 C 
ATOM     29  H   UNL A   1      34.952  31.111  30.549  1.00  0.00     0.163 HD
ATOM     30  O   UNL A   1      36.895  31.651  31.925  1.00  0.00    -0.269 OA
BRANCH  28  31
ATOM     31  C   UNL A   1      38.186  30.410  30.401  1.00  0.00     0.039 A 
ATOM     32  C   UNL A   1      38.525  30.607  29.061  1.00  0.00     0.014 A 
ATOM     33  C   UNL A   1      39.067  29.778  31.285  1.00  0.00     0.014 A 
ATOM     34  C   UNL A   1      39.784  30.213  28.615  1.00  0.00     0.010 A 
ATOM     35  C   UNL A   1      40.343  29.452  30.856  1.00  0.00     0.010 A 
ATOM     36  C   UNL A   1      40.703  29.653  29.515  1.00  0.00    -0.014 A 
BRANCH  36  37
ATOM     37  C   UNL A   1      42.024  29.164  29.067  1.00  0.00     0.031 A 
ATOM     38  C   UNL A   1      43.165  30.139  29.017  1.00  0.00     0.074 A 
ATOM     39  C   UNL A   1      42.176  27.894  28.650  1.00  0.00     0.049 A 
ATOM     40  N   UNL A   1      44.368  29.981  28.535  1.00  0.00    -0.248 NA
ATOM     41  C   UNL A   1      42.901  31.486  29.553  1.00  0.00     0.031 C 
ATOM     42  C   UNL A   1      41.128  26.871  28.638  1.00  0.00     0.029 A 
ATOM     43  N   UNL A   1      43.275  27.251  28.144  1.00  0.00    -0.354 N 
ATOM     44  C   UNL A   1      44.998  31.208  28.700  1.00  0.00     0.074 A 
ATOM     45  C   UNL A   1      44.028  32.116  29.268  1.00  0.00     0.031 C 
ATOM     46  C   UNL A   1      41.643  25.723  28.163  1.00  0.00     0.029 A 
ATOM     47  C   UNL A   1      43.043  25.939  27.808  1.00  0.00     0.049 A 
ATOM     48  H   UNL A   1      44.150  27.688  28.032  1.00  0.00     0.167 HD
ATOM     49  C   UNL A   1      46.280  31.539  28.427  1.00  0.00     0.037 A 
ATOM     50  C   UNL A   1      43.871  25.023  27.271  1.00  0.00     0.037 A 
ATOM     51  C   UNL A   1      47.243  30.620  27.886  1.00  0.00     0.049 A 
ATOM     52  C   UNL A   1      45.290  25.419  26.963  1.00  0.00     0.074 A 
ATOM     53  C   UNL A   1      48.577  30.839  27.593  1.00  0.00     0.029 A 
ATOM     54  N   UNL A   1      46.974  29.296  27.569  1.00  0.00    -0.354 N 
ATOM     55  N   UNL A   1      45.878  26.580  27.133  1.00  0.00    -0.248 NA
ATOM     56  C   UNL A   1      46.158  24.381  26.391  1.00  0.00     0.031 C 
ATOM     57  C   UNL A   1      49.109  29.653  27.076  1.00  0.00     0.029 A 
ATOM     58  C   UNL A   1      48.115  28.686  27.077  1.00  0.00     0.049 A 
ATOM     59  H   UNL A   1      46.100  28.856  27.676  1.00  0.00     0.167 HD
ATOM     60  C   UNL A   1      47.189  26.409  26.705  1.00  0.00     0.074 A 
ATOM     61  C   UNL A   1      47.311  25.027  26.284  1.00  0.00     0.031 C 
ATOM     62  C   UNL A   1      48.203  27.309  26.664  1.00  0.00     0.037 A 
BRANCH  49  63
ATOM     63  C   UNL A   1      46.703  32.948  28.727  1.00  0.00     0.058 A 
ATOM     64  C   UNL A   1      47.199  33.306  29.991  1.00  0.00     0.135 A 
ATOM     65  C   UNL A   1      46.608  33.950  27.750  1.00  0.00     0.135 A 
ATOM     66  F   UNL A   1      47.283  32.390  30.970  1.00  0.00    -0.206 F 
ATOM     67  C   UNL A   1      47.560  34.616  30.285  1.00  0.00     0.059 A 
ATOM     68  C   UNL A   1      46.988  35.263  28.015  1.00  0.00     0.059 A 
ATOM     69  F   UNL A   1      46.130  33.662  26.529  1.00  0.00    -0.206 F 
ATOM     70  C   UNL A   1      47.449  35.588  29.290  1.00  0.00     0.060 A 
BRANCH  70  71
ATOM     71  S   UNL A   1      47.923  37.284  29.689  1.00  0.00     0.124 S 
ATOM     72  O   UNL A   1      48.936  37.549  28.673  1.00  0.00    -0.237 OA
ATOM     73  O   UNL A   1      46.663  38.004  29.532  1.00  0.00    -0.237 OA
ATOM     74  O   UNL A   1      48.418  37.184  31.059  1.00  0.00    -0.744 OA
ENDBRANCH  70  71
ENDBRANCH  49  63
BRANCH  50  75
ATOM     75  C   UNL A   1      43.390  23.640  27.020  1.00  0.00     0.058 A 
ATOM     76  C   UNL A   1      43.048  23.226  25.724  1.00  0.00     0.135 A 
ATOM     77  C   UNL A   1      43.275  22.703  28.058  1.00  0.00     0.135 A 
ATOM     78  F   UNL A   1      43.136  24.090  24.701  1.00  0.00    -0.206 F 
ATOM     79  C   UNL A   1      42.599  21.936  25.464  1.00  0.00     0.059 A 
ATOM     80  C   UNL A   1      42.845  21.400  27.821  1.00  0.00     0.059 A 
ATOM     81  F   UNL A   1      43.602  23.045  29.313  1.00  0.00    -0.206 F 
ATOM     82  C   UNL A   1      42.503  21.028  26.520  1.00  0.00     0.060 A 
BRANCH  82  83
ATOM     83  S   UNL A   1      41.969  19.340  26.162  1.00  0.00     0.124 S 
ATOM     84  O   UNL A   1      42.304  18.655  27.404  1.00  0.00    -0.237 OA
ATOM     85  O   UNL A   1      40.545  19.520  25.896  1.00  0.00    -0.237 OA
ATOM     86  O   UNL A   1      42.774  18.974  25.001  1.00  0.00    -0.744 OA
ENDBRANCH  82  83
ENDBRANCH  50  75
BRANCH  62  87
ATOM     87  C   UNL A   1      49.530  26.821  26.159  1.00  0.00     0.058 A 
ATOM     88  C   UNL A   1      49.944  27.061  24.841  1.00  0.00     0.135 A 
ATOM     89  C   UNL A   1      50.414  26.149  27.018  1.00  0.00     0.135 A 
ATOM     90  F   UNL A   1      49.130  27.696  23.981  1.00  0.00    -0.206 F 
ATOM     91  C   UNL A   1      51.182  26.628  24.381  1.00  0.00     0.059 A 
ATOM     92  C   UNL A   1      51.667  25.728  26.586  1.00  0.00     0.059 A 
ATOM     93  F   UNL A   1      50.068  25.907  28.291  1.00  0.00    -0.206 F 
ATOM     94  C   UNL A   1      52.037  25.962  25.262  1.00  0.00     0.060 A 
BRANCH  94  95
ATOM     95  S   UNL A   1      53.652  25.426  24.660  1.00  0.00     0.124 S 
ATOM     96  O   UNL A   1      53.622  25.899  23.280  1.00  0.00    -0.237 OA
ATOM     97  O   UNL A   1      54.569  26.128  25.552  1.00  0.00    -0.237 OA
ATOM     98  O   UNL A   1      53.612  23.976  24.829  1.00  0.00    -0.744 OA
ENDBRANCH  94  95
ENDBRANCH  62  87
ENDBRANCH  36  37
ENDBRANCH  28  31
ENDBRANCH  26  27
ENDBRANCH   1  26
TORSDOF 16
ENDMDL
