MODEL 1
REMARK VINA RESULT:     -13.7      0.000      0.000
REMARK SMILES Cc1ccc(C)c([C@H]2[NH2+][C@@H](C(=O)NCCCCNC(=O)c3ccc(-c4c5nc(c(-c6c(F)cc(S(=O)(=O)[O-])cc6F)c6ccc([nH]6)c(-c6c(F)cc(S(=O)(=O)[O-])cc6F)c6nc(c(-c7c(F)cc(S(=O)(=O)[O-])cc7F)c7ccc4[nH]7)C=C6)C=C5)cc3)Cc3c2[nH]c2ccccc32)c1
REMARK SMILES IDX 16 1 15 2 14 3 13 4 11 5 12 6 10 8 8 9 9 10 89 11 88 14
REMARK SMILES IDX 90 15 87 16 96 17 91 18 95 20 92 21 94 22 93 23 7 24 1 25
REMARK SMILES IDX 2 26 3 27 97 28 4 29 5 30 6 31 17 32 18 33 19 34 20 36 21 37
REMARK SMILES IDX 22 38 86 39 23 40 85 41 24 42 25 43 26 44 79 45 27 46 84 47
REMARK SMILES IDX 78 48 80 49 28 50 83 51 77 52 76 53 29 55 63 56 42 57 62 58
REMARK SMILES IDX 43 59 46 60 61 61 81 62 44 63 45 64 60 66 82 67 47 68 30 69
REMARK SMILES IDX 31 70 40 71 32 72 33 73 39 74 41 75 34 76 35 77 36 78 37 79
REMARK SMILES IDX 38 80 64 81 65 82 74 83 66 84 67 85 73 86 75 87 68 88 69 89
REMARK SMILES IDX 70 90 71 91 72 92 48 93 49 94 58 95 50 96 51 97 57 98 59 99
REMARK SMILES IDX 52 100 53 101 54 102 55 103 56 104
REMARK H PARENT 13 7 9 12 9 13 90 19 18 35 80 54 46 65
REMARK Flexibility Score: inf
ROOT
ATOM      1  C   UNL A   1      41.530  19.574  26.042  1.00  0.00     0.023 C 
ENDROOT
BRANCH   1   2
ATOM      2  C   UNL A   1      40.809  20.740  26.733  1.00  0.00     0.023 C 
BRANCH   2   3
ATOM      3  C   UNL A   1      39.499  21.154  26.061  1.00  0.00     0.116 C 
BRANCH   3   4
ATOM      4  N   UNL A   1      39.070  22.486  26.417  1.00  0.00    -0.351 N 
ATOM      5  C   UNL A   1      38.029  23.279  26.078  1.00  0.00     0.278 C 
ATOM      6  O   UNL A   1      38.044  24.411  26.587  1.00  0.00    -0.268 OA
ATOM      7  H   UNL A   1      39.680  22.919  27.058  1.00  0.00     0.163 HD
BRANCH   5   8
ATOM      8  C   UNL A   1      36.831  22.883  25.189  1.00  0.00     0.277 C 
ATOM      9  C   UNL A   1      34.743  23.948  24.273  1.00  0.00     0.262 C 
ATOM     10  N   UNL A   1      35.895  24.025  25.199  1.00  0.00    -0.325 N 
ATOM     11  C   UNL A   1      34.259  22.510  24.169  1.00  0.00     0.083 A 
ATOM     12  H   UNL A   1      35.525  24.113  26.146  1.00  0.00     0.347 HD
ATOM     13  H   UNL A   1      36.442  24.824  24.879  1.00  0.00     0.347 HD
ATOM     14  C   UNL A   1      34.916  21.419  24.697  1.00  0.00    -0.006 A 
ATOM     15  N   UNL A   1      33.152  22.018  23.515  1.00  0.00    -0.353 N 
ATOM     16  C   UNL A   1      36.099  21.601  25.559  1.00  0.00     0.114 C 
ATOM     17  C   UNL A   1      34.214  20.242  24.385  1.00  0.00     0.003 A 
ATOM     18  C   UNL A   1      33.094  20.636  23.654  1.00  0.00     0.046 A 
ATOM     19  H   UNL A   1      32.500  22.565  23.020  1.00  0.00     0.166 HD
ATOM     20  C   UNL A   1      34.415  18.884  24.700  1.00  0.00     0.010 A 
ATOM     21  C   UNL A   1      32.145  19.696  23.225  1.00  0.00     0.026 A 
ATOM     22  C   UNL A   1      33.480  17.943  24.276  1.00  0.00     0.001 A 
ATOM     23  C   UNL A   1      32.361  18.346  23.552  1.00  0.00     0.002 A 
BRANCH   9  24
ATOM     24  C   UNL A   1      33.745  25.006  24.759  1.00  0.00     0.019 A 
ATOM     25  C   UNL A   1      32.036  28.171  23.418  1.00  0.00     0.044 C 
ATOM     26  C   UNL A   1      32.405  27.025  24.314  1.00  0.00    -0.051 A 
ATOM     27  C   UNL A   1      31.658  26.785  25.466  1.00  0.00     0.004 A 
ATOM     28  C   UNL A   1      33.429  26.129  23.961  1.00  0.00     0.014 A 
ATOM     29  C   UNL A   1      31.947  25.688  26.270  1.00  0.00     0.004 A 
ATOM     30  C   UNL A   1      32.972  24.787  25.933  1.00  0.00    -0.042 A 
ATOM     31  C   UNL A   1      33.062  23.541  26.783  1.00  0.00     0.045 C 
ENDBRANCH   9  24
ENDBRANCH   5   8
ENDBRANCH   3   4
ENDBRANCH   2   3
ENDBRANCH   1   2
BRANCH   1  32
ATOM     32  C   UNL A   1      42.874  19.150  26.653  1.00  0.00     0.116 C 
BRANCH  32  33
ATOM     33  N   UNL A   1      44.037  19.370  25.777  1.00  0.00    -0.352 N 
ATOM     34  C   UNL A   1      44.395  20.489  25.016  1.00  0.00     0.251 C 
ATOM     35  H   UNL A   1      44.663  18.612  25.719  1.00  0.00     0.163 HD
ATOM     36  O   UNL A   1      45.100  20.374  24.035  1.00  0.00    -0.269 OA
BRANCH  34  37
ATOM     37  C   UNL A   1      43.959  21.827  25.473  1.00  0.00     0.039 A 
ATOM     38  C   UNL A   1      43.160  22.740  24.787  1.00  0.00     0.014 A 
ATOM     39  C   UNL A   1      44.587  22.275  26.604  1.00  0.00     0.014 A 
ATOM     40  C   UNL A   1      43.040  24.041  25.310  1.00  0.00     0.010 A 
ATOM     41  C   UNL A   1      44.041  23.275  27.333  1.00  0.00     0.010 A 
ATOM     42  C   UNL A   1      43.559  24.313  26.582  1.00  0.00    -0.014 A 
BRANCH  42  43
ATOM     43  C   UNL A   1      43.401  25.541  27.335  1.00  0.00     0.031 A 
ATOM     44  C   UNL A   1      44.380  26.573  26.940  1.00  0.00     0.074 A 
ATOM     45  C   UNL A   1      42.281  25.826  28.044  1.00  0.00     0.049 A 
ATOM     46  N   UNL A   1      45.502  26.832  27.525  1.00  0.00    -0.248 NA
ATOM     47  C   UNL A   1      44.254  27.195  25.607  1.00  0.00     0.031 C 
ATOM     48  C   UNL A   1      41.043  25.048  28.190  1.00  0.00     0.029 A 
ATOM     49  N   UNL A   1      41.994  26.956  28.743  1.00  0.00    -0.354 N 
ATOM     50  C   UNL A   1      46.044  27.881  26.797  1.00  0.00     0.074 A 
ATOM     51  C   UNL A   1      45.435  27.807  25.498  1.00  0.00     0.031 C 
ATOM     52  C   UNL A   1      40.078  25.819  28.748  1.00  0.00     0.029 A 
ATOM     53  C   UNL A   1      40.663  27.089  29.138  1.00  0.00     0.049 A 
ATOM     54  H   UNL A   1      42.677  27.632  28.957  1.00  0.00     0.167 HD
ATOM     55  C   UNL A   1      46.648  28.925  27.430  1.00  0.00     0.037 A 
ATOM     56  C   UNL A   1      40.102  28.197  29.697  1.00  0.00     0.037 A 
ATOM     57  C   UNL A   1      46.887  28.601  28.822  1.00  0.00     0.049 A 
ATOM     58  C   UNL A   1      41.222  29.005  30.261  1.00  0.00     0.074 A 
ATOM     59  C   UNL A   1      47.517  27.560  29.478  1.00  0.00     0.029 A 
ATOM     60  N   UNL A   1      46.055  29.175  29.758  1.00  0.00    -0.354 N 
ATOM     61  N   UNL A   1      41.978  28.597  31.247  1.00  0.00    -0.248 NA
ATOM     62  C   UNL A   1      41.826  29.997  29.382  1.00  0.00     0.031 C 
ATOM     63  C   UNL A   1      46.667  27.249  30.581  1.00  0.00     0.029 A 
ATOM     64  C   UNL A   1      45.629  28.181  30.606  1.00  0.00     0.049 A 
ATOM     65  H   UNL A   1      45.808  30.127  29.811  1.00  0.00     0.167 HD
ATOM     66  C   UNL A   1      43.270  28.924  30.861  1.00  0.00     0.074 A 
ATOM     67  C   UNL A   1      43.108  29.833  29.724  1.00  0.00     0.031 C 
ATOM     68  C   UNL A   1      44.347  28.193  31.279  1.00  0.00     0.037 A 
BRANCH  55  69
ATOM     69  C   UNL A   1      46.650  30.353  26.926  1.00  0.00     0.058 A 
ATOM     70  C   UNL A   1      47.867  31.064  26.930  1.00  0.00     0.135 A 
ATOM     71  C   UNL A   1      45.497  31.134  26.675  1.00  0.00     0.135 A 
ATOM     72  F   UNL A   1      49.027  30.428  27.157  1.00  0.00    -0.206 F 
ATOM     73  C   UNL A   1      47.927  32.448  26.775  1.00  0.00     0.059 A 
ATOM     74  C   UNL A   1      45.541  32.506  26.461  1.00  0.00     0.059 A 
ATOM     75  F   UNL A   1      44.257  30.638  26.712  1.00  0.00    -0.206 F 
ATOM     76  C   UNL A   1      46.754  33.161  26.552  1.00  0.00     0.060 A 
BRANCH  76  77
ATOM     77  S   UNL A   1      46.819  34.953  26.421  1.00  0.00     0.124 S 
ATOM     78  O   UNL A   1      47.694  35.128  25.268  1.00  0.00    -0.237 OA
ATOM     79  O   UNL A   1      45.414  35.288  26.216  1.00  0.00    -0.237 OA
ATOM     80  O   UNL A   1      47.374  35.364  27.707  1.00  0.00    -0.744 OA
ENDBRANCH  76  77
ENDBRANCH  55  69
BRANCH  56  81
ATOM     81  C   UNL A   1      38.787  28.805  29.344  1.00  0.00     0.058 A 
ATOM     82  C   UNL A   1      37.811  29.096  30.317  1.00  0.00     0.135 A 
ATOM     83  C   UNL A   1      38.576  29.374  28.071  1.00  0.00     0.135 A 
ATOM     84  F   UNL A   1      37.947  28.628  31.567  1.00  0.00    -0.206 F 
ATOM     85  C   UNL A   1      36.700  29.910  30.047  1.00  0.00     0.059 A 
ATOM     86  C   UNL A   1      37.483  30.191  27.781  1.00  0.00     0.059 A 
ATOM     87  F   UNL A   1      39.476  29.222  27.090  1.00  0.00    -0.206 F 
ATOM     88  C   UNL A   1      36.553  30.465  28.776  1.00  0.00     0.060 A 
BRANCH  88  89
ATOM     89  S   UNL A   1      35.135  31.530  28.417  1.00  0.00     0.124 S 
ATOM     90  O   UNL A   1      34.231  30.610  27.735  1.00  0.00    -0.237 OA
ATOM     91  O   UNL A   1      34.726  31.957  29.750  1.00  0.00    -0.237 OA
ATOM     92  O   UNL A   1      35.699  32.576  27.568  1.00  0.00    -0.744 OA
ENDBRANCH  88  89
ENDBRANCH  56  81
BRANCH  68  93
ATOM     93  C   UNL A   1      44.154  27.182  32.386  1.00  0.00     0.058 A 
ATOM     94  C   UNL A   1      44.026  25.792  32.200  1.00  0.00     0.135 A 
ATOM     95  C   UNL A   1      44.270  27.636  33.707  1.00  0.00     0.135 A 
ATOM     96  F   UNL A   1      44.011  25.260  30.971  1.00  0.00    -0.206 F 
ATOM     97  C   UNL A   1      43.979  24.903  33.278  1.00  0.00     0.059 A 
ATOM     98  C   UNL A   1      44.255  26.767  34.795  1.00  0.00     0.059 A 
ATOM     99  F   UNL A   1      44.454  28.943  33.954  1.00  0.00    -0.206 F 
ATOM    100  C   UNL A   1      44.096  25.402  34.574  1.00  0.00     0.060 A 
BRANCH 100 101
ATOM    101  S   UNL A   1      44.094  24.255  35.970  1.00  0.00     0.124 S 
ATOM    102  O   UNL A   1      43.242  24.945  36.933  1.00  0.00    -0.237 OA
ATOM    103  O   UNL A   1      43.533  23.040  35.384  1.00  0.00    -0.237 OA
ATOM    104  O   UNL A   1      45.505  24.163  36.340  1.00  0.00    -0.744 OA
ENDBRANCH 100 101
ENDBRANCH  68  93
ENDBRANCH  42  43
ENDBRANCH  34  37
ENDBRANCH  32  33
ENDBRANCH   1  32
TORSDOF 15
ENDMDL
MODEL 2
REMARK VINA RESULT:     -13.5      2.308      3.084
REMARK SMILES Cc1ccc(C)c([C@H]2[NH2+][C@@H](C(=O)NCCCCNC(=O)c3ccc(-c4c5nc(c(-c6c(F)cc(S(=O)(=O)[O-])cc6F)c6ccc([nH]6)c(-c6c(F)cc(S(=O)(=O)[O-])cc6F)c6nc(c(-c7c(F)cc(S(=O)(=O)[O-])cc7F)c7ccc4[nH]7)C=C6)C=C5)cc3)Cc3c2[nH]c2ccccc32)c1
REMARK SMILES IDX 16 1 15 2 14 3 13 4 11 5 12 6 10 8 8 9 9 10 89 11 88 14
REMARK SMILES IDX 90 15 87 16 96 17 91 18 95 20 92 21 94 22 93 23 7 24 1 25
REMARK SMILES IDX 2 26 3 27 97 28 4 29 5 30 6 31 17 32 18 33 19 34 20 36 21 37
REMARK SMILES IDX 22 38 86 39 23 40 85 41 24 42 25 43 26 44 79 45 27 46 84 47
REMARK SMILES IDX 78 48 80 49 28 50 83 51 77 52 76 53 29 55 63 56 42 57 62 58
REMARK SMILES IDX 43 59 46 60 61 61 81 62 44 63 45 64 60 66 82 67 47 68 30 69
REMARK SMILES IDX 31 70 40 71 32 72 33 73 39 74 41 75 34 76 35 77 36 78 37 79
REMARK SMILES IDX 38 80 64 81 65 82 74 83 66 84 67 85 73 86 75 87 68 88 69 89
REMARK SMILES IDX 70 90 71 91 72 92 48 93 49 94 58 95 50 96 51 97 57 98 59 99
REMARK SMILES IDX 52 100 53 101 54 102 55 103 56 104
REMARK H PARENT 13 7 9 12 9 13 90 19 18 35 80 54 46 65
REMARK Flexibility Score: inf
ROOT
ATOM      1  C   UNL A   1      41.146  21.725  28.002  1.00  0.00     0.023 C 
ENDROOT
BRANCH   1   2
ATOM      2  C   UNL A   1      40.624  20.713  26.972  1.00  0.00     0.023 C 
BRANCH   2   3
ATOM      3  C   UNL A   1      39.631  21.298  25.968  1.00  0.00     0.116 C 
BRANCH   3   4
ATOM      4  N   UNL A   1      39.122  22.593  26.356  1.00  0.00    -0.351 N 
ATOM      5  C   UNL A   1      38.039  23.333  26.029  1.00  0.00     0.278 C 
ATOM      6  O   UNL A   1      37.984  24.449  26.569  1.00  0.00    -0.268 OA
ATOM      7  H   UNL A   1      39.701  23.042  27.013  1.00  0.00     0.163 HD
BRANCH   5   8
ATOM      8  C   UNL A   1      36.873  22.892  25.120  1.00  0.00     0.277 C 
ATOM      9  C   UNL A   1      34.924  23.946  23.925  1.00  0.00     0.262 C 
ATOM     10  N   UNL A   1      36.020  24.080  24.911  1.00  0.00    -0.325 N 
ATOM     11  C   UNL A   1      34.348  22.540  23.981  1.00  0.00     0.083 A 
ATOM     12  H   UNL A   1      35.600  24.320  25.809  1.00  0.00     0.347 HD
ATOM     13  H   UNL A   1      36.641  24.791  24.526  1.00  0.00     0.347 HD
ATOM     14  C   UNL A   1      34.894  21.494  24.695  1.00  0.00    -0.006 A 
ATOM     15  N   UNL A   1      33.252  22.031  23.322  1.00  0.00    -0.353 N 
ATOM     16  C   UNL A   1      36.031  21.721  25.605  1.00  0.00     0.114 C 
ATOM     17  C   UNL A   1      34.130  20.330  24.495  1.00  0.00     0.003 A 
ATOM     18  C   UNL A   1      33.088  20.687  23.641  1.00  0.00     0.046 A 
ATOM     19  H   UNL A   1      32.670  22.543  22.714  1.00  0.00     0.166 HD
ATOM     20  C   UNL A   1      34.217  19.019  25.001  1.00  0.00     0.010 A 
ATOM     21  C   UNL A   1      32.103  19.757  23.275  1.00  0.00     0.026 A 
ATOM     22  C   UNL A   1      33.245  18.088  24.643  1.00  0.00     0.001 A 
ATOM     23  C   UNL A   1      32.203  18.455  23.795  1.00  0.00     0.002 A 
BRANCH   9  24
ATOM     24  C   UNL A   1      33.975  25.120  24.193  1.00  0.00     0.019 A 
ATOM     25  C   UNL A   1      33.418  27.808  26.876  1.00  0.00     0.044 C 
ATOM     26  C   UNL A   1      33.287  27.015  25.609  1.00  0.00    -0.051 A 
ATOM     27  C   UNL A   1      32.484  27.496  24.577  1.00  0.00     0.004 A 
ATOM     28  C   UNL A   1      34.035  25.842  25.406  1.00  0.00     0.014 A 
ATOM     29  C   UNL A   1      32.405  26.806  23.373  1.00  0.00     0.004 A 
ATOM     30  C   UNL A   1      33.143  25.630  23.157  1.00  0.00    -0.042 A 
ATOM     31  C   UNL A   1      33.115  25.080  21.750  1.00  0.00     0.045 C 
ENDBRANCH   9  24
ENDBRANCH   5   8
ENDBRANCH   3   4
ENDBRANCH   2   3
ENDBRANCH   1   2
BRANCH   1  32
ATOM     32  C   UNL A   1      42.662  21.975  27.999  1.00  0.00     0.116 C 
BRANCH  32  33
ATOM     33  N   UNL A   1      43.219  22.321  26.680  1.00  0.00    -0.352 N 
ATOM     34  C   UNL A   1      42.899  23.372  25.813  1.00  0.00     0.251 C 
ATOM     35  H   UNL A   1      43.929  21.719  26.359  1.00  0.00     0.163 HD
ATOM     36  O   UNL A   1      43.104  23.278  24.621  1.00  0.00    -0.269 OA
BRANCH  34  37
ATOM     37  C   UNL A   1      42.378  24.632  26.387  1.00  0.00     0.039 A 
ATOM     38  C   UNL A   1      41.345  25.426  25.891  1.00  0.00     0.014 A 
ATOM     39  C   UNL A   1      43.139  25.157  27.396  1.00  0.00     0.014 A 
ATOM     40  C   UNL A   1      41.148  26.695  26.469  1.00  0.00     0.010 A 
ATOM     41  C   UNL A   1      42.607  26.064  28.246  1.00  0.00     0.010 A 
ATOM     42  C   UNL A   1      41.854  27.029  27.632  1.00  0.00    -0.014 A 
BRANCH  42  43
ATOM     43  C   UNL A   1      41.672  28.217  28.442  1.00  0.00     0.031 A 
ATOM     44  C   UNL A   1      42.710  29.236  28.185  1.00  0.00     0.074 A 
ATOM     45  C   UNL A   1      40.508  28.499  29.076  1.00  0.00     0.049 A 
ATOM     46  N   UNL A   1      43.789  29.423  28.869  1.00  0.00    -0.248 NA
ATOM     47  C   UNL A   1      42.709  29.935  26.885  1.00  0.00     0.031 C 
ATOM     48  C   UNL A   1      39.240  27.756  29.079  1.00  0.00     0.029 A 
ATOM     49  N   UNL A   1      40.200  29.597  29.816  1.00  0.00    -0.354 N 
ATOM     50  C   UNL A   1      44.417  30.493  28.249  1.00  0.00     0.074 A 
ATOM     51  C   UNL A   1      43.912  30.513  26.905  1.00  0.00     0.031 C 
ATOM     52  C   UNL A   1      38.257  28.528  29.605  1.00  0.00     0.029 A 
ATOM     53  C   UNL A   1      38.846  29.753  30.113  1.00  0.00     0.049 A 
ATOM     54  H   UNL A   1      40.883  30.237  30.122  1.00  0.00     0.167 HD
ATOM     55  C   UNL A   1      45.000  31.478  28.988  1.00  0.00     0.037 A 
ATOM     56  C   UNL A   1      38.275  30.846  30.691  1.00  0.00     0.037 A 
ATOM     57  C   UNL A   1      45.117  31.069  30.373  1.00  0.00     0.049 A 
ATOM     58  C   UNL A   1      39.369  31.583  31.387  1.00  0.00     0.074 A 
ATOM     59  C   UNL A   1      45.662  29.971  31.013  1.00  0.00     0.029 A 
ATOM     60  N   UNL A   1      44.230  31.617  31.273  1.00  0.00    -0.354 N 
ATOM     61  N   UNL A   1      40.032  31.095  32.403  1.00  0.00    -0.248 NA
ATOM     62  C   UNL A   1      40.071  32.601  30.618  1.00  0.00     0.031 C 
ATOM     63  C   UNL A   1      44.718  29.628  32.027  1.00  0.00     0.029 A 
ATOM     64  C   UNL A   1      43.710  30.592  32.025  1.00  0.00     0.049 A 
ATOM     65  H   UNL A   1      44.008  32.572  31.363  1.00  0.00     0.167 HD
ATOM     66  C   UNL A   1      41.360  31.399  32.139  1.00  0.00     0.074 A 
ATOM     67  C   UNL A   1      41.316  32.375  31.048  1.00  0.00     0.031 C 
ATOM     68  C   UNL A   1      42.378  30.609  32.596  1.00  0.00     0.037 A 
BRANCH  55  69
ATOM     69  C   UNL A   1      45.083  32.931  28.570  1.00  0.00     0.058 A 
ATOM     70  C   UNL A   1      46.350  33.550  28.547  1.00  0.00     0.135 A 
ATOM     71  C   UNL A   1      43.982  33.808  28.432  1.00  0.00     0.135 A 
ATOM     72  F   UNL A   1      47.469  32.820  28.670  1.00  0.00    -0.206 F 
ATOM     73  C   UNL A   1      46.506  34.933  28.472  1.00  0.00     0.059 A 
ATOM     74  C   UNL A   1      44.118  35.184  28.297  1.00  0.00     0.059 A 
ATOM     75  F   UNL A   1      42.711  33.402  28.509  1.00  0.00    -0.206 F 
ATOM     76  C   UNL A   1      45.381  35.743  28.358  1.00  0.00     0.060 A 
BRANCH  76  77
ATOM     77  S   UNL A   1      45.574  37.530  28.331  1.00  0.00     0.124 S 
ATOM     78  O   UNL A   1      45.314  37.828  26.927  1.00  0.00    -0.237 OA
ATOM     79  O   UNL A   1      44.549  37.956  29.278  1.00  0.00    -0.237 OA
ATOM     80  O   UNL A   1      46.950  37.726  28.776  1.00  0.00    -0.744 OA
ENDBRANCH  76  77
ENDBRANCH  55  69
BRANCH  56  81
ATOM     81  C   UNL A   1      37.010  31.518  30.273  1.00  0.00     0.058 A 
ATOM     82  C   UNL A   1      36.132  32.106  31.204  1.00  0.00     0.135 A 
ATOM     83  C   UNL A   1      36.781  31.841  28.920  1.00  0.00     0.135 A 
ATOM     84  F   UNL A   1      36.296  31.885  32.517  1.00  0.00    -0.206 F 
ATOM     85  C   UNL A   1      35.097  32.972  30.816  1.00  0.00     0.059 A 
ATOM     86  C   UNL A   1      35.763  32.702  28.512  1.00  0.00     0.059 A 
ATOM     87  F   UNL A   1      37.598  31.393  27.956  1.00  0.00    -0.206 F 
ATOM     88  C   UNL A   1      34.930  33.274  29.465  1.00  0.00     0.060 A 
BRANCH  88  89
ATOM     89  S   UNL A   1      33.611  34.400  28.951  1.00  0.00     0.124 S 
ATOM     90  O   UNL A   1      34.366  35.511  28.382  1.00  0.00    -0.237 OA
ATOM     91  O   UNL A   1      32.863  33.583  28.001  1.00  0.00    -0.237 OA
ATOM     92  O   UNL A   1      32.916  34.706  30.198  1.00  0.00    -0.744 OA
ENDBRANCH  88  89
ENDBRANCH  56  81
BRANCH  68  93
ATOM     93  C   UNL A   1      42.069  29.545  33.623  1.00  0.00     0.058 A 
ATOM     94  C   UNL A   1      41.675  28.225  33.328  1.00  0.00     0.135 A 
ATOM     95  C   UNL A   1      42.345  29.838  34.965  1.00  0.00     0.135 A 
ATOM     96  F   UNL A   1      41.487  27.828  32.063  1.00  0.00    -0.206 F 
ATOM     97  C   UNL A   1      41.528  27.257  34.326  1.00  0.00     0.059 A 
ATOM     98  C   UNL A   1      42.235  28.882  35.973  1.00  0.00     0.059 A 
ATOM     99  F   UNL A   1      42.783  31.060  35.309  1.00  0.00    -0.206 F 
ATOM    100  C   UNL A   1      41.812  27.596  35.648  1.00  0.00     0.060 A 
BRANCH 100 101
ATOM    101  S   UNL A   1      41.682  26.336  36.935  1.00  0.00     0.124 S 
ATOM    102  O   UNL A   1      41.707  25.100  36.159  1.00  0.00    -0.237 OA
ATOM    103  O   UNL A   1      42.863  26.594  37.755  1.00  0.00    -0.237 OA
ATOM    104  O   UNL A   1      40.407  26.639  37.583  1.00  0.00    -0.744 OA
ENDBRANCH 100 101
ENDBRANCH  68  93
ENDBRANCH  42  43
ENDBRANCH  34  37
ENDBRANCH  32  33
ENDBRANCH   1  32
TORSDOF 15
ENDMDL
MODEL 3
REMARK VINA RESULT:     -13.2      0.470      1.199
REMARK SMILES Cc1ccc(C)c([C@H]2[NH2+][C@@H](C(=O)NCCCCNC(=O)c3ccc(-c4c5nc(c(-c6c(F)cc(S(=O)(=O)[O-])cc6F)c6ccc([nH]6)c(-c6c(F)cc(S(=O)(=O)[O-])cc6F)c6nc(c(-c7c(F)cc(S(=O)(=O)[O-])cc7F)c7ccc4[nH]7)C=C6)C=C5)cc3)Cc3c2[nH]c2ccccc32)c1
REMARK SMILES IDX 16 1 15 2 14 3 13 4 11 5 12 6 10 8 8 9 9 10 89 11 88 14
REMARK SMILES IDX 90 15 87 16 96 17 91 18 95 20 92 21 94 22 93 23 7 24 1 25
REMARK SMILES IDX 2 26 3 27 97 28 4 29 5 30 6 31 17 32 18 33 19 34 20 36 21 37
REMARK SMILES IDX 22 38 86 39 23 40 85 41 24 42 25 43 26 44 79 45 27 46 84 47
REMARK SMILES IDX 78 48 80 49 28 50 83 51 77 52 76 53 29 55 63 56 42 57 62 58
REMARK SMILES IDX 43 59 46 60 61 61 81 62 44 63 45 64 60 66 82 67 47 68 30 69
REMARK SMILES IDX 31 70 40 71 32 72 33 73 39 74 41 75 34 76 35 77 36 78 37 79
REMARK SMILES IDX 38 80 64 81 65 82 74 83 66 84 67 85 73 86 75 87 68 88 69 89
REMARK SMILES IDX 70 90 71 91 72 92 48 93 49 94 58 95 50 96 51 97 57 98 59 99
REMARK SMILES IDX 52 100 53 101 54 102 55 103 56 104
REMARK H PARENT 13 7 9 12 9 13 90 19 18 35 80 54 46 65
REMARK Flexibility Score: inf
ROOT
ATOM      1  C   UNL A   1      42.205  20.508  26.693  1.00  0.00     0.023 C 
ENDROOT
BRANCH   1   2
ATOM      2  C   UNL A   1      40.700  20.409  26.985  1.00  0.00     0.023 C 
BRANCH   2   3
ATOM      3  C   UNL A   1      39.817  21.145  25.976  1.00  0.00     0.116 C 
BRANCH   3   4
ATOM      4  N   UNL A   1      39.372  22.437  26.443  1.00  0.00    -0.351 N 
ATOM      5  C   UNL A   1      38.310  23.233  26.187  1.00  0.00     0.278 C 
ATOM      6  O   UNL A   1      38.315  24.322  26.782  1.00  0.00    -0.268 OA
ATOM      7  H   UNL A   1      39.988  22.831  27.102  1.00  0.00     0.163 HD
BRANCH   5   8
ATOM      8  C   UNL A   1      37.100  22.882  25.296  1.00  0.00     0.277 C 
ATOM      9  C   UNL A   1      35.053  24.024  24.379  1.00  0.00     0.262 C 
ATOM     10  N   UNL A   1      36.205  24.057  25.307  1.00  0.00    -0.325 N 
ATOM     11  C   UNL A   1      34.517  22.604  24.272  1.00  0.00     0.083 A 
ATOM     12  H   UNL A   1      35.837  24.157  26.253  1.00  0.00     0.347 HD
ATOM     13  H   UNL A   1      36.782  24.836  24.989  1.00  0.00     0.347 HD
ATOM     14  C   UNL A   1      35.134  21.489  24.798  1.00  0.00    -0.006 A 
ATOM     15  N   UNL A   1      33.395  22.154  23.614  1.00  0.00    -0.353 N 
ATOM     16  C   UNL A   1      36.321  21.627  25.662  1.00  0.00     0.114 C 
ATOM     17  C   UNL A   1      34.389  20.339  24.483  1.00  0.00     0.003 A 
ATOM     18  C   UNL A   1      33.286  20.775  23.751  1.00  0.00     0.046 A 
ATOM     19  H   UNL A   1      32.763  22.725  23.120  1.00  0.00     0.166 HD
ATOM     20  C   UNL A   1      34.541  18.975  24.795  1.00  0.00     0.010 A 
ATOM     21  C   UNL A   1      32.304  19.871  23.318  1.00  0.00     0.026 A 
ATOM     22  C   UNL A   1      33.573  18.069  24.369  1.00  0.00     0.001 A 
ATOM     23  C   UNL A   1      32.470  18.514  23.643  1.00  0.00     0.002 A 
BRANCH   9  24
ATOM     24  C   UNL A   1      34.093  25.117  24.865  1.00  0.00     0.019 A 
ATOM     25  C   UNL A   1      32.597  28.407  23.573  1.00  0.00     0.044 C 
ATOM     26  C   UNL A   1      32.874  27.215  24.441  1.00  0.00    -0.051 A 
ATOM     27  C   UNL A   1      32.076  26.979  25.558  1.00  0.00     0.004 A 
ATOM     28  C   UNL A   1      33.864  26.279  24.095  1.00  0.00     0.014 A 
ATOM     29  C   UNL A   1      32.279  25.843  26.335  1.00  0.00     0.004 A 
ATOM     30  C   UNL A   1      33.268  24.901  26.004  1.00  0.00    -0.042 A 
ATOM     31  C   UNL A   1      33.264  23.626  26.814  1.00  0.00     0.045 C 
ENDBRANCH   9  24
ENDBRANCH   5   8
ENDBRANCH   3   4
ENDBRANCH   2   3
ENDBRANCH   1   2
BRANCH   1  32
ATOM     32  C   UNL A   1      42.772  19.484  25.699  1.00  0.00     0.116 C 
BRANCH  32  33
ATOM     33  N   UNL A   1      44.197  19.673  25.376  1.00  0.00    -0.352 N 
ATOM     34  C   UNL A   1      44.890  20.828  24.996  1.00  0.00     0.251 C 
ATOM     35  H   UNL A   1      44.748  18.859  25.439  1.00  0.00     0.163 HD
ATOM     36  O   UNL A   1      45.914  20.753  24.350  1.00  0.00    -0.269 OA
BRANCH  34  37
ATOM     37  C   UNL A   1      44.391  22.141  25.461  1.00  0.00     0.039 A 
ATOM     38  C   UNL A   1      43.518  23.000  24.796  1.00  0.00     0.014 A 
ATOM     39  C   UNL A   1      45.026  22.631  26.570  1.00  0.00     0.014 A 
ATOM     40  C   UNL A   1      43.339  24.296  25.317  1.00  0.00     0.010 A 
ATOM     41  C   UNL A   1      44.445  23.601  27.311  1.00  0.00     0.010 A 
ATOM     42  C   UNL A   1      43.880  24.605  26.572  1.00  0.00    -0.014 A 
BRANCH  42  43
ATOM     43  C   UNL A   1      43.673  25.826  27.324  1.00  0.00     0.031 A 
ATOM     44  C   UNL A   1      44.625  26.889  26.943  1.00  0.00     0.074 A 
ATOM     45  C   UNL A   1      42.536  26.074  28.018  1.00  0.00     0.049 A 
ATOM     46  N   UNL A   1      45.730  27.182  27.543  1.00  0.00    -0.248 NA
ATOM     47  C   UNL A   1      44.497  27.509  25.609  1.00  0.00     0.031 C 
ATOM     48  C   UNL A   1      41.321  25.257  28.146  1.00  0.00     0.029 A 
ATOM     49  N   UNL A   1      42.204  27.194  28.715  1.00  0.00    -0.354 N 
ATOM     50  C   UNL A   1      46.248  28.249  26.824  1.00  0.00     0.074 A 
ATOM     51  C   UNL A   1      45.660  28.159  25.518  1.00  0.00     0.031 C 
ATOM     52  C   UNL A   1      40.325  25.997  28.693  1.00  0.00     0.029 A 
ATOM     53  C   UNL A   1      40.864  27.284  29.092  1.00  0.00     0.049 A 
ATOM     54  H   UNL A   1      42.863  27.891  28.939  1.00  0.00     0.167 HD
ATOM     55  C   UNL A   1      46.811  29.310  27.467  1.00  0.00     0.037 A 
ATOM     56  C   UNL A   1      40.262  28.374  29.646  1.00  0.00     0.037 A 
ATOM     57  C   UNL A   1      47.041  28.992  28.862  1.00  0.00     0.049 A 
ATOM     58  C   UNL A   1      41.348  29.215  30.225  1.00  0.00     0.074 A 
ATOM     59  C   UNL A   1      47.695  27.969  29.524  1.00  0.00     0.029 A 
ATOM     60  N   UNL A   1      46.179  29.538  29.787  1.00  0.00    -0.354 N 
ATOM     61  N   UNL A   1      42.103  28.829  31.221  1.00  0.00    -0.248 NA
ATOM     62  C   UNL A   1      41.933  30.227  29.356  1.00  0.00     0.031 C 
ATOM     63  C   UNL A   1      46.841  27.630  30.616  1.00  0.00     0.029 A 
ATOM     64  C   UNL A   1      45.774  28.529  30.628  1.00  0.00     0.049 A 
ATOM     65  H   UNL A   1      45.902  30.481  29.838  1.00  0.00     0.167 HD
ATOM     66  C   UNL A   1      43.389  29.197  30.853  1.00  0.00     0.074 A 
ATOM     67  C   UNL A   1      43.214  30.102  29.714  1.00  0.00     0.031 C 
ATOM     68  C   UNL A   1      44.483  28.499  31.284  1.00  0.00     0.037 A 
BRANCH  55  69
ATOM     69  C   UNL A   1      46.775  30.739  26.965  1.00  0.00     0.058 A 
ATOM     70  C   UNL A   1      47.973  31.480  26.966  1.00  0.00     0.135 A 
ATOM     71  C   UNL A   1      45.602  31.490  26.718  1.00  0.00     0.135 A 
ATOM     72  F   UNL A   1      49.150  30.875  27.190  1.00  0.00    -0.206 F 
ATOM     73  C   UNL A   1      47.997  32.866  26.814  1.00  0.00     0.059 A 
ATOM     74  C   UNL A   1      45.609  32.863  26.506  1.00  0.00     0.059 A 
ATOM     75  F   UNL A   1      44.374  30.962  26.758  1.00  0.00    -0.206 F 
ATOM     76  C   UNL A   1      46.805  33.549  26.595  1.00  0.00     0.060 A 
BRANCH  76  77
ATOM     77  S   UNL A   1      46.824  35.342  26.466  1.00  0.00     0.124 S 
ATOM     78  O   UNL A   1      45.446  35.619  26.077  1.00  0.00    -0.237 OA
ATOM     79  O   UNL A   1      47.198  35.735  27.821  1.00  0.00    -0.237 OA
ATOM     80  O   UNL A   1      47.834  35.596  25.445  1.00  0.00    -0.744 OA
ENDBRANCH  76  77
ENDBRANCH  55  69
BRANCH  56  81
ATOM     81  C   UNL A   1      38.932  28.941  29.276  1.00  0.00     0.058 A 
ATOM     82  C   UNL A   1      37.990  29.334  30.246  1.00  0.00     0.135 A 
ATOM     83  C   UNL A   1      38.675  29.370  27.958  1.00  0.00     0.135 A 
ATOM     84  F   UNL A   1      38.171  29.002  31.533  1.00  0.00    -0.206 F 
ATOM     85  C   UNL A   1      36.868  30.115  29.930  1.00  0.00     0.059 A 
ATOM     86  C   UNL A   1      37.570  30.151  27.621  1.00  0.00     0.059 A 
ATOM     87  F   UNL A   1      39.542  29.113  26.968  1.00  0.00    -0.206 F 
ATOM     88  C   UNL A   1      36.674  30.531  28.612  1.00  0.00     0.060 A 
BRANCH  88  89
ATOM     89  S   UNL A   1      35.242  31.551  28.191  1.00  0.00     0.124 S 
ATOM     90  O   UNL A   1      35.871  32.726  27.598  1.00  0.00    -0.237 OA
ATOM     91  O   UNL A   1      34.509  30.687  27.272  1.00  0.00    -0.237 OA
ATOM     92  O   UNL A   1      34.597  31.785  29.480  1.00  0.00    -0.744 OA
ENDBRANCH  88  89
ENDBRANCH  56  81
BRANCH  68  93
ATOM     93  C   UNL A   1      44.308  27.481  32.386  1.00  0.00     0.058 A 
ATOM     94  C   UNL A   1      44.140  27.786  33.751  1.00  0.00     0.135 A 
ATOM     95  C   UNL A   1      44.138  26.142  32.012  1.00  0.00     0.135 A 
ATOM     96  F   UNL A   1      44.184  29.052  34.185  1.00  0.00    -0.206 F 
ATOM     97  C   UNL A   1      43.855  26.800  34.700  1.00  0.00     0.059 A 
ATOM     98  C   UNL A   1      43.825  25.146  32.934  1.00  0.00     0.059 A 
ATOM     99  F   UNL A   1      44.224  25.790  30.718  1.00  0.00    -0.206 F 
ATOM    100  C   UNL A   1      43.697  25.480  34.280  1.00  0.00     0.060 A 
BRANCH 100 101
ATOM    101  S   UNL A   1      43.271  24.208  35.490  1.00  0.00     0.124 S 
ATOM    102  O   UNL A   1      44.443  24.207  36.359  1.00  0.00    -0.237 OA
ATOM    103  O   UNL A   1      42.043  24.730  36.082  1.00  0.00    -0.237 OA
ATOM    104  O   UNL A   1      43.098  23.006  34.677  1.00  0.00    -0.744 OA
ENDBRANCH 100 101
ENDBRANCH  68  93
ENDBRANCH  42  43
ENDBRANCH  34  37
ENDBRANCH  32  33
ENDBRANCH   1  32
TORSDOF 15
ENDMDL
