MODEL 1
REMARK VINA RESULT:     -12.9      0.000      0.000
REMARK SMILES COc1ccc(Cl)c2c1N[C@@H](c1ccc(C(=O)NCCCCNC(=O)c3ccc(-c4c5nc(c(-c6c(F)cc(S(=O)(=O)[O-])cc6F)c6ccc([nH]6)c(-c6c(F)cc(S(=O)(=O)[O-])cc6F)c6nc(c(-c7c(F)cc(S(=O)(=O)[O-])cc7F)c7ccc4[nH]7)C=C6)C=C5)cc3)cc1)[C@@H]1CC=C[C@H]21
REMARK SMILES IDX 21 1 20 2 19 3 18 4 16 5 17 6 15 8 12 9 13 10 93 11 14 12
REMARK SMILES IDX 92 13 11 14 3 15 4 16 9 17 5 18 8 19 10 20 6 21 98 22 7 24
REMARK SMILES IDX 94 25 97 26 95 27 96 28 2 29 1 30 22 31 23 32 24 33 25 35
REMARK SMILES IDX 26 36 27 37 91 38 28 39 90 40 29 41 30 42 31 43 84 44 32 45
REMARK SMILES IDX 89 46 83 47 85 48 33 49 88 50 82 51 81 52 34 54 68 55 47 56
REMARK SMILES IDX 67 57 48 58 51 59 66 60 86 61 49 62 50 63 65 65 87 66 52 67
REMARK SMILES IDX 35 68 36 69 45 70 37 71 38 72 44 73 46 74 39 75 40 76 41 77
REMARK SMILES IDX 42 78 43 79 69 80 70 81 79 82 71 83 72 84 78 85 80 86 73 87
REMARK SMILES IDX 74 88 75 89 76 90 77 91 53 92 54 93 63 94 55 95 56 96 62 97
REMARK SMILES IDX 64 98 57 99 58 100 59 101 60 102 61 103
REMARK H PARENT 18 7 10 23 23 34 85 53 51 64
REMARK Flexibility Score: inf
ROOT
ATOM      1  C   UNL A   1      40.801  21.927  27.509  1.00  0.00     0.023 C 
ENDROOT
BRANCH   1   2
ATOM      2  C   UNL A   1      40.098  21.635  26.184  1.00  0.00     0.023 C 
BRANCH   2   3
ATOM      3  C   UNL A   1      38.657  22.142  26.097  1.00  0.00     0.116 C 
BRANCH   3   4
ATOM      4  N   UNL A   1      37.741  21.066  25.770  1.00  0.00    -0.352 N 
ATOM      5  C   UNL A   1      36.452  21.097  25.300  1.00  0.00     0.251 C 
ATOM      6  O   UNL A   1      35.908  20.034  25.002  1.00  0.00    -0.269 OA
ATOM      7  H   UNL A   1      38.105  20.163  25.910  1.00  0.00     0.163 HD
BRANCH   5   8
ATOM      8  C   UNL A   1      35.706  22.366  25.093  1.00  0.00     0.039 A 
ATOM      9  C   UNL A   1      34.300  24.759  24.552  1.00  0.00    -0.025 A 
ATOM     10  C   UNL A   1      35.025  24.109  23.540  1.00  0.00     0.006 A 
ATOM     11  C   UNL A   1      34.271  24.180  25.826  1.00  0.00     0.006 A 
ATOM     12  C   UNL A   1      35.708  22.918  23.806  1.00  0.00     0.014 A 
ATOM     13  C   UNL A   1      34.956  22.993  26.089  1.00  0.00     0.014 A 
BRANCH   9  14
ATOM     14  C   UNL A   1      33.536  26.050  24.309  1.00  0.00     0.114 C 
ATOM     15  C   UNL A   1      33.334  29.099  26.429  1.00  0.00     0.142 A 
ATOM     16  C   UNL A   1      32.627  30.291  26.538  1.00  0.00     0.050 A 
ATOM     17  C   UNL A   1      32.936  28.089  25.529  1.00  0.00     0.083 A 
ATOM     18  C   UNL A   1      31.523  30.509  25.720  1.00  0.00     0.025 A 
ATOM     19  C   UNL A   1      31.815  28.303  24.703  1.00  0.00     0.005 A 
ATOM     20  N   UNL A   1      33.623  26.886  25.489  1.00  0.00    -0.375 N 
ATOM     21  C   UNL A   1      31.118  29.525  24.813  1.00  0.00     0.047 A 
ATOM     22  C   UNL A   1      31.343  27.199  23.781  1.00  0.00     0.051 C 
ATOM     23  H   UNL A   1      34.168  26.601  26.258  1.00  0.00     0.161 HD
ATOM     24  Cl  UNL A   1      29.703  29.866  23.875  1.00  0.00    -0.084 Cl
ATOM     25  C   UNL A   1      32.052  25.829  23.953  1.00  0.00     0.031 C 
ATOM     26  C   UNL A   1      31.555  27.455  22.309  1.00  0.00    -0.023 C 
ATOM     27  C   UNL A   1      31.860  25.154  22.581  1.00  0.00     0.034 C 
ATOM     28  C   UNL A   1      31.824  26.322  21.649  1.00  0.00    -0.030 C 
BRANCH  15  29
ATOM     29  O   UNL A   1      34.396  28.922  27.284  1.00  0.00    -0.495 OA
ATOM     30  C   UNL A   1      35.005  30.170  27.622  1.00  0.00     0.278 C 
ENDBRANCH  15  29
ENDBRANCH   9  14
ENDBRANCH   5   8
ENDBRANCH   3   4
ENDBRANCH   2   3
ENDBRANCH   1   2
BRANCH   1  31
ATOM     31  C   UNL A   1      41.560  23.245  27.554  1.00  0.00     0.116 C 
BRANCH  31  32
ATOM     32  N   UNL A   1      41.486  23.989  26.306  1.00  0.00    -0.352 N 
ATOM     33  C   UNL A   1      41.280  25.339  26.150  1.00  0.00     0.251 C 
ATOM     34  H   UNL A   1      41.595  23.467  25.479  1.00  0.00     0.163 HD
ATOM     35  O   UNL A   1      41.153  25.835  25.041  1.00  0.00    -0.269 OA
BRANCH  33  36
ATOM     36  C   UNL A   1      41.180  26.164  27.368  1.00  0.00     0.039 A 
ATOM     37  C   UNL A   1      42.146  27.146  27.596  1.00  0.00     0.014 A 
ATOM     38  C   UNL A   1      40.080  26.020  28.217  1.00  0.00     0.014 A 
ATOM     39  C   UNL A   1      41.980  28.029  28.662  1.00  0.00     0.010 A 
ATOM     40  C   UNL A   1      39.893  26.930  29.251  1.00  0.00     0.010 A 
ATOM     41  C   UNL A   1      40.843  27.939  29.480  1.00  0.00    -0.014 A 
BRANCH  41  42
ATOM     42  C   UNL A   1      40.647  28.870  30.613  1.00  0.00     0.031 A 
ATOM     43  C   UNL A   1      41.485  28.710  31.847  1.00  0.00     0.074 A 
ATOM     44  C   UNL A   1      39.693  29.817  30.545  1.00  0.00     0.049 A 
ATOM     45  N   UNL A   1      41.441  29.385  32.965  1.00  0.00    -0.248 NA
ATOM     46  C   UNL A   1      42.493  27.637  31.829  1.00  0.00     0.031 C 
ATOM     47  C   UNL A   1      38.796  30.037  29.409  1.00  0.00     0.029 A 
ATOM     48  N   UNL A   1      39.311  30.766  31.459  1.00  0.00    -0.354 N 
ATOM     49  C   UNL A   1      42.410  28.818  33.783  1.00  0.00     0.074 A 
ATOM     50  C   UNL A   1      42.993  27.714  33.053  1.00  0.00     0.031 C 
ATOM     51  C   UNL A   1      37.975  31.064  29.690  1.00  0.00     0.029 A 
ATOM     52  C   UNL A   1      38.273  31.559  31.031  1.00  0.00     0.049 A 
ATOM     53  H   UNL A   1      39.740  30.869  32.338  1.00  0.00     0.167 HD
ATOM     54  C   UNL A   1      42.795  29.202  35.021  1.00  0.00     0.037 A 
ATOM     55  C   UNL A   1      37.637  32.570  31.654  1.00  0.00     0.037 A 
ATOM     56  C   UNL A   1      42.230  30.316  35.730  1.00  0.00     0.049 A 
ATOM     57  C   UNL A   1      38.080  32.973  33.034  1.00  0.00     0.074 A 
ATOM     58  C   UNL A   1      42.586  30.819  36.969  1.00  0.00     0.029 A 
ATOM     59  N   UNL A   1      41.187  31.102  35.262  1.00  0.00    -0.354 N 
ATOM     60  N   UNL A   1      39.035  32.461  33.773  1.00  0.00    -0.248 NA
ATOM     61  C   UNL A   1      37.364  34.091  33.664  1.00  0.00     0.031 C 
ATOM     62  C   UNL A   1      41.739  31.894  37.261  1.00  0.00     0.029 A 
ATOM     63  C   UNL A   1      40.878  32.079  36.192  1.00  0.00     0.049 A 
ATOM     64  H   UNL A   1      40.735  30.983  34.396  1.00  0.00     0.167 HD
ATOM     65  C   UNL A   1      39.047  33.206  34.948  1.00  0.00     0.074 A 
ATOM     66  C   UNL A   1      38.011  34.211  34.817  1.00  0.00     0.031 C 
ATOM     67  C   UNL A   1      39.844  33.070  36.036  1.00  0.00     0.037 A 
BRANCH  54  68
ATOM     68  C   UNL A   1      43.897  28.420  35.675  1.00  0.00     0.058 A 
ATOM     69  C   UNL A   1      45.246  28.745  35.460  1.00  0.00     0.135 A 
ATOM     70  C   UNL A   1      43.604  27.358  36.545  1.00  0.00     0.135 A 
ATOM     71  F   UNL A   1      45.577  29.737  34.620  1.00  0.00    -0.206 F 
ATOM     72  C   UNL A   1      46.270  28.031  36.073  1.00  0.00     0.059 A 
ATOM     73  C   UNL A   1      44.613  26.644  37.185  1.00  0.00     0.059 A 
ATOM     74  F   UNL A   1      42.331  27.005  36.776  1.00  0.00    -0.206 F 
ATOM     75  C   UNL A   1      45.943  26.982  36.933  1.00  0.00     0.060 A 
BRANCH  75  76
ATOM     76  S   UNL A   1      47.284  26.073  37.730  1.00  0.00     0.124 S 
ATOM     77  O   UNL A   1      48.001  25.541  36.576  1.00  0.00    -0.237 OA
ATOM     78  O   UNL A   1      47.973  27.123  38.474  1.00  0.00    -0.237 OA
ATOM     79  O   UNL A   1      46.587  25.085  38.547  1.00  0.00    -0.744 OA
ENDBRANCH  75  76
ENDBRANCH  54  68
BRANCH  55  80
ATOM     80  C   UNL A   1      36.532  33.288  30.969  1.00  0.00     0.058 A 
ATOM     81  C   UNL A   1      36.798  34.187  29.927  1.00  0.00     0.135 A 
ATOM     82  C   UNL A   1      35.192  33.080  31.331  1.00  0.00     0.135 A 
ATOM     83  F   UNL A   1      38.064  34.422  29.551  1.00  0.00    -0.206 F 
ATOM     84  C   UNL A   1      35.775  34.867  29.274  1.00  0.00     0.059 A 
ATOM     85  C   UNL A   1      34.151  33.735  30.680  1.00  0.00     0.059 A 
ATOM     86  F   UNL A   1      34.887  32.218  32.313  1.00  0.00    -0.206 F 
ATOM     87  C   UNL A   1      34.453  34.633  29.657  1.00  0.00     0.060 A 
BRANCH  87  88
ATOM     88  S   UNL A   1      33.131  35.483  28.767  1.00  0.00     0.124 S 
ATOM     89  O   UNL A   1      33.881  36.469  27.998  1.00  0.00    -0.237 OA
ATOM     90  O   UNL A   1      32.529  34.397  28.001  1.00  0.00    -0.237 OA
ATOM     91  O   UNL A   1      32.298  36.020  29.840  1.00  0.00    -0.744 OA
ENDBRANCH  87  88
ENDBRANCH  55  80
BRANCH  67  92
ATOM     92  C   UNL A   1      39.638  34.034  37.168  1.00  0.00     0.058 A 
ATOM     93  C   UNL A   1      38.833  33.706  38.268  1.00  0.00     0.135 A 
ATOM     94  C   UNL A   1      40.318  35.263  37.189  1.00  0.00     0.135 A 
ATOM     95  F   UNL A   1      38.160  32.545  38.289  1.00  0.00    -0.206 F 
ATOM     96  C   UNL A   1      38.703  34.567  39.351  1.00  0.00     0.059 A 
ATOM     97  C   UNL A   1      40.217  36.130  38.271  1.00  0.00     0.059 A 
ATOM     98  F   UNL A   1      41.107  35.618  36.162  1.00  0.00    -0.206 F 
ATOM     99  C   UNL A   1      39.404  35.775  39.346  1.00  0.00     0.060 A 
BRANCH  99 100
ATOM    100  S   UNL A   1      39.272  36.858  40.785  1.00  0.00     0.124 S 
ATOM    101  O   UNL A   1      40.676  37.055  41.133  1.00  0.00    -0.237 OA
ATOM    102  O   UNL A   1      38.586  38.024  40.238  1.00  0.00    -0.237 OA
ATOM    103  O   UNL A   1      38.493  36.068  41.734  1.00  0.00    -0.744 OA
ENDBRANCH  99 100
ENDBRANCH  67  92
ENDBRANCH  41  42
ENDBRANCH  33  36
ENDBRANCH  31  32
ENDBRANCH   1  31
TORSDOF 16
ENDMDL
MODEL 2
REMARK VINA RESULT:     -12.7      0.396      7.974
REMARK SMILES COc1ccc(Cl)c2c1N[C@@H](c1ccc(C(=O)NCCCCNC(=O)c3ccc(-c4c5nc(c(-c6c(F)cc(S(=O)(=O)[O-])cc6F)c6ccc([nH]6)c(-c6c(F)cc(S(=O)(=O)[O-])cc6F)c6nc(c(-c7c(F)cc(S(=O)(=O)[O-])cc7F)c7ccc4[nH]7)C=C6)C=C5)cc3)cc1)[C@@H]1CC=C[C@H]21
REMARK SMILES IDX 21 1 20 2 19 3 18 4 16 5 17 6 15 8 12 9 13 10 93 11 14 12
REMARK SMILES IDX 92 13 11 14 3 15 4 16 9 17 5 18 8 19 10 20 6 21 98 22 7 24
REMARK SMILES IDX 94 25 97 26 95 27 96 28 2 29 1 30 22 31 23 32 24 33 25 35
REMARK SMILES IDX 26 36 27 37 91 38 28 39 90 40 29 41 30 42 31 43 84 44 32 45
REMARK SMILES IDX 89 46 83 47 85 48 33 49 88 50 82 51 81 52 34 54 68 55 47 56
REMARK SMILES IDX 67 57 48 58 51 59 66 60 86 61 49 62 50 63 65 65 87 66 52 67
REMARK SMILES IDX 35 68 36 69 45 70 37 71 38 72 44 73 46 74 39 75 40 76 41 77
REMARK SMILES IDX 42 78 43 79 69 80 70 81 79 82 71 83 72 84 78 85 80 86 73 87
REMARK SMILES IDX 74 88 75 89 76 90 77 91 53 92 54 93 63 94 55 95 56 96 62 97
REMARK SMILES IDX 64 98 57 99 58 100 59 101 60 102 61 103
REMARK H PARENT 18 7 10 23 23 34 85 53 51 64
REMARK Flexibility Score: inf
ROOT
ATOM      1  C   UNL A   1      40.769  22.318  27.666  1.00  0.00     0.023 C 
ENDROOT
BRANCH   1   2
ATOM      2  C   UNL A   1      40.142  21.695  26.419  1.00  0.00     0.023 C 
BRANCH   2   3
ATOM      3  C   UNL A   1      38.750  22.224  26.068  1.00  0.00     0.116 C 
BRANCH   3   4
ATOM      4  N   UNL A   1      37.840  21.140  25.754  1.00  0.00    -0.352 N 
ATOM      5  C   UNL A   1      36.547  21.158  25.294  1.00  0.00     0.251 C 
ATOM      6  O   UNL A   1      36.009  20.090  25.006  1.00  0.00    -0.269 OA
ATOM      7  H   UNL A   1      38.213  20.240  25.894  1.00  0.00     0.163 HD
BRANCH   5   8
ATOM      8  C   UNL A   1      35.789  22.420  25.088  1.00  0.00     0.039 A 
ATOM      9  C   UNL A   1      34.347  24.793  24.550  1.00  0.00    -0.025 A 
ATOM     10  C   UNL A   1      34.981  24.088  23.513  1.00  0.00     0.006 A 
ATOM     11  C   UNL A   1      34.426  24.278  25.850  1.00  0.00     0.006 A 
ATOM     12  C   UNL A   1      35.681  22.907  23.780  1.00  0.00     0.014 A 
ATOM     13  C   UNL A   1      35.129  23.101  26.112  1.00  0.00     0.014 A 
BRANCH   9  14
ATOM     14  C   UNL A   1      33.568  26.075  24.308  1.00  0.00     0.114 C 
ATOM     15  C   UNL A   1      33.324  29.115  26.436  1.00  0.00     0.142 A 
ATOM     16  C   UNL A   1      32.603  30.299  26.546  1.00  0.00     0.050 A 
ATOM     17  C   UNL A   1      32.940  28.103  25.533  1.00  0.00     0.083 A 
ATOM     18  C   UNL A   1      31.498  30.505  25.726  1.00  0.00     0.025 A 
ATOM     19  C   UNL A   1      31.819  28.305  24.704  1.00  0.00     0.005 A 
ATOM     20  N   UNL A   1      33.642  26.909  25.491  1.00  0.00    -0.375 N 
ATOM     21  C   UNL A   1      31.107  29.518  24.816  1.00  0.00     0.047 A 
ATOM     22  C   UNL A   1      31.362  27.198  23.778  1.00  0.00     0.051 C 
ATOM     23  H   UNL A   1      34.189  26.628  26.260  1.00  0.00     0.161 HD
ATOM     24  Cl  UNL A   1      29.690  29.845  23.875  1.00  0.00    -0.084 Cl
ATOM     25  C   UNL A   1      32.088  25.837  23.948  1.00  0.00     0.031 C 
ATOM     26  C   UNL A   1      31.575  27.460  22.308  1.00  0.00    -0.023 C 
ATOM     27  C   UNL A   1      31.907  25.163  22.575  1.00  0.00     0.034 C 
ATOM     28  C   UNL A   1      31.859  26.333  21.645  1.00  0.00    -0.030 C 
BRANCH  15  29
ATOM     29  O   UNL A   1      34.386  28.949  27.292  1.00  0.00    -0.495 OA
ATOM     30  C   UNL A   1      34.929  30.207  27.698  1.00  0.00     0.278 C 
ENDBRANCH  15  29
ENDBRANCH   9  14
ENDBRANCH   5   8
ENDBRANCH   3   4
ENDBRANCH   2   3
ENDBRANCH   1   2
BRANCH   1  31
ATOM     31  C   UNL A   1      41.942  23.249  27.396  1.00  0.00     0.116 C 
BRANCH  31  32
ATOM     32  N   UNL A   1      41.766  24.057  26.200  1.00  0.00    -0.352 N 
ATOM     33  C   UNL A   1      41.478  25.400  26.134  1.00  0.00     0.251 C 
ATOM     34  H   UNL A   1      41.862  23.591  25.339  1.00  0.00     0.163 HD
ATOM     35  O   UNL A   1      41.268  25.950  25.063  1.00  0.00    -0.269 OA
BRANCH  33  36
ATOM     36  C   UNL A   1      41.392  26.147  27.402  1.00  0.00     0.039 A 
ATOM     37  C   UNL A   1      42.395  27.067  27.709  1.00  0.00     0.014 A 
ATOM     38  C   UNL A   1      40.271  25.997  28.224  1.00  0.00     0.014 A 
ATOM     39  C   UNL A   1      42.249  27.885  28.829  1.00  0.00     0.010 A 
ATOM     40  C   UNL A   1      40.106  26.843  29.313  1.00  0.00     0.010 A 
ATOM     41  C   UNL A   1      41.095  27.792  29.623  1.00  0.00    -0.014 A 
BRANCH  41  42
ATOM     42  C   UNL A   1      40.919  28.655  30.811  1.00  0.00     0.031 A 
ATOM     43  C   UNL A   1      39.872  29.730  30.789  1.00  0.00     0.074 A 
ATOM     44  C   UNL A   1      41.726  28.502  31.877  1.00  0.00     0.049 A 
ATOM     45  N   UNL A   1      39.589  30.622  31.700  1.00  0.00    -0.248 NA
ATOM     46  C   UNL A   1      39.048  29.826  29.572  1.00  0.00     0.031 C 
ATOM     47  C   UNL A   1      42.802  27.514  31.991  1.00  0.00     0.029 A 
ATOM     48  N   UNL A   1      41.775  29.183  33.066  1.00  0.00    -0.354 N 
ATOM     49  C   UNL A   1      38.558  31.387  31.168  1.00  0.00     0.074 A 
ATOM     50  C   UNL A   1      38.299  30.886  29.837  1.00  0.00     0.031 C 
ATOM     51  C   UNL A   1      43.396  27.648  33.189  1.00  0.00     0.029 A 
ATOM     52  C   UNL A   1      42.759  28.742  33.918  1.00  0.00     0.049 A 
ATOM     53  H   UNL A   1      41.161  29.920  33.289  1.00  0.00     0.167 HD
ATOM     54  C   UNL A   1      37.873  32.397  31.750  1.00  0.00     0.037 A 
ATOM     55  C   UNL A   1      43.106  29.174  35.145  1.00  0.00     0.037 A 
ATOM     56  C   UNL A   1      38.119  32.872  33.084  1.00  0.00     0.049 A 
ATOM     57  C   UNL A   1      42.333  30.305  35.768  1.00  0.00     0.074 A 
ATOM     58  C   UNL A   1      37.446  33.857  33.784  1.00  0.00     0.029 A 
ATOM     59  N   UNL A   1      39.118  32.395  33.919  1.00  0.00    -0.354 N 
ATOM     60  N   UNL A   1      41.324  30.983  35.272  1.00  0.00    -0.248 NA
ATOM     61  C   UNL A   1      42.740  30.729  37.115  1.00  0.00     0.031 C 
ATOM     62  C   UNL A   1      38.057  33.993  35.036  1.00  0.00     0.029 A 
ATOM     63  C   UNL A   1      39.089  33.073  35.125  1.00  0.00     0.049 A 
ATOM     64  H   UNL A   1      39.753  31.679  33.689  1.00  0.00     0.167 HD
ATOM     65  C   UNL A   1      40.965  31.900  36.253  1.00  0.00     0.074 A 
ATOM     66  C   UNL A   1      41.856  31.685  37.375  1.00  0.00     0.031 C 
ATOM     67  C   UNL A   1      39.985  32.837  36.228  1.00  0.00     0.037 A 
BRANCH  54  68
ATOM     68  C   UNL A   1      36.778  33.040  30.950  1.00  0.00     0.058 A 
ATOM     69  C   UNL A   1      37.068  33.907  29.885  1.00  0.00     0.135 A 
ATOM     70  C   UNL A   1      35.430  32.765  31.229  1.00  0.00     0.135 A 
ATOM     71  F   UNL A   1      38.341  34.218  29.593  1.00  0.00    -0.206 F 
ATOM     72  C   UNL A   1      36.057  34.495  29.133  1.00  0.00     0.059 A 
ATOM     73  C   UNL A   1      34.403  33.327  30.477  1.00  0.00     0.059 A 
ATOM     74  F   UNL A   1      35.102  31.949  32.243  1.00  0.00    -0.206 F 
ATOM     75  C   UNL A   1      34.727  34.199  29.438  1.00  0.00     0.060 A 
BRANCH  75  76
ATOM     76  S   UNL A   1      33.428  34.962  28.444  1.00  0.00     0.124 S 
ATOM     77  O   UNL A   1      32.513  35.438  29.477  1.00  0.00    -0.237 OA
ATOM     78  O   UNL A   1      34.157  35.997  27.718  1.00  0.00    -0.237 OA
ATOM     79  O   UNL A   1      32.932  33.859  27.627  1.00  0.00    -0.744 OA
ENDBRANCH  75  76
ENDBRANCH  54  68
BRANCH  55  80
ATOM     80  C   UNL A   1      44.220  28.519  35.877  1.00  0.00     0.058 A 
ATOM     81  C   UNL A   1      45.532  29.001  35.766  1.00  0.00     0.135 A 
ATOM     82  C   UNL A   1      43.995  27.413  36.710  1.00  0.00     0.135 A 
ATOM     83  F   UNL A   1      45.796  30.053  34.976  1.00  0.00    -0.206 F 
ATOM     84  C   UNL A   1      46.587  28.401  36.446  1.00  0.00     0.059 A 
ATOM     85  C   UNL A   1      45.031  26.807  37.415  1.00  0.00     0.059 A 
ATOM     86  F   UNL A   1      42.753  26.925  36.860  1.00  0.00    -0.206 F 
ATOM     87  C   UNL A   1      46.326  27.304  37.270  1.00  0.00     0.060 A 
BRANCH  87  88
ATOM     88  S   UNL A   1      47.695  26.566  38.187  1.00  0.00     0.124 S 
ATOM     89  O   UNL A   1      48.386  27.749  38.686  1.00  0.00    -0.237 OA
ATOM     90  O   UNL A   1      46.998  25.763  39.186  1.00  0.00    -0.237 OA
ATOM     91  O   UNL A   1      48.408  25.802  37.166  1.00  0.00    -0.744 OA
ENDBRANCH  87  88
ENDBRANCH  55  80
BRANCH  67  92
ATOM     92  C   UNL A   1      39.815  33.693  37.449  1.00  0.00     0.058 A 
ATOM     93  C   UNL A   1      40.524  34.893  37.602  1.00  0.00     0.135 A 
ATOM     94  C   UNL A   1      38.875  33.350  38.434  1.00  0.00     0.135 A 
ATOM     95  F   UNL A   1      41.436  35.260  36.689  1.00  0.00    -0.206 F 
ATOM     96  C   UNL A   1      40.310  35.724  38.696  1.00  0.00     0.059 A 
ATOM     97  C   UNL A   1      38.632  34.175  39.526  1.00  0.00     0.059 A 
ATOM     98  F   UNL A   1      38.167  32.214  38.326  1.00  0.00    -0.206 F 
ATOM     99  C   UNL A   1      39.358  35.359  39.651  1.00  0.00     0.060 A 
BRANCH  99 100
ATOM    100  S   UNL A   1      39.049  36.475  41.036  1.00  0.00     0.124 S 
ATOM    101  O   UNL A   1      38.081  35.711  41.817  1.00  0.00    -0.237 OA
ATOM    102  O   UNL A   1      40.375  36.612  41.629  1.00  0.00    -0.237 OA
ATOM    103  O   UNL A   1      38.530  37.678  40.393  1.00  0.00    -0.744 OA
ENDBRANCH  99 100
ENDBRANCH  67  92
ENDBRANCH  41  42
ENDBRANCH  33  36
ENDBRANCH  31  32
ENDBRANCH   1  31
TORSDOF 16
ENDMDL
MODEL 3
REMARK VINA RESULT:     -12.6      6.374     12.107
REMARK SMILES COc1ccc(Cl)c2c1N[C@@H](c1ccc(C(=O)NCCCCNC(=O)c3ccc(-c4c5nc(c(-c6c(F)cc(S(=O)(=O)[O-])cc6F)c6ccc([nH]6)c(-c6c(F)cc(S(=O)(=O)[O-])cc6F)c6nc(c(-c7c(F)cc(S(=O)(=O)[O-])cc7F)c7ccc4[nH]7)C=C6)C=C5)cc3)cc1)[C@@H]1CC=C[C@H]21
REMARK SMILES IDX 21 1 20 2 19 3 18 4 16 5 17 6 15 8 12 9 13 10 93 11 14 12
REMARK SMILES IDX 92 13 11 14 3 15 4 16 9 17 5 18 8 19 10 20 6 21 98 22 7 24
REMARK SMILES IDX 94 25 97 26 95 27 96 28 2 29 1 30 22 31 23 32 24 33 25 35
REMARK SMILES IDX 26 36 27 37 91 38 28 39 90 40 29 41 30 42 31 43 84 44 32 45
REMARK SMILES IDX 89 46 83 47 85 48 33 49 88 50 82 51 81 52 34 54 68 55 47 56
REMARK SMILES IDX 67 57 48 58 51 59 66 60 86 61 49 62 50 63 65 65 87 66 52 67
REMARK SMILES IDX 35 68 36 69 45 70 37 71 38 72 44 73 46 74 39 75 40 76 41 77
REMARK SMILES IDX 42 78 43 79 69 80 70 81 79 82 71 83 72 84 78 85 80 86 73 87
REMARK SMILES IDX 74 88 75 89 76 90 77 91 53 92 54 93 63 94 55 95 56 96 62 97
REMARK SMILES IDX 64 98 57 99 58 100 59 101 60 102 61 103
REMARK H PARENT 18 7 10 23 23 34 85 53 51 64
REMARK Flexibility Score: inf
ROOT
ATOM      1  C   UNL A   1      36.142  33.324  28.903  1.00  0.00     0.023 C 
ENDROOT
BRANCH   1   2
ATOM      2  C   UNL A   1      35.829  32.292  27.822  1.00  0.00     0.023 C 
BRANCH   2   3
ATOM      3  C   UNL A   1      34.668  31.350  28.150  1.00  0.00     0.116 C 
BRANCH   3   4
ATOM      4  N   UNL A   1      33.447  31.772  27.490  1.00  0.00    -0.352 N 
ATOM      5  C   UNL A   1      32.464  31.043  26.870  1.00  0.00     0.251 C 
ATOM      6  O   UNL A   1      31.462  31.631  26.464  1.00  0.00    -0.269 OA
ATOM      7  H   UNL A   1      33.300  32.745  27.487  1.00  0.00     0.163 HD
BRANCH   5   8
ATOM      8  C   UNL A   1      32.543  29.567  26.710  1.00  0.00     0.039 A 
ATOM      9  C   UNL A   1      32.822  26.779  26.331  1.00  0.00    -0.025 A 
ATOM     10  C   UNL A   1      33.599  27.684  25.591  1.00  0.00     0.006 A 
ATOM     11  C   UNL A   1      31.925  27.291  27.277  1.00  0.00     0.006 A 
ATOM     12  C   UNL A   1      33.470  29.062  25.791  1.00  0.00     0.014 A 
ATOM     13  C   UNL A   1      31.796  28.666  27.471  1.00  0.00     0.014 A 
BRANCH   9  14
ATOM     14  C   UNL A   1      32.933  25.273  26.156  1.00  0.00     0.114 C 
ATOM     15  C   UNL A   1      35.911  23.218  25.298  1.00  0.00     0.142 A 
ATOM     16  C   UNL A   1      36.257  21.922  24.929  1.00  0.00     0.050 A 
ATOM     17  C   UNL A   1      34.564  23.631  25.350  1.00  0.00     0.083 A 
ATOM     18  C   UNL A   1      35.254  21.004  24.638  1.00  0.00     0.025 A 
ATOM     19  C   UNL A   1      33.545  22.706  25.051  1.00  0.00     0.005 A 
ATOM     20  N   UNL A   1      34.255  24.946  25.659  1.00  0.00    -0.375 N 
ATOM     21  C   UNL A   1      33.911  21.390  24.696  1.00  0.00     0.047 A 
ATOM     22  C   UNL A   1      32.101  23.158  25.043  1.00  0.00     0.051 C 
ATOM     23  H   UNL A   1      34.928  25.655  25.542  1.00  0.00     0.161 HD
ATOM     24  Cl  UNL A   1      32.737  20.191  24.266  1.00  0.00    -0.084 Cl
ATOM     25  C   UNL A   1      31.873  24.685  25.204  1.00  0.00     0.031 C 
ATOM     26  C   UNL A   1      31.250  22.616  26.165  1.00  0.00    -0.023 C 
ATOM     27  C   UNL A   1      30.444  24.774  25.771  1.00  0.00     0.034 C 
ATOM     28  C   UNL A   1      30.327  23.505  26.552  1.00  0.00    -0.030 C 
BRANCH  15  29
ATOM     29  O   UNL A   1      36.942  24.094  25.542  1.00  0.00    -0.495 OA
ATOM     30  C   UNL A   1      38.067  23.426  26.116  1.00  0.00     0.278 C 
ENDBRANCH  15  29
ENDBRANCH   9  14
ENDBRANCH   5   8
ENDBRANCH   3   4
ENDBRANCH   2   3
ENDBRANCH   1   2
BRANCH   1  31
ATOM     31  C   UNL A   1      37.103  32.848  29.983  1.00  0.00     0.116 C 
BRANCH  31  32
ATOM     32  N   UNL A   1      36.466  32.004  30.982  1.00  0.00    -0.352 N 
ATOM     33  C   UNL A   1      36.862  30.753  31.394  1.00  0.00     0.251 C 
ATOM     34  H   UNL A   1      35.660  32.368  31.413  1.00  0.00     0.163 HD
ATOM     35  O   UNL A   1      36.191  30.106  32.184  1.00  0.00    -0.269 OA
BRANCH  33  36
ATOM     36  C   UNL A   1      38.104  30.202  30.821  1.00  0.00     0.039 A 
ATOM     37  C   UNL A   1      38.211  30.084  29.435  1.00  0.00     0.014 A 
ATOM     38  C   UNL A   1      39.182  29.899  31.659  1.00  0.00     0.014 A 
ATOM     39  C   UNL A   1      39.431  29.706  28.876  1.00  0.00     0.010 A 
ATOM     40  C   UNL A   1      40.408  29.566  31.097  1.00  0.00     0.010 A 
ATOM     41  C   UNL A   1      40.540  29.467  29.703  1.00  0.00    -0.014 A 
BRANCH  41  42
ATOM     42  C   UNL A   1      41.844  29.070  29.127  1.00  0.00     0.031 A 
ATOM     43  C   UNL A   1      42.926  30.101  28.983  1.00  0.00     0.074 A 
ATOM     44  C   UNL A   1      42.032  27.809  28.697  1.00  0.00     0.049 A 
ATOM     45  N   UNL A   1      44.117  29.976  28.463  1.00  0.00    -0.248 NA
ATOM     46  C   UNL A   1      42.619  31.455  29.472  1.00  0.00     0.031 C 
ATOM     47  C   UNL A   1      41.036  26.737  28.754  1.00  0.00     0.029 A 
ATOM     48  N   UNL A   1      43.124  27.218  28.116  1.00  0.00    -0.354 N 
ATOM     49  C   UNL A   1      44.701  31.233  28.558  1.00  0.00     0.074 A 
ATOM     50  C   UNL A   1      43.717  32.117  29.140  1.00  0.00     0.031 C 
ATOM     51  C   UNL A   1      41.569  25.616  28.238  1.00  0.00     0.029 A 
ATOM     52  C   UNL A   1      42.932  25.895  27.796  1.00  0.00     0.049 A 
ATOM     53  H   UNL A   1      43.967  27.696  27.944  1.00  0.00     0.167 HD
ATOM     54  C   UNL A   1      45.954  31.606  28.214  1.00  0.00     0.037 A 
ATOM     55  C   UNL A   1      43.764  25.012  27.212  1.00  0.00     0.037 A 
ATOM     56  C   UNL A   1      46.936  30.715  27.659  1.00  0.00     0.049 A 
ATOM     57  C   UNL A   1      45.151  25.454  26.832  1.00  0.00     0.074 A 
ATOM     58  C   UNL A   1      48.251  30.984  27.324  1.00  0.00     0.029 A 
ATOM     59  N   UNL A   1      46.708  29.380  27.358  1.00  0.00    -0.354 N 
ATOM     60  N   UNL A   1      45.707  26.633  26.978  1.00  0.00    -0.248 NA
ATOM     61  C   UNL A   1      46.026  24.449  26.212  1.00  0.00     0.031 C 
ATOM     62  C   UNL A   1      48.811  29.816  26.795  1.00  0.00     0.029 A 
ATOM     63  C   UNL A   1      47.855  28.814  26.829  1.00  0.00     0.049 A 
ATOM     64  H   UNL A   1      45.857  28.906  27.500  1.00  0.00     0.167 HD
ATOM     65  C   UNL A   1      47.001  26.507  26.485  1.00  0.00     0.074 A 
ATOM     66  C   UNL A   1      47.150  25.134  26.047  1.00  0.00     0.031 C 
ATOM     67  C   UNL A   1      47.978  27.443  26.404  1.00  0.00     0.037 A 
BRANCH  54  68
ATOM     68  C   UNL A   1      46.338  33.038  28.450  1.00  0.00     0.058 A 
ATOM     69  C   UNL A   1      46.160  34.012  27.456  1.00  0.00     0.135 A 
ATOM     70  C   UNL A   1      46.859  33.446  29.688  1.00  0.00     0.135 A 
ATOM     71  F   UNL A   1      45.686  33.667  26.248  1.00  0.00    -0.206 F 
ATOM     72  C   UNL A   1      46.502  35.342  27.674  1.00  0.00     0.059 A 
ATOM     73  C   UNL A   1      47.188  34.775  29.935  1.00  0.00     0.059 A 
ATOM     74  F   UNL A   1      47.055  32.550  30.668  1.00  0.00    -0.206 F 
ATOM     75  C   UNL A   1      47.016  35.713  28.918  1.00  0.00     0.060 A 
BRANCH  75  76
ATOM     76  S   UNL A   1      47.444  37.446  29.188  1.00  0.00     0.124 S 
ATOM     77  O   UNL A   1      46.126  38.072  29.207  1.00  0.00    -0.237 OA
ATOM     78  O   UNL A   1      48.141  37.399  30.469  1.00  0.00    -0.237 OA
ATOM     79  O   UNL A   1      48.278  37.774  28.036  1.00  0.00    -0.744 OA
ENDBRANCH  75  76
ENDBRANCH  54  68
BRANCH  55  80
ATOM     80  C   UNL A   1      43.319  23.615  26.974  1.00  0.00     0.058 A 
ATOM     81  C   UNL A   1      42.988  23.177  25.684  1.00  0.00     0.135 A 
ATOM     82  C   UNL A   1      43.227  22.690  28.025  1.00  0.00     0.135 A 
ATOM     83  F   UNL A   1      43.054  24.029  24.649  1.00  0.00    -0.206 F 
ATOM     84  C   UNL A   1      42.571  21.872  25.443  1.00  0.00     0.059 A 
ATOM     85  C   UNL A   1      42.831  21.373  27.806  1.00  0.00     0.059 A 
ATOM     86  F   UNL A   1      43.548  23.057  29.275  1.00  0.00    -0.206 F 
ATOM     87  C   UNL A   1      42.496  20.976  26.511  1.00  0.00     0.060 A 
BRANCH  87  88
ATOM     88  S   UNL A   1      42.002  19.271  26.178  1.00  0.00     0.124 S 
ATOM     89  O   UNL A   1      40.569  19.419  25.953  1.00  0.00    -0.237 OA
ATOM     90  O   UNL A   1      42.804  18.944  25.004  1.00  0.00    -0.237 OA
ATOM     91  O   UNL A   1      42.380  18.569  27.402  1.00  0.00    -0.744 OA
ENDBRANCH  87  88
ENDBRANCH  55  80
BRANCH  67  92
ATOM     92  C   UNL A   1      49.298  27.017  25.830  1.00  0.00     0.058 A 
ATOM     93  C   UNL A   1      49.579  27.161  24.463  1.00  0.00     0.135 A 
ATOM     94  C   UNL A   1      50.317  26.537  26.667  1.00  0.00     0.135 A 
ATOM     95  F   UNL A   1      48.634  27.610  23.623  1.00  0.00    -0.206 F 
ATOM     96  C   UNL A   1      50.827  26.837  23.944  1.00  0.00     0.059 A 
ATOM     97  C   UNL A   1      51.579  26.226  26.173  1.00  0.00     0.059 A 
ATOM     98  F   UNL A   1      50.097  26.390  27.984  1.00  0.00    -0.206 F 
ATOM     99  C   UNL A   1      51.823  26.375  24.808  1.00  0.00     0.060 A 
BRANCH  99 100
ATOM    100  S   UNL A   1      53.457  26.014  24.131  1.00  0.00     0.124 S 
ATOM    101  O   UNL A   1      54.247  27.118  24.667  1.00  0.00    -0.237 OA
ATOM    102  O   UNL A   1      53.745  24.698  24.693  1.00  0.00    -0.237 OA
ATOM    103  O   UNL A   1      53.239  26.038  22.687  1.00  0.00    -0.744 OA
ENDBRANCH  99 100
ENDBRANCH  67  92
ENDBRANCH  41  42
ENDBRANCH  33  36
ENDBRANCH  31  32
ENDBRANCH   1  31
TORSDOF 16
ENDMDL
