MODEL 1
REMARK VINA RESULT:     -11.4      0.000      0.000
REMARK SMILES O=C(CCN/C(=[NH+]\S(=O)(=O)c1ccccc1)c1ccccc1)NCCCCNC(=O)c1ccc(-c2c3nc(c(-c4c(F)cc(S(=O)(=O)[O-])cc4F)c4ccc([nH]4)c(-c4c(F)cc(S(=O)(=O)[O-])cc4F)c4nc(c(-c5c(F)cc(S(=O)(=O)[O-])cc5F)c5ccc2[nH]5)C=C4)C=C3)cc1
REMARK SMILES IDX 25 1 24 2 23 3 1 4 2 5 3 7 4 8 5 9 6 10 7 12 17 14 18 15
REMARK SMILES IDX 22 16 19 17 21 18 20 19 8 20 9 21 10 22 11 23 12 24 16 25
REMARK SMILES IDX 13 26 15 27 14 28 26 29 27 30 28 31 29 32 30 34 31 35 32 36
REMARK SMILES IDX 96 37 33 38 95 39 34 40 35 41 36 42 89 43 37 44 94 45 88 46
REMARK SMILES IDX 90 47 38 48 93 49 87 50 86 51 39 53 73 54 52 55 72 56 53 57
REMARK SMILES IDX 56 58 71 59 91 60 54 61 55 62 70 64 92 65 57 66 40 67 41 68
REMARK SMILES IDX 50 69 42 70 43 71 49 72 51 73 44 74 45 75 46 76 47 77 48 78
REMARK SMILES IDX 74 79 75 80 84 81 76 82 77 83 83 84 85 85 78 86 79 87 80 88
REMARK SMILES IDX 81 89 82 90 58 91 59 92 68 93 60 94 61 95 67 96 69 97 62 98
REMARK SMILES IDX 63 99 64 100 65 101 66 102
REMARK H PARENT 23 6 5 11 7 13 28 33 90 52 56 63
REMARK Flexibility Score: inf
ROOT
ATOM      1  C   UNL A   1      34.743  24.149  24.271  1.00  0.00     0.023 C 
ENDROOT
BRANCH   1   2
ATOM      2  C   UNL A   1      33.954  23.875  22.990  1.00  0.00     0.116 C 
BRANCH   2   3
ATOM      3  N   UNL A   1      32.778  24.712  22.874  1.00  0.00    -0.356 N 
ATOM      4  O   UNL A   1      33.776  26.372  21.629  1.00  0.00    -0.275 OA
ATOM      5  C   UNL A   1      32.789  25.909  22.195  1.00  0.00     0.223 C 
ATOM      6  H   UNL A   1      31.940  24.415  23.297  1.00  0.00     0.163 HD
BRANCH   5   7
ATOM      7  C   UNL A   1      31.456  26.614  22.158  1.00  0.00     0.145 C 
BRANCH   7   8
ATOM      8  C   UNL A   1      31.254  27.445  23.416  1.00  0.00     0.243 C 
BRANCH   8   9
ATOM      9  N   UNL A   1      30.911  26.618  24.562  1.00  0.00    -0.273 N 
ATOM     10  C   UNL A   1      31.549  26.536  25.785  1.00  0.00     0.290 C 
ATOM     11  H   UNL A   1      30.123  26.040  24.452  1.00  0.00     0.305 HD
ATOM     12  N   UNL A   1      31.499  25.533  26.602  1.00  0.00    -0.162 N 
ATOM     13  H   UNL A   1      31.926  25.613  27.485  1.00  0.00     0.327 HD
BRANCH  10  14
ATOM     14  C   UNL A   1      32.371  27.685  26.279  1.00  0.00     0.064 A 
ATOM     15  C   UNL A   1      33.768  27.612  26.212  1.00  0.00     0.016 A 
ATOM     16  C   UNL A   1      31.755  28.805  26.846  1.00  0.00     0.016 A 
ATOM     17  C   UNL A   1      34.542  28.677  26.672  1.00  0.00     0.001 A 
ATOM     18  C   UNL A   1      32.532  29.873  27.295  1.00  0.00     0.001 A 
ATOM     19  C   UNL A   1      33.924  29.809  27.203  1.00  0.00     0.000 A 
ENDBRANCH  10  14
BRANCH  12  20
ATOM     20  S   UNL A   1      30.755  24.160  26.217  1.00  0.00     0.328 S 
ATOM     21  O   UNL A   1      29.709  23.877  27.180  1.00  0.00    -0.179 OA
ATOM     22  O   UNL A   1      30.391  24.226  24.809  1.00  0.00    -0.179 OA
BRANCH  20  23
ATOM     23  C   UNL A   1      32.013  22.917  26.392  1.00  0.00     0.109 A 
ATOM     24  C   UNL A   1      32.930  23.006  27.445  1.00  0.00     0.024 A 
ATOM     25  C   UNL A   1      32.092  21.875  25.461  1.00  0.00     0.024 A 
ATOM     26  C   UNL A   1      33.910  22.023  27.585  1.00  0.00     0.001 A 
ATOM     27  C   UNL A   1      33.074  20.894  25.611  1.00  0.00     0.001 A 
ATOM     28  C   UNL A   1      33.975  20.964  26.676  1.00  0.00     0.000 A 
ENDBRANCH  20  23
ENDBRANCH  12  20
ENDBRANCH   8   9
ENDBRANCH   7   8
ENDBRANCH   5   7
ENDBRANCH   2   3
ENDBRANCH   1   2
BRANCH   1  29
ATOM     29  C   UNL A   1      36.064  23.386  24.407  1.00  0.00     0.023 C 
BRANCH  29  30
ATOM     30  C   UNL A   1      36.739  23.481  25.777  1.00  0.00     0.116 C 
BRANCH  30  31
ATOM     31  N   UNL A   1      37.913  22.627  25.868  1.00  0.00    -0.352 N 
ATOM     32  C   UNL A   1      39.184  22.938  26.288  1.00  0.00     0.251 C 
ATOM     33  H   UNL A   1      37.777  21.693  25.589  1.00  0.00     0.163 HD
ATOM     34  O   UNL A   1      40.099  22.139  26.105  1.00  0.00    -0.269 OA
BRANCH  32  35
ATOM     35  C   UNL A   1      39.460  24.233  26.953  1.00  0.00     0.039 A 
ATOM     36  C   UNL A   1      38.972  24.464  28.243  1.00  0.00     0.014 A 
ATOM     37  C   UNL A   1      40.166  25.238  26.295  1.00  0.00     0.014 A 
ATOM     38  C   UNL A   1      39.258  25.671  28.899  1.00  0.00     0.010 A 
ATOM     39  C   UNL A   1      40.487  26.415  26.972  1.00  0.00     0.010 A 
ATOM     40  C   UNL A   1      40.065  26.648  28.290  1.00  0.00    -0.014 A 
BRANCH  40  41
ATOM     41  C   UNL A   1      40.527  27.872  29.024  1.00  0.00     0.031 A 
ATOM     42  C   UNL A   1      41.856  27.909  29.743  1.00  0.00     0.074 A 
ATOM     43  C   UNL A   1      39.692  28.926  29.166  1.00  0.00     0.049 A 
ATOM     44  N   UNL A   1      42.350  28.841  30.524  1.00  0.00    -0.248 NA
ATOM     45  C   UNL A   1      42.721  26.727  29.610  1.00  0.00     0.031 C 
ATOM     46  C   UNL A   1      38.331  29.005  28.630  1.00  0.00     0.029 A 
ATOM     47  N   UNL A   1      39.851  30.121  29.831  1.00  0.00    -0.354 N 
ATOM     48  C   UNL A   1      43.570  28.353  30.985  1.00  0.00     0.074 A 
ATOM     49  C   UNL A   1      43.704  27.012  30.453  1.00  0.00     0.031 C 
ATOM     50  C   UNL A   1      37.793  30.190  28.960  1.00  0.00     0.029 A 
ATOM     51  C   UNL A   1      38.749  30.945  29.765  1.00  0.00     0.049 A 
ATOM     52  H   UNL A   1      40.676  30.364  30.308  1.00  0.00     0.167 HD
ATOM     53  C   UNL A   1      44.507  28.968  31.751  1.00  0.00     0.037 A 
ATOM     54  C   UNL A   1      38.518  32.165  30.293  1.00  0.00     0.037 A 
ATOM     55  C   UNL A   1      44.401  30.316  32.252  1.00  0.00     0.049 A 
ATOM     56  C   UNL A   1      39.587  32.848  31.103  1.00  0.00     0.074 A 
ATOM     57  C   UNL A   1      45.343  31.044  32.962  1.00  0.00     0.029 A 
ATOM     58  N   UNL A   1      43.298  31.142  32.101  1.00  0.00    -0.354 N 
ATOM     59  N   UNL A   1      40.770  32.401  31.451  1.00  0.00    -0.248 NA
ATOM     60  C   UNL A   1      39.297  34.208  31.581  1.00  0.00     0.031 C 
ATOM     61  C   UNL A   1      44.792  32.291  33.279  1.00  0.00     0.029 A 
ATOM     62  C   UNL A   1      43.529  32.363  32.716  1.00  0.00     0.049 A 
ATOM     63  H   UNL A   1      42.471  30.897  31.625  1.00  0.00     0.167 HD
ATOM     64  C   UNL A   1      41.374  33.436  32.159  1.00  0.00     0.074 A 
ATOM     65  C   UNL A   1      40.432  34.534  32.182  1.00  0.00     0.031 C 
ATOM     66  C   UNL A   1      42.601  33.466  32.734  1.00  0.00     0.037 A 
BRANCH  53  67
ATOM     67  C   UNL A   1      45.763  28.197  32.076  1.00  0.00     0.058 A 
ATOM     68  C   UNL A   1      46.904  28.272  31.259  1.00  0.00     0.135 A 
ATOM     69  C   UNL A   1      45.853  27.426  33.248  1.00  0.00     0.135 A 
ATOM     70  F   UNL A   1      46.877  28.990  30.125  1.00  0.00    -0.206 F 
ATOM     71  C   UNL A   1      48.071  27.581  31.568  1.00  0.00     0.059 A 
ATOM     72  C   UNL A   1      47.023  26.756  33.597  1.00  0.00     0.059 A 
ATOM     73  F   UNL A   1      44.800  27.326  34.074  1.00  0.00    -0.206 F 
ATOM     74  C   UNL A   1      48.121  26.825  32.740  1.00  0.00     0.060 A 
BRANCH  74  75
ATOM     75  S   UNL A   1      49.647  25.943  33.128  1.00  0.00     0.124 S 
ATOM     76  O   UNL A   1      49.128  24.683  33.654  1.00  0.00    -0.237 OA
ATOM     77  O   UNL A   1      50.301  25.863  31.826  1.00  0.00    -0.237 OA
ATOM     78  O   UNL A   1      50.302  26.807  34.105  1.00  0.00    -0.744 OA
ENDBRANCH  74  75
ENDBRANCH  53  67
BRANCH  54  79
ATOM     79  C   UNL A   1      37.219  32.844  30.039  1.00  0.00     0.058 A 
ATOM     80  C   UNL A   1      37.084  33.768  28.992  1.00  0.00     0.135 A 
ATOM     81  C   UNL A   1      36.088  32.578  30.826  1.00  0.00     0.135 A 
ATOM     82  F   UNL A   1      38.140  34.063  28.218  1.00  0.00    -0.206 F 
ATOM     83  C   UNL A   1      35.878  34.415  28.741  1.00  0.00     0.059 A 
ATOM     84  C   UNL A   1      34.864  33.192  30.578  1.00  0.00     0.059 A 
ATOM     85  F   UNL A   1      36.160  31.690  31.830  1.00  0.00    -0.206 F 
ATOM     86  C   UNL A   1      34.773  34.117  29.537  1.00  0.00     0.060 A 
BRANCH  86  87
ATOM     87  S   UNL A   1      33.200  34.923  29.166  1.00  0.00     0.124 S 
ATOM     88  O   UNL A   1      32.555  34.924  30.473  1.00  0.00    -0.237 OA
ATOM     89  O   UNL A   1      33.635  36.223  28.666  1.00  0.00    -0.237 OA
ATOM     90  O   UNL A   1      32.600  34.044  28.166  1.00  0.00    -0.744 OA
ENDBRANCH  86  87
ENDBRANCH  54  79
BRANCH  66  91
ATOM     91  C   UNL A   1      43.033  34.746  33.405  1.00  0.00     0.058 A 
ATOM     92  C   UNL A   1      42.731  35.024  34.747  1.00  0.00     0.135 A 
ATOM     93  C   UNL A   1      43.805  35.688  32.703  1.00  0.00     0.135 A 
ATOM     94  F   UNL A   1      41.990  34.164  35.465  1.00  0.00    -0.206 F 
ATOM     95  C   UNL A   1      43.158  36.197  35.364  1.00  0.00     0.059 A 
ATOM     96  C   UNL A   1      44.269  36.854  33.308  1.00  0.00     0.059 A 
ATOM     97  F   UNL A   1      44.132  35.473  31.419  1.00  0.00    -0.206 F 
ATOM     98  C   UNL A   1      43.930  37.105  34.636  1.00  0.00     0.060 A 
BRANCH  98  99
ATOM     99  S   UNL A   1      44.507  38.605  35.459  1.00  0.00     0.124 S 
ATOM    100  O   UNL A   1      45.942  38.552  35.198  1.00  0.00    -0.237 OA
ATOM    101  O   UNL A   1      43.771  39.650  34.754  1.00  0.00    -0.237 OA
ATOM    102  O   UNL A   1      44.115  38.403  36.851  1.00  0.00    -0.744 OA
ENDBRANCH  98  99
ENDBRANCH  66  91
ENDBRANCH  40  41
ENDBRANCH  32  35
ENDBRANCH  30  31
ENDBRANCH  29  30
ENDBRANCH   1  29
TORSDOF 19
ENDMDL
MODEL 2
REMARK VINA RESULT:     -11.3      3.224      4.770
REMARK SMILES O=C(CCN/C(=[NH+]\S(=O)(=O)c1ccccc1)c1ccccc1)NCCCCNC(=O)c1ccc(-c2c3nc(c(-c4c(F)cc(S(=O)(=O)[O-])cc4F)c4ccc([nH]4)c(-c4c(F)cc(S(=O)(=O)[O-])cc4F)c4nc(c(-c5c(F)cc(S(=O)(=O)[O-])cc5F)c5ccc2[nH]5)C=C4)C=C3)cc1
REMARK SMILES IDX 25 1 24 2 23 3 1 4 2 5 3 7 4 8 5 9 6 10 7 12 17 14 18 15
REMARK SMILES IDX 22 16 19 17 21 18 20 19 8 20 9 21 10 22 11 23 12 24 16 25
REMARK SMILES IDX 13 26 15 27 14 28 26 29 27 30 28 31 29 32 30 34 31 35 32 36
REMARK SMILES IDX 96 37 33 38 95 39 34 40 35 41 36 42 89 43 37 44 94 45 88 46
REMARK SMILES IDX 90 47 38 48 93 49 87 50 86 51 39 53 73 54 52 55 72 56 53 57
REMARK SMILES IDX 56 58 71 59 91 60 54 61 55 62 70 64 92 65 57 66 40 67 41 68
REMARK SMILES IDX 50 69 42 70 43 71 49 72 51 73 44 74 45 75 46 76 47 77 48 78
REMARK SMILES IDX 74 79 75 80 84 81 76 82 77 83 83 84 85 85 78 86 79 87 80 88
REMARK SMILES IDX 81 89 82 90 58 91 59 92 68 93 60 94 61 95 67 96 69 97 62 98
REMARK SMILES IDX 63 99 64 100 65 101 66 102
REMARK H PARENT 23 6 5 11 7 13 28 33 90 52 56 63
REMARK Flexibility Score: inf
ROOT
ATOM      1  C   UNL A   1      36.300  22.755  25.916  1.00  0.00     0.023 C 
ENDROOT
BRANCH   1   2
ATOM      2  C   UNL A   1      35.165  22.747  24.892  1.00  0.00     0.116 C 
BRANCH   2   3
ATOM      3  N   UNL A   1      33.909  23.198  25.455  1.00  0.00    -0.356 N 
ATOM      4  O   UNL A   1      34.205  25.428  24.971  1.00  0.00    -0.275 OA
ATOM      5  C   UNL A   1      33.530  24.520  25.448  1.00  0.00     0.223 C 
ATOM      6  H   UNL A   1      33.302  22.533  25.858  1.00  0.00     0.163 HD
BRANCH   5   7
ATOM      7  C   UNL A   1      32.171  24.780  26.050  1.00  0.00     0.145 C 
BRANCH   7   8
ATOM      8  C   UNL A   1      32.020  26.248  26.420  1.00  0.00     0.243 C 
BRANCH   8   9
ATOM      9  N   UNL A   1      31.790  27.080  25.250  1.00  0.00    -0.273 N 
ATOM     10  C   UNL A   1      31.953  28.446  25.120  1.00  0.00     0.290 C 
ATOM     11  H   UNL A   1      31.475  26.609  24.445  1.00  0.00     0.305 HD
ATOM     12  N   UNL A   1      31.364  29.202  24.249  1.00  0.00    -0.162 N 
ATOM     13  H   UNL A   1      31.615  30.152  24.193  1.00  0.00     0.327 HD
BRANCH  10  14
ATOM     14  C   UNL A   1      32.898  29.176  26.023  1.00  0.00     0.064 A 
ATOM     15  C   UNL A   1      32.526  30.419  26.549  1.00  0.00     0.016 A 
ATOM     16  C   UNL A   1      34.162  28.646  26.303  1.00  0.00     0.016 A 
ATOM     17  C   UNL A   1      33.402  31.107  27.389  1.00  0.00     0.001 A 
ATOM     18  C   UNL A   1      35.030  29.332  27.152  1.00  0.00     0.001 A 
ATOM     19  C   UNL A   1      34.647  30.558  27.697  1.00  0.00     0.000 A 
ENDBRANCH  10  14
BRANCH  12  20
ATOM     20  S   UNL A   1      30.234  28.633  23.256  1.00  0.00     0.328 S 
ATOM     21  O   UNL A   1      30.856  28.037  22.090  1.00  0.00    -0.179 OA
ATOM     22  O   UNL A   1      29.319  27.814  24.038  1.00  0.00    -0.179 OA
BRANCH  20  23
ATOM     23  C   UNL A   1      29.348  30.079  22.727  1.00  0.00     0.109 A 
ATOM     24  C   UNL A   1      28.693  30.873  23.674  1.00  0.00     0.024 A 
ATOM     25  C   UNL A   1      29.291  30.397  21.365  1.00  0.00     0.024 A 
ATOM     26  C   UNL A   1      28.006  32.013  23.256  1.00  0.00     0.001 A 
ATOM     27  C   UNL A   1      28.604  31.542  20.956  1.00  0.00     0.001 A 
ATOM     28  C   UNL A   1      27.971  32.351  21.901  1.00  0.00     0.000 A 
ENDBRANCH  20  23
ENDBRANCH  12  20
ENDBRANCH   8   9
ENDBRANCH   7   8
ENDBRANCH   5   7
ENDBRANCH   2   3
ENDBRANCH   1   2
BRANCH   1  29
ATOM     29  C   UNL A   1      37.656  23.239  25.392  1.00  0.00     0.023 C 
BRANCH  29  30
ATOM     30  C   UNL A   1      38.497  24.039  26.389  1.00  0.00     0.116 C 
BRANCH  30  31
ATOM     31  N   UNL A   1      39.922  23.820  26.201  1.00  0.00    -0.352 N 
ATOM     32  C   UNL A   1      40.984  24.578  26.635  1.00  0.00     0.251 C 
ATOM     33  H   UNL A   1      40.161  23.013  25.690  1.00  0.00     0.163 HD
ATOM     34  O   UNL A   1      42.113  24.346  26.208  1.00  0.00    -0.269 OA
BRANCH  32  35
ATOM     35  C   UNL A   1      40.775  25.675  27.607  1.00  0.00     0.039 A 
ATOM     36  C   UNL A   1      39.762  25.566  28.564  1.00  0.00     0.014 A 
ATOM     37  C   UNL A   1      41.551  26.832  27.556  1.00  0.00     0.014 A 
ATOM     38  C   UNL A   1      39.578  26.582  29.516  1.00  0.00     0.010 A 
ATOM     39  C   UNL A   1      41.393  27.814  28.535  1.00  0.00     0.010 A 
ATOM     40  C   UNL A   1      40.427  27.702  29.546  1.00  0.00    -0.014 A 
BRANCH  40  41
ATOM     41  C   UNL A   1      40.365  28.720  30.646  1.00  0.00     0.031 A 
ATOM     42  C   UNL A   1      41.207  28.587  31.894  1.00  0.00     0.074 A 
ATOM     43  C   UNL A   1      39.447  29.711  30.594  1.00  0.00     0.049 A 
ATOM     44  N   UNL A   1      41.185  29.310  32.989  1.00  0.00    -0.248 NA
ATOM     45  C   UNL A   1      42.162  27.470  31.941  1.00  0.00     0.031 C 
ATOM     46  C   UNL A   1      38.481  29.914  29.512  1.00  0.00     0.029 A 
ATOM     47  N   UNL A   1      39.153  30.717  31.487  1.00  0.00    -0.354 N 
ATOM     48  C   UNL A   1      42.106  28.728  33.856  1.00  0.00     0.074 A 
ATOM     49  C   UNL A   1      42.614  27.549  33.186  1.00  0.00     0.031 C 
ATOM     50  C   UNL A   1      37.726  30.989  29.788  1.00  0.00     0.029 A 
ATOM     51  C   UNL A   1      38.120  31.534  31.085  1.00  0.00     0.049 A 
ATOM     52  H   UNL A   1      39.638  30.842  32.335  1.00  0.00     0.167 HD
ATOM     53  C   UNL A   1      42.516  29.146  35.081  1.00  0.00     0.037 A 
ATOM     54  C   UNL A   1      37.541  32.596  31.682  1.00  0.00     0.037 A 
ATOM     55  C   UNL A   1      42.046  30.339  35.741  1.00  0.00     0.049 A 
ATOM     56  C   UNL A   1      38.041  33.070  33.020  1.00  0.00     0.074 A 
ATOM     57  C   UNL A   1      42.474  30.880  36.943  1.00  0.00     0.029 A 
ATOM     58  N   UNL A   1      41.050  31.177  35.264  1.00  0.00    -0.354 N 
ATOM     59  N   UNL A   1      38.975  32.554  33.781  1.00  0.00    -0.248 NA
ATOM     60  C   UNL A   1      37.417  34.280  33.576  1.00  0.00     0.031 C 
ATOM     61  C   UNL A   1      41.706  32.018  37.215  1.00  0.00     0.029 A 
ATOM     62  C   UNL A   1      40.839  32.220  36.154  1.00  0.00     0.049 A 
ATOM     63  H   UNL A   1      40.564  31.050  34.418  1.00  0.00     0.167 HD
ATOM     64  C   UNL A   1      39.072  33.394  34.887  1.00  0.00     0.074 A 
ATOM     65  C   UNL A   1      38.110  34.456  34.692  1.00  0.00     0.031 C 
ATOM     66  C   UNL A   1      39.890  33.289  35.963  1.00  0.00     0.037 A 
BRANCH  53  67
ATOM     67  C   UNL A   1      43.562  28.320  35.790  1.00  0.00     0.058 A 
ATOM     68  C   UNL A   1      43.209  27.290  36.678  1.00  0.00     0.135 A 
ATOM     69  C   UNL A   1      44.931  28.515  35.533  1.00  0.00     0.135 A 
ATOM     70  F   UNL A   1      41.918  27.059  36.964  1.00  0.00    -0.206 F 
ATOM     71  C   UNL A   1      44.170  26.513  37.316  1.00  0.00     0.059 A 
ATOM     72  C   UNL A   1      45.909  27.725  36.132  1.00  0.00     0.059 A 
ATOM     73  F   UNL A   1      45.330  29.476  34.686  1.00  0.00    -0.206 F 
ATOM     74  C   UNL A   1      45.518  26.738  37.036  1.00  0.00     0.060 A 
BRANCH  74  75
ATOM     75  S   UNL A   1      46.750  25.712  37.867  1.00  0.00     0.124 S 
ATOM     76  O   UNL A   1      47.876  26.635  37.966  1.00  0.00    -0.237 OA
ATOM     77  O   UNL A   1      46.086  25.386  39.125  1.00  0.00    -0.237 OA
ATOM     78  O   UNL A   1      46.936  24.592  36.950  1.00  0.00    -0.744 OA
ENDBRANCH  74  75
ENDBRANCH  53  67
BRANCH  54  79
ATOM     79  C   UNL A   1      36.435  33.316  30.995  1.00  0.00     0.058 A 
ATOM     80  C   UNL A   1      36.689  34.127  29.879  1.00  0.00     0.135 A 
ATOM     81  C   UNL A   1      35.105  33.200  31.430  1.00  0.00     0.135 A 
ATOM     82  F   UNL A   1      37.946  34.277  29.433  1.00  0.00    -0.206 F 
ATOM     83  C   UNL A   1      35.669  34.811  29.226  1.00  0.00     0.059 A 
ATOM     84  C   UNL A   1      34.063  33.852  30.776  1.00  0.00     0.059 A 
ATOM     85  F   UNL A   1      34.807  32.423  32.482  1.00  0.00    -0.206 F 
ATOM     86  C   UNL A   1      34.358  34.663  29.680  1.00  0.00     0.060 A 
BRANCH  86  87
ATOM     87  S   UNL A   1      33.036  35.511  28.789  1.00  0.00     0.124 S 
ATOM     88  O   UNL A   1      33.787  36.482  28.003  1.00  0.00    -0.237 OA
ATOM     89  O   UNL A   1      32.424  34.417  28.041  1.00  0.00    -0.237 OA
ATOM     90  O   UNL A   1      32.213  36.066  29.859  1.00  0.00    -0.744 OA
ENDBRANCH  86  87
ENDBRANCH  54  79
BRANCH  66  91
ATOM     91  C   UNL A   1      39.825  34.375  37.006  1.00  0.00     0.058 A 
ATOM     92  C   UNL A   1      40.527  35.583  36.870  1.00  0.00     0.135 A 
ATOM     93  C   UNL A   1      39.006  34.222  38.138  1.00  0.00     0.135 A 
ATOM     94  F   UNL A   1      41.330  35.782  35.812  1.00  0.00    -0.206 F 
ATOM     95  C   UNL A   1      40.438  36.591  37.827  1.00  0.00     0.059 A 
ATOM     96  C   UNL A   1      38.879  35.228  39.094  1.00  0.00     0.059 A 
ATOM     97  F   UNL A   1      38.306  33.091  38.318  1.00  0.00    -0.206 F 
ATOM     98  C   UNL A   1      39.608  36.405  38.935  1.00  0.00     0.060 A 
BRANCH  98  99
ATOM     99  S   UNL A   1      39.475  37.734  40.150  1.00  0.00     0.124 S 
ATOM    100  O   UNL A   1      40.785  38.368  40.039  1.00  0.00    -0.237 OA
ATOM    101  O   UNL A   1      38.349  38.510  39.640  1.00  0.00    -0.237 OA
ATOM    102  O   UNL A   1      39.225  37.027  41.403  1.00  0.00    -0.744 OA
ENDBRANCH  98  99
ENDBRANCH  66  91
ENDBRANCH  40  41
ENDBRANCH  32  35
ENDBRANCH  30  31
ENDBRANCH  29  30
ENDBRANCH   1  29
TORSDOF 19
ENDMDL
MODEL 3
REMARK VINA RESULT:     -11.1      3.173      5.225
REMARK SMILES O=C(CCN/C(=[NH+]\S(=O)(=O)c1ccccc1)c1ccccc1)NCCCCNC(=O)c1ccc(-c2c3nc(c(-c4c(F)cc(S(=O)(=O)[O-])cc4F)c4ccc([nH]4)c(-c4c(F)cc(S(=O)(=O)[O-])cc4F)c4nc(c(-c5c(F)cc(S(=O)(=O)[O-])cc5F)c5ccc2[nH]5)C=C4)C=C3)cc1
REMARK SMILES IDX 25 1 24 2 23 3 1 4 2 5 3 7 4 8 5 9 6 10 7 12 17 14 18 15
REMARK SMILES IDX 22 16 19 17 21 18 20 19 8 20 9 21 10 22 11 23 12 24 16 25
REMARK SMILES IDX 13 26 15 27 14 28 26 29 27 30 28 31 29 32 30 34 31 35 32 36
REMARK SMILES IDX 96 37 33 38 95 39 34 40 35 41 36 42 89 43 37 44 94 45 88 46
REMARK SMILES IDX 90 47 38 48 93 49 87 50 86 51 39 53 73 54 52 55 72 56 53 57
REMARK SMILES IDX 56 58 71 59 91 60 54 61 55 62 70 64 92 65 57 66 40 67 41 68
REMARK SMILES IDX 50 69 42 70 43 71 49 72 51 73 44 74 45 75 46 76 47 77 48 78
REMARK SMILES IDX 74 79 75 80 84 81 76 82 77 83 83 84 85 85 78 86 79 87 80 88
REMARK SMILES IDX 81 89 82 90 58 91 59 92 68 93 60 94 61 95 67 96 69 97 62 98
REMARK SMILES IDX 63 99 64 100 65 101 66 102
REMARK H PARENT 23 6 5 11 7 13 28 33 90 52 56 63
REMARK Flexibility Score: inf
ROOT
ATOM      1  C   UNL A   1      40.819  22.237  27.922  1.00  0.00     0.023 C 
ENDROOT
BRANCH   1   2
ATOM      2  C   UNL A   1      40.137  21.586  26.718  1.00  0.00     0.116 C 
BRANCH   2   3
ATOM      3  N   UNL A   1      38.851  22.184  26.422  1.00  0.00    -0.356 N 
ATOM      4  O   UNL A   1      38.101  20.494  25.051  1.00  0.00    -0.275 OA
ATOM      5  C   UNL A   1      37.929  21.579  25.599  1.00  0.00     0.223 C 
ATOM      6  H   UNL A   1      38.628  23.055  26.823  1.00  0.00     0.163 HD
BRANCH   5   7
ATOM      7  C   UNL A   1      36.638  22.344  25.446  1.00  0.00     0.145 C 
BRANCH   7   8
ATOM      8  C   UNL A   1      35.524  21.426  24.965  1.00  0.00     0.243 C 
BRANCH   8   9
ATOM      9  N   UNL A   1      34.326  21.558  25.778  1.00  0.00    -0.273 N 
ATOM     10  C   UNL A   1      33.040  21.141  25.490  1.00  0.00     0.290 C 
ATOM     11  H   UNL A   1      34.445  22.004  26.647  1.00  0.00     0.305 HD
ATOM     12  N   UNL A   1      31.952  21.622  26.003  1.00  0.00    -0.162 N 
ATOM     13  H   UNL A   1      31.092  21.196  25.786  1.00  0.00     0.327 HD
BRANCH  10  14
ATOM     14  C   UNL A   1      32.816  20.022  24.521  1.00  0.00     0.064 A 
ATOM     15  C   UNL A   1      32.355  20.311  23.231  1.00  0.00     0.016 A 
ATOM     16  C   UNL A   1      33.017  18.695  24.913  1.00  0.00     0.016 A 
ATOM     17  C   UNL A   1      32.141  19.274  22.323  1.00  0.00     0.001 A 
ATOM     18  C   UNL A   1      32.813  17.662  23.999  1.00  0.00     0.001 A 
ATOM     19  C   UNL A   1      32.379  17.953  22.704  1.00  0.00     0.000 A 
ENDBRANCH  10  14
BRANCH  12  20
ATOM     20  S   UNL A   1      31.967  22.896  26.985  1.00  0.00     0.328 S 
ATOM     21  O   UNL A   1      30.623  23.178  27.449  1.00  0.00    -0.179 OA
ATOM     22  O   UNL A   1      33.006  22.683  27.982  1.00  0.00    -0.179 OA
BRANCH  20  23
ATOM     23  C   UNL A   1      32.483  24.243  25.946  1.00  0.00     0.109 A 
ATOM     24  C   UNL A   1      31.645  24.682  24.916  1.00  0.00     0.024 A 
ATOM     25  C   UNL A   1      33.735  24.835  26.151  1.00  0.00     0.024 A 
ATOM     26  C   UNL A   1      32.049  25.745  24.109  1.00  0.00     0.001 A 
ATOM     27  C   UNL A   1      34.129  25.901  25.341  1.00  0.00     0.001 A 
ATOM     28  C   UNL A   1      33.284  26.360  24.329  1.00  0.00     0.000 A 
ENDBRANCH  20  23
ENDBRANCH  12  20
ENDBRANCH   8   9
ENDBRANCH   7   8
ENDBRANCH   5   7
ENDBRANCH   2   3
ENDBRANCH   1   2
BRANCH   1  29
ATOM     29  C   UNL A   1      42.339  22.061  27.991  1.00  0.00     0.023 C 
BRANCH  29  30
ATOM     30  C   UNL A   1      43.157  23.344  27.823  1.00  0.00     0.116 C 
BRANCH  30  31
ATOM     31  N   UNL A   1      42.988  23.932  26.504  1.00  0.00    -0.352 N 
ATOM     32  C   UNL A   1      42.413  25.130  26.152  1.00  0.00     0.251 C 
ATOM     33  H   UNL A   1      43.334  23.393  25.756  1.00  0.00     0.163 HD
ATOM     34  O   UNL A   1      42.177  25.368  24.970  1.00  0.00    -0.269 OA
BRANCH  32  35
ATOM     35  C   UNL A   1      42.072  26.131  27.188  1.00  0.00     0.039 A 
ATOM     36  C   UNL A   1      40.987  25.901  28.040  1.00  0.00     0.014 A 
ATOM     37  C   UNL A   1      42.793  27.319  27.300  1.00  0.00     0.014 A 
ATOM     38  C   UNL A   1      40.676  26.823  29.051  1.00  0.00     0.010 A 
ATOM     39  C   UNL A   1      42.506  28.207  28.338  1.00  0.00     0.010 A 
ATOM     40  C   UNL A   1      41.464  27.970  29.247  1.00  0.00    -0.014 A 
BRANCH  40  41
ATOM     41  C   UNL A   1      41.262  28.887  30.417  1.00  0.00     0.031 A 
ATOM     42  C   UNL A   1      42.077  28.747  31.682  1.00  0.00     0.074 A 
ATOM     43  C   UNL A   1      40.244  29.776  30.405  1.00  0.00     0.049 A 
ATOM     44  N   UNL A   1      41.946  29.377  32.826  1.00  0.00    -0.248 NA
ATOM     45  C   UNL A   1      43.145  27.737  31.681  1.00  0.00     0.031 C 
ATOM     46  C   UNL A   1      39.293  29.960  29.306  1.00  0.00     0.029 A 
ATOM     47  N   UNL A   1      39.817  30.674  31.359  1.00  0.00    -0.354 N 
ATOM     48  C   UNL A   1      42.899  28.830  33.680  1.00  0.00     0.074 A 
ATOM     49  C   UNL A   1      43.551  27.767  32.943  1.00  0.00     0.031 C 
ATOM     50  C   UNL A   1      38.418  30.924  29.634  1.00  0.00     0.029 A 
ATOM     51  C   UNL A   1      38.713  31.405  30.980  1.00  0.00     0.049 A 
ATOM     52  H   UNL A   1      40.261  30.783  32.230  1.00  0.00     0.167 HD
ATOM     53  C   UNL A   1      43.227  29.193  34.947  1.00  0.00     0.037 A 
ATOM     54  C   UNL A   1      38.007  32.351  31.633  1.00  0.00     0.037 A 
ATOM     55  C   UNL A   1      42.612  30.275  35.675  1.00  0.00     0.049 A 
ATOM     56  C   UNL A   1      38.414  32.770  33.020  1.00  0.00     0.074 A 
ATOM     57  C   UNL A   1      42.944  30.763  36.929  1.00  0.00     0.029 A 
ATOM     58  N   UNL A   1      41.545  31.037  35.226  1.00  0.00    -0.354 N 
ATOM     59  N   UNL A   1      39.377  32.298  33.774  1.00  0.00    -0.248 NA
ATOM     60  C   UNL A   1      37.647  33.860  33.641  1.00  0.00     0.031 C 
ATOM     61  C   UNL A   1      42.050  31.789  37.257  1.00  0.00     0.029 A 
ATOM     62  C   UNL A   1      41.197  31.980  36.183  1.00  0.00     0.049 A 
ATOM     63  H   UNL A   1      41.100  30.926  34.356  1.00  0.00     0.167 HD
ATOM     64  C   UNL A   1      39.351  33.055  34.942  1.00  0.00     0.074 A 
ATOM     65  C   UNL A   1      38.285  34.021  34.791  1.00  0.00     0.031 C 
ATOM     66  C   UNL A   1      40.144  32.954  36.037  1.00  0.00     0.037 A 
BRANCH  53  67
ATOM     67  C   UNL A   1      44.336  28.430  35.630  1.00  0.00     0.058 A 
ATOM     68  C   UNL A   1      45.682  28.807  35.492  1.00  0.00     0.135 A 
ATOM     69  C   UNL A   1      44.048  27.350  36.484  1.00  0.00     0.135 A 
ATOM     70  F   UNL A   1      46.018  29.829  34.689  1.00  0.00    -0.206 F 
ATOM     71  C   UNL A   1      46.704  28.120  36.139  1.00  0.00     0.059 A 
ATOM     72  C   UNL A   1      45.051  26.671  37.170  1.00  0.00     0.059 A 
ATOM     73  F   UNL A   1      42.780  26.950  36.665  1.00  0.00    -0.206 F 
ATOM     74  C   UNL A   1      46.378  27.052  36.977  1.00  0.00     0.060 A 
BRANCH  74  75
ATOM     75  S   UNL A   1      47.718  26.179  37.814  1.00  0.00     0.124 S 
ATOM     76  O   UNL A   1      47.129  25.937  39.128  1.00  0.00    -0.237 OA
ATOM     77  O   UNL A   1      47.896  25.000  36.974  1.00  0.00    -0.237 OA
ATOM     78  O   UNL A   1      48.819  27.137  37.788  1.00  0.00    -0.744 OA
ENDBRANCH  74  75
ENDBRANCH  53  67
BRANCH  54  79
ATOM     79  C   UNL A   1      36.849  33.001  30.961  1.00  0.00     0.058 A 
ATOM     80  C   UNL A   1      35.534  32.709  31.355  1.00  0.00     0.135 A 
ATOM     81  C   UNL A   1      37.031  33.931  29.926  1.00  0.00     0.135 A 
ATOM     82  F   UNL A   1      35.309  31.819  32.333  1.00  0.00    -0.206 F 
ATOM     83  C   UNL A   1      34.439  33.304  30.737  1.00  0.00     0.059 A 
ATOM     84  C   UNL A   1      35.952  34.560  29.311  1.00  0.00     0.059 A 
ATOM     85  F   UNL A   1      38.269  34.257  29.524  1.00  0.00    -0.206 F 
ATOM     86  C   UNL A   1      34.659  34.232  29.719  1.00  0.00     0.060 A 
BRANCH  86  87
ATOM     87  S   UNL A   1      33.231  35.039  28.963  1.00  0.00     0.124 S 
ATOM     88  O   UNL A   1      32.782  34.021  28.022  1.00  0.00    -0.237 OA
ATOM     89  O   UNL A   1      32.367  35.269  30.117  1.00  0.00    -0.237 OA
ATOM     90  O   UNL A   1      33.802  36.243  28.368  1.00  0.00    -0.744 OA
ENDBRANCH  86  87
ENDBRANCH  54  79
BRANCH  66  91
ATOM     91  C   UNL A   1      39.932  33.943  37.154  1.00  0.00     0.058 A 
ATOM     92  C   UNL A   1      40.533  35.212  37.152  1.00  0.00     0.135 A 
ATOM     93  C   UNL A   1      39.073  33.631  38.223  1.00  0.00     0.135 A 
ATOM     94  F   UNL A   1      41.368  35.561  36.160  1.00  0.00    -0.206 F 
ATOM     95  C   UNL A   1      40.308  36.128  38.176  1.00  0.00     0.059 A 
ATOM     96  C   UNL A   1      38.811  34.543  39.243  1.00  0.00     0.059 A 
ATOM     97  F   UNL A   1      38.465  32.436  38.275  1.00  0.00    -0.206 F 
ATOM     98  C   UNL A   1      39.442  35.785  39.217  1.00  0.00     0.060 A 
BRANCH  98  99
ATOM     99  S   UNL A   1      39.133  36.996  40.520  1.00  0.00     0.124 S 
ATOM    100  O   UNL A   1      38.553  36.160  41.567  1.00  0.00    -0.237 OA
ATOM    101  O   UNL A   1      40.471  37.512  40.789  1.00  0.00    -0.237 OA
ATOM    102  O   UNL A   1      38.216  37.944  39.894  1.00  0.00    -0.744 OA
ENDBRANCH  98  99
ENDBRANCH  66  91
ENDBRANCH  40  41
ENDBRANCH  32  35
ENDBRANCH  30  31
ENDBRANCH  29  30
ENDBRANCH   1  29
TORSDOF 19
ENDMDL
