MODEL 1
REMARK VINA RESULT:     -11.6      0.000      0.000
REMARK SMILES C#Cc1ccc2c(c1)C=C(C(=O)NCCCCNC(=O)c1ccc(-c3c4nc(c(-c5c(F)cc(S(=O)(=O)[O-])cc5F)c5ccc([nH]5)c(-c5c(F)cc(S(=O)(=O)[O-])cc5F)c5nc(c(-c6c(F)cc(S(=O)(=O)[O-])cc6F)c6ccc3[nH]6)C=C5)C=C4)cc1)[C@@H](C(F)(F)F)O2
REMARK SMILES IDX 16 1 15 2 14 3 13 4 11 5 12 6 10 8 3 9 4 10 8 11 5 12 7 13
REMARK SMILES IDX 6 14 9 15 92 16 87 17 2 18 1 19 88 20 89 21 90 22 91 23
REMARK SMILES IDX 17 24 18 25 19 26 20 28 21 29 22 30 86 31 23 32 85 33 24 34
REMARK SMILES IDX 25 35 26 36 79 37 27 38 84 39 78 40 80 41 28 42 83 43 77 44
REMARK SMILES IDX 76 45 29 47 63 48 42 49 62 50 43 51 46 52 61 53 81 54 44 55
REMARK SMILES IDX 45 56 60 58 82 59 47 60 30 61 31 62 40 63 32 64 33 65 39 66
REMARK SMILES IDX 41 67 34 68 35 69 36 70 37 71 38 72 64 73 65 74 74 75 66 76
REMARK SMILES IDX 67 77 73 78 75 79 68 80 69 81 70 82 71 83 72 84 48 85 49 86
REMARK SMILES IDX 58 87 50 88 51 89 57 90 59 91 52 92 53 93 54 94 55 95 56 96
REMARK H PARENT 13 7 18 27 80 46 46 57
REMARK Flexibility Score: inf
ROOT
ATOM      1  C   UNL A   1      33.643  28.779  25.864  1.00  0.00     0.023 C 
ENDROOT
BRANCH   1   2
ATOM      2  C   UNL A   1      32.558  29.565  25.143  1.00  0.00     0.023 C 
BRANCH   2   3
ATOM      3  C   UNL A   1      31.908  28.787  24.007  1.00  0.00     0.116 C 
BRANCH   3   4
ATOM      4  N   UNL A   1      31.017  27.745  24.489  1.00  0.00    -0.352 N 
ATOM      5  C   UNL A   1      31.048  26.394  24.604  1.00  0.00     0.251 C 
ATOM      6  O   UNL A   1      30.064  25.876  25.140  1.00  0.00    -0.270 OA
ATOM      7  H   UNL A   1      30.167  28.117  24.818  1.00  0.00     0.163 HD
BRANCH   5   8
ATOM      8  C   UNL A   1      32.168  25.528  24.127  1.00  0.00     0.067 C 
ATOM      9  C   UNL A   1      36.477  23.490  24.940  1.00  0.00     0.025 A 
ATOM     10  C   UNL A   1      36.341  22.739  23.770  1.00  0.00     0.021 A 
ATOM     11  C   UNL A   1      35.461  24.366  25.341  1.00  0.00     0.029 A 
ATOM     12  C   UNL A   1      35.192  22.865  22.998  1.00  0.00     0.048 A 
ATOM     13  C   UNL A   1      34.304  24.494  24.566  1.00  0.00     0.018 A 
ATOM     14  C   UNL A   1      34.189  23.744  23.394  1.00  0.00     0.128 A 
ATOM     15  C   UNL A   1      33.196  25.349  24.978  1.00  0.00     0.025 C 
ATOM     16  O   UNL A   1      33.092  23.777  22.590  1.00  0.00    -0.475 OA
ATOM     17  C   UNL A   1      32.189  24.894  22.767  1.00  0.00     0.314 C 
BRANCH   9  18
ATOM     18  C   UNL A   1      37.660  23.340  25.728  1.00  0.00    -0.070 C 
ATOM     19  C   UNL A   1      38.671  23.238  26.370  1.00  0.00     0.010 C 
ENDBRANCH   9  18
BRANCH  17  20
ATOM     20  C   UNL A   1      32.442  25.922  21.646  1.00  0.00     0.429 C 
ATOM     21  F   UNL A   1      31.322  26.654  21.418  1.00  0.00    -0.167 F 
ATOM     22  F   UNL A   1      33.420  26.807  21.949  1.00  0.00    -0.167 F 
ATOM     23  F   UNL A   1      32.790  25.339  20.477  1.00  0.00    -0.167 F 
ENDBRANCH  17  20
ENDBRANCH   5   8
ENDBRANCH   3   4
ENDBRANCH   2   3
ENDBRANCH   1   2
BRANCH   1  24
ATOM     24  C   UNL A   1      33.573  28.853  27.383  1.00  0.00     0.116 C 
BRANCH  24  25
ATOM     25  N   UNL A   1      33.607  30.213  27.915  1.00  0.00    -0.352 N 
ATOM     26  C   UNL A   1      34.671  30.851  28.519  1.00  0.00     0.251 C 
ATOM     27  H   UNL A   1      32.777  30.734  27.833  1.00  0.00     0.163 HD
ATOM     28  O   UNL A   1      34.545  31.962  29.018  1.00  0.00    -0.269 OA
BRANCH  26  29
ATOM     29  C   UNL A   1      35.953  30.124  28.588  1.00  0.00     0.039 A 
ATOM     30  C   UNL A   1      36.377  29.619  29.816  1.00  0.00     0.014 A 
ATOM     31  C   UNL A   1      36.800  30.119  27.478  1.00  0.00     0.014 A 
ATOM     32  C   UNL A   1      37.721  29.331  29.995  1.00  0.00     0.010 A 
ATOM     33  C   UNL A   1      38.123  29.699  27.635  1.00  0.00     0.010 A 
ATOM     34  C   UNL A   1      38.613  29.365  28.908  1.00  0.00    -0.014 A 
BRANCH  34  35
ATOM     35  C   UNL A   1      40.047  29.046  29.140  1.00  0.00     0.031 A 
ATOM     36  C   UNL A   1      40.624  27.706  28.757  1.00  0.00     0.074 A 
ATOM     37  C   UNL A   1      40.847  30.005  29.648  1.00  0.00     0.049 A 
ATOM     38  N   UNL A   1      41.853  27.273  28.891  1.00  0.00    -0.248 NA
ATOM     39  C   UNL A   1      39.711  26.722  28.152  1.00  0.00     0.031 C 
ATOM     40  C   UNL A   1      40.406  31.348  30.037  1.00  0.00     0.029 A 
ATOM     41  N   UNL A   1      42.195  30.016  29.901  1.00  0.00    -0.354 N 
ATOM     42  C   UNL A   1      41.858  25.970  28.404  1.00  0.00     0.074 A 
ATOM     43  C   UNL A   1      40.501  25.666  28.007  1.00  0.00     0.031 C 
ATOM     44  C   UNL A   1      41.468  32.069  30.417  1.00  0.00     0.029 A 
ATOM     45  C   UNL A   1      42.651  31.217  30.389  1.00  0.00     0.049 A 
ATOM     46  H   UNL A   1      42.779  29.239  29.746  1.00  0.00     0.167 HD
ATOM     47  C   UNL A   1      42.903  25.114  28.285  1.00  0.00     0.037 A 
ATOM     48  C   UNL A   1      43.878  31.592  30.797  1.00  0.00     0.037 A 
ATOM     49  C   UNL A   1      44.255  25.436  28.671  1.00  0.00     0.049 A 
ATOM     50  C   UNL A   1      45.000  30.600  30.723  1.00  0.00     0.074 A 
ATOM     51  C   UNL A   1      45.385  24.640  28.579  1.00  0.00     0.029 A 
ATOM     52  N   UNL A   1      44.663  26.642  29.223  1.00  0.00    -0.354 N 
ATOM     53  N   UNL A   1      44.986  29.374  30.254  1.00  0.00    -0.248 NA
ATOM     54  C   UNL A   1      46.304  31.033  31.241  1.00  0.00     0.031 C 
ATOM     55  C   UNL A   1      46.460  25.341  29.133  1.00  0.00     0.029 A 
ATOM     56  C   UNL A   1      46.018  26.601  29.504  1.00  0.00     0.049 A 
ATOM     57  H   UNL A   1      44.075  27.414  29.391  1.00  0.00     0.167 HD
ATOM     58  C   UNL A   1      46.284  28.900  30.398  1.00  0.00     0.074 A 
ATOM     59  C   UNL A   1      47.060  29.975  30.980  1.00  0.00     0.031 C 
ATOM     60  C   UNL A   1      46.785  27.681  30.078  1.00  0.00     0.037 A 
BRANCH  47  61
ATOM     61  C   UNL A   1      42.641  23.741  27.723  1.00  0.00     0.058 A 
ATOM     62  C   UNL A   1      42.602  23.502  26.340  1.00  0.00     0.135 A 
ATOM     63  C   UNL A   1      42.510  22.632  28.577  1.00  0.00     0.135 A 
ATOM     64  F   UNL A   1      42.709  24.524  25.474  1.00  0.00    -0.206 F 
ATOM     65  C   UNL A   1      42.424  22.222  25.825  1.00  0.00     0.059 A 
ATOM     66  C   UNL A   1      42.362  21.338  28.084  1.00  0.00     0.059 A 
ATOM     67  F   UNL A   1      42.542  22.798  29.909  1.00  0.00    -0.206 F 
ATOM     68  C   UNL A   1      42.312  21.144  26.706  1.00  0.00     0.060 A 
BRANCH  68  69
ATOM     69  S   UNL A   1      42.097  19.490  26.015  1.00  0.00     0.124 S 
ATOM     70  O   UNL A   1      42.516  18.650  27.132  1.00  0.00    -0.237 OA
ATOM     71  O   UNL A   1      40.671  19.468  25.706  1.00  0.00    -0.237 OA
ATOM     72  O   UNL A   1      42.988  19.483  24.859  1.00  0.00    -0.744 OA
ENDBRANCH  68  69
ENDBRANCH  47  61
BRANCH  48  73
ATOM     73  C   UNL A   1      44.091  32.970  31.316  1.00  0.00     0.058 A 
ATOM     74  C   UNL A   1      44.495  34.006  30.464  1.00  0.00     0.135 A 
ATOM     75  C   UNL A   1      43.856  33.287  32.665  1.00  0.00     0.135 A 
ATOM     76  F   UNL A   1      44.736  33.755  29.168  1.00  0.00    -0.206 F 
ATOM     77  C   UNL A   1      44.670  35.305  30.929  1.00  0.00     0.059 A 
ATOM     78  C   UNL A   1      43.990  34.583  33.146  1.00  0.00     0.059 A 
ATOM     79  F   UNL A   1      43.451  32.334  33.520  1.00  0.00    -0.206 F 
ATOM     80  C   UNL A   1      44.406  35.584  32.271  1.00  0.00     0.060 A 
BRANCH  80  81
ATOM     81  S   UNL A   1      44.590  37.284  32.850  1.00  0.00     0.124 S 
ATOM     82  O   UNL A   1      43.338  37.488  33.570  1.00  0.00    -0.237 OA
ATOM     83  O   UNL A   1      45.793  37.194  33.672  1.00  0.00    -0.237 OA
ATOM     84  O   UNL A   1      44.738  38.047  31.614  1.00  0.00    -0.744 OA
ENDBRANCH  80  81
ENDBRANCH  48  73
BRANCH  60  85
ATOM     85  C   UNL A   1      48.250  27.442  30.321  1.00  0.00     0.058 A 
ATOM     86  C   UNL A   1      48.725  26.950  31.545  1.00  0.00     0.135 A 
ATOM     87  C   UNL A   1      49.182  27.632  29.285  1.00  0.00     0.135 A 
ATOM     88  F   UNL A   1      47.880  26.757  32.571  1.00  0.00    -0.206 F 
ATOM     89  C   UNL A   1      50.073  26.669  31.742  1.00  0.00     0.059 A 
ATOM     90  C   UNL A   1      50.528  27.326  29.448  1.00  0.00     0.059 A 
ATOM     91  F   UNL A   1      48.780  28.093  28.090  1.00  0.00    -0.206 F 
ATOM     92  C   UNL A   1      50.966  26.852  30.683  1.00  0.00     0.060 A 
BRANCH  92  93
ATOM     93  S   UNL A   1      52.703  26.436  30.943  1.00  0.00     0.124 S 
ATOM     94  O   UNL A   1      52.600  25.189  31.694  1.00  0.00    -0.237 OA
ATOM     95  O   UNL A   1      53.198  26.314  29.575  1.00  0.00    -0.237 OA
ATOM     96  O   UNL A   1      53.220  27.578  31.691  1.00  0.00    -0.744 OA
ENDBRANCH  92  93
ENDBRANCH  60  85
ENDBRANCH  34  35
ENDBRANCH  26  29
ENDBRANCH  24  25
ENDBRANCH   1  24
TORSDOF 16
ENDMDL
MODEL 2
REMARK VINA RESULT:     -11.5      5.151     10.038
REMARK SMILES C#Cc1ccc2c(c1)C=C(C(=O)NCCCCNC(=O)c1ccc(-c3c4nc(c(-c5c(F)cc(S(=O)(=O)[O-])cc5F)c5ccc([nH]5)c(-c5c(F)cc(S(=O)(=O)[O-])cc5F)c5nc(c(-c6c(F)cc(S(=O)(=O)[O-])cc6F)c6ccc3[nH]6)C=C5)C=C4)cc1)[C@@H](C(F)(F)F)O2
REMARK SMILES IDX 16 1 15 2 14 3 13 4 11 5 12 6 10 8 3 9 4 10 8 11 5 12 7 13
REMARK SMILES IDX 6 14 9 15 92 16 87 17 2 18 1 19 88 20 89 21 90 22 91 23
REMARK SMILES IDX 17 24 18 25 19 26 20 28 21 29 22 30 86 31 23 32 85 33 24 34
REMARK SMILES IDX 25 35 26 36 79 37 27 38 84 39 78 40 80 41 28 42 83 43 77 44
REMARK SMILES IDX 76 45 29 47 63 48 42 49 62 50 43 51 46 52 61 53 81 54 44 55
REMARK SMILES IDX 45 56 60 58 82 59 47 60 30 61 31 62 40 63 32 64 33 65 39 66
REMARK SMILES IDX 41 67 34 68 35 69 36 70 37 71 38 72 64 73 65 74 74 75 66 76
REMARK SMILES IDX 67 77 73 78 75 79 68 80 69 81 70 82 71 83 72 84 48 85 49 86
REMARK SMILES IDX 58 87 50 88 51 89 57 90 59 91 52 92 53 93 54 94 55 95 56 96
REMARK H PARENT 13 7 18 27 80 46 46 57
REMARK Flexibility Score: inf
ROOT
ATOM      1  C   UNL A   1      39.936  22.416  26.988  1.00  0.00     0.023 C 
ENDROOT
BRANCH   1   2
ATOM      2  C   UNL A   1      38.802  23.147  26.286  1.00  0.00     0.023 C 
BRANCH   2   3
ATOM      3  C   UNL A   1      37.727  22.211  25.748  1.00  0.00     0.116 C 
BRANCH   3   4
ATOM      4  N   UNL A   1      37.455  22.434  24.338  1.00  0.00    -0.352 N 
ATOM      5  C   UNL A   1      36.400  22.837  23.587  1.00  0.00     0.251 C 
ATOM      6  O   UNL A   1      36.612  22.951  22.377  1.00  0.00    -0.270 OA
ATOM      7  H   UNL A   1      38.243  22.241  23.781  1.00  0.00     0.163 HD
BRANCH   5   8
ATOM      8  C   UNL A   1      35.039  23.135  24.128  1.00  0.00     0.067 C 
ATOM      9  C   UNL A   1      32.023  26.218  26.314  1.00  0.00     0.025 A 
ATOM     10  C   UNL A   1      30.957  25.353  26.059  1.00  0.00     0.021 A 
ATOM     11  C   UNL A   1      33.315  25.896  25.880  1.00  0.00     0.029 A 
ATOM     12  C   UNL A   1      31.179  24.164  25.375  1.00  0.00     0.048 A 
ATOM     13  C   UNL A   1      33.542  24.700  25.191  1.00  0.00     0.018 A 
ATOM     14  C   UNL A   1      32.466  23.843  24.953  1.00  0.00     0.128 A 
ATOM     15  C   UNL A   1      34.859  24.355  24.668  1.00  0.00     0.025 C 
ATOM     16  O   UNL A   1      32.580  22.674  24.267  1.00  0.00    -0.475 OA
ATOM     17  C   UNL A   1      33.916  22.141  24.107  1.00  0.00     0.314 C 
BRANCH   9  18
ATOM     18  C   UNL A   1      31.774  27.442  27.009  1.00  0.00    -0.070 C 
ATOM     19  C   UNL A   1      31.575  28.455  27.624  1.00  0.00     0.010 C 
ENDBRANCH   9  18
BRANCH  17  20
ATOM     20  C   UNL A   1      34.124  21.001  25.124  1.00  0.00     0.429 C 
ATOM     21  F   UNL A   1      35.109  20.169  24.703  1.00  0.00    -0.167 F 
ATOM     22  F   UNL A   1      34.496  21.444  26.348  1.00  0.00    -0.167 F 
ATOM     23  F   UNL A   1      33.011  20.254  25.301  1.00  0.00    -0.167 F 
ENDBRANCH  17  20
ENDBRANCH   5   8
ENDBRANCH   3   4
ENDBRANCH   2   3
ENDBRANCH   1   2
BRANCH   1  24
ATOM     24  C   UNL A   1      41.268  23.153  26.972  1.00  0.00     0.116 C 
BRANCH  24  25
ATOM     25  N   UNL A   1      41.390  24.140  25.901  1.00  0.00    -0.352 N 
ATOM     26  C   UNL A   1      41.437  25.512  26.027  1.00  0.00     0.251 C 
ATOM     27  H   UNL A   1      41.445  23.784  24.985  1.00  0.00     0.163 HD
ATOM     28  O   UNL A   1      41.437  26.241  25.042  1.00  0.00    -0.269 OA
BRANCH  26  29
ATOM     29  C   UNL A   1      41.435  26.073  27.392  1.00  0.00     0.039 A 
ATOM     30  C   UNL A   1      40.271  25.985  28.154  1.00  0.00     0.014 A 
ATOM     31  C   UNL A   1      42.518  26.842  27.820  1.00  0.00     0.014 A 
ATOM     32  C   UNL A   1      40.102  26.851  29.223  1.00  0.00     0.010 A 
ATOM     33  C   UNL A   1      42.388  27.614  28.978  1.00  0.00     0.010 A 
ATOM     34  C   UNL A   1      41.157  27.676  29.652  1.00  0.00    -0.014 A 
BRANCH  34  35
ATOM     35  C   UNL A   1      40.938  28.590  30.805  1.00  0.00     0.031 A 
ATOM     36  C   UNL A   1      41.820  28.536  32.027  1.00  0.00     0.074 A 
ATOM     37  C   UNL A   1      39.965  29.519  30.715  1.00  0.00     0.049 A 
ATOM     38  N   UNL A   1      41.761  29.264  33.114  1.00  0.00    -0.248 NA
ATOM     39  C   UNL A   1      42.902  27.538  32.039  1.00  0.00     0.031 C 
ATOM     40  C   UNL A   1      39.061  29.682  29.572  1.00  0.00     0.029 A 
ATOM     41  N   UNL A   1      39.587  30.516  31.576  1.00  0.00    -0.354 N 
ATOM     42  C   UNL A   1      42.783  28.806  33.940  1.00  0.00     0.074 A 
ATOM     43  C   UNL A   1      43.422  27.709  33.247  1.00  0.00     0.031 C 
ATOM     44  C   UNL A   1      38.280  30.750  29.774  1.00  0.00     0.029 A 
ATOM     45  C   UNL A   1      38.560  31.295  31.098  1.00  0.00     0.049 A 
ATOM     46  H   UNL A   1      40.011  30.662  32.453  1.00  0.00     0.167 HD
ATOM     47  C   UNL A   1      43.160  29.269  35.157  1.00  0.00     0.037 A 
ATOM     48  C   UNL A   1      37.894  32.317  31.665  1.00  0.00     0.037 A 
ATOM     49  C   UNL A   1      42.523  30.374  35.831  1.00  0.00     0.049 A 
ATOM     50  C   UNL A   1      38.284  32.761  33.044  1.00  0.00     0.074 A 
ATOM     51  C   UNL A   1      42.839  30.926  37.061  1.00  0.00     0.029 A 
ATOM     52  N   UNL A   1      41.442  31.093  35.340  1.00  0.00    -0.354 N 
ATOM     53  N   UNL A   1      39.256  32.319  33.806  1.00  0.00    -0.248 NA
ATOM     54  C   UNL A   1      37.485  33.836  33.646  1.00  0.00     0.031 C 
ATOM     55  C   UNL A   1      41.913  31.934  37.340  1.00  0.00     0.029 A 
ATOM     56  C   UNL A   1      41.063  32.062  36.254  1.00  0.00     0.049 A 
ATOM     57  H   UNL A   1      41.010  30.938  34.469  1.00  0.00     0.167 HD
ATOM     58  C   UNL A   1      39.200  33.078  34.968  1.00  0.00     0.074 A 
ATOM     59  C   UNL A   1      38.112  34.019  34.801  1.00  0.00     0.031 C 
ATOM     60  C   UNL A   1      39.981  33.000  36.074  1.00  0.00     0.037 A 
BRANCH  47  61
ATOM     61  C   UNL A   1      44.309  28.589  35.856  1.00  0.00     0.058 A 
ATOM     62  C   UNL A   1      45.636  29.016  35.686  1.00  0.00     0.135 A 
ATOM     63  C   UNL A   1      44.073  27.549  36.772  1.00  0.00     0.135 A 
ATOM     64  F   UNL A   1      45.925  29.997  34.814  1.00  0.00    -0.206 F 
ATOM     65  C   UNL A   1      46.687  28.427  36.382  1.00  0.00     0.059 A 
ATOM     66  C   UNL A   1      45.105  26.966  37.503  1.00  0.00     0.059 A 
ATOM     67  F   UNL A   1      42.825  27.101  36.978  1.00  0.00    -0.206 F 
ATOM     68  C   UNL A   1      46.411  27.406  37.295  1.00  0.00     0.060 A 
BRANCH  68  69
ATOM     69  S   UNL A   1      47.788  26.667  38.198  1.00  0.00     0.124 S 
ATOM     70  O   UNL A   1      47.512  25.243  38.037  1.00  0.00    -0.237 OA
ATOM     71  O   UNL A   1      48.944  27.175  37.466  1.00  0.00    -0.237 OA
ATOM     72  O   UNL A   1      47.627  27.185  39.553  1.00  0.00    -0.744 OA
ENDBRANCH  68  69
ENDBRANCH  47  61
BRANCH  48  73
ATOM     73  C   UNL A   1      36.786  32.976  30.921  1.00  0.00     0.058 A 
ATOM     74  C   UNL A   1      35.448  32.696  31.225  1.00  0.00     0.135 A 
ATOM     75  C   UNL A   1      37.044  33.926  29.918  1.00  0.00     0.135 A 
ATOM     76  F   UNL A   1      35.148  31.793  32.172  1.00  0.00    -0.206 F 
ATOM     77  C   UNL A   1      34.403  33.325  30.556  1.00  0.00     0.059 A 
ATOM     78  C   UNL A   1      36.018  34.593  29.261  1.00  0.00     0.059 A 
ATOM     79  F   UNL A   1      38.310  34.243  29.599  1.00  0.00    -0.206 F 
ATOM     80  C   UNL A   1      34.700  34.280  29.582  1.00  0.00     0.060 A 
BRANCH  80  81
ATOM     81  S   UNL A   1      33.333  35.123  28.758  1.00  0.00     0.124 S 
ATOM     82  O   UNL A   1      34.037  36.148  27.994  1.00  0.00    -0.237 OA
ATOM     83  O   UNL A   1      32.737  34.042  27.979  1.00  0.00    -0.237 OA
ATOM     84  O   UNL A   1      32.519  35.611  29.867  1.00  0.00    -0.744 OA
ENDBRANCH  80  81
ENDBRANCH  48  73
BRANCH  60  85
ATOM     85  C   UNL A   1      39.712  33.973  37.190  1.00  0.00     0.058 A 
ATOM     86  C   UNL A   1      38.914  33.632  38.292  1.00  0.00     0.135 A 
ATOM     87  C   UNL A   1      40.327  35.238  37.193  1.00  0.00     0.135 A 
ATOM     88  F   UNL A   1      38.296  32.441  38.337  1.00  0.00    -0.206 F 
ATOM     89  C   UNL A   1      38.723  34.513  39.351  1.00  0.00     0.059 A 
ATOM     90  C   UNL A   1      40.177  36.121  38.256  1.00  0.00     0.059 A 
ATOM     91  F   UNL A   1      41.108  35.613  36.166  1.00  0.00    -0.206 F 
ATOM     92  C   UNL A   1      39.367  35.753  39.328  1.00  0.00     0.060 A 
BRANCH  92  93
ATOM     93  S   UNL A   1      39.145  36.863  40.734  1.00  0.00     0.124 S 
ATOM     94  O   UNL A   1      38.371  37.946  40.136  1.00  0.00    -0.237 OA
ATOM     95  O   UNL A   1      38.425  36.018  41.682  1.00  0.00    -0.237 OA
ATOM     96  O   UNL A   1      40.510  37.205  41.118  1.00  0.00    -0.744 OA
ENDBRANCH  92  93
ENDBRANCH  60  85
ENDBRANCH  34  35
ENDBRANCH  26  29
ENDBRANCH  24  25
ENDBRANCH   1  24
TORSDOF 16
ENDMDL
MODEL 3
REMARK VINA RESULT:     -11.4      1.700      3.662
REMARK SMILES C#Cc1ccc2c(c1)C=C(C(=O)NCCCCNC(=O)c1ccc(-c3c4nc(c(-c5c(F)cc(S(=O)(=O)[O-])cc5F)c5ccc([nH]5)c(-c5c(F)cc(S(=O)(=O)[O-])cc5F)c5nc(c(-c6c(F)cc(S(=O)(=O)[O-])cc6F)c6ccc3[nH]6)C=C5)C=C4)cc1)[C@@H](C(F)(F)F)O2
REMARK SMILES IDX 16 1 15 2 14 3 13 4 11 5 12 6 10 8 3 9 4 10 8 11 5 12 7 13
REMARK SMILES IDX 6 14 9 15 92 16 87 17 2 18 1 19 88 20 89 21 90 22 91 23
REMARK SMILES IDX 17 24 18 25 19 26 20 28 21 29 22 30 86 31 23 32 85 33 24 34
REMARK SMILES IDX 25 35 26 36 79 37 27 38 84 39 78 40 80 41 28 42 83 43 77 44
REMARK SMILES IDX 76 45 29 47 63 48 42 49 62 50 43 51 46 52 61 53 81 54 44 55
REMARK SMILES IDX 45 56 60 58 82 59 47 60 30 61 31 62 40 63 32 64 33 65 39 66
REMARK SMILES IDX 41 67 34 68 35 69 36 70 37 71 38 72 64 73 65 74 74 75 66 76
REMARK SMILES IDX 67 77 73 78 75 79 68 80 69 81 70 82 71 83 72 84 48 85 49 86
REMARK SMILES IDX 58 87 50 88 51 89 57 90 59 91 52 92 53 93 54 94 55 95 56 96
REMARK H PARENT 13 7 18 27 80 46 46 57
REMARK Flexibility Score: inf
ROOT
ATOM      1  C   UNL A   1      33.455  29.275  25.723  1.00  0.00     0.023 C 
ENDROOT
BRANCH   1   2
ATOM      2  C   UNL A   1      34.036  28.261  24.749  1.00  0.00     0.023 C 
BRANCH   2   3
ATOM      3  C   UNL A   1      33.904  26.823  25.232  1.00  0.00     0.116 C 
BRANCH   3   4
ATOM      4  N   UNL A   1      33.599  25.901  24.150  1.00  0.00    -0.352 N 
ATOM      5  C   UNL A   1      32.543  25.648  23.337  1.00  0.00     0.251 C 
ATOM      6  O   UNL A   1      32.722  24.781  22.477  1.00  0.00    -0.270 OA
ATOM      7  H   UNL A   1      34.357  25.305  23.957  1.00  0.00     0.163 HD
BRANCH   5   8
ATOM      8  C   UNL A   1      31.220  26.335  23.427  1.00  0.00     0.067 C 
ATOM      9  C   UNL A   1      28.418  30.116  22.313  1.00  0.00     0.025 A 
ATOM     10  C   UNL A   1      27.310  29.448  22.839  1.00  0.00     0.021 A 
ATOM     11  C   UNL A   1      29.677  29.503  22.307  1.00  0.00     0.029 A 
ATOM     12  C   UNL A   1      27.458  28.169  23.363  1.00  0.00     0.048 A 
ATOM     13  C   UNL A   1      29.829  28.216  22.833  1.00  0.00     0.018 A 
ATOM     14  C   UNL A   1      28.713  27.566  23.363  1.00  0.00     0.128 A 
ATOM     15  C   UNL A   1      31.109  27.517  22.792  1.00  0.00     0.025 C 
ATOM     16  O   UNL A   1      28.753  26.304  23.869  1.00  0.00    -0.475 OA
ATOM     17  C   UNL A   1      30.060  25.776  24.197  1.00  0.00     0.314 C 
BRANCH   9  18
ATOM     18  C   UNL A   1      28.245  31.426  21.769  1.00  0.00    -0.070 C 
ATOM     19  C   UNL A   1      28.089  32.513  21.280  1.00  0.00     0.010 C 
ENDBRANCH   9  18
BRANCH  17  20
ATOM     20  C   UNL A   1      30.269  25.873  25.722  1.00  0.00     0.429 C 
ATOM     21  F   UNL A   1      31.220  24.993  26.123  1.00  0.00    -0.167 F 
ATOM     22  F   UNL A   1      30.687  27.095  26.123  1.00  0.00    -0.167 F 
ATOM     23  F   UNL A   1      29.143  25.597  26.418  1.00  0.00    -0.167 F 
ENDBRANCH  17  20
ENDBRANCH   5   8
ENDBRANCH   3   4
ENDBRANCH   2   3
ENDBRANCH   1   2
BRANCH   1  24
ATOM     24  C   UNL A   1      33.875  29.071  27.173  1.00  0.00     0.116 C 
BRANCH  24  25
ATOM     25  N   UNL A   1      33.879  30.296  27.970  1.00  0.00    -0.352 N 
ATOM     26  C   UNL A   1      34.913  30.797  28.732  1.00  0.00     0.251 C 
ATOM     27  H   UNL A   1      33.048  30.823  27.961  1.00  0.00     0.163 HD
ATOM     28  O   UNL A   1      34.759  31.785  29.440  1.00  0.00    -0.269 OA
BRANCH  26  29
ATOM     29  C   UNL A   1      36.196  30.070  28.703  1.00  0.00     0.039 A 
ATOM     30  C   UNL A   1      36.654  29.463  29.873  1.00  0.00     0.014 A 
ATOM     31  C   UNL A   1      37.013  30.162  27.575  1.00  0.00     0.014 A 
ATOM     32  C   UNL A   1      38.002  29.164  29.989  1.00  0.00     0.010 A 
ATOM     33  C   UNL A   1      38.340  29.733  27.660  1.00  0.00     0.010 A 
ATOM     34  C   UNL A   1      38.864  29.292  28.886  1.00  0.00    -0.014 A 
BRANCH  34  35
ATOM     35  C   UNL A   1      40.304  28.958  29.050  1.00  0.00     0.031 A 
ATOM     36  C   UNL A   1      40.845  27.606  28.657  1.00  0.00     0.074 A 
ATOM     37  C   UNL A   1      41.139  29.913  29.506  1.00  0.00     0.049 A 
ATOM     38  N   UNL A   1      42.074  27.159  28.736  1.00  0.00    -0.248 NA
ATOM     39  C   UNL A   1      39.891  26.626  28.111  1.00  0.00     0.031 C 
ATOM     40  C   UNL A   1      40.735  31.266  29.899  1.00  0.00     0.029 A 
ATOM     41  N   UNL A   1      42.498  29.910  29.692  1.00  0.00    -0.354 N 
ATOM     42  C   UNL A   1      42.039  25.850  28.266  1.00  0.00     0.074 A 
ATOM     43  C   UNL A   1      40.660  25.559  27.941  1.00  0.00     0.031 C 
ATOM     44  C   UNL A   1      41.823  31.978  30.217  1.00  0.00     0.029 A 
ATOM     45  C   UNL A   1      42.992  31.111  30.141  1.00  0.00     0.049 A 
ATOM     46  H   UNL A   1      43.064  29.124  29.519  1.00  0.00     0.167 HD
ATOM     47  C   UNL A   1      43.066  24.980  28.107  1.00  0.00     0.037 A 
ATOM     48  C   UNL A   1      44.242  31.475  30.484  1.00  0.00     0.037 A 
ATOM     49  C   UNL A   1      44.440  25.289  28.422  1.00  0.00     0.049 A 
ATOM     50  C   UNL A   1      45.347  30.468  30.368  1.00  0.00     0.074 A 
ATOM     51  C   UNL A   1      45.554  24.478  28.284  1.00  0.00     0.029 A 
ATOM     52  N   UNL A   1      44.888  26.497  28.937  1.00  0.00    -0.354 N 
ATOM     53  N   UNL A   1      45.296  29.237  29.916  1.00  0.00    -0.248 NA
ATOM     54  C   UNL A   1      46.681  30.891  30.814  1.00  0.00     0.031 C 
ATOM     55  C   UNL A   1      46.663  25.172  28.775  1.00  0.00     0.029 A 
ATOM     56  C   UNL A   1      46.256  26.441  29.151  1.00  0.00     0.049 A 
ATOM     57  H   UNL A   1      44.319  27.278  29.124  1.00  0.00     0.167 HD
ATOM     58  C   UNL A   1      46.593  28.747  30.001  1.00  0.00     0.074 A 
ATOM     59  C   UNL A   1      47.410  29.820  30.531  1.00  0.00     0.031 C 
ATOM     60  C   UNL A   1      47.062  27.519  29.672  1.00  0.00     0.037 A 
BRANCH  47  61
ATOM     61  C   UNL A   1      42.760  23.603  27.576  1.00  0.00     0.058 A 
ATOM     62  C   UNL A   1      42.802  23.313  26.203  1.00  0.00     0.135 A 
ATOM     63  C   UNL A   1      42.502  22.539  28.457  1.00  0.00     0.135 A 
ATOM     64  F   UNL A   1      43.032  24.291  25.311  1.00  0.00    -0.206 F 
ATOM     65  C   UNL A   1      42.583  22.026  25.722  1.00  0.00     0.059 A 
ATOM     66  C   UNL A   1      42.310  21.237  28.001  1.00  0.00     0.059 A 
ATOM     67  F   UNL A   1      42.452  22.755  29.781  1.00  0.00    -0.206 F 
ATOM     68  C   UNL A   1      42.344  20.992  26.630  1.00  0.00     0.060 A 
BRANCH  68  69
ATOM     69  S   UNL A   1      42.076  19.328  25.984  1.00  0.00     0.124 S 
ATOM     70  O   UNL A   1      42.917  19.338  24.791  1.00  0.00    -0.237 OA
ATOM     71  O   UNL A   1      42.546  18.491  27.083  1.00  0.00    -0.237 OA
ATOM     72  O   UNL A   1      40.639  19.284  25.734  1.00  0.00    -0.744 OA
ENDBRANCH  68  69
ENDBRANCH  47  61
BRANCH  48  73
ATOM     73  C   UNL A   1      44.497  32.857  30.974  1.00  0.00     0.058 A 
ATOM     74  C   UNL A   1      44.827  33.887  30.084  1.00  0.00     0.135 A 
ATOM     75  C   UNL A   1      44.378  33.182  32.335  1.00  0.00     0.135 A 
ATOM     76  F   UNL A   1      44.958  33.627  28.773  1.00  0.00    -0.206 F 
ATOM     77  C   UNL A   1      45.041  35.189  30.524  1.00  0.00     0.059 A 
ATOM     78  C   UNL A   1      44.551  34.482  32.795  1.00  0.00     0.059 A 
ATOM     79  F   UNL A   1      44.047  32.235  33.228  1.00  0.00    -0.206 F 
ATOM     80  C   UNL A   1      44.890  35.477  31.882  1.00  0.00     0.060 A 
BRANCH  80  81
ATOM     81  S   UNL A   1      45.122  37.181  32.431  1.00  0.00     0.124 S 
ATOM     82  O   UNL A   1      45.995  37.710  31.390  1.00  0.00    -0.237 OA
ATOM     83  O   UNL A   1      43.752  37.685  32.434  1.00  0.00    -0.237 OA
ATOM     84  O   UNL A   1      45.731  37.031  33.749  1.00  0.00    -0.744 OA
ENDBRANCH  80  81
ENDBRANCH  48  73
BRANCH  60  85
ATOM     85  C   UNL A   1      48.535  27.264  29.846  1.00  0.00     0.058 A 
ATOM     86  C   UNL A   1      49.467  27.615  28.858  1.00  0.00     0.135 A 
ATOM     87  C   UNL A   1      49.027  26.734  31.052  1.00  0.00     0.135 A 
ATOM     88  F   UNL A   1      49.052  28.118  27.684  1.00  0.00    -0.206 F 
ATOM     89  C   UNL A   1      50.833  27.436  29.051  1.00  0.00     0.059 A 
ATOM     90  C   UNL A   1      50.389  26.578  31.280  1.00  0.00     0.059 A 
ATOM     91  F   UNL A   1      48.179  26.389  32.034  1.00  0.00    -0.206 F 
ATOM     92  C   UNL A   1      51.285  26.925  30.270  1.00  0.00     0.060 A 
BRANCH  92  93
ATOM     93  S   UNL A   1      53.064  26.746  30.520  1.00  0.00     0.124 S 
ATOM     94  O   UNL A   1      53.432  28.078  30.991  1.00  0.00    -0.237 OA
ATOM     95  O   UNL A   1      53.129  25.681  31.516  1.00  0.00    -0.237 OA
ATOM     96  O   UNL A   1      53.560  26.390  29.195  1.00  0.00    -0.744 OA
ENDBRANCH  92  93
ENDBRANCH  60  85
ENDBRANCH  34  35
ENDBRANCH  26  29
ENDBRANCH  24  25
ENDBRANCH   1  24
TORSDOF 16
ENDMDL
