MODEL 1
REMARK VINA RESULT:     -11.0      0.000      0.000
REMARK SMILES Nc1c(Br)cc(C(=O)NCCCCNC(=O)c2ccc(-c3c4nc(c(-c5c(F)cc(S(=O)(=O)[O-])cc5F)c5ccc([nH]5)c(-c5c(F)cc(S(=O)(=O)[O-])cc5F)c5nc(c(-c6c(F)cc(S(=O)(=O)[O-])cc6F)c6ccc3[nH]6)C=C5)C=C4)cc2)cc1Br
REMARK SMILES IDX 12 1 11 2 10 3 9 4 7 5 8 6 6 8 2 9 3 10 84 11 4 12 5 13
REMARK SMILES IDX 83 14 85 15 1 16 13 19 14 20 15 21 16 23 17 24 18 25 82 26
REMARK SMILES IDX 19 27 81 28 20 29 21 30 22 31 75 32 23 33 80 34 74 35 76 36
REMARK SMILES IDX 24 37 79 38 73 39 72 40 25 42 59 43 38 44 58 45 39 46 42 47
REMARK SMILES IDX 57 48 77 49 40 50 41 51 56 53 78 54 43 55 26 56 27 57 36 58
REMARK SMILES IDX 28 59 29 60 35 61 37 62 30 63 31 64 32 65 33 66 34 67 60 68
REMARK SMILES IDX 61 69 70 70 62 71 63 72 69 73 71 74 64 75 65 76 66 77 67 78
REMARK SMILES IDX 68 79 44 80 45 81 54 82 46 83 47 84 53 85 55 86 48 87 49 88
REMARK SMILES IDX 50 89 51 90 52 91
REMARK H PARENT 9 7 1 17 1 18 14 22 76 41 42 52
REMARK Flexibility Score: inf
ROOT
ATOM      1  C   UNL A   1      32.282  27.793  26.982  1.00  0.00     0.023 C 
ENDROOT
BRANCH   1   2
ATOM      2  C   UNL A   1      32.258  26.738  25.870  1.00  0.00     0.023 C 
BRANCH   2   3
ATOM      3  C   UNL A   1      33.641  26.336  25.351  1.00  0.00     0.116 C 
BRANCH   3   4
ATOM      4  N   UNL A   1      33.599  26.078  23.925  1.00  0.00    -0.352 N 
ATOM      5  C   UNL A   1      33.906  24.981  23.164  1.00  0.00     0.251 C 
ATOM      6  O   UNL A   1      33.737  25.076  21.948  1.00  0.00    -0.269 OA
ATOM      7  H   UNL A   1      33.286  26.847  23.397  1.00  0.00     0.163 HD
BRANCH   5   8
ATOM      8  C   UNL A   1      34.389  23.680  23.712  1.00  0.00     0.042 A 
ATOM      9  C   UNL A   1      35.104  21.107  24.712  1.00  0.00     0.060 A 
ATOM     10  C   UNL A   1      36.029  22.162  24.664  1.00  0.00     0.042 A 
ATOM     11  C   UNL A   1      33.807  21.372  24.247  1.00  0.00     0.042 A 
ATOM     12  Br  UNL A   1      37.810  21.926  25.301  1.00  0.00    -0.049 Br
ATOM     13  C   UNL A   1      35.691  23.417  24.139  1.00  0.00     0.031 A 
ATOM     14  C   UNL A   1      33.455  22.634  23.755  1.00  0.00     0.031 A 
ATOM     15  Br  UNL A   1      32.472  20.016  24.247  1.00  0.00    -0.049 Br
BRANCH   9  16
ATOM     16  N   UNL A   1      35.429  19.882  25.293  1.00  0.00    -0.397 N 
ATOM     17  H   UNL A   1      34.727  19.337  25.715  1.00  0.00     0.156 HD
ATOM     18  H   UNL A   1      36.361  19.564  25.282  1.00  0.00     0.156 HD
ENDBRANCH   9  16
ENDBRANCH   5   8
ENDBRANCH   3   4
ENDBRANCH   2   3
ENDBRANCH   1   2
BRANCH   1  19
ATOM     19  C   UNL A   1      33.637  28.453  27.225  1.00  0.00     0.116 C 
BRANCH  19  20
ATOM     20  N   UNL A   1      33.532  29.841  27.646  1.00  0.00    -0.352 N 
ATOM     21  C   UNL A   1      34.489  30.636  28.236  1.00  0.00     0.251 C 
ATOM     22  H   UNL A   1      32.660  30.270  27.488  1.00  0.00     0.163 HD
ATOM     23  O   UNL A   1      34.201  31.760  28.618  1.00  0.00    -0.269 OA
BRANCH  21  24
ATOM     24  C   UNL A   1      35.852  30.101  28.438  1.00  0.00     0.039 A 
ATOM     25  C   UNL A   1      36.753  30.146  27.372  1.00  0.00     0.014 A 
ATOM     26  C   UNL A   1      36.246  29.585  29.675  1.00  0.00     0.014 A 
ATOM     27  C   UNL A   1      38.074  29.737  27.567  1.00  0.00     0.010 A 
ATOM     28  C   UNL A   1      37.576  29.233  29.885  1.00  0.00     0.010 A 
ATOM     29  C   UNL A   1      38.504  29.313  28.835  1.00  0.00    -0.014 A 
BRANCH  29  30
ATOM     30  C   UNL A   1      39.926  28.970  29.087  1.00  0.00     0.031 A 
ATOM     31  C   UNL A   1      40.867  30.004  29.638  1.00  0.00     0.074 A 
ATOM     32  C   UNL A   1      40.381  27.747  28.750  1.00  0.00     0.049 A 
ATOM     33  N   UNL A   1      42.153  29.913  29.861  1.00  0.00    -0.248 NA
ATOM     34  C   UNL A   1      40.294  31.321  29.956  1.00  0.00     0.031 C 
ATOM     35  C   UNL A   1      39.575  26.678  28.156  1.00  0.00     0.029 A 
ATOM     36  N   UNL A   1      41.636  27.200  28.849  1.00  0.00    -0.354 N 
ATOM     37  C   UNL A   1      42.545  31.159  30.330  1.00  0.00     0.074 A 
ATOM     38  C   UNL A   1      41.371  32.004  30.317  1.00  0.00     0.031 C 
ATOM     39  C   UNL A   1      40.351  25.599  27.960  1.00  0.00     0.029 A 
ATOM     40  C   UNL A   1      41.713  25.908  28.384  1.00  0.00     0.049 A 
ATOM     41  H   UNL A   1      42.408  27.686  29.218  1.00  0.00     0.167 HD
ATOM     42  C   UNL A   1      43.769  31.558  30.754  1.00  0.00     0.037 A 
ATOM     43  C   UNL A   1      42.764  25.070  28.303  1.00  0.00     0.037 A 
ATOM     44  C   UNL A   1      44.927  30.704  30.792  1.00  0.00     0.049 A 
ATOM     45  C   UNL A   1      44.109  25.529  28.795  1.00  0.00     0.074 A 
ATOM     46  C   UNL A   1      46.195  30.993  31.266  1.00  0.00     0.029 A 
ATOM     47  N   UNL A   1      44.960  29.394  30.339  1.00  0.00    -0.354 N 
ATOM     48  N   UNL A   1      44.447  26.692  29.299  1.00  0.00    -0.248 NA
ATOM     49  C   UNL A   1      45.213  24.563  28.712  1.00  0.00     0.031 C 
ATOM     50  C   UNL A   1      47.003  29.868  31.069  1.00  0.00     0.029 A 
ATOM     51  C   UNL A   1      46.229  28.865  30.507  1.00  0.00     0.049 A 
ATOM     52  H   UNL A   1      44.194  28.910  29.955  1.00  0.00     0.167 HD
ATOM     53  C   UNL A   1      45.797  26.591  29.611  1.00  0.00     0.074 A 
ATOM     54  C   UNL A   1      46.211  25.250  29.252  1.00  0.00     0.031 C 
ATOM     55  C   UNL A   1      46.621  27.527  30.146  1.00  0.00     0.037 A 
BRANCH  42  56
ATOM     56  C   UNL A   1      43.912  32.980  31.220  1.00  0.00     0.058 A 
ATOM     57  C   UNL A   1      43.753  33.328  32.571  1.00  0.00     0.135 A 
ATOM     58  C   UNL A   1      44.237  34.002  30.314  1.00  0.00     0.135 A 
ATOM     59  F   UNL A   1      43.427  32.392  33.476  1.00  0.00    -0.206 F 
ATOM     60  C   UNL A   1      43.880  34.644  33.003  1.00  0.00     0.059 A 
ATOM     61  C   UNL A   1      44.394  35.321  30.727  1.00  0.00     0.059 A 
ATOM     62  F   UNL A   1      44.400  33.723  29.010  1.00  0.00    -0.206 F 
ATOM     63  C   UNL A   1      44.197  35.635  32.072  1.00  0.00     0.060 A 
BRANCH  63  64
ATOM     64  S   UNL A   1      44.355  37.339  32.645  1.00  0.00     0.124 S 
ATOM     65  O   UNL A   1      44.354  38.070  31.382  1.00  0.00    -0.237 OA
ATOM     66  O   UNL A   1      43.164  37.504  33.472  1.00  0.00    -0.237 OA
ATOM     67  O   UNL A   1      45.622  37.338  33.370  1.00  0.00    -0.744 OA
ENDBRANCH  63  64
ENDBRANCH  42  56
BRANCH  43  68
ATOM     68  C   UNL A   1      42.579  23.700  27.758  1.00  0.00     0.058 A 
ATOM     69  C   UNL A   1      42.615  23.465  26.375  1.00  0.00     0.135 A 
ATOM     70  C   UNL A   1      42.380  22.598  28.604  1.00  0.00     0.135 A 
ATOM     71  F   UNL A   1      42.798  24.488  25.527  1.00  0.00    -0.206 F 
ATOM     72  C   UNL A   1      42.445  22.189  25.849  1.00  0.00     0.059 A 
ATOM     73  C   UNL A   1      42.229  21.309  28.102  1.00  0.00     0.059 A 
ATOM     74  F   UNL A   1      42.355  22.769  29.935  1.00  0.00    -0.206 F 
ATOM     75  C   UNL A   1      42.254  21.117  26.721  1.00  0.00     0.060 A 
BRANCH  75  76
ATOM     76  S   UNL A   1      42.087  19.456  26.031  1.00  0.00     0.124 S 
ATOM     77  O   UNL A   1      42.602  18.633  27.119  1.00  0.00    -0.237 OA
ATOM     78  O   UNL A   1      40.650  19.366  25.786  1.00  0.00    -0.237 OA
ATOM     79  O   UNL A   1      42.916  19.509  24.830  1.00  0.00    -0.744 OA
ENDBRANCH  75  76
ENDBRANCH  43  68
BRANCH  55  80
ATOM     80  C   UNL A   1      48.048  27.124  30.395  1.00  0.00     0.058 A 
ATOM     81  C   UNL A   1      49.067  27.432  29.482  1.00  0.00     0.135 A 
ATOM     82  C   UNL A   1      48.405  26.470  31.585  1.00  0.00     0.135 A 
ATOM     83  F   UNL A   1      48.775  28.052  28.328  1.00  0.00    -0.206 F 
ATOM     84  C   UNL A   1      50.392  27.089  29.731  1.00  0.00     0.059 A 
ATOM     85  C   UNL A   1      49.726  26.137  31.865  1.00  0.00     0.059 A 
ATOM     86  F   UNL A   1      47.467  26.160  32.494  1.00  0.00    -0.206 F 
ATOM     87  C   UNL A   1      50.712  26.441  30.926  1.00  0.00     0.060 A 
BRANCH  87  88
ATOM     88  S   UNL A   1      52.439  26.032  31.257  1.00  0.00     0.124 S 
ATOM     89  O   UNL A   1      52.842  27.138  32.119  1.00  0.00    -0.237 OA
ATOM     90  O   UNL A   1      52.334  24.728  31.904  1.00  0.00    -0.237 OA
ATOM     91  O   UNL A   1      53.044  26.017  29.928  1.00  0.00    -0.744 OA
ENDBRANCH  87  88
ENDBRANCH  55  80
ENDBRANCH  29  30
ENDBRANCH  21  24
ENDBRANCH  19  20
ENDBRANCH   1  19
TORSDOF 15
ENDMDL
MODEL 2
REMARK VINA RESULT:     -10.7      5.111     10.611
REMARK SMILES Nc1c(Br)cc(C(=O)NCCCCNC(=O)c2ccc(-c3c4nc(c(-c5c(F)cc(S(=O)(=O)[O-])cc5F)c5ccc([nH]5)c(-c5c(F)cc(S(=O)(=O)[O-])cc5F)c5nc(c(-c6c(F)cc(S(=O)(=O)[O-])cc6F)c6ccc3[nH]6)C=C5)C=C4)cc2)cc1Br
REMARK SMILES IDX 12 1 11 2 10 3 9 4 7 5 8 6 6 8 2 9 3 10 84 11 4 12 5 13
REMARK SMILES IDX 83 14 85 15 1 16 13 19 14 20 15 21 16 23 17 24 18 25 82 26
REMARK SMILES IDX 19 27 81 28 20 29 21 30 22 31 75 32 23 33 80 34 74 35 76 36
REMARK SMILES IDX 24 37 79 38 73 39 72 40 25 42 59 43 38 44 58 45 39 46 42 47
REMARK SMILES IDX 57 48 77 49 40 50 41 51 56 53 78 54 43 55 26 56 27 57 36 58
REMARK SMILES IDX 28 59 29 60 35 61 37 62 30 63 31 64 32 65 33 66 34 67 60 68
REMARK SMILES IDX 61 69 70 70 62 71 63 72 69 73 71 74 64 75 65 76 66 77 67 78
REMARK SMILES IDX 68 79 44 80 45 81 54 82 46 83 47 84 53 85 55 86 48 87 49 88
REMARK SMILES IDX 50 89 51 90 52 91
REMARK H PARENT 9 7 1 17 1 18 14 22 76 41 42 52
REMARK Flexibility Score: inf
ROOT
ATOM      1  C   UNL A   1      40.434  22.099  26.805  1.00  0.00     0.023 C 
ENDROOT
BRANCH   1   2
ATOM      2  C   UNL A   1      39.063  22.715  26.500  1.00  0.00     0.023 C 
BRANCH   2   3
ATOM      3  C   UNL A   1      38.097  21.776  25.774  1.00  0.00     0.116 C 
BRANCH   3   4
ATOM      4  N   UNL A   1      37.776  22.290  24.456  1.00  0.00    -0.352 N 
ATOM      5  C   UNL A   1      36.595  22.609  23.840  1.00  0.00     0.251 C 
ATOM      6  O   UNL A   1      36.662  23.055  22.694  1.00  0.00    -0.269 OA
ATOM      7  H   UNL A   1      38.567  22.440  23.891  1.00  0.00     0.163 HD
BRANCH   5   8
ATOM      8  C   UNL A   1      35.250  22.489  24.475  1.00  0.00     0.042 A 
ATOM      9  C   UNL A   1      32.701  22.032  25.668  1.00  0.00     0.060 A 
ATOM     10  C   UNL A   1      33.232  23.325  25.538  1.00  0.00     0.042 A 
ATOM     11  C   UNL A   1      33.479  20.969  25.185  1.00  0.00     0.042 A 
ATOM     12  Br  UNL A   1      32.248  24.847  26.127  1.00  0.00    -0.049 Br
ATOM     13  C   UNL A   1      34.500  23.549  24.984  1.00  0.00     0.031 A 
ATOM     14  C   UNL A   1      34.730  21.192  24.601  1.00  0.00     0.031 A 
ATOM     15  Br  UNL A   1      32.872  19.171  25.324  1.00  0.00    -0.049 Br
BRANCH   9  16
ATOM     16  N   UNL A   1      31.414  21.823  26.161  1.00  0.00    -0.397 N 
ATOM     17  H   UNL A   1      31.072  22.380  26.896  1.00  0.00     0.156 HD
ATOM     18  H   UNL A   1      30.847  21.117  25.773  1.00  0.00     0.156 HD
ENDBRANCH   9  16
ENDBRANCH   5   8
ENDBRANCH   3   4
ENDBRANCH   2   3
ENDBRANCH   1   2
BRANCH   1  19
ATOM     19  C   UNL A   1      41.553  23.102  27.074  1.00  0.00     0.116 C 
BRANCH  19  20
ATOM     20  N   UNL A   1      41.829  23.972  25.941  1.00  0.00    -0.352 N 
ATOM     21  C   UNL A   1      41.895  25.347  25.908  1.00  0.00     0.251 C 
ATOM     22  H   UNL A   1      41.991  23.517  25.083  1.00  0.00     0.163 HD
ATOM     23  O   UNL A   1      42.040  25.927  24.843  1.00  0.00    -0.269 OA
BRANCH  21  24
ATOM     24  C   UNL A   1      41.744  26.111  27.166  1.00  0.00     0.039 A 
ATOM     25  C   UNL A   1      42.733  27.035  27.508  1.00  0.00     0.014 A 
ATOM     26  C   UNL A   1      40.625  25.936  27.983  1.00  0.00     0.014 A 
ATOM     27  C   UNL A   1      42.565  27.838  28.638  1.00  0.00     0.010 A 
ATOM     28  C   UNL A   1      40.430  26.777  29.075  1.00  0.00     0.010 A 
ATOM     29  C   UNL A   1      41.395  27.740  29.409  1.00  0.00    -0.014 A 
BRANCH  29  30
ATOM     30  C   UNL A   1      41.154  28.653  30.555  1.00  0.00     0.031 A 
ATOM     31  C   UNL A   1      41.966  28.519  31.812  1.00  0.00     0.074 A 
ATOM     32  C   UNL A   1      40.154  29.554  30.483  1.00  0.00     0.049 A 
ATOM     33  N   UNL A   1      41.856  29.177  32.938  1.00  0.00    -0.248 NA
ATOM     34  C   UNL A   1      43.021  27.495  31.816  1.00  0.00     0.031 C 
ATOM     35  C   UNL A   1      39.263  29.739  29.335  1.00  0.00     0.029 A 
ATOM     36  N   UNL A   1      39.712  30.476  31.398  1.00  0.00    -0.354 N 
ATOM     37  C   UNL A   1      42.815  28.639  33.786  1.00  0.00     0.074 A 
ATOM     38  C   UNL A   1      43.467  27.569  33.062  1.00  0.00     0.031 C 
ATOM     39  C   UNL A   1      38.393  30.725  29.610  1.00  0.00     0.029 A 
ATOM     40  C   UNL A   1      38.643  31.220  30.959  1.00  0.00     0.049 A 
ATOM     41  H   UNL A   1      40.122  30.592  32.286  1.00  0.00     0.167 HD
ATOM     42  C   UNL A   1      43.138  29.016  35.046  1.00  0.00     0.037 A 
ATOM     43  C   UNL A   1      37.940  32.188  31.578  1.00  0.00     0.037 A 
ATOM     44  C   UNL A   1      42.505  30.100  35.750  1.00  0.00     0.049 A 
ATOM     45  C   UNL A   1      38.327  32.601  32.971  1.00  0.00     0.074 A 
ATOM     46  C   UNL A   1      42.805  30.604  37.005  1.00  0.00     0.029 A 
ATOM     47  N   UNL A   1      41.445  30.850  35.263  1.00  0.00    -0.354 N 
ATOM     48  N   UNL A   1      39.282  32.125  33.734  1.00  0.00    -0.248 NA
ATOM     49  C   UNL A   1      37.546  33.684  33.585  1.00  0.00     0.031 C 
ATOM     50  C   UNL A   1      41.904  31.636  37.289  1.00  0.00     0.029 A 
ATOM     51  C   UNL A   1      41.067  31.801  36.197  1.00  0.00     0.049 A 
ATOM     52  H   UNL A   1      41.023  30.725  34.383  1.00  0.00     0.167 HD
ATOM     53  C   UNL A   1      39.230  32.863  34.910  1.00  0.00     0.074 A 
ATOM     54  C   UNL A   1      38.158  33.825  34.754  1.00  0.00     0.031 C 
ATOM     55  C   UNL A   1      40.000  32.752  36.021  1.00  0.00     0.037 A 
BRANCH  42  56
ATOM     56  C   UNL A   1      44.233  28.254  35.739  1.00  0.00     0.058 A 
ATOM     57  C   UNL A   1      45.580  28.630  35.614  1.00  0.00     0.135 A 
ATOM     58  C   UNL A   1      43.933  27.154  36.557  1.00  0.00     0.135 A 
ATOM     59  F   UNL A   1      45.923  29.665  34.832  1.00  0.00    -0.206 F 
ATOM     60  C   UNL A   1      46.594  27.922  36.250  1.00  0.00     0.059 A 
ATOM     61  C   UNL A   1      44.928  26.446  37.224  1.00  0.00     0.059 A 
ATOM     62  F   UNL A   1      42.660  26.752  36.711  1.00  0.00    -0.206 F 
ATOM     63  C   UNL A   1      46.258  26.829  37.050  1.00  0.00     0.060 A 
BRANCH  63  64
ATOM     64  S   UNL A   1      47.585  25.917  37.867  1.00  0.00     0.124 S 
ATOM     65  O   UNL A   1      48.424  25.546  36.732  1.00  0.00    -0.237 OA
ATOM     66  O   UNL A   1      48.146  26.919  38.768  1.00  0.00    -0.237 OA
ATOM     67  O   UNL A   1      46.887  24.814  38.520  1.00  0.00    -0.744 OA
ENDBRANCH  63  64
ENDBRANCH  42  56
BRANCH  43  68
ATOM     68  C   UNL A   1      36.814  32.853  30.871  1.00  0.00     0.058 A 
ATOM     69  C   UNL A   1      35.483  32.542  31.187  1.00  0.00     0.135 A 
ATOM     70  C   UNL A   1      37.042  33.821  29.882  1.00  0.00     0.135 A 
ATOM     71  F   UNL A   1      35.215  31.619  32.123  1.00  0.00    -0.206 F 
ATOM     72  C   UNL A   1      34.417  33.155  30.536  1.00  0.00     0.059 A 
ATOM     73  C   UNL A   1      35.993  34.464  29.233  1.00  0.00     0.059 A 
ATOM     74  F   UNL A   1      38.298  34.166  29.556  1.00  0.00    -0.206 F 
ATOM     75  C   UNL A   1      34.684  34.116  29.561  1.00  0.00     0.060 A 
BRANCH  75  76
ATOM     76  S   UNL A   1      33.293  34.946  28.759  1.00  0.00     0.124 S 
ATOM     77  O   UNL A   1      33.973  35.990  28.001  1.00  0.00    -0.237 OA
ATOM     78  O   UNL A   1      32.702  33.868  27.972  1.00  0.00    -0.237 OA
ATOM     79  O   UNL A   1      32.485  35.405  29.884  1.00  0.00    -0.744 OA
ENDBRANCH  75  76
ENDBRANCH  43  68
BRANCH  55  80
ATOM     80  C   UNL A   1      39.725  33.710  37.147  1.00  0.00     0.058 A 
ATOM     81  C   UNL A   1      38.749  33.440  38.118  1.00  0.00     0.135 A 
ATOM     82  C   UNL A   1      40.481  34.885  37.282  1.00  0.00     0.135 A 
ATOM     83  F   UNL A   1      37.996  32.333  38.029  1.00  0.00    -0.206 F 
ATOM     84  C   UNL A   1      38.520  34.312  39.177  1.00  0.00     0.059 A 
ATOM     85  C   UNL A   1      40.284  35.760  38.345  1.00  0.00     0.059 A 
ATOM     86  F   UNL A   1      41.432  35.184  36.383  1.00  0.00    -0.206 F 
ATOM     87  C   UNL A   1      39.293  35.470  39.283  1.00  0.00     0.060 A 
BRANCH  87  88
ATOM     88  S   UNL A   1      39.013  36.576  40.681  1.00  0.00     0.124 S 
ATOM     89  O   UNL A   1      38.245  35.723  41.581  1.00  0.00    -0.237 OA
ATOM     90  O   UNL A   1      40.373  36.889  41.111  1.00  0.00    -0.237 OA
ATOM     91  O   UNL A   1      38.279  37.691  40.090  1.00  0.00    -0.744 OA
ENDBRANCH  87  88
ENDBRANCH  55  80
ENDBRANCH  29  30
ENDBRANCH  21  24
ENDBRANCH  19  20
ENDBRANCH   1  19
TORSDOF 15
ENDMDL
MODEL 3
REMARK VINA RESULT:     -10.6      3.730      8.133
REMARK SMILES Nc1c(Br)cc(C(=O)NCCCCNC(=O)c2ccc(-c3c4nc(c(-c5c(F)cc(S(=O)(=O)[O-])cc5F)c5ccc([nH]5)c(-c5c(F)cc(S(=O)(=O)[O-])cc5F)c5nc(c(-c6c(F)cc(S(=O)(=O)[O-])cc6F)c6ccc3[nH]6)C=C5)C=C4)cc2)cc1Br
REMARK SMILES IDX 12 1 11 2 10 3 9 4 7 5 8 6 6 8 2 9 3 10 84 11 4 12 5 13
REMARK SMILES IDX 83 14 85 15 1 16 13 19 14 20 15 21 16 23 17 24 18 25 82 26
REMARK SMILES IDX 19 27 81 28 20 29 21 30 22 31 75 32 23 33 80 34 74 35 76 36
REMARK SMILES IDX 24 37 79 38 73 39 72 40 25 42 59 43 38 44 58 45 39 46 42 47
REMARK SMILES IDX 57 48 77 49 40 50 41 51 56 53 78 54 43 55 26 56 27 57 36 58
REMARK SMILES IDX 28 59 29 60 35 61 37 62 30 63 31 64 32 65 33 66 34 67 60 68
REMARK SMILES IDX 61 69 70 70 62 71 63 72 69 73 71 74 64 75 65 76 66 77 67 78
REMARK SMILES IDX 68 79 44 80 45 81 54 82 46 83 47 84 53 85 55 86 48 87 49 88
REMARK SMILES IDX 50 89 51 90 52 91
REMARK H PARENT 9 7 1 17 1 18 14 22 76 41 42 52
REMARK Flexibility Score: inf
ROOT
ATOM      1  C   UNL A   1      38.013  20.409  25.086  1.00  0.00     0.023 C 
ENDROOT
BRANCH   1   2
ATOM      2  C   UNL A   1      37.339  21.654  24.498  1.00  0.00     0.023 C 
BRANCH   2   3
ATOM      3  C   UNL A   1      37.050  22.757  25.519  1.00  0.00     0.116 C 
BRANCH   3   4
ATOM      4  N   UNL A   1      36.150  22.277  26.551  1.00  0.00    -0.352 N 
ATOM      5  C   UNL A   1      34.850  21.845  26.530  1.00  0.00     0.251 C 
ATOM      6  O   UNL A   1      34.365  21.473  27.599  1.00  0.00    -0.269 OA
ATOM      7  H   UNL A   1      36.556  22.258  27.447  1.00  0.00     0.163 HD
BRANCH   5   8
ATOM      8  C   UNL A   1      34.006  21.760  25.302  1.00  0.00     0.042 A 
ATOM      9  C   UNL A   1      32.387  21.368  22.988  1.00  0.00     0.060 A 
ATOM     10  C   UNL A   1      32.771  22.650  23.410  1.00  0.00     0.042 A 
ATOM     11  C   UNL A   1      32.834  20.281  23.756  1.00  0.00     0.042 A 
ATOM     12  Br  UNL A   1      32.250  24.196  22.425  1.00  0.00    -0.049 Br
ATOM     13  C   UNL A   1      33.537  22.848  24.567  1.00  0.00     0.031 A 
ATOM     14  C   UNL A   1      33.628  20.472  24.892  1.00  0.00     0.031 A 
ATOM     15  Br  UNL A   1      32.362  18.497  23.293  1.00  0.00    -0.049 Br
BRANCH   9  16
ATOM     16  N   UNL A   1      31.679  21.175  21.803  1.00  0.00    -0.397 N 
ATOM     17  H   UNL A   1      31.976  20.493  21.159  1.00  0.00     0.156 HD
ATOM     18  H   UNL A   1      30.883  21.721  21.610  1.00  0.00     0.156 HD
ENDBRANCH   9  16
ENDBRANCH   5   8
ENDBRANCH   3   4
ENDBRANCH   2   3
ENDBRANCH   1   2
BRANCH   1  19
ATOM     19  C   UNL A   1      39.296  20.671  25.871  1.00  0.00     0.116 C 
BRANCH  19  20
ATOM     20  N   UNL A   1      40.184  19.521  25.922  1.00  0.00    -0.352 N 
ATOM     21  C   UNL A   1      41.545  19.493  26.125  1.00  0.00     0.251 C 
ATOM     22  H   UNL A   1      39.754  18.644  25.793  1.00  0.00     0.163 HD
ATOM     23  O   UNL A   1      42.156  18.439  26.038  1.00  0.00    -0.269 OA
BRANCH  21  24
ATOM     24  C   UNL A   1      42.262  20.756  26.406  1.00  0.00     0.039 A 
ATOM     25  C   UNL A   1      42.723  21.516  25.329  1.00  0.00     0.014 A 
ATOM     26  C   UNL A   1      42.453  21.198  27.717  1.00  0.00     0.014 A 
ATOM     27  C   UNL A   1      43.315  22.759  25.564  1.00  0.00     0.010 A 
ATOM     28  C   UNL A   1      42.990  22.462  27.948  1.00  0.00     0.010 A 
ATOM     29  C   UNL A   1      43.419  23.256  26.874  1.00  0.00    -0.014 A 
BRANCH  29  30
ATOM     30  C   UNL A   1      43.954  24.616  27.136  1.00  0.00     0.031 A 
ATOM     31  C   UNL A   1      43.032  25.721  27.570  1.00  0.00     0.074 A 
ATOM     32  C   UNL A   1      45.259  24.868  26.915  1.00  0.00     0.049 A 
ATOM     33  N   UNL A   1      43.300  26.983  27.781  1.00  0.00    -0.248 NA
ATOM     34  C   UNL A   1      41.617  25.366  27.766  1.00  0.00     0.031 C 
ATOM     35  C   UNL A   1      46.241  23.890  26.440  1.00  0.00     0.029 A 
ATOM     36  N   UNL A   1      45.983  26.026  27.048  1.00  0.00    -0.354 N 
ATOM     37  C   UNL A   1      42.091  27.576  28.120  1.00  0.00     0.074 A 
ATOM     38  C   UNL A   1      41.079  26.545  28.042  1.00  0.00     0.031 C 
ATOM     39  C   UNL A   1      47.441  24.485  26.339  1.00  0.00     0.029 A 
ATOM     40  C   UNL A   1      47.308  25.890  26.710  1.00  0.00     0.049 A 
ATOM     41  H   UNL A   1      45.590  26.875  27.356  1.00  0.00     0.167 HD
ATOM     42  C   UNL A   1      41.849  28.858  28.485  1.00  0.00     0.037 A 
ATOM     43  C   UNL A   1      48.304  26.797  26.696  1.00  0.00     0.037 A 
ATOM     44  C   UNL A   1      42.866  29.872  28.588  1.00  0.00     0.049 A 
ATOM     45  C   UNL A   1      48.015  28.211  27.120  1.00  0.00     0.074 A 
ATOM     46  C   UNL A   1      42.734  31.183  29.013  1.00  0.00     0.029 A 
ATOM     47  N   UNL A   1      44.202  29.690  28.266  1.00  0.00    -0.354 N 
ATOM     48  N   UNL A   1      46.877  28.738  27.502  1.00  0.00    -0.248 NA
ATOM     49  C   UNL A   1      49.144  29.151  27.116  1.00  0.00     0.031 C 
ATOM     50  C   UNL A   1      43.985  31.803  28.915  1.00  0.00     0.029 A 
ATOM     51  C   UNL A   1      44.903  30.868  28.465  1.00  0.00     0.049 A 
ATOM     52  H   UNL A   1      44.595  28.848  27.943  1.00  0.00     0.167 HD
ATOM     53  C   UNL A   1      47.156  30.066  27.803  1.00  0.00     0.074 A 
ATOM     54  C   UNL A   1      48.573  30.259  27.570  1.00  0.00     0.031 C 
ATOM     55  C   UNL A   1      46.314  31.039  28.232  1.00  0.00     0.037 A 
BRANCH  42  56
ATOM     56  C   UNL A   1      40.429  29.232  28.808  1.00  0.00     0.058 A 
ATOM     57  C   UNL A   1      39.995  29.387  30.134  1.00  0.00     0.135 A 
ATOM     58  C   UNL A   1      39.498  29.462  27.782  1.00  0.00     0.135 A 
ATOM     59  F   UNL A   1      40.841  29.164  31.152  1.00  0.00    -0.206 F 
ATOM     60  C   UNL A   1      38.681  29.727  30.434  1.00  0.00     0.059 A 
ATOM     61  C   UNL A   1      38.185  29.828  28.058  1.00  0.00     0.059 A 
ATOM     62  F   UNL A   1      39.861  29.327  26.496  1.00  0.00    -0.206 F 
ATOM     63  C   UNL A   1      37.781  29.942  29.388  1.00  0.00     0.060 A 
BRANCH  63  64
ATOM     64  S   UNL A   1      36.077  30.379  29.791  1.00  0.00     0.124 S 
ATOM     65  O   UNL A   1      35.343  29.691  28.734  1.00  0.00    -0.237 OA
ATOM     66  O   UNL A   1      35.920  29.827  31.133  1.00  0.00    -0.237 OA
ATOM     67  O   UNL A   1      36.073  31.837  29.713  1.00  0.00    -0.744 OA
ENDBRANCH  63  64
ENDBRANCH  42  56
BRANCH  43  68
ATOM     68  C   UNL A   1      49.674  26.388  26.290  1.00  0.00     0.058 A 
ATOM     69  C   UNL A   1      50.149  26.651  24.996  1.00  0.00     0.135 A 
ATOM     70  C   UNL A   1      50.540  25.745  27.187  1.00  0.00     0.135 A 
ATOM     71  F   UNL A   1      49.356  27.259  24.102  1.00  0.00    -0.206 F 
ATOM     72  C   UNL A   1      51.429  26.276  24.601  1.00  0.00     0.059 A 
ATOM     73  C   UNL A   1      51.831  25.380  26.822  1.00  0.00     0.059 A 
ATOM     74  F   UNL A   1      50.138  25.488  28.442  1.00  0.00    -0.206 F 
ATOM     75  C   UNL A   1      52.263  25.641  25.522  1.00  0.00     0.060 A 
BRANCH  75  76
ATOM     76  S   UNL A   1      53.942  25.206  25.016  1.00  0.00     0.124 S 
ATOM     77  O   UNL A   1      54.047  25.890  23.733  1.00  0.00    -0.237 OA
ATOM     78  O   UNL A   1      54.745  25.758  26.102  1.00  0.00    -0.237 OA
ATOM     79  O   UNL A   1      53.904  23.747  24.955  1.00  0.00    -0.744 OA
ENDBRANCH  75  76
ENDBRANCH  43  68
BRANCH  55  80
ATOM     80  C   UNL A   1      46.908  32.394  28.498  1.00  0.00     0.058 A 
ATOM     81  C   UNL A   1      47.463  32.720  29.744  1.00  0.00     0.135 A 
ATOM     82  C   UNL A   1      46.969  33.357  27.477  1.00  0.00     0.135 A 
ATOM     83  F   UNL A   1      47.424  31.836  30.753  1.00  0.00    -0.206 F 
ATOM     84  C   UNL A   1      48.043  33.963  29.977  1.00  0.00     0.059 A 
ATOM     85  C   UNL A   1      47.563  34.597  27.681  1.00  0.00     0.059 A 
ATOM     86  F   UNL A   1      46.458  33.090  26.265  1.00  0.00    -0.206 F 
ATOM     87  C   UNL A   1      48.089  34.896  28.938  1.00  0.00     0.060 A 
BRANCH  87  88
ATOM     88  S   UNL A   1      48.876  36.492  29.239  1.00  0.00     0.124 S 
ATOM     89  O   UNL A   1      47.939  37.109  30.171  1.00  0.00    -0.237 OA
ATOM     90  O   UNL A   1      50.166  36.105  29.801  1.00  0.00    -0.237 OA
ATOM     91  O   UNL A   1      48.934  37.097  27.912  1.00  0.00    -0.744 OA
ENDBRANCH  87  88
ENDBRANCH  55  80
ENDBRANCH  29  30
ENDBRANCH  21  24
ENDBRANCH  19  20
ENDBRANCH   1  19
TORSDOF 15
ENDMDL
