MODEL 1
REMARK VINA RESULT:     -12.1      0.000      0.000
REMARK SMILES O=C(Cc1csc(N2C(=O)C[C@H](Nc3cccc(F)c3)C2=O)n1)NCCCCNC(=O)c1ccc(-c2c3nc(c(-c4c(F)cc(S(=O)(=O)[O-])cc4F)c4ccc([nH]4)c(-c4c(F)cc(S(=O)(=O)[O-])cc4F)c4nc(c(-c5c(F)cc(S(=O)(=O)[O-])cc5F)c5ccc2[nH]5)C=C4)C=C3)cc1
REMARK SMILES IDX 26 1 25 2 24 3 1 4 2 5 3 7 4 8 5 9 23 10 6 11 7 12 8 13 9 14
REMARK SMILES IDX 21 15 10 16 11 17 12 18 22 19 13 20 14 22 15 23 20 24 16 25
REMARK SMILES IDX 18 26 17 27 19 28 27 29 28 30 29 31 30 32 31 34 32 35 33 36
REMARK SMILES IDX 97 37 34 38 96 39 35 40 36 41 37 42 90 43 38 44 95 45 89 46
REMARK SMILES IDX 91 47 39 48 94 49 88 50 87 51 40 53 74 54 53 55 73 56 54 57
REMARK SMILES IDX 57 58 72 59 92 60 55 61 56 62 71 64 93 65 58 66 41 67 42 68
REMARK SMILES IDX 51 69 43 70 44 71 50 72 52 73 45 74 46 75 47 76 48 77 49 78
REMARK SMILES IDX 75 79 76 80 85 81 77 82 78 83 84 84 86 85 79 86 80 87 81 88
REMARK SMILES IDX 82 89 83 90 59 91 60 92 69 93 61 94 62 95 68 96 70 97 63 98
REMARK SMILES IDX 64 99 65 100 66 101 67 102
REMARK H PARENT 24 6 13 21 29 33 91 52 57 63
REMARK Flexibility Score: inf
ROOT
ATOM      1  C   UNL A   1      37.647  22.051  24.823  1.00  0.00     0.023 C 
ENDROOT
BRANCH   1   2
ATOM      2  C   UNL A   1      37.026  20.742  25.307  1.00  0.00     0.116 C 
BRANCH   2   3
ATOM      3  N   UNL A   1      35.578  20.753  25.221  1.00  0.00    -0.356 N 
ATOM      4  O   UNL A   1      35.378  18.572  24.535  1.00  0.00    -0.275 OA
ATOM      5  C   UNL A   1      34.853  19.635  24.853  1.00  0.00     0.226 C 
ATOM      6  H   UNL A   1      35.097  21.586  25.431  1.00  0.00     0.163 HD
BRANCH   5   7
ATOM      7  C   UNL A   1      33.353  19.851  24.798  1.00  0.00     0.157 C 
BRANCH   7   8
ATOM      8  C   UNL A   1      32.965  21.233  24.380  1.00  0.00     0.063 A 
ATOM      9  C   UNL A   1      32.387  21.607  23.181  1.00  0.00     0.093 A 
ATOM     10  N   UNL A   1      33.091  22.273  25.293  1.00  0.00    -0.224 NA
ATOM     11  S   UNL A   1      31.930  23.253  23.235  1.00  0.00    -0.104 S 
ATOM     12  C   UNL A   1      32.529  23.372  24.839  1.00  0.00     0.199 A 
BRANCH  12  13
ATOM     13  N   UNL A   1      32.445  24.576  25.504  1.00  0.00    -0.223 N 
ATOM     14  C   UNL A   1      31.280  24.988  26.090  1.00  0.00     0.238 C 
ATOM     15  C   UNL A   1      33.450  25.506  25.566  1.00  0.00     0.258 C 
ATOM     16  O   UNL A   1      30.202  24.421  26.178  1.00  0.00    -0.274 OA
ATOM     17  C   UNL A   1      31.517  26.314  26.749  1.00  0.00     0.136 C 
ATOM     18  C   UNL A   1      32.934  26.698  26.356  1.00  0.00     0.179 C 
ATOM     19  O   UNL A   1      34.558  25.472  25.045  1.00  0.00    -0.272 OA
BRANCH  18  20
ATOM     20  N   UNL A   1      32.910  27.937  25.573  1.00  0.00    -0.373 N 
ATOM     21  H   UNL A   1      32.730  27.895  24.605  1.00  0.00     0.161 HD
BRANCH  20  22
ATOM     22  C   UNL A   1      33.135  29.166  26.171  1.00  0.00     0.038 A 
ATOM     23  C   UNL A   1      34.303  29.449  26.890  1.00  0.00     0.026 A 
ATOM     24  C   UNL A   1      32.130  30.138  26.137  1.00  0.00     0.065 A 
ATOM     25  C   UNL A   1      34.476  30.678  27.537  1.00  0.00     0.005 A 
ATOM     26  C   UNL A   1      32.297  31.350  26.800  1.00  0.00     0.125 A 
ATOM     27  C   UNL A   1      33.464  31.632  27.498  1.00  0.00     0.039 A 
ATOM     28  F   UNL A   1      31.309  32.255  26.776  1.00  0.00    -0.207 F 
ENDBRANCH  20  22
ENDBRANCH  18  20
ENDBRANCH  12  13
ENDBRANCH   7   8
ENDBRANCH   5   7
ENDBRANCH   2   3
ENDBRANCH   1   2
BRANCH   1  29
ATOM     29  C   UNL A   1      37.207  23.310  25.577  1.00  0.00     0.023 C 
BRANCH  29  30
ATOM     30  C   UNL A   1      38.194  23.842  26.613  1.00  0.00     0.116 C 
BRANCH  30  31
ATOM     31  N   UNL A   1      39.577  23.756  26.173  1.00  0.00    -0.352 N 
ATOM     32  C   UNL A   1      40.641  24.577  26.463  1.00  0.00     0.251 C 
ATOM     33  H   UNL A   1      39.781  22.999  25.579  1.00  0.00     0.163 HD
ATOM     34  O   UNL A   1      41.707  24.415  25.875  1.00  0.00    -0.269 OA
BRANCH  32  35
ATOM     35  C   UNL A   1      40.504  25.671  27.454  1.00  0.00     0.039 A 
ATOM     36  C   UNL A   1      39.524  25.561  28.445  1.00  0.00     0.014 A 
ATOM     37  C   UNL A   1      41.319  26.807  27.406  1.00  0.00     0.014 A 
ATOM     38  C   UNL A   1      39.409  26.549  29.428  1.00  0.00     0.010 A 
ATOM     39  C   UNL A   1      41.244  27.761  28.421  1.00  0.00     0.010 A 
ATOM     40  C   UNL A   1      40.294  27.640  29.446  1.00  0.00    -0.014 A 
BRANCH  40  41
ATOM     41  C   UNL A   1      40.252  28.647  30.540  1.00  0.00     0.031 A 
ATOM     42  C   UNL A   1      41.178  28.531  31.720  1.00  0.00     0.074 A 
ATOM     43  C   UNL A   1      39.336  29.636  30.502  1.00  0.00     0.049 A 
ATOM     44  N   UNL A   1      41.231  29.264  32.802  1.00  0.00    -0.248 NA
ATOM     45  C   UNL A   1      42.161  27.437  31.689  1.00  0.00     0.031 C 
ATOM     46  C   UNL A   1      38.360  29.841  29.430  1.00  0.00     0.029 A 
ATOM     47  N   UNL A   1      39.072  30.650  31.389  1.00  0.00    -0.354 N 
ATOM     48  C   UNL A   1      42.239  28.717  33.585  1.00  0.00     0.074 A 
ATOM     49  C   UNL A   1      42.743  27.561  32.873  1.00  0.00     0.031 C 
ATOM     50  C   UNL A   1      37.623  30.929  29.708  1.00  0.00     0.029 A 
ATOM     51  C   UNL A   1      38.044  31.475  30.995  1.00  0.00     0.049 A 
ATOM     52  H   UNL A   1      39.573  30.776  32.227  1.00  0.00     0.167 HD
ATOM     53  C   UNL A   1      42.716  29.147  34.777  1.00  0.00     0.037 A 
ATOM     54  C   UNL A   1      37.497  32.548  31.602  1.00  0.00     0.037 A 
ATOM     55  C   UNL A   1      42.233  30.314  35.471  1.00  0.00     0.049 A 
ATOM     56  C   UNL A   1      38.035  33.001  32.930  1.00  0.00     0.074 A 
ATOM     57  C   UNL A   1      42.689  30.854  36.660  1.00  0.00     0.029 A 
ATOM     58  N   UNL A   1      41.191  31.120  35.039  1.00  0.00    -0.354 N 
ATOM     59  N   UNL A   1      39.011  32.488  33.638  1.00  0.00    -0.248 NA
ATOM     60  C   UNL A   1      37.398  34.176  33.542  1.00  0.00     0.031 C 
ATOM     61  C   UNL A   1      41.900  31.967  36.966  1.00  0.00     0.029 A 
ATOM     62  C   UNL A   1      40.978  32.144  35.948  1.00  0.00     0.049 A 
ATOM     63  H   UNL A   1      40.678  30.984  34.210  1.00  0.00     0.167 HD
ATOM     64  C   UNL A   1      39.119  33.288  34.771  1.00  0.00     0.074 A 
ATOM     65  C   UNL A   1      38.114  34.324  34.649  1.00  0.00     0.031 C 
ATOM     66  C   UNL A   1      39.974  33.172  35.816  1.00  0.00     0.037 A 
BRANCH  53  67
ATOM     67  C   UNL A   1      43.830  28.360  35.410  1.00  0.00     0.058 A 
ATOM     68  C   UNL A   1      45.167  28.602  35.058  1.00  0.00     0.135 A 
ATOM     69  C   UNL A   1      43.570  27.331  36.329  1.00  0.00     0.135 A 
ATOM     70  F   UNL A   1      45.471  29.578  34.187  1.00  0.00    -0.206 F 
ATOM     71  C   UNL A   1      46.208  27.847  35.587  1.00  0.00     0.059 A 
ATOM     72  C   UNL A   1      44.598  26.578  36.890  1.00  0.00     0.059 A 
ATOM     73  F   UNL A   1      42.311  27.072  36.715  1.00  0.00    -0.206 F 
ATOM     74  C   UNL A   1      45.912  26.835  36.504  1.00  0.00     0.060 A 
BRANCH  74  75
ATOM     75  S   UNL A   1      47.277  25.894  37.221  1.00  0.00     0.124 S 
ATOM     76  O   UNL A   1      47.703  25.076  36.092  1.00  0.00    -0.237 OA
ATOM     77  O   UNL A   1      48.198  26.951  37.627  1.00  0.00    -0.237 OA
ATOM     78  O   UNL A   1      46.644  25.172  38.322  1.00  0.00    -0.744 OA
ENDBRANCH  74  75
ENDBRANCH  53  67
BRANCH  54  79
ATOM     79  C   UNL A   1      36.392  33.282  30.931  1.00  0.00     0.058 A 
ATOM     80  C   UNL A   1      36.623  34.073  29.797  1.00  0.00     0.135 A 
ATOM     81  C   UNL A   1      35.090  33.241  31.450  1.00  0.00     0.135 A 
ATOM     82  F   UNL A   1      37.854  34.150  29.268  1.00  0.00    -0.206 F 
ATOM     83  C   UNL A   1      35.607  34.825  29.216  1.00  0.00     0.059 A 
ATOM     84  C   UNL A   1      34.051  33.968  30.874  1.00  0.00     0.059 A 
ATOM     85  F   UNL A   1      34.820  32.487  32.526  1.00  0.00    -0.206 F 
ATOM     86  C   UNL A   1      34.326  34.773  29.769  1.00  0.00     0.060 A 
BRANCH  86  87
ATOM     87  S   UNL A   1      33.029  35.784  29.024  1.00  0.00     0.124 S 
ATOM     88  O   UNL A   1      32.359  34.810  28.167  1.00  0.00    -0.237 OA
ATOM     89  O   UNL A   1      32.276  36.226  30.193  1.00  0.00    -0.237 OA
ATOM     90  O   UNL A   1      33.772  36.829  28.327  1.00  0.00    -0.744 OA
ENDBRANCH  86  87
ENDBRANCH  54  79
BRANCH  66  91
ATOM     91  C   UNL A   1      39.883  34.195  36.913  1.00  0.00     0.058 A 
ATOM     92  C   UNL A   1      39.160  33.920  38.084  1.00  0.00     0.135 A 
ATOM     93  C   UNL A   1      40.440  35.474  36.770  1.00  0.00     0.135 A 
ATOM     94  F   UNL A   1      38.605  32.711  38.269  1.00  0.00    -0.206 F 
ATOM     95  C   UNL A   1      38.973  34.886  39.066  1.00  0.00     0.059 A 
ATOM     96  C   UNL A   1      40.284  36.450  37.750  1.00  0.00     0.059 A 
ATOM     97  F   UNL A   1      41.151  35.781  35.673  1.00  0.00    -0.206 F 
ATOM     98  C   UNL A   1      39.533  36.151  38.887  1.00  0.00     0.060 A 
BRANCH  98  99
ATOM     99  S   UNL A   1      39.281  37.396  40.170  1.00  0.00     0.124 S 
ATOM    100  O   UNL A   1      38.595  36.626  41.202  1.00  0.00    -0.237 OA
ATOM    101  O   UNL A   1      40.648  37.800  40.483  1.00  0.00    -0.237 OA
ATOM    102  O   UNL A   1      38.473  38.413  39.503  1.00  0.00    -0.744 OA
ENDBRANCH  98  99
ENDBRANCH  66  91
ENDBRANCH  40  41
ENDBRANCH  32  35
ENDBRANCH  30  31
ENDBRANCH  29  30
ENDBRANCH   1  29
TORSDOF 18
ENDMDL
MODEL 2
REMARK VINA RESULT:     -11.7      1.870      2.519
REMARK SMILES O=C(Cc1csc(N2C(=O)C[C@H](Nc3cccc(F)c3)C2=O)n1)NCCCCNC(=O)c1ccc(-c2c3nc(c(-c4c(F)cc(S(=O)(=O)[O-])cc4F)c4ccc([nH]4)c(-c4c(F)cc(S(=O)(=O)[O-])cc4F)c4nc(c(-c5c(F)cc(S(=O)(=O)[O-])cc5F)c5ccc2[nH]5)C=C4)C=C3)cc1
REMARK SMILES IDX 26 1 25 2 24 3 1 4 2 5 3 7 4 8 5 9 23 10 6 11 7 12 8 13 9 14
REMARK SMILES IDX 21 15 10 16 11 17 12 18 22 19 13 20 14 22 15 23 20 24 16 25
REMARK SMILES IDX 18 26 17 27 19 28 27 29 28 30 29 31 30 32 31 34 32 35 33 36
REMARK SMILES IDX 97 37 34 38 96 39 35 40 36 41 37 42 90 43 38 44 95 45 89 46
REMARK SMILES IDX 91 47 39 48 94 49 88 50 87 51 40 53 74 54 53 55 73 56 54 57
REMARK SMILES IDX 57 58 72 59 92 60 55 61 56 62 71 64 93 65 58 66 41 67 42 68
REMARK SMILES IDX 51 69 43 70 44 71 50 72 52 73 45 74 46 75 47 76 48 77 49 78
REMARK SMILES IDX 75 79 76 80 85 81 77 82 78 83 84 84 86 85 79 86 80 87 81 88
REMARK SMILES IDX 82 89 83 90 59 91 60 92 69 93 61 94 62 95 68 96 70 97 63 98
REMARK SMILES IDX 64 99 65 100 66 101 67 102
REMARK H PARENT 24 6 13 21 29 33 91 52 57 63
REMARK Flexibility Score: inf
ROOT
ATOM      1  C   UNL A   1      38.172  21.956  25.822  1.00  0.00     0.023 C 
ENDROOT
BRANCH   1   2
ATOM      2  C   UNL A   1      37.393  23.219  25.460  1.00  0.00     0.116 C 
BRANCH   2   3
ATOM      3  N   UNL A   1      36.208  23.391  26.279  1.00  0.00    -0.356 N 
ATOM      4  O   UNL A   1      34.879  21.979  25.050  1.00  0.00    -0.275 OA
ATOM      5  C   UNL A   1      35.025  22.725  26.014  1.00  0.00     0.226 C 
ATOM      6  H   UNL A   1      36.248  24.003  27.049  1.00  0.00     0.163 HD
BRANCH   5   7
ATOM      7  C   UNL A   1      33.894  23.053  26.968  1.00  0.00     0.157 C 
BRANCH   7   8
ATOM      8  C   UNL A   1      32.858  23.955  26.376  1.00  0.00     0.063 A 
ATOM      9  C   UNL A   1      31.487  23.779  26.409  1.00  0.00     0.093 A 
ATOM     10  N   UNL A   1      33.259  25.156  25.804  1.00  0.00    -0.224 NA
ATOM     11  S   UNL A   1      30.700  25.164  25.791  1.00  0.00    -0.104 S 
ATOM     12  C   UNL A   1      32.221  25.911  25.513  1.00  0.00     0.199 A 
BRANCH  12  13
ATOM     13  N   UNL A   1      32.263  27.175  24.967  1.00  0.00    -0.223 N 
ATOM     14  C   UNL A   1      31.901  28.277  25.690  1.00  0.00     0.238 C 
ATOM     15  C   UNL A   1      32.566  27.451  23.658  1.00  0.00     0.258 C 
ATOM     16  O   UNL A   1      31.547  28.370  26.854  1.00  0.00    -0.274 OA
ATOM     17  C   UNL A   1      32.081  29.493  24.832  1.00  0.00     0.136 C 
ATOM     18  C   UNL A   1      32.462  28.955  23.464  1.00  0.00     0.179 C 
ATOM     19  O   UNL A   1      32.818  26.670  22.749  1.00  0.00    -0.272 OA
BRANCH  18  20
ATOM     20  N   UNL A   1      31.441  29.335  22.482  1.00  0.00    -0.373 N 
ATOM     21  H   UNL A   1      31.719  29.647  21.591  1.00  0.00     0.161 HD
BRANCH  20  22
ATOM     22  C   UNL A   1      30.092  29.262  22.789  1.00  0.00     0.038 A 
ATOM     23  C   UNL A   1      29.412  28.043  22.901  1.00  0.00     0.026 A 
ATOM     24  C   UNL A   1      29.352  30.443  22.906  1.00  0.00     0.065 A 
ATOM     25  C   UNL A   1      28.035  28.001  23.150  1.00  0.00     0.005 A 
ATOM     26  C   UNL A   1      27.979  30.397  23.131  1.00  0.00     0.125 A 
ATOM     27  C   UNL A   1      27.313  29.185  23.259  1.00  0.00     0.039 A 
ATOM     28  F   UNL A   1      27.287  31.542  23.213  1.00  0.00    -0.207 F 
ENDBRANCH  20  22
ENDBRANCH  18  20
ENDBRANCH  12  13
ENDBRANCH   7   8
ENDBRANCH   5   7
ENDBRANCH   2   3
ENDBRANCH   1   2
BRANCH   1  29
ATOM     29  C   UNL A   1      39.547  22.188  26.458  1.00  0.00     0.023 C 
BRANCH  29  30
ATOM     30  C   UNL A   1      39.997  23.643  26.553  1.00  0.00     0.116 C 
BRANCH  30  31
ATOM     31  N   UNL A   1      41.367  23.841  26.110  1.00  0.00    -0.352 N 
ATOM     32  C   UNL A   1      42.251  24.848  26.419  1.00  0.00     0.251 C 
ATOM     33  H   UNL A   1      41.713  23.153  25.497  1.00  0.00     0.163 HD
ATOM     34  O   UNL A   1      43.324  24.913  25.825  1.00  0.00    -0.269 OA
BRANCH  32  35
ATOM     35  C   UNL A   1      41.907  25.870  27.436  1.00  0.00     0.039 A 
ATOM     36  C   UNL A   1      40.936  25.564  28.394  1.00  0.00     0.014 A 
ATOM     37  C   UNL A   1      42.520  27.127  27.444  1.00  0.00     0.014 A 
ATOM     38  C   UNL A   1      40.632  26.486  29.400  1.00  0.00     0.010 A 
ATOM     39  C   UNL A   1      42.261  28.021  28.484  1.00  0.00     0.010 A 
ATOM     40  C   UNL A   1      41.320  27.709  29.476  1.00  0.00    -0.014 A 
BRANCH  40  41
ATOM     41  C   UNL A   1      41.083  28.658  30.597  1.00  0.00     0.031 A 
ATOM     42  C   UNL A   1      41.911  28.581  31.850  1.00  0.00     0.074 A 
ATOM     43  C   UNL A   1      40.077  29.552  30.511  1.00  0.00     0.049 A 
ATOM     44  N   UNL A   1      41.796  29.268  32.958  1.00  0.00    -0.248 NA
ATOM     45  C   UNL A   1      42.999  27.591  31.869  1.00  0.00     0.031 C 
ATOM     46  C   UNL A   1      39.181  29.708  29.364  1.00  0.00     0.029 A 
ATOM     47  N   UNL A   1      39.637  30.496  31.406  1.00  0.00    -0.354 N 
ATOM     48  C   UNL A   1      42.784  28.788  33.808  1.00  0.00     0.074 A 
ATOM     49  C   UNL A   1      43.462  27.720  33.104  1.00  0.00     0.031 C 
ATOM     50  C   UNL A   1      38.316  30.705  29.613  1.00  0.00     0.029 A 
ATOM     51  C   UNL A   1      38.568  31.233  30.951  1.00  0.00     0.049 A 
ATOM     52  H   UNL A   1      40.049  30.634  32.290  1.00  0.00     0.167 HD
ATOM     53  C   UNL A   1      43.110  29.210  35.053  1.00  0.00     0.037 A 
ATOM     54  C   UNL A   1      37.865  32.219  31.544  1.00  0.00     0.037 A 
ATOM     55  C   UNL A   1      42.454  30.292  35.741  1.00  0.00     0.049 A 
ATOM     56  C   UNL A   1      38.238  32.664  32.930  1.00  0.00     0.074 A 
ATOM     57  C   UNL A   1      42.749  30.822  36.985  1.00  0.00     0.029 A 
ATOM     58  N   UNL A   1      41.376  31.010  35.246  1.00  0.00    -0.354 N 
ATOM     59  N   UNL A   1      39.197  32.219  33.705  1.00  0.00    -0.248 NA
ATOM     60  C   UNL A   1      37.435  33.742  33.524  1.00  0.00     0.031 C 
ATOM     61  C   UNL A   1      41.827  31.837  37.258  1.00  0.00     0.029 A 
ATOM     62  C   UNL A   1      40.983  31.968  36.168  1.00  0.00     0.049 A 
ATOM     63  H   UNL A   1      40.953  30.861  34.370  1.00  0.00     0.167 HD
ATOM     64  C   UNL A   1      39.125  32.974  34.870  1.00  0.00     0.074 A 
ATOM     65  C   UNL A   1      38.035  33.911  34.695  1.00  0.00     0.031 C 
ATOM     66  C   UNL A   1      39.895  32.897  35.982  1.00  0.00     0.037 A 
BRANCH  53  67
ATOM     67  C   UNL A   1      44.241  28.509  35.755  1.00  0.00     0.058 A 
ATOM     68  C   UNL A   1      45.570  28.908  35.546  1.00  0.00     0.135 A 
ATOM     69  C   UNL A   1      44.011  27.409  36.597  1.00  0.00     0.135 A 
ATOM     70  F   UNL A   1      45.845  29.956  34.755  1.00  0.00    -0.206 F 
ATOM     71  C   UNL A   1      46.633  28.236  36.140  1.00  0.00     0.059 A 
ATOM     72  C   UNL A   1      45.057  26.737  37.220  1.00  0.00     0.059 A 
ATOM     73  F   UNL A   1      42.757  27.000  36.846  1.00  0.00    -0.206 F 
ATOM     74  C   UNL A   1      46.366  27.150  36.976  1.00  0.00     0.060 A 
BRANCH  74  75
ATOM     75  S   UNL A   1      47.753  26.317  37.780  1.00  0.00     0.124 S 
ATOM     76  O   UNL A   1      48.827  27.286  37.603  1.00  0.00    -0.237 OA
ATOM     77  O   UNL A   1      47.262  26.151  39.145  1.00  0.00    -0.237 OA
ATOM     78  O   UNL A   1      47.887  25.078  37.019  1.00  0.00    -0.744 OA
ENDBRANCH  74  75
ENDBRANCH  53  67
BRANCH  54  79
ATOM     79  C   UNL A   1      36.753  32.870  30.803  1.00  0.00     0.058 A 
ATOM     80  C   UNL A   1      36.994  33.884  29.865  1.00  0.00     0.135 A 
ATOM     81  C   UNL A   1      35.420  32.518  31.062  1.00  0.00     0.135 A 
ATOM     82  F   UNL A   1      38.252  34.262  29.590  1.00  0.00    -0.206 F 
ATOM     83  C   UNL A   1      35.951  34.551  29.231  1.00  0.00     0.059 A 
ATOM     84  C   UNL A   1      34.359  33.155  30.424  1.00  0.00     0.059 A 
ATOM     85  F   UNL A   1      35.143  31.543  31.942  1.00  0.00    -0.206 F 
ATOM     86  C   UNL A   1      34.636  34.185  29.525  1.00  0.00     0.060 A 
BRANCH  86  87
ATOM     87  S   UNL A   1      33.295  35.086  28.720  1.00  0.00     0.124 S 
ATOM     88  O   UNL A   1      32.686  34.035  27.908  1.00  0.00    -0.237 OA
ATOM     89  O   UNL A   1      32.507  35.546  29.858  1.00  0.00    -0.237 OA
ATOM     90  O   UNL A   1      33.989  36.133  27.976  1.00  0.00    -0.744 OA
ENDBRANCH  86  87
ENDBRANCH  54  79
BRANCH  66  91
ATOM     91  C   UNL A   1      39.606  33.856  37.102  1.00  0.00     0.058 A 
ATOM     92  C   UNL A   1      40.208  35.124  37.128  1.00  0.00     0.135 A 
ATOM     93  C   UNL A   1      38.800  33.490  38.191  1.00  0.00     0.135 A 
ATOM     94  F   UNL A   1      40.991  35.522  36.111  1.00  0.00    -0.206 F 
ATOM     95  C   UNL A   1      40.039  35.987  38.204  1.00  0.00     0.059 A 
ATOM     96  C   UNL A   1      38.599  34.347  39.269  1.00  0.00     0.059 A 
ATOM     97  F   UNL A   1      38.192  32.293  38.207  1.00  0.00    -0.206 F 
ATOM     98  C   UNL A   1      39.239  35.587  39.274  1.00  0.00     0.060 A 
BRANCH  98  99
ATOM     99  S   UNL A   1      39.029  36.718  40.665  1.00  0.00     0.124 S 
ATOM    100  O   UNL A   1      38.116  35.971  41.523  1.00  0.00    -0.237 OA
ATOM    101  O   UNL A   1      40.395  36.857  41.161  1.00  0.00    -0.237 OA
ATOM    102  O   UNL A   1      38.471  37.917  40.046  1.00  0.00    -0.744 OA
ENDBRANCH  98  99
ENDBRANCH  66  91
ENDBRANCH  40  41
ENDBRANCH  32  35
ENDBRANCH  30  31
ENDBRANCH  29  30
ENDBRANCH   1  29
TORSDOF 18
ENDMDL
MODEL 3
REMARK VINA RESULT:     -11.6      1.143      8.094
REMARK SMILES O=C(Cc1csc(N2C(=O)C[C@H](Nc3cccc(F)c3)C2=O)n1)NCCCCNC(=O)c1ccc(-c2c3nc(c(-c4c(F)cc(S(=O)(=O)[O-])cc4F)c4ccc([nH]4)c(-c4c(F)cc(S(=O)(=O)[O-])cc4F)c4nc(c(-c5c(F)cc(S(=O)(=O)[O-])cc5F)c5ccc2[nH]5)C=C4)C=C3)cc1
REMARK SMILES IDX 26 1 25 2 24 3 1 4 2 5 3 7 4 8 5 9 23 10 6 11 7 12 8 13 9 14
REMARK SMILES IDX 21 15 10 16 11 17 12 18 22 19 13 20 14 22 15 23 20 24 16 25
REMARK SMILES IDX 18 26 17 27 19 28 27 29 28 30 29 31 30 32 31 34 32 35 33 36
REMARK SMILES IDX 97 37 34 38 96 39 35 40 36 41 37 42 90 43 38 44 95 45 89 46
REMARK SMILES IDX 91 47 39 48 94 49 88 50 87 51 40 53 74 54 53 55 73 56 54 57
REMARK SMILES IDX 57 58 72 59 92 60 55 61 56 62 71 64 93 65 58 66 41 67 42 68
REMARK SMILES IDX 51 69 43 70 44 71 50 72 52 73 45 74 46 75 47 76 48 77 49 78
REMARK SMILES IDX 75 79 76 80 85 81 77 82 78 83 84 84 86 85 79 86 80 87 81 88
REMARK SMILES IDX 82 89 83 90 59 91 60 92 69 93 61 94 62 95 68 96 70 97 63 98
REMARK SMILES IDX 64 99 65 100 66 101 67 102
REMARK H PARENT 24 6 13 21 29 33 91 52 57 63
REMARK Flexibility Score: inf
ROOT
ATOM      1  C   UNL A   1      37.364  22.681  24.851  1.00  0.00     0.023 C 
ENDROOT
BRANCH   1   2
ATOM      2  C   UNL A   1      36.660  21.345  25.079  1.00  0.00     0.116 C 
BRANCH   2   3
ATOM      3  N   UNL A   1      35.216  21.477  25.093  1.00  0.00    -0.356 N 
ATOM      4  O   UNL A   1      34.783  19.250  24.748  1.00  0.00    -0.275 OA
ATOM      5  C   UNL A   1      34.374  20.391  24.944  1.00  0.00     0.226 C 
ATOM      6  H   UNL A   1      34.822  22.372  25.211  1.00  0.00     0.163 HD
BRANCH   5   7
ATOM      7  C   UNL A   1      32.897  20.734  24.962  1.00  0.00     0.157 C 
BRANCH   7   8
ATOM      8  C   UNL A   1      32.601  22.116  24.475  1.00  0.00     0.063 A 
ATOM      9  C   UNL A   1      32.058  22.468  23.253  1.00  0.00     0.093 A 
ATOM     10  N   UNL A   1      32.786  23.189  25.339  1.00  0.00    -0.224 NA
ATOM     11  S   UNL A   1      31.705  24.140  23.223  1.00  0.00    -0.104 S 
ATOM     12  C   UNL A   1      32.298  24.298  24.827  1.00  0.00     0.199 A 
BRANCH  12  13
ATOM     13  N   UNL A   1      32.285  25.536  25.433  1.00  0.00    -0.223 N 
ATOM     14  C   UNL A   1      31.205  25.967  26.152  1.00  0.00     0.238 C 
ATOM     15  C   UNL A   1      33.273  26.478  25.307  1.00  0.00     0.258 C 
ATOM     16  O   UNL A   1      30.160  25.395  26.418  1.00  0.00    -0.274 OA
ATOM     17  C   UNL A   1      31.508  27.329  26.701  1.00  0.00     0.136 C 
ATOM     18  C   UNL A   1      32.850  27.705  26.097  1.00  0.00     0.179 C 
ATOM     19  O   UNL A   1      34.300  26.426  24.640  1.00  0.00    -0.272 OA
BRANCH  18  20
ATOM     20  N   UNL A   1      32.697  28.900  25.261  1.00  0.00    -0.373 N 
ATOM     21  H   UNL A   1      33.356  29.628  25.332  1.00  0.00     0.161 HD
BRANCH  20  22
ATOM     22  C   UNL A   1      31.641  29.020  24.372  1.00  0.00     0.038 A 
ATOM     23  C   UNL A   1      31.537  28.232  23.219  1.00  0.00     0.026 A 
ATOM     24  C   UNL A   1      30.685  30.020  24.577  1.00  0.00     0.065 A 
ATOM     25  C   UNL A   1      30.491  28.419  22.306  1.00  0.00     0.005 A 
ATOM     26  C   UNL A   1      29.661  30.217  23.655  1.00  0.00     0.125 A 
ATOM     27  C   UNL A   1      29.552  29.422  22.522  1.00  0.00     0.039 A 
ATOM     28  F   UNL A   1      28.773  31.200  23.859  1.00  0.00    -0.207 F 
ENDBRANCH  20  22
ENDBRANCH  18  20
ENDBRANCH  12  13
ENDBRANCH   7   8
ENDBRANCH   5   7
ENDBRANCH   2   3
ENDBRANCH   1   2
BRANCH   1  29
ATOM     29  C   UNL A   1      37.182  23.722  25.961  1.00  0.00     0.023 C 
BRANCH  29  30
ATOM     30  C   UNL A   1      38.430  24.042  26.780  1.00  0.00     0.116 C 
BRANCH  30  31
ATOM     31  N   UNL A   1      39.563  24.430  25.957  1.00  0.00    -0.352 N 
ATOM     32  C   UNL A   1      40.481  25.436  26.147  1.00  0.00     0.251 C 
ATOM     33  H   UNL A   1      39.692  23.893  25.142  1.00  0.00     0.163 HD
ATOM     34  O   UNL A   1      41.287  25.695  25.257  1.00  0.00    -0.269 OA
BRANCH  32  35
ATOM     35  C   UNL A   1      40.485  26.228  27.400  1.00  0.00     0.039 A 
ATOM     36  C   UNL A   1      41.365  27.310  27.506  1.00  0.00     0.014 A 
ATOM     37  C   UNL A   1      39.646  25.907  28.471  1.00  0.00     0.014 A 
ATOM     38  C   UNL A   1      41.352  28.111  28.653  1.00  0.00     0.010 A 
ATOM     39  C   UNL A   1      39.591  26.742  29.587  1.00  0.00     0.010 A 
ATOM     40  C   UNL A   1      40.437  27.855  29.688  1.00  0.00    -0.014 A 
BRANCH  40  41
ATOM     41  C   UNL A   1      40.339  28.756  30.869  1.00  0.00     0.031 A 
ATOM     42  C   UNL A   1      39.332  29.872  30.896  1.00  0.00     0.074 A 
ATOM     43  C   UNL A   1      41.201  28.606  31.895  1.00  0.00     0.049 A 
ATOM     44  N   UNL A   1      39.156  30.803  31.799  1.00  0.00    -0.248 NA
ATOM     45  C   UNL A   1      38.414  29.968  29.749  1.00  0.00     0.031 C 
ATOM     46  C   UNL A   1      42.245  27.582  31.977  1.00  0.00     0.029 A 
ATOM     47  N   UNL A   1      41.340  29.316  33.061  1.00  0.00    -0.354 N 
ATOM     48  C   UNL A   1      38.121  31.600  31.328  1.00  0.00     0.074 A 
ATOM     49  C   UNL A   1      37.736  31.070  30.037  1.00  0.00     0.031 C 
ATOM     50  C   UNL A   1      42.900  27.714  33.143  1.00  0.00     0.029 A 
ATOM     51  C   UNL A   1      42.350  28.853  33.873  1.00  0.00     0.049 A 
ATOM     52  H   UNL A   1      40.770  30.084  33.296  1.00  0.00     0.167 HD
ATOM     53  C   UNL A   1      37.530  32.663  31.924  1.00  0.00     0.037 A 
ATOM     54  C   UNL A   1      42.790  29.297  35.068  1.00  0.00     0.037 A 
ATOM     55  C   UNL A   1      37.894  33.172  33.222  1.00  0.00     0.049 A 
ATOM     56  C   UNL A   1      42.128  30.486  35.706  1.00  0.00     0.074 A 
ATOM     57  C   UNL A   1      37.319  34.214  33.927  1.00  0.00     0.029 A 
ATOM     58  N   UNL A   1      38.922  32.676  34.009  1.00  0.00    -0.354 N 
ATOM     59  N   UNL A   1      41.128  31.206  35.258  1.00  0.00    -0.248 NA
ATOM     60  C   UNL A   1      42.651  30.923  37.007  1.00  0.00     0.031 C 
ATOM     61  C   UNL A   1      38.021  34.371  35.126  1.00  0.00     0.029 A 
ATOM     62  C   UNL A   1      39.008  33.402  35.186  1.00  0.00     0.049 A 
ATOM     63  H   UNL A   1      39.505  31.920  33.767  1.00  0.00     0.167 HD
ATOM     64  C   UNL A   1      40.890  32.170  36.232  1.00  0.00     0.074 A 
ATOM     65  C   UNL A   1      41.844  31.936  37.295  1.00  0.00     0.031 C 
ATOM     66  C   UNL A   1      39.963  33.159  36.240  1.00  0.00     0.037 A 
BRANCH  53  67
ATOM     67  C   UNL A   1      36.413  33.348  31.185  1.00  0.00     0.058 A 
ATOM     68  C   UNL A   1      36.682  34.148  30.064  1.00  0.00     0.135 A 
ATOM     69  C   UNL A   1      35.082  33.253  31.620  1.00  0.00     0.135 A 
ATOM     70  F   UNL A   1      37.937  34.270  29.605  1.00  0.00    -0.206 F 
ATOM     71  C   UNL A   1      35.671  34.836  29.402  1.00  0.00     0.059 A 
ATOM     72  C   UNL A   1      34.051  33.914  30.958  1.00  0.00     0.059 A 
ATOM     73  F   UNL A   1      34.768  32.485  32.675  1.00  0.00    -0.206 F 
ATOM     74  C   UNL A   1      34.356  34.713  29.858  1.00  0.00     0.060 A 
BRANCH  74  75
ATOM     75  S   UNL A   1      33.046  35.573  28.960  1.00  0.00     0.124 S 
ATOM     76  O   UNL A   1      32.441  34.487  28.200  1.00  0.00    -0.237 OA
ATOM     77  O   UNL A   1      32.238  36.120  30.046  1.00  0.00    -0.237 OA
ATOM     78  O   UNL A   1      33.774  36.565  28.174  1.00  0.00    -0.744 OA
ENDBRANCH  74  75
ENDBRANCH  53  67
BRANCH  54  79
ATOM     79  C   UNL A   1      43.903  28.584  35.747  1.00  0.00     0.058 A 
ATOM     80  C   UNL A   1      45.243  28.912  35.495  1.00  0.00     0.135 A 
ATOM     81  C   UNL A   1      43.640  27.524  36.627  1.00  0.00     0.135 A 
ATOM     82  F   UNL A   1      45.546  29.913  34.655  1.00  0.00    -0.206 F 
ATOM     83  C   UNL A   1      46.287  28.192  36.068  1.00  0.00     0.059 A 
ATOM     84  C   UNL A   1      44.667  26.803  37.230  1.00  0.00     0.059 A 
ATOM     85  F   UNL A   1      42.373  27.185  36.908  1.00  0.00    -0.206 F 
ATOM     86  C   UNL A   1      45.988  27.132  36.927  1.00  0.00     0.060 A 
BRANCH  86  87
ATOM     87  S   UNL A   1      47.356  26.188  37.631  1.00  0.00     0.124 S 
ATOM     88  O   UNL A   1      46.852  25.906  38.973  1.00  0.00    -0.237 OA
ATOM     89  O   UNL A   1      47.435  25.044  36.729  1.00  0.00    -0.237 OA
ATOM     90  O   UNL A   1      48.479  27.116  37.563  1.00  0.00    -0.744 OA
ENDBRANCH  86  87
ENDBRANCH  54  79
BRANCH  66  91
ATOM     91  C   UNL A   1      39.914  34.063  37.440  1.00  0.00     0.058 A 
ATOM     92  C   UNL A   1      39.119  33.733  38.548  1.00  0.00     0.135 A 
ATOM     93  C   UNL A   1      40.588  35.293  37.458  1.00  0.00     0.135 A 
ATOM     94  F   UNL A   1      38.452  32.568  38.580  1.00  0.00    -0.206 F 
ATOM     95  C   UNL A   1      38.975  34.602  39.624  1.00  0.00     0.059 A 
ATOM     96  C   UNL A   1      40.476  36.169  38.534  1.00  0.00     0.059 A 
ATOM     97  F   UNL A   1      41.371  35.648  36.426  1.00  0.00    -0.206 F 
ATOM     98  C   UNL A   1      39.653  35.822  39.604  1.00  0.00     0.060 A 
BRANCH  98  99
ATOM     99  S   UNL A   1      39.456  36.940  41.008  1.00  0.00     0.124 S 
ATOM    100  O   UNL A   1      38.726  38.049  40.405  1.00  0.00    -0.237 OA
ATOM    101  O   UNL A   1      38.701  36.122  41.953  1.00  0.00    -0.237 OA
ATOM    102  O   UNL A   1      40.831  37.232  41.404  1.00  0.00    -0.744 OA
ENDBRANCH  98  99
ENDBRANCH  66  91
ENDBRANCH  40  41
ENDBRANCH  32  35
ENDBRANCH  30  31
ENDBRANCH  29  30
ENDBRANCH   1  29
TORSDOF 18
ENDMDL
