MODEL 1
REMARK VINA RESULT:     -13.3      0.000      0.000
REMARK SMILES Cc1ccn(CC(=O)N2CCC3(CC2)NC(=O)C[C@@H]3C(=O)NCCCCNC(=O)c2ccc(-c3c4nc(c(-c5c(F)cc(S(=O)(=O)[O-])cc5F)c5ccc([nH]5)c(-c5c(F)cc(S(=O)(=O)[O-])cc5F)c5nc(c(-c6c(F)cc(S(=O)(=O)[O-])cc6F)c6ccc3[nH]6)C=C5)C=C4)cc2)n1
REMARK SMILES IDX 25 1 24 2 23 3 22 4 20 5 21 6 19 8 7 9 8 10 9 11 10 12 14 13
REMARK SMILES IDX 11 14 13 15 12 16 15 17 16 18 18 20 17 21 6 22 5 23 1 24
REMARK SMILES IDX 2 25 3 26 96 27 4 28 26 29 27 30 28 31 29 33 30 34 31 35
REMARK SMILES IDX 95 36 32 37 94 38 33 39 34 40 35 41 88 42 36 43 93 44 87 45
REMARK SMILES IDX 89 46 37 47 92 48 86 49 85 50 38 52 72 53 51 54 71 55 52 56
REMARK SMILES IDX 55 57 70 58 90 59 53 60 54 61 69 63 91 64 56 65 39 66 40 67
REMARK SMILES IDX 49 68 41 69 42 70 48 71 50 72 43 73 44 74 45 75 46 76 47 77
REMARK SMILES IDX 73 78 74 79 83 80 75 81 76 82 82 83 84 84 77 85 78 86 79 87
REMARK SMILES IDX 80 88 81 89 57 90 58 91 67 92 59 93 60 94 66 95 68 96 61 97
REMARK SMILES IDX 62 98 63 99 64 100 65 101
REMARK H PARENT 22 7 15 19 27 32 89 51 55 62
REMARK Flexibility Score: inf
ROOT
ATOM      1  C   UNL A   1      38.351  22.023  25.783  1.00  0.00     0.023 C 
ENDROOT
BRANCH   1   2
ATOM      2  C   UNL A   1      37.317  22.879  25.033  1.00  0.00     0.023 C 
BRANCH   2   3
ATOM      3  C   UNL A   1      36.031  23.252  25.782  1.00  0.00     0.116 C 
BRANCH   3   4
ATOM      4  N   UNL A   1      35.547  22.159  26.595  1.00  0.00    -0.356 N 
ATOM      5  C   UNL A   1      34.444  21.394  26.395  1.00  0.00     0.226 C 
ATOM      6  O   UNL A   1      33.735  21.237  27.386  1.00  0.00    -0.275 OA
ATOM      7  H   UNL A   1      36.083  21.943  27.393  1.00  0.00     0.163 HD
BRANCH   5   8
ATOM      8  C   UNL A   1      34.045  20.874  25.018  1.00  0.00     0.113 C 
ATOM      9  C   UNL A   1      31.962  25.797  25.002  1.00  0.00     0.244 C 
ATOM     10  O   UNL A   1      31.709  26.275  26.111  1.00  0.00    -0.273 OA
ATOM     11  N   UNL A   1      32.275  24.448  24.837  1.00  0.00    -0.341 N 
ATOM     12  C   UNL A   1      31.788  23.506  25.840  1.00  0.00     0.122 C 
ATOM     13  C   UNL A   1      33.460  24.027  24.106  1.00  0.00     0.122 C 
ATOM     14  C   UNL A   1      31.680  22.068  25.304  1.00  0.00     0.051 C 
ATOM     15  C   UNL A   1      33.217  22.722  23.393  1.00  0.00     0.051 C 
ATOM     16  C   UNL A   1      32.813  21.595  24.352  1.00  0.00     0.055 C 
ATOM     17  N   UNL A   1      32.277  20.524  23.512  1.00  0.00    -0.350 N 
ATOM     18  C   UNL A   1      32.723  19.269  23.824  1.00  0.00     0.221 C 
ATOM     19  H   UNL A   1      31.643  20.695  22.777  1.00  0.00     0.164 HD
ATOM     20  C   UNL A   1      33.648  19.389  24.998  1.00  0.00     0.116 C 
ATOM     21  O   UNL A   1      32.420  18.252  23.246  1.00  0.00    -0.275 OA
BRANCH   9  22
ATOM     22  C   UNL A   1      31.697  26.617  23.754  1.00  0.00     0.244 C 
BRANCH  22  23
ATOM     23  N   UNL A   1      30.322  27.022  23.550  1.00  0.00    -0.263 N 
ATOM     24  C   UNL A   1      28.110  29.583  22.525  1.00  0.00     0.069 C 
ATOM     25  C   UNL A   1      28.745  28.340  23.021  1.00  0.00     0.059 A 
ATOM     26  C   UNL A   1      28.146  27.235  23.667  1.00  0.00     0.045 A 
ATOM     27  N   UNL A   1      30.069  28.184  22.909  1.00  0.00    -0.178 NA
ATOM     28  C   UNL A   1      29.188  26.390  23.975  1.00  0.00     0.109 A 
ENDBRANCH  22  23
ENDBRANCH   9  22
ENDBRANCH   5   8
ENDBRANCH   3   4
ENDBRANCH   2   3
ENDBRANCH   1   2
BRANCH   1  29
ATOM     29  C   UNL A   1      39.388  22.798  26.579  1.00  0.00     0.116 C 
BRANCH  29  30
ATOM     30  N   UNL A   1      40.770  22.362  26.338  1.00  0.00    -0.352 N 
ATOM     31  C   UNL A   1      41.893  23.148  26.100  1.00  0.00     0.251 C 
ATOM     32  H   UNL A   1      40.921  21.389  26.347  1.00  0.00     0.163 HD
ATOM     33  O   UNL A   1      42.884  22.681  25.555  1.00  0.00    -0.269 OA
BRANCH  31  34
ATOM     34  C   UNL A   1      41.861  24.556  26.536  1.00  0.00     0.039 A 
ATOM     35  C   UNL A   1      41.173  25.569  25.863  1.00  0.00     0.014 A 
ATOM     36  C   UNL A   1      42.510  24.824  27.729  1.00  0.00     0.014 A 
ATOM     37  C   UNL A   1      41.094  26.828  26.464  1.00  0.00     0.010 A 
ATOM     38  C   UNL A   1      42.160  25.927  28.440  1.00  0.00     0.010 A 
ATOM     39  C   UNL A   1      41.588  26.990  27.768  1.00  0.00    -0.014 A 
BRANCH  39  40
ATOM     40  C   UNL A   1      41.504  28.238  28.513  1.00  0.00     0.031 A 
ATOM     41  C   UNL A   1      42.602  29.187  28.222  1.00  0.00     0.074 A 
ATOM     42  C   UNL A   1      40.378  28.604  29.173  1.00  0.00     0.049 A 
ATOM     43  N   UNL A   1      43.624  29.463  28.960  1.00  0.00    -0.248 NA
ATOM     44  C   UNL A   1      42.675  29.769  26.869  1.00  0.00     0.031 C 
ATOM     45  C   UNL A   1      39.076  27.909  29.197  1.00  0.00     0.029 A 
ATOM     46  N   UNL A   1      40.108  29.740  29.871  1.00  0.00    -0.354 N 
ATOM     47  C   UNL A   1      44.290  30.484  28.289  1.00  0.00     0.074 A 
ATOM     48  C   UNL A   1      43.833  30.432  26.927  1.00  0.00     0.031 C 
ATOM     49  C   UNL A   1      38.115  28.745  29.640  1.00  0.00     0.029 A 
ATOM     50  C   UNL A   1      38.757  29.943  30.139  1.00  0.00     0.049 A 
ATOM     51  H   UNL A   1      40.809  30.368  30.162  1.00  0.00     0.167 HD
ATOM     52  C   UNL A   1      44.872  31.502  28.985  1.00  0.00     0.037 A 
ATOM     53  C   UNL A   1      38.194  31.012  30.750  1.00  0.00     0.037 A 
ATOM     54  C   UNL A   1      44.879  31.206  30.397  1.00  0.00     0.049 A 
ATOM     55  C   UNL A   1      39.260  31.659  31.551  1.00  0.00     0.074 A 
ATOM     56  C   UNL A   1      45.587  30.388  31.247  1.00  0.00     0.029 A 
ATOM     57  N   UNL A   1      43.715  31.555  31.034  1.00  0.00    -0.354 N 
ATOM     58  N   UNL A   1      39.874  31.066  32.541  1.00  0.00    -0.248 NA
ATOM     59  C   UNL A   1      39.936  32.836  31.017  1.00  0.00     0.031 C 
ATOM     60  C   UNL A   1      44.727  30.126  32.355  1.00  0.00     0.029 A 
ATOM     61  C   UNL A   1      43.535  30.826  32.179  1.00  0.00     0.049 A 
ATOM     62  H   UNL A   1      43.090  32.243  30.709  1.00  0.00     0.167 HD
ATOM     63  C   UNL A   1      41.174  31.526  32.468  1.00  0.00     0.074 A 
ATOM     64  C   UNL A   1      41.112  32.723  31.639  1.00  0.00     0.031 C 
ATOM     65  C   UNL A   1      42.228  30.723  32.797  1.00  0.00     0.037 A 
BRANCH  52  66
ATOM     66  C   UNL A   1      44.987  32.936  28.511  1.00  0.00     0.058 A 
ATOM     67  C   UNL A   1      46.269  33.493  28.317  1.00  0.00     0.135 A 
ATOM     68  C   UNL A   1      43.921  33.863  28.520  1.00  0.00     0.135 A 
ATOM     69  F   UNL A   1      47.359  32.708  28.307  1.00  0.00    -0.206 F 
ATOM     70  C   UNL A   1      46.479  34.869  28.191  1.00  0.00     0.059 A 
ATOM     71  C   UNL A   1      44.101  35.231  28.342  1.00  0.00     0.059 A 
ATOM     72  F   UNL A   1      42.663  33.505  28.802  1.00  0.00    -0.206 F 
ATOM     73  C   UNL A   1      45.386  35.730  28.215  1.00  0.00     0.060 A 
BRANCH  73  74
ATOM     74  S   UNL A   1      45.654  37.509  28.133  1.00  0.00     0.124 S 
ATOM     75  O   UNL A   1      46.013  37.815  29.513  1.00  0.00    -0.237 OA
ATOM     76  O   UNL A   1      46.732  37.608  27.154  1.00  0.00    -0.237 OA
ATOM     77  O   UNL A   1      44.362  38.022  27.686  1.00  0.00    -0.744 OA
ENDBRANCH  73  74
ENDBRANCH  52  66
BRANCH  53  78
ATOM     78  C   UNL A   1      36.896  31.659  30.436  1.00  0.00     0.058 A 
ATOM     79  C   UNL A   1      36.001  32.048  31.445  1.00  0.00     0.135 A 
ATOM     80  C   UNL A   1      36.639  32.164  29.143  1.00  0.00     0.135 A 
ATOM     81  F   UNL A   1      36.183  31.625  32.704  1.00  0.00    -0.206 F 
ATOM     82  C   UNL A   1      34.937  32.925  31.200  1.00  0.00     0.059 A 
ATOM     83  C   UNL A   1      35.586  33.037  28.875  1.00  0.00     0.059 A 
ATOM     84  F   UNL A   1      37.463  31.885  28.121  1.00  0.00    -0.206 F 
ATOM     85  C   UNL A   1      34.751  33.433  29.914  1.00  0.00     0.060 A 
BRANCH  85  86
ATOM     86  S   UNL A   1      33.479  34.688  29.628  1.00  0.00     0.124 S 
ATOM     87  O   UNL A   1      32.561  33.989  28.735  1.00  0.00    -0.237 OA
ATOM     88  O   UNL A   1      32.988  34.941  30.978  1.00  0.00    -0.237 OA
ATOM     89  O   UNL A   1      34.222  35.790  29.019  1.00  0.00    -0.744 OA
ENDBRANCH  85  86
ENDBRANCH  53  78
BRANCH  65  90
ATOM     90  C   UNL A   1      41.985  29.591  33.753  1.00  0.00     0.058 A 
ATOM     91  C   UNL A   1      41.796  28.246  33.392  1.00  0.00     0.135 A 
ATOM     92  C   UNL A   1      42.043  29.886  35.122  1.00  0.00     0.135 A 
ATOM     93  F   UNL A   1      41.801  27.871  32.105  1.00  0.00    -0.206 F 
ATOM     94  C   UNL A   1      41.650  27.244  34.355  1.00  0.00     0.059 A 
ATOM     95  C   UNL A   1      41.928  28.902  36.098  1.00  0.00     0.059 A 
ATOM     96  F   UNL A   1      42.264  31.148  35.529  1.00  0.00    -0.206 F 
ATOM     97  C   UNL A   1      41.719  27.582  35.707  1.00  0.00     0.060 A 
BRANCH  97  98
ATOM     98  S   UNL A   1      41.594  26.283  36.955  1.00  0.00     0.124 S 
ATOM     99  O   UNL A   1      41.558  25.075  36.137  1.00  0.00    -0.237 OA
ATOM    100  O   UNL A   1      42.808  26.481  37.741  1.00  0.00    -0.237 OA
ATOM    101  O   UNL A   1      40.351  26.598  37.654  1.00  0.00    -0.744 OA
ENDBRANCH  97  98
ENDBRANCH  65  90
ENDBRANCH  39  40
ENDBRANCH  31  34
ENDBRANCH  29  30
ENDBRANCH   1  29
TORSDOF 16
ENDMDL
MODEL 2
REMARK VINA RESULT:     -13.0      1.695      2.618
REMARK SMILES Cc1ccn(CC(=O)N2CCC3(CC2)NC(=O)C[C@@H]3C(=O)NCCCCNC(=O)c2ccc(-c3c4nc(c(-c5c(F)cc(S(=O)(=O)[O-])cc5F)c5ccc([nH]5)c(-c5c(F)cc(S(=O)(=O)[O-])cc5F)c5nc(c(-c6c(F)cc(S(=O)(=O)[O-])cc6F)c6ccc3[nH]6)C=C5)C=C4)cc2)n1
REMARK SMILES IDX 25 1 24 2 23 3 22 4 20 5 21 6 19 8 7 9 8 10 9 11 10 12 14 13
REMARK SMILES IDX 11 14 13 15 12 16 15 17 16 18 18 20 17 21 6 22 5 23 1 24
REMARK SMILES IDX 2 25 3 26 96 27 4 28 26 29 27 30 28 31 29 33 30 34 31 35
REMARK SMILES IDX 95 36 32 37 94 38 33 39 34 40 35 41 88 42 36 43 93 44 87 45
REMARK SMILES IDX 89 46 37 47 92 48 86 49 85 50 38 52 72 53 51 54 71 55 52 56
REMARK SMILES IDX 55 57 70 58 90 59 53 60 54 61 69 63 91 64 56 65 39 66 40 67
REMARK SMILES IDX 49 68 41 69 42 70 48 71 50 72 43 73 44 74 45 75 46 76 47 77
REMARK SMILES IDX 73 78 74 79 83 80 75 81 76 82 82 83 84 84 77 85 78 86 79 87
REMARK SMILES IDX 80 88 81 89 57 90 58 91 67 92 59 93 60 94 66 95 68 96 61 97
REMARK SMILES IDX 62 98 63 99 64 100 65 101
REMARK H PARENT 22 7 15 19 27 32 89 51 55 62
REMARK Flexibility Score: inf
ROOT
ATOM      1  C   UNL A   1      37.175  22.305  24.658  1.00  0.00     0.023 C 
ENDROOT
BRANCH   1   2
ATOM      2  C   UNL A   1      36.703  20.855  24.850  1.00  0.00     0.023 C 
BRANCH   2   3
ATOM      3  C   UNL A   1      35.190  20.598  24.854  1.00  0.00     0.116 C 
BRANCH   3   4
ATOM      4  N   UNL A   1      34.504  21.418  23.880  1.00  0.00    -0.356 N 
ATOM      5  C   UNL A   1      33.209  21.825  23.895  1.00  0.00     0.226 C 
ATOM      6  O   UNL A   1      32.606  21.673  22.836  1.00  0.00    -0.275 OA
ATOM      7  H   UNL A   1      35.042  21.718  23.111  1.00  0.00     0.163 HD
BRANCH   5   8
ATOM      8  C   UNL A   1      32.517  22.314  25.163  1.00  0.00     0.113 C 
ATOM      9  C   UNL A   1      33.109  26.847  22.392  1.00  0.00     0.244 C 
ATOM     10  O   UNL A   1      34.029  26.856  21.571  1.00  0.00    -0.273 OA
ATOM     11  N   UNL A   1      32.987  25.840  23.348  1.00  0.00    -0.341 N 
ATOM     12  C   UNL A   1      34.194  25.116  23.736  1.00  0.00     0.122 C 
ATOM     13  C   UNL A   1      31.738  25.119  23.537  1.00  0.00     0.122 C 
ATOM     14  C   UNL A   1      34.081  24.471  25.129  1.00  0.00     0.051 C 
ATOM     15  C   UNL A   1      31.559  24.720  24.980  1.00  0.00     0.051 C 
ATOM     16  C   UNL A   1      32.708  23.842  25.493  1.00  0.00     0.055 C 
ATOM     17  N   UNL A   1      32.589  23.836  26.951  1.00  0.00    -0.350 N 
ATOM     18  C   UNL A   1      32.724  22.605  27.534  1.00  0.00     0.221 C 
ATOM     19  H   UNL A   1      32.425  24.655  27.472  1.00  0.00     0.164 HD
ATOM     20  C   UNL A   1      32.983  21.607  26.446  1.00  0.00     0.116 C 
ATOM     21  O   UNL A   1      32.641  22.376  28.718  1.00  0.00    -0.275 OA
BRANCH   9  22
ATOM     22  C   UNL A   1      32.225  28.071  22.540  1.00  0.00     0.244 C 
BRANCH  22  23
ATOM     23  N   UNL A   1      32.190  28.664  23.860  1.00  0.00    -0.263 N 
ATOM     24  C   UNL A   1      34.047  29.780  26.654  1.00  0.00     0.069 C 
ATOM     25  C   UNL A   1      32.999  29.402  25.677  1.00  0.00     0.059 A 
ATOM     26  C   UNL A   1      31.601  29.314  25.866  1.00  0.00     0.045 A 
ATOM     27  N   UNL A   1      33.349  29.051  24.436  1.00  0.00    -0.178 NA
ATOM     28  C   UNL A   1      31.104  28.857  24.666  1.00  0.00     0.109 A 
ENDBRANCH  22  23
ENDBRANCH   9  22
ENDBRANCH   5   8
ENDBRANCH   3   4
ENDBRANCH   2   3
ENDBRANCH   1   2
BRANCH   1  29
ATOM     29  C   UNL A   1      37.774  22.966  25.888  1.00  0.00     0.116 C 
BRANCH  29  30
ATOM     30  N   UNL A   1      38.829  22.176  26.534  1.00  0.00    -0.352 N 
ATOM     31  C   UNL A   1      40.043  22.617  27.051  1.00  0.00     0.251 C 
ATOM     32  H   UNL A   1      38.655  21.209  26.612  1.00  0.00     0.163 HD
ATOM     33  O   UNL A   1      40.975  21.841  27.217  1.00  0.00    -0.269 OA
BRANCH  31  34
ATOM     34  C   UNL A   1      40.171  24.041  27.408  1.00  0.00     0.039 A 
ATOM     35  C   UNL A   1      39.172  24.994  27.194  1.00  0.00     0.014 A 
ATOM     36  C   UNL A   1      41.343  24.389  28.055  1.00  0.00     0.014 A 
ATOM     37  C   UNL A   1      39.357  26.276  27.718  1.00  0.00     0.010 A 
ATOM     38  C   UNL A   1      41.370  25.511  28.821  1.00  0.00     0.010 A 
ATOM     39  C   UNL A   1      40.466  26.519  28.545  1.00  0.00    -0.014 A 
BRANCH  39  40
ATOM     40  C   UNL A   1      40.725  27.796  29.193  1.00  0.00     0.031 A 
ATOM     41  C   UNL A   1      41.815  28.578  28.565  1.00  0.00     0.074 A 
ATOM     42  C   UNL A   1      39.860  28.335  30.086  1.00  0.00     0.049 A 
ATOM     43  N   UNL A   1      43.018  28.746  29.000  1.00  0.00    -0.248 NA
ATOM     44  C   UNL A   1      41.602  29.089  27.199  1.00  0.00     0.031 C 
ATOM     45  C   UNL A   1      38.537  27.821  30.488  1.00  0.00     0.029 A 
ATOM     46  N   UNL A   1      39.916  29.525  30.744  1.00  0.00    -0.354 N 
ATOM     47  C   UNL A   1      43.602  29.642  28.109  1.00  0.00     0.074 A 
ATOM     48  C   UNL A   1      42.806  29.594  26.914  1.00  0.00     0.031 C 
ATOM     49  C   UNL A   1      37.828  28.795  31.096  1.00  0.00     0.029 A 
ATOM     50  C   UNL A   1      38.714  29.916  31.327  1.00  0.00     0.049 A 
ATOM     51  H   UNL A   1      40.738  30.065  30.801  1.00  0.00     0.167 HD
ATOM     52  C   UNL A   1      44.461  30.601  28.559  1.00  0.00     0.037 A 
ATOM     53  C   UNL A   1      38.458  31.075  31.979  1.00  0.00     0.037 A 
ATOM     54  C   UNL A   1      44.798  30.365  29.941  1.00  0.00     0.049 A 
ATOM     55  C   UNL A   1      39.764  31.607  32.436  1.00  0.00     0.074 A 
ATOM     56  C   UNL A   1      45.601  29.496  30.644  1.00  0.00     0.029 A 
ATOM     57  N   UNL A   1      43.889  30.892  30.823  1.00  0.00    -0.354 N 
ATOM     58  N   UNL A   1      40.539  30.979  33.281  1.00  0.00    -0.248 NA
ATOM     59  C   UNL A   1      40.412  32.661  31.664  1.00  0.00     0.031 C 
ATOM     60  C   UNL A   1      45.033  29.397  31.949  1.00  0.00     0.029 A 
ATOM     61  C   UNL A   1      43.927  30.241  32.028  1.00  0.00     0.049 A 
ATOM     62  H   UNL A   1      43.287  31.642  30.616  1.00  0.00     0.167 HD
ATOM     63  C   UNL A   1      41.821  31.259  32.850  1.00  0.00     0.074 A 
ATOM     64  C   UNL A   1      41.688  32.419  31.977  1.00  0.00     0.031 C 
ATOM     65  C   UNL A   1      42.822  30.337  32.961  1.00  0.00     0.037 A 
BRANCH  52  66
ATOM     66  C   UNL A   1      44.617  31.986  27.967  1.00  0.00     0.058 A 
ATOM     67  C   UNL A   1      45.819  32.317  27.305  1.00  0.00     0.135 A 
ATOM     68  C   UNL A   1      43.773  33.079  28.268  1.00  0.00     0.135 A 
ATOM     69  F   UNL A   1      46.706  31.361  26.985  1.00  0.00    -0.206 F 
ATOM     70  C   UNL A   1      46.176  33.636  27.012  1.00  0.00     0.059 A 
ATOM     71  C   UNL A   1      44.083  34.393  27.936  1.00  0.00     0.059 A 
ATOM     72  F   UNL A   1      42.654  32.941  28.989  1.00  0.00    -0.206 F 
ATOM     73  C   UNL A   1      45.303  34.668  27.341  1.00  0.00     0.060 A 
BRANCH  73  74
ATOM     74  S   UNL A   1      45.788  36.375  27.037  1.00  0.00     0.124 S 
ATOM     75  O   UNL A   1      46.552  36.246  25.801  1.00  0.00    -0.237 OA
ATOM     76  O   UNL A   1      44.496  37.043  26.925  1.00  0.00    -0.237 OA
ATOM     77  O   UNL A   1      46.563  36.720  28.226  1.00  0.00    -0.744 OA
ENDBRANCH  73  74
ENDBRANCH  52  66
BRANCH  53  78
ATOM     78  C   UNL A   1      37.209  31.875  31.955  1.00  0.00     0.058 A 
ATOM     79  C   UNL A   1      36.539  32.235  33.136  1.00  0.00     0.135 A 
ATOM     80  C   UNL A   1      36.805  32.542  30.779  1.00  0.00     0.135 A 
ATOM     81  F   UNL A   1      36.873  31.660  34.300  1.00  0.00    -0.206 F 
ATOM     82  C   UNL A   1      35.557  33.233  33.160  1.00  0.00     0.059 A 
ATOM     83  C   UNL A   1      35.830  33.537  30.778  1.00  0.00     0.059 A 
ATOM     84  F   UNL A   1      37.416  32.300  29.608  1.00  0.00    -0.206 F 
ATOM     85  C   UNL A   1      35.224  33.895  31.978  1.00  0.00     0.060 A 
BRANCH  85  86
ATOM     86  S   UNL A   1      34.074  35.291  32.033  1.00  0.00     0.124 S 
ATOM     87  O   UNL A   1      34.813  36.258  32.837  1.00  0.00    -0.237 OA
ATOM     88  O   UNL A   1      33.921  35.620  30.621  1.00  0.00    -0.237 OA
ATOM     89  O   UNL A   1      32.887  34.728  32.674  1.00  0.00    -0.744 OA
ENDBRANCH  85  86
ENDBRANCH  53  78
BRANCH  65  90
ATOM     90  C   UNL A   1      42.703  29.288  34.028  1.00  0.00     0.058 A 
ATOM     91  C   UNL A   1      42.954  29.485  35.396  1.00  0.00     0.135 A 
ATOM     92  C   UNL A   1      42.213  28.033  33.640  1.00  0.00     0.135 A 
ATOM     93  F   UNL A   1      43.355  30.678  35.858  1.00  0.00    -0.206 F 
ATOM     94  C   UNL A   1      42.747  28.468  36.332  1.00  0.00     0.059 A 
ATOM     95  C   UNL A   1      41.973  27.015  34.556  1.00  0.00     0.059 A 
ATOM     96  F   UNL A   1      41.914  27.798  32.350  1.00  0.00    -0.206 F 
ATOM     97  C   UNL A   1      42.254  27.236  35.901  1.00  0.00     0.060 A 
BRANCH  97  98
ATOM     98  S   UNL A   1      41.924  25.939  37.115  1.00  0.00     0.124 S 
ATOM     99  O   UNL A   1      40.535  26.202  37.475  1.00  0.00    -0.237 OA
ATOM    100  O   UNL A   1      42.160  24.720  36.347  1.00  0.00    -0.237 OA
ATOM    101  O   UNL A   1      42.901  26.201  38.169  1.00  0.00    -0.744 OA
ENDBRANCH  97  98
ENDBRANCH  65  90
ENDBRANCH  39  40
ENDBRANCH  31  34
ENDBRANCH  29  30
ENDBRANCH   1  29
TORSDOF 16
ENDMDL
MODEL 3
REMARK VINA RESULT:     -12.9      2.993      9.494
REMARK SMILES Cc1ccn(CC(=O)N2CCC3(CC2)NC(=O)C[C@@H]3C(=O)NCCCCNC(=O)c2ccc(-c3c4nc(c(-c5c(F)cc(S(=O)(=O)[O-])cc5F)c5ccc([nH]5)c(-c5c(F)cc(S(=O)(=O)[O-])cc5F)c5nc(c(-c6c(F)cc(S(=O)(=O)[O-])cc6F)c6ccc3[nH]6)C=C5)C=C4)cc2)n1
REMARK SMILES IDX 25 1 24 2 23 3 22 4 20 5 21 6 19 8 7 9 8 10 9 11 10 12 14 13
REMARK SMILES IDX 11 14 13 15 12 16 15 17 16 18 18 20 17 21 6 22 5 23 1 24
REMARK SMILES IDX 2 25 3 26 96 27 4 28 26 29 27 30 28 31 29 33 30 34 31 35
REMARK SMILES IDX 95 36 32 37 94 38 33 39 34 40 35 41 88 42 36 43 93 44 87 45
REMARK SMILES IDX 89 46 37 47 92 48 86 49 85 50 38 52 72 53 51 54 71 55 52 56
REMARK SMILES IDX 55 57 70 58 90 59 53 60 54 61 69 63 91 64 56 65 39 66 40 67
REMARK SMILES IDX 49 68 41 69 42 70 48 71 50 72 43 73 44 74 45 75 46 76 47 77
REMARK SMILES IDX 73 78 74 79 83 80 75 81 76 82 82 83 84 84 77 85 78 86 79 87
REMARK SMILES IDX 80 88 81 89 57 90 58 91 67 92 59 93 60 94 66 95 68 96 61 97
REMARK SMILES IDX 62 98 63 99 64 100 65 101
REMARK H PARENT 22 7 15 19 27 32 89 51 55 62
REMARK Flexibility Score: inf
ROOT
ATOM      1  C   UNL A   1      34.231  31.039  27.729  1.00  0.00     0.023 C 
ENDROOT
BRANCH   1   2
ATOM      2  C   UNL A   1      34.892  29.720  27.297  1.00  0.00     0.023 C 
BRANCH   2   3
ATOM      3  C   UNL A   1      34.082  28.788  26.385  1.00  0.00     0.116 C 
BRANCH   3   4
ATOM      4  N   UNL A   1      33.814  29.396  25.100  1.00  0.00    -0.356 N 
ATOM      5  C   UNL A   1      32.978  28.954  24.126  1.00  0.00     0.226 C 
ATOM      6  O   UNL A   1      33.458  28.948  22.995  1.00  0.00    -0.275 OA
ATOM      7  H   UNL A   1      34.298  30.232  24.908  1.00  0.00     0.163 HD
BRANCH   5   8
ATOM      8  C   UNL A   1      31.595  28.388  24.426  1.00  0.00     0.113 C 
ATOM      9  C   UNL A   1      34.766  24.220  25.498  1.00  0.00     0.244 C 
ATOM     10  O   UNL A   1      35.853  24.210  24.914  1.00  0.00    -0.273 OA
ATOM     11  N   UNL A   1      33.746  25.101  25.138  1.00  0.00    -0.341 N 
ATOM     12  C   UNL A   1      33.741  25.620  23.774  1.00  0.00     0.122 C 
ATOM     13  C   UNL A   1      33.077  25.932  26.126  1.00  0.00     0.122 C 
ATOM     14  C   UNL A   1      32.347  26.085  23.318  1.00  0.00     0.051 C 
ATOM     15  C   UNL A   1      31.634  26.156  25.753  1.00  0.00     0.051 C 
ATOM     16  C   UNL A   1      31.479  26.818  24.378  1.00  0.00     0.055 C 
ATOM     17  N   UNL A   1      30.075  26.647  24.005  1.00  0.00    -0.350 N 
ATOM     18  C   UNL A   1      29.474  27.766  23.495  1.00  0.00     0.221 C 
ATOM     19  H   UNL A   1      29.599  25.792  24.113  1.00  0.00     0.164 HD
ATOM     20  C   UNL A   1      30.498  28.861  23.458  1.00  0.00     0.116 C 
ATOM     21  O   UNL A   1      28.320  27.846  23.145  1.00  0.00    -0.275 OA
BRANCH   9  22
ATOM     22  C   UNL A   1      34.423  23.101  26.462  1.00  0.00     0.244 C 
BRANCH  22  23
ATOM     23  N   UNL A   1      33.699  21.983  25.895  1.00  0.00    -0.263 N 
ATOM     24  C   UNL A   1      33.884  18.758  24.457  1.00  0.00     0.069 C 
ATOM     25  C   UNL A   1      33.470  20.074  24.997  1.00  0.00     0.059 A 
ATOM     26  C   UNL A   1      32.214  20.717  24.903  1.00  0.00     0.045 A 
ATOM     27  N   UNL A   1      34.360  20.831  25.647  1.00  0.00    -0.178 NA
ATOM     28  C   UNL A   1      32.388  21.938  25.513  1.00  0.00     0.109 A 
ENDBRANCH  22  23
ENDBRANCH   9  22
ENDBRANCH   5   8
ENDBRANCH   3   4
ENDBRANCH   2   3
ENDBRANCH   1   2
BRANCH   1  29
ATOM     29  C   UNL A   1      35.185  32.129  28.190  1.00  0.00     0.116 C 
BRANCH  29  30
ATOM     30  N   UNL A   1      34.841  32.708  29.494  1.00  0.00    -0.352 N 
ATOM     31  C   UNL A   1      35.148  32.222  30.761  1.00  0.00     0.251 C 
ATOM     32  H   UNL A   1      34.328  33.548  29.469  1.00  0.00     0.163 HD
ATOM     33  O   UNL A   1      34.505  32.573  31.742  1.00  0.00    -0.269 OA
BRANCH  31  34
ATOM     34  C   UNL A   1      36.277  31.284  30.892  1.00  0.00     0.039 A 
ATOM     35  C   UNL A   1      36.154  29.894  30.814  1.00  0.00     0.014 A 
ATOM     36  C   UNL A   1      37.524  31.869  31.027  1.00  0.00     0.014 A 
ATOM     37  C   UNL A   1      37.321  29.126  30.798  1.00  0.00     0.010 A 
ATOM     38  C   UNL A   1      38.630  31.158  30.691  1.00  0.00     0.010 A 
ATOM     39  C   UNL A   1      38.562  29.778  30.726  1.00  0.00    -0.014 A 
BRANCH  39  40
ATOM     40  C   UNL A   1      39.837  29.080  30.643  1.00  0.00     0.031 A 
ATOM     41  C   UNL A   1      40.518  28.915  31.947  1.00  0.00     0.074 A 
ATOM     42  C   UNL A   1      40.207  28.395  29.533  1.00  0.00     0.049 A 
ATOM     43  N   UNL A   1      41.539  29.567  32.392  1.00  0.00    -0.248 NA
ATOM     44  C   UNL A   1      39.883  28.048  32.956  1.00  0.00     0.031 C 
ATOM     45  C   UNL A   1      39.418  28.159  28.309  1.00  0.00     0.029 A 
ATOM     46  N   UNL A   1      41.324  27.653  29.300  1.00  0.00    -0.354 N 
ATOM     47  C   UNL A   1      41.852  28.963  33.606  1.00  0.00     0.074 A 
ATOM     48  C   UNL A   1      40.671  28.253  34.016  1.00  0.00     0.031 C 
ATOM     49  C   UNL A   1      39.957  27.147  27.598  1.00  0.00     0.029 A 
ATOM     50  C   UNL A   1      41.238  26.818  28.189  1.00  0.00     0.049 A 
ATOM     51  H   UNL A   1      42.126  27.702  29.869  1.00  0.00     0.167 HD
ATOM     52  C   UNL A   1      43.153  28.802  33.982  1.00  0.00     0.037 A 
ATOM     53  C   UNL A   1      42.161  25.926  27.761  1.00  0.00     0.037 A 
ATOM     54  C   UNL A   1      44.026  29.525  33.092  1.00  0.00     0.049 A 
ATOM     55  C   UNL A   1      43.464  26.353  28.325  1.00  0.00     0.074 A 
ATOM     56  C   UNL A   1      44.382  30.838  32.883  1.00  0.00     0.029 A 
ATOM     57  N   UNL A   1      44.358  28.823  31.962  1.00  0.00    -0.354 N 
ATOM     58  N   UNL A   1      44.030  27.496  28.037  1.00  0.00    -0.248 NA
ATOM     59  C   UNL A   1      43.975  25.690  29.519  1.00  0.00     0.031 C 
ATOM     60  C   UNL A   1      44.790  30.927  31.518  1.00  0.00     0.029 A 
ATOM     61  C   UNL A   1      44.719  29.662  30.941  1.00  0.00     0.049 A 
ATOM     62  H   UNL A   1      44.340  27.841  31.893  1.00  0.00     0.167 HD
ATOM     63  C   UNL A   1      44.642  27.885  29.212  1.00  0.00     0.074 A 
ATOM     64  C   UNL A   1      44.724  26.676  30.022  1.00  0.00     0.031 C 
ATOM     65  C   UNL A   1      44.723  29.201  29.566  1.00  0.00     0.037 A 
BRANCH  52  66
ATOM     66  C   UNL A   1      43.692  27.647  34.800  1.00  0.00     0.058 A 
ATOM     67  C   UNL A   1      44.315  27.916  36.038  1.00  0.00     0.135 A 
ATOM     68  C   UNL A   1      43.885  26.340  34.299  1.00  0.00     0.135 A 
ATOM     69  F   UNL A   1      44.214  29.132  36.601  1.00  0.00    -0.206 F 
ATOM     70  C   UNL A   1      45.108  26.975  36.700  1.00  0.00     0.059 A 
ATOM     71  C   UNL A   1      44.624  25.370  34.969  1.00  0.00     0.059 A 
ATOM     72  F   UNL A   1      43.452  25.966  33.090  1.00  0.00    -0.206 F 
ATOM     73  C   UNL A   1      45.263  25.707  36.150  1.00  0.00     0.060 A 
BRANCH  73  74
ATOM     74  S   UNL A   1      46.345  24.514  36.956  1.00  0.00     0.124 S 
ATOM     75  O   UNL A   1      47.276  24.191  35.881  1.00  0.00    -0.237 OA
ATOM     76  O   UNL A   1      46.889  25.297  38.061  1.00  0.00    -0.237 OA
ATOM     77  O   UNL A   1      45.432  23.443  37.346  1.00  0.00    -0.744 OA
ENDBRANCH  73  74
ENDBRANCH  52  66
BRANCH  53  78
ATOM     78  C   UNL A   1      41.925  24.588  27.164  1.00  0.00     0.058 A 
ATOM     79  C   UNL A   1      42.842  24.002  26.277  1.00  0.00     0.135 A 
ATOM     80  C   UNL A   1      40.922  23.739  27.678  1.00  0.00     0.135 A 
ATOM     81  F   UNL A   1      43.836  24.736  25.755  1.00  0.00    -0.206 F 
ATOM     82  C   UNL A   1      42.799  22.640  25.953  1.00  0.00     0.059 A 
ATOM     83  C   UNL A   1      40.858  22.381  27.370  1.00  0.00     0.059 A 
ATOM     84  F   UNL A   1      40.026  24.194  28.568  1.00  0.00    -0.206 F 
ATOM     85  C   UNL A   1      41.815  21.832  26.523  1.00  0.00     0.060 A 
BRANCH  85  86
ATOM     86  S   UNL A   1      41.853  20.046  26.234  1.00  0.00     0.124 S 
ATOM     87  O   UNL A   1      42.264  19.538  27.538  1.00  0.00    -0.237 OA
ATOM     88  O   UNL A   1      40.475  19.767  25.846  1.00  0.00    -0.237 OA
ATOM     89  O   UNL A   1      42.843  19.896  25.169  1.00  0.00    -0.744 OA
ENDBRANCH  85  86
ENDBRANCH  53  78
BRANCH  65  90
ATOM     90  C   UNL A   1      44.683  30.232  28.475  1.00  0.00     0.058 A 
ATOM     91  C   UNL A   1      43.519  30.815  27.947  1.00  0.00     0.135 A 
ATOM     92  C   UNL A   1      45.913  30.719  28.009  1.00  0.00     0.135 A 
ATOM     93  F   UNL A   1      42.307  30.457  28.392  1.00  0.00    -0.206 F 
ATOM     94  C   UNL A   1      43.579  31.824  26.982  1.00  0.00     0.059 A 
ATOM     95  C   UNL A   1      45.998  31.740  27.070  1.00  0.00     0.059 A 
ATOM     96  F   UNL A   1      47.061  30.229  28.507  1.00  0.00    -0.206 F 
ATOM     97  C   UNL A   1      44.825  32.281  26.550  1.00  0.00     0.060 A 
BRANCH  97  98
ATOM     98  S   UNL A   1      44.909  33.627  25.349  1.00  0.00     0.124 S 
ATOM     99  O   UNL A   1      44.080  34.651  25.977  1.00  0.00    -0.237 OA
ATOM    100  O   UNL A   1      46.339  33.914  25.295  1.00  0.00    -0.237 OA
ATOM    101  O   UNL A   1      44.354  33.036  24.134  1.00  0.00    -0.744 OA
ENDBRANCH  97  98
ENDBRANCH  65  90
ENDBRANCH  39  40
ENDBRANCH  31  34
ENDBRANCH  29  30
ENDBRANCH   1  29
TORSDOF 16
ENDMDL
