MODEL 1
REMARK VINA RESULT:     -12.9      0.000      0.000
REMARK SMILES Cc1cc(C)c(NS(=O)(=O)c2cccc3cc(C)cnc23)c(C(=O)NCCCCNC(=O)c2ccc(-c3c4nc(c(-c5c(F)cc(S(=O)(=O)[O-])cc5F)c5ccc([nH]5)c(-c5c(F)cc(S(=O)(=O)[O-])cc5F)c5nc(c(-c6c(F)cc(S(=O)(=O)[O-])cc6F)c6ccc3[nH]6)C=C5)C=C4)cc2)c1
REMARK SMILES IDX 27 1 26 2 25 3 23 4 24 5 22 7 1 8 2 9 3 10 99 11 4 12 5 13
REMARK SMILES IDX 6 14 7 15 8 17 9 18 10 19 11 20 12 21 21 22 13 23 15 24
REMARK SMILES IDX 20 25 14 26 16 27 19 28 17 29 18 30 28 31 29 32 30 33 31 34
REMARK SMILES IDX 32 36 33 37 34 38 98 39 35 40 97 41 36 42 37 43 38 44 91 45
REMARK SMILES IDX 39 46 96 47 90 48 92 49 40 50 95 51 89 52 88 53 41 55 75 56
REMARK SMILES IDX 54 57 74 58 55 59 58 60 73 61 93 62 56 63 57 64 72 66 94 67
REMARK SMILES IDX 59 68 42 69 43 70 52 71 44 72 45 73 51 74 53 75 46 76 47 77
REMARK SMILES IDX 48 78 49 79 50 80 76 81 77 82 86 83 78 84 79 85 85 86 87 87
REMARK SMILES IDX 80 88 81 89 82 90 83 91 84 92 60 93 61 94 70 95 62 96 63 97
REMARK SMILES IDX 69 98 71 99 64 100 65 101 66 102 67 103 68 104
REMARK H PARENT 25 6 7 16 30 35 92 54 58 65
REMARK Flexibility Score: inf
ROOT
ATOM      1  C   UNL A   1      38.718  21.495  25.770  1.00  0.00     0.023 C 
ENDROOT
BRANCH   1   2
ATOM      2  C   UNL A   1      37.657  22.600  25.720  1.00  0.00     0.116 C 
BRANCH   2   3
ATOM      3  N   UNL A   1      37.340  22.907  24.336  1.00  0.00    -0.352 N 
ATOM      4  C   UNL A   1      36.173  22.788  23.617  1.00  0.00     0.253 C 
ATOM      5  O   UNL A   1      36.198  23.067  22.418  1.00  0.00    -0.269 OA
ATOM      6  H   UNL A   1      38.097  23.264  23.818  1.00  0.00     0.163 HD
BRANCH   4   7
ATOM      7  C   UNL A   1      34.871  22.450  24.264  1.00  0.00     0.064 A 
ATOM      8  C   UNL A   1      33.177  19.365  25.671  1.00  0.00     0.044 C 
ATOM      9  C   UNL A   1      33.470  20.802  25.363  1.00  0.00    -0.050 A 
ATOM     10  C   UNL A   1      32.753  21.849  25.950  1.00  0.00     0.009 A 
ATOM     11  C   UNL A   1      34.541  21.118  24.531  1.00  0.00     0.019 A 
ATOM     12  C   UNL A   1      33.017  23.200  25.628  1.00  0.00    -0.026 A 
ATOM     13  C   UNL A   1      32.257  24.256  26.378  1.00  0.00     0.046 C 
ATOM     14  C   UNL A   1      33.985  23.490  24.650  1.00  0.00     0.065 A 
BRANCH  14  15
ATOM     15  N   UNL A   1      34.203  24.800  24.090  1.00  0.00    -0.278 N 
ATOM     16  H   UNL A   1      35.033  25.258  24.360  1.00  0.00     0.180 HD
BRANCH  15  17
ATOM     17  S   UNL A   1      33.202  25.638  23.029  1.00  0.00     0.264 S 
ATOM     18  O   UNL A   1      34.123  26.279  22.102  1.00  0.00    -0.201 OA
ATOM     19  O   UNL A   1      32.250  24.678  22.505  1.00  0.00    -0.201 OA
BRANCH  17  20
ATOM     20  C   UNL A   1      32.240  26.961  23.711  1.00  0.00     0.114 A 
ATOM     21  C   UNL A   1      31.072  27.276  22.978  1.00  0.00     0.024 A 
ATOM     22  C   UNL A   1      32.653  27.742  24.785  1.00  0.00     0.091 A 
ATOM     23  C   UNL A   1      30.366  28.442  23.230  1.00  0.00     0.002 A 
ATOM     24  C   UNL A   1      31.992  28.986  24.939  1.00  0.00     0.002 A 
ATOM     25  N   UNL A   1      33.649  27.397  25.629  1.00  0.00    -0.255 NA
ATOM     26  C   UNL A   1      30.857  29.320  24.181  1.00  0.00     0.010 A 
ATOM     27  C   UNL A   1      32.522  29.925  25.832  1.00  0.00     0.015 A 
ATOM     28  C   UNL A   1      34.108  28.315  26.511  1.00  0.00     0.115 A 
ATOM     29  C   UNL A   1      33.639  29.612  26.596  1.00  0.00    -0.032 A 
ATOM     30  C   UNL A   1      34.322  30.654  27.420  1.00  0.00     0.046 C 
ENDBRANCH  17  20
ENDBRANCH  15  17
ENDBRANCH  14  15
ENDBRANCH   4   7
ENDBRANCH   2   3
ENDBRANCH   1   2
BRANCH   1  31
ATOM     31  C   UNL A   1      39.921  21.850  26.646  1.00  0.00     0.023 C 
BRANCH  31  32
ATOM     32  C   UNL A   1      40.222  23.343  26.712  1.00  0.00     0.116 C 
BRANCH  32  33
ATOM     33  N   UNL A   1      41.417  23.717  25.971  1.00  0.00    -0.352 N 
ATOM     34  C   UNL A   1      42.139  24.883  26.062  1.00  0.00     0.251 C 
ATOM     35  H   UNL A   1      41.750  23.053  25.325  1.00  0.00     0.163 HD
ATOM     36  O   UNL A   1      43.076  25.097  25.297  1.00  0.00    -0.269 OA
BRANCH  34  37
ATOM     37  C   UNL A   1      41.734  25.891  27.061  1.00  0.00     0.039 A 
ATOM     38  C   UNL A   1      40.854  25.515  28.077  1.00  0.00     0.014 A 
ATOM     39  C   UNL A   1      42.288  27.174  27.033  1.00  0.00     0.014 A 
ATOM     40  C   UNL A   1      40.586  26.409  29.114  1.00  0.00     0.010 A 
ATOM     41  C   UNL A   1      42.070  28.037  28.101  1.00  0.00     0.010 A 
ATOM     42  C   UNL A   1      41.224  27.661  29.155  1.00  0.00    -0.014 A 
BRANCH  42  43
ATOM     43  C   UNL A   1      41.031  28.582  30.301  1.00  0.00     0.031 A 
ATOM     44  C   UNL A   1      41.897  28.456  31.523  1.00  0.00     0.074 A 
ATOM     45  C   UNL A   1      40.031  29.486  30.266  1.00  0.00     0.049 A 
ATOM     46  N   UNL A   1      41.844  29.127  32.644  1.00  0.00    -0.248 NA
ATOM     47  C   UNL A   1      42.941  27.418  31.492  1.00  0.00     0.031 C 
ATOM     48  C   UNL A   1      39.086  29.661  29.160  1.00  0.00     0.029 A 
ATOM     49  N   UNL A   1      39.636  30.420  31.189  1.00  0.00    -0.354 N 
ATOM     50  C   UNL A   1      42.835  28.587  33.454  1.00  0.00     0.074 A 
ATOM     51  C   UNL A   1      43.439  27.499  32.717  1.00  0.00     0.031 C 
ATOM     52  C   UNL A   1      38.236  30.657  29.461  1.00  0.00     0.029 A 
ATOM     53  C   UNL A   1      38.555  31.171  30.790  1.00  0.00     0.049 A 
ATOM     54  H   UNL A   1      40.084  30.544  32.057  1.00  0.00     0.167 HD
ATOM     55  C   UNL A   1      43.224  28.981  34.690  1.00  0.00     0.037 A 
ATOM     56  C   UNL A   1      37.897  32.160  31.423  1.00  0.00     0.037 A 
ATOM     57  C   UNL A   1      42.640  30.084  35.405  1.00  0.00     0.049 A 
ATOM     58  C   UNL A   1      38.362  32.594  32.786  1.00  0.00     0.074 A 
ATOM     59  C   UNL A   1      43.003  30.600  36.637  1.00  0.00     0.029 A 
ATOM     60  N   UNL A   1      41.572  30.844  34.952  1.00  0.00    -0.354 N 
ATOM     61  N   UNL A   1      39.346  32.117  33.510  1.00  0.00    -0.248 NA
ATOM     62  C   UNL A   1      37.633  33.703  33.417  1.00  0.00     0.031 C 
ATOM     63  C   UNL A   1      42.133  31.653  36.942  1.00  0.00     0.029 A 
ATOM     64  C   UNL A   1      41.254  31.817  35.884  1.00  0.00     0.049 A 
ATOM     65  H   UNL A   1      41.108  30.711  34.094  1.00  0.00     0.167 HD
ATOM     66  C   UNL A   1      39.373  32.885  34.668  1.00  0.00     0.074 A 
ATOM     67  C   UNL A   1      38.312  33.864  34.544  1.00  0.00     0.031 C 
ATOM     68  C   UNL A   1      40.202  32.791  35.737  1.00  0.00     0.037 A 
BRANCH  55  69
ATOM     69  C   UNL A   1      44.345  28.218  35.340  1.00  0.00     0.058 A 
ATOM     70  C   UNL A   1      45.686  28.592  35.158  1.00  0.00     0.135 A 
ATOM     71  C   UNL A   1      44.077  27.121  36.174  1.00  0.00     0.135 A 
ATOM     72  F   UNL A   1      45.999  29.622  34.357  1.00  0.00    -0.206 F 
ATOM     73  C   UNL A   1      46.724  27.887  35.757  1.00  0.00     0.059 A 
ATOM     74  C   UNL A   1      45.100  26.417  36.804  1.00  0.00     0.059 A 
ATOM     75  F   UNL A   1      42.812  26.721  36.380  1.00  0.00    -0.206 F 
ATOM     76  C   UNL A   1      46.421  26.799  36.576  1.00  0.00     0.060 A 
BRANCH  76  77
ATOM     77  S   UNL A   1      47.780  25.895  37.347  1.00  0.00     0.124 S 
ATOM     78  O   UNL A   1      47.172  24.584  37.558  1.00  0.00    -0.237 OA
ATOM     79  O   UNL A   1      48.817  25.953  36.323  1.00  0.00    -0.237 OA
ATOM     80  O   UNL A   1      48.055  26.662  38.557  1.00  0.00    -0.744 OA
ENDBRANCH  76  77
ENDBRANCH  55  69
BRANCH  56  81
ATOM     81  C   UNL A   1      36.747  32.833  30.762  1.00  0.00     0.058 A 
ATOM     82  C   UNL A   1      36.954  33.781  29.749  1.00  0.00     0.135 A 
ATOM     83  C   UNL A   1      35.423  32.536  31.119  1.00  0.00     0.135 A 
ATOM     84  F   UNL A   1      38.204  34.100  29.376  1.00  0.00    -0.206 F 
ATOM     85  C   UNL A   1      35.893  34.427  29.127  1.00  0.00     0.059 A 
ATOM     86  C   UNL A   1      34.343  33.153  30.496  1.00  0.00     0.059 A 
ATOM     87  F   UNL A   1      35.171  31.622  32.069  1.00  0.00    -0.206 F 
ATOM     88  C   UNL A   1      34.589  34.107  29.508  1.00  0.00     0.060 A 
BRANCH  88  89
ATOM     89  S   UNL A   1      33.214  34.920  28.664  1.00  0.00     0.124 S 
ATOM     90  O   UNL A   1      32.392  35.350  29.790  1.00  0.00    -0.237 OA
ATOM     91  O   UNL A   1      33.890  35.980  27.925  1.00  0.00    -0.237 OA
ATOM     92  O   UNL A   1      32.650  33.854  27.841  1.00  0.00    -0.744 OA
ENDBRANCH  88  89
ENDBRANCH  56  81
BRANCH  68  93
ATOM     93  C   UNL A   1      40.019  33.790  36.844  1.00  0.00     0.058 A 
ATOM     94  C   UNL A   1      40.695  35.019  36.844  1.00  0.00     0.135 A 
ATOM     95  C   UNL A   1      39.115  33.535  37.887  1.00  0.00     0.135 A 
ATOM     96  F   UNL A   1      41.574  35.308  35.872  1.00  0.00    -0.206 F 
ATOM     97  C   UNL A   1      40.494  35.956  37.853  1.00  0.00     0.059 A 
ATOM     98  C   UNL A   1      38.881  34.467  38.893  1.00  0.00     0.059 A 
ATOM     99  F   UNL A   1      38.438  32.377  37.927  1.00  0.00    -0.206 F 
ATOM    100  C   UNL A   1      39.584  35.671  38.872  1.00  0.00     0.060 A 
BRANCH 100 101
ATOM    101  S   UNL A   1      39.300  36.911  40.154  1.00  0.00     0.124 S 
ATOM    102  O   UNL A   1      40.660  37.175  40.612  1.00  0.00    -0.237 OA
ATOM    103  O   UNL A   1      38.661  37.991  39.410  1.00  0.00    -0.237 OA
ATOM    104  O   UNL A   1      38.437  36.221  41.109  1.00  0.00    -0.744 OA
ENDBRANCH 100 101
ENDBRANCH  68  93
ENDBRANCH  42  43
ENDBRANCH  34  37
ENDBRANCH  32  33
ENDBRANCH  31  32
ENDBRANCH   1  31
TORSDOF 17
ENDMDL
MODEL 2
REMARK VINA RESULT:     -12.9      2.818      3.935
REMARK SMILES Cc1cc(C)c(NS(=O)(=O)c2cccc3cc(C)cnc23)c(C(=O)NCCCCNC(=O)c2ccc(-c3c4nc(c(-c5c(F)cc(S(=O)(=O)[O-])cc5F)c5ccc([nH]5)c(-c5c(F)cc(S(=O)(=O)[O-])cc5F)c5nc(c(-c6c(F)cc(S(=O)(=O)[O-])cc6F)c6ccc3[nH]6)C=C5)C=C4)cc2)c1
REMARK SMILES IDX 27 1 26 2 25 3 23 4 24 5 22 7 1 8 2 9 3 10 99 11 4 12 5 13
REMARK SMILES IDX 6 14 7 15 8 17 9 18 10 19 11 20 12 21 21 22 13 23 15 24
REMARK SMILES IDX 20 25 14 26 16 27 19 28 17 29 18 30 28 31 29 32 30 33 31 34
REMARK SMILES IDX 32 36 33 37 34 38 98 39 35 40 97 41 36 42 37 43 38 44 91 45
REMARK SMILES IDX 39 46 96 47 90 48 92 49 40 50 95 51 89 52 88 53 41 55 75 56
REMARK SMILES IDX 54 57 74 58 55 59 58 60 73 61 93 62 56 63 57 64 72 66 94 67
REMARK SMILES IDX 59 68 42 69 43 70 52 71 44 72 45 73 51 74 53 75 46 76 47 77
REMARK SMILES IDX 48 78 49 79 50 80 76 81 77 82 86 83 78 84 79 85 85 86 87 87
REMARK SMILES IDX 80 88 81 89 82 90 83 91 84 92 60 93 61 94 70 95 62 96 63 97
REMARK SMILES IDX 69 98 71 99 64 100 65 101 66 102 67 103 68 104
REMARK H PARENT 25 6 7 16 30 35 92 54 58 65
REMARK Flexibility Score: inf
ROOT
ATOM      1  C   UNL A   1      34.855  24.126  23.612  1.00  0.00     0.023 C 
ENDROOT
BRANCH   1   2
ATOM      2  C   UNL A   1      34.180  23.633  22.327  1.00  0.00     0.116 C 
BRANCH   2   3
ATOM      3  N   UNL A   1      32.746  23.845  22.420  1.00  0.00    -0.352 N 
ATOM      4  C   UNL A   1      31.777  23.229  23.179  1.00  0.00     0.253 C 
ATOM      5  O   UNL A   1      30.605  23.569  23.014  1.00  0.00    -0.269 OA
ATOM      6  H   UNL A   1      32.404  24.558  21.834  1.00  0.00     0.163 HD
BRANCH   4   7
ATOM      7  C   UNL A   1      32.114  22.262  24.265  1.00  0.00     0.064 A 
ATOM      8  C   UNL A   1      33.472  18.732  24.529  1.00  0.00     0.044 C 
ATOM      9  C   UNL A   1      33.045  20.117  24.913  1.00  0.00    -0.050 A 
ATOM     10  C   UNL A   1      33.274  20.638  26.190  1.00  0.00     0.009 A 
ATOM     11  C   UNL A   1      32.477  20.949  23.951  1.00  0.00     0.019 A 
ATOM     12  C   UNL A   1      32.840  21.934  26.550  1.00  0.00    -0.026 A 
ATOM     13  C   UNL A   1      33.212  22.439  27.915  1.00  0.00     0.046 C 
ATOM     14  C   UNL A   1      32.109  22.691  25.618  1.00  0.00     0.065 A 
BRANCH  14  15
ATOM     15  N   UNL A   1      31.441  23.930  25.927  1.00  0.00    -0.278 N 
ATOM     16  H   UNL A   1      30.469  23.876  26.076  1.00  0.00     0.180 HD
BRANCH  15  17
ATOM     17  S   UNL A   1      32.131  25.459  26.060  1.00  0.00     0.264 S 
ATOM     18  O   UNL A   1      31.361  26.105  27.113  1.00  0.00    -0.201 OA
ATOM     19  O   UNL A   1      33.552  25.260  26.265  1.00  0.00    -0.201 OA
BRANCH  17  20
ATOM     20  C   UNL A   1      31.982  26.530  24.656  1.00  0.00     0.114 A 
ATOM     21  C   UNL A   1      33.199  27.111  24.229  1.00  0.00     0.024 A 
ATOM     22  C   UNL A   1      30.765  26.907  24.098  1.00  0.00     0.091 A 
ATOM     23  C   UNL A   1      33.208  28.161  23.326  1.00  0.00     0.002 A 
ATOM     24  C   UNL A   1      30.789  28.062  23.276  1.00  0.00     0.002 A 
ATOM     25  N   UNL A   1      29.599  26.269  24.333  1.00  0.00    -0.255 NA
ATOM     26  C   UNL A   1      31.996  28.668  22.887  1.00  0.00     0.010 A 
ATOM     27  C   UNL A   1      29.575  28.641  22.893  1.00  0.00     0.015 A 
ATOM     28  C   UNL A   1      28.445  26.836  23.908  1.00  0.00     0.115 A 
ATOM     29  C   UNL A   1      28.371  28.055  23.261  1.00  0.00    -0.032 A 
ATOM     30  C   UNL A   1      27.071  28.748  23.014  1.00  0.00     0.046 C 
ENDBRANCH  17  20
ENDBRANCH  15  17
ENDBRANCH  14  15
ENDBRANCH   4   7
ENDBRANCH   2   3
ENDBRANCH   1   2
BRANCH   1  31
ATOM     31  C   UNL A   1      35.790  23.090  24.239  1.00  0.00     0.023 C 
BRANCH  31  32
ATOM     32  C   UNL A   1      36.976  23.693  24.983  1.00  0.00     0.116 C 
BRANCH  32  33
ATOM     33  N   UNL A   1      38.030  22.726  25.253  1.00  0.00    -0.352 N 
ATOM     34  C   UNL A   1      39.164  22.900  26.010  1.00  0.00     0.251 C 
ATOM     35  H   UNL A   1      37.917  21.838  24.843  1.00  0.00     0.163 HD
ATOM     36  O   UNL A   1      40.016  22.018  26.068  1.00  0.00    -0.269 OA
BRANCH  34  37
ATOM     37  C   UNL A   1      39.358  24.185  26.709  1.00  0.00     0.039 A 
ATOM     38  C   UNL A   1      38.843  24.335  27.997  1.00  0.00     0.014 A 
ATOM     39  C   UNL A   1      40.116  25.201  26.120  1.00  0.00     0.014 A 
ATOM     40  C   UNL A   1      39.152  25.483  28.728  1.00  0.00     0.010 A 
ATOM     41  C   UNL A   1      40.477  26.312  26.874  1.00  0.00     0.010 A 
ATOM     42  C   UNL A   1      40.005  26.460  28.187  1.00  0.00    -0.014 A 
BRANCH  42  43
ATOM     43  C   UNL A   1      40.428  27.636  28.987  1.00  0.00     0.031 A 
ATOM     44  C   UNL A   1      41.749  27.623  29.704  1.00  0.00     0.074 A 
ATOM     45  C   UNL A   1      39.591  28.684  29.119  1.00  0.00     0.049 A 
ATOM     46  N   UNL A   1      42.266  28.527  30.494  1.00  0.00    -0.248 NA
ATOM     47  C   UNL A   1      42.584  26.423  29.535  1.00  0.00     0.031 C 
ATOM     48  C   UNL A   1      38.257  28.786  28.521  1.00  0.00     0.029 A 
ATOM     49  N   UNL A   1      39.733  29.862  29.809  1.00  0.00    -0.354 N 
ATOM     50  C   UNL A   1      43.477  28.003  30.925  1.00  0.00     0.074 A 
ATOM     51  C   UNL A   1      43.595  26.680  30.351  1.00  0.00     0.031 C 
ATOM     52  C   UNL A   1      37.714  29.969  28.852  1.00  0.00     0.029 A 
ATOM     53  C   UNL A   1      38.645  30.697  29.708  1.00  0.00     0.049 A 
ATOM     54  H   UNL A   1      40.538  30.088  30.328  1.00  0.00     0.167 HD
ATOM     55  C   UNL A   1      44.419  28.582  31.708  1.00  0.00     0.037 A 
ATOM     56  C   UNL A   1      38.425  31.913  30.245  1.00  0.00     0.037 A 
ATOM     57  C   UNL A   1      44.310  29.909  32.250  1.00  0.00     0.049 A 
ATOM     58  C   UNL A   1      39.495  32.544  31.092  1.00  0.00     0.074 A 
ATOM     59  C   UNL A   1      45.236  30.610  33.004  1.00  0.00     0.029 A 
ATOM     60  N   UNL A   1      43.210  30.740  32.095  1.00  0.00    -0.354 N 
ATOM     61  N   UNL A   1      40.666  32.061  31.433  1.00  0.00    -0.248 NA
ATOM     62  C   UNL A   1      39.220  33.886  31.622  1.00  0.00     0.031 C 
ATOM     63  C   UNL A   1      44.681  31.853  33.331  1.00  0.00     0.029 A 
ATOM     64  C   UNL A   1      43.427  31.941  32.749  1.00  0.00     0.049 A 
ATOM     65  H   UNL A   1      42.394  30.509  31.594  1.00  0.00     0.167 HD
ATOM     66  C   UNL A   1      41.278  33.051  32.194  1.00  0.00     0.074 A 
ATOM     67  C   UNL A   1      40.352  34.163  32.255  1.00  0.00     0.031 C 
ATOM     68  C   UNL A   1      42.497  33.041  32.787  1.00  0.00     0.037 A 
BRANCH  55  69
ATOM     69  C   UNL A   1      45.657  27.783  32.010  1.00  0.00     0.058 A 
ATOM     70  C   UNL A   1      45.745  26.978  33.157  1.00  0.00     0.135 A 
ATOM     71  C   UNL A   1      46.753  27.800  31.135  1.00  0.00     0.135 A 
ATOM     72  F   UNL A   1      44.732  26.939  34.036  1.00  0.00    -0.206 F 
ATOM     73  C   UNL A   1      46.889  26.240  33.440  1.00  0.00     0.059 A 
ATOM     74  C   UNL A   1      47.899  27.049  31.385  1.00  0.00     0.059 A 
ATOM     75  F   UNL A   1      46.721  28.555  30.025  1.00  0.00    -0.206 F 
ATOM     76  C   UNL A   1      47.962  26.284  32.550  1.00  0.00     0.060 A 
BRANCH  76  77
ATOM     77  S   UNL A   1      49.440  25.319  32.930  1.00  0.00     0.124 S 
ATOM     78  O   UNL A   1      50.231  26.287  33.684  1.00  0.00    -0.237 OA
ATOM     79  O   UNL A   1      48.898  24.207  33.702  1.00  0.00    -0.237 OA
ATOM     80  O   UNL A   1      49.964  24.968  31.614  1.00  0.00    -0.744 OA
ENDBRANCH  76  77
ENDBRANCH  55  69
BRANCH  56  81
ATOM     81  C   UNL A   1      37.151  32.628  29.971  1.00  0.00     0.058 A 
ATOM     82  C   UNL A   1      37.079  33.612  28.975  1.00  0.00     0.135 A 
ATOM     83  C   UNL A   1      35.981  32.337  30.689  1.00  0.00     0.135 A 
ATOM     84  F   UNL A   1      38.174  33.927  28.264  1.00  0.00    -0.206 F 
ATOM     85  C   UNL A   1      35.899  34.300  28.712  1.00  0.00     0.059 A 
ATOM     86  C   UNL A   1      34.783  32.995  30.429  1.00  0.00     0.059 A 
ATOM     87  F   UNL A   1      35.993  31.390  31.639  1.00  0.00    -0.206 F 
ATOM     88  C   UNL A   1      34.755  33.984  29.445  1.00  0.00     0.060 A 
BRANCH  88  89
ATOM     89  S   UNL A   1      33.216  34.850  29.067  1.00  0.00     0.124 S 
ATOM     90  O   UNL A   1      32.614  33.960  28.081  1.00  0.00    -0.237 OA
ATOM     91  O   UNL A   1      32.561  34.897  30.370  1.00  0.00    -0.237 OA
ATOM     92  O   UNL A   1      33.675  36.139  28.558  1.00  0.00    -0.744 OA
ENDBRANCH  88  89
ENDBRANCH  56  81
BRANCH  68  93
ATOM     93  C   UNL A   1      42.917  34.281  33.527  1.00  0.00     0.058 A 
ATOM     94  C   UNL A   1      42.746  34.402  34.913  1.00  0.00     0.135 A 
ATOM     95  C   UNL A   1      43.545  35.334  32.845  1.00  0.00     0.135 A 
ATOM     96  F   UNL A   1      42.145  33.425  35.609  1.00  0.00    -0.206 F 
ATOM     97  C   UNL A   1      43.170  35.536  35.598  1.00  0.00     0.059 A 
ATOM     98  C   UNL A   1      43.998  36.467  33.513  1.00  0.00     0.059 A 
ATOM     99  F   UNL A   1      43.738  35.261  31.518  1.00  0.00    -0.206 F 
ATOM    100  C   UNL A   1      43.796  36.563  34.889  1.00  0.00     0.060 A 
BRANCH 100 101
ATOM    101  S   UNL A   1      44.378  38.014  35.794  1.00  0.00     0.124 S 
ATOM    102  O   UNL A   1      45.820  37.790  35.808  1.00  0.00    -0.237 OA
ATOM    103  O   UNL A   1      43.916  39.114  34.954  1.00  0.00    -0.237 OA
ATOM    104  O   UNL A   1      43.710  37.898  37.087  1.00  0.00    -0.744 OA
ENDBRANCH 100 101
ENDBRANCH  68  93
ENDBRANCH  42  43
ENDBRANCH  34  37
ENDBRANCH  32  33
ENDBRANCH  31  32
ENDBRANCH   1  31
TORSDOF 17
ENDMDL
MODEL 3
REMARK VINA RESULT:     -12.6      0.654      7.903
REMARK SMILES Cc1cc(C)c(NS(=O)(=O)c2cccc3cc(C)cnc23)c(C(=O)NCCCCNC(=O)c2ccc(-c3c4nc(c(-c5c(F)cc(S(=O)(=O)[O-])cc5F)c5ccc([nH]5)c(-c5c(F)cc(S(=O)(=O)[O-])cc5F)c5nc(c(-c6c(F)cc(S(=O)(=O)[O-])cc6F)c6ccc3[nH]6)C=C5)C=C4)cc2)c1
REMARK SMILES IDX 27 1 26 2 25 3 23 4 24 5 22 7 1 8 2 9 3 10 99 11 4 12 5 13
REMARK SMILES IDX 6 14 7 15 8 17 9 18 10 19 11 20 12 21 21 22 13 23 15 24
REMARK SMILES IDX 20 25 14 26 16 27 19 28 17 29 18 30 28 31 29 32 30 33 31 34
REMARK SMILES IDX 32 36 33 37 34 38 98 39 35 40 97 41 36 42 37 43 38 44 91 45
REMARK SMILES IDX 39 46 96 47 90 48 92 49 40 50 95 51 89 52 88 53 41 55 75 56
REMARK SMILES IDX 54 57 74 58 55 59 58 60 73 61 93 62 56 63 57 64 72 66 94 67
REMARK SMILES IDX 59 68 42 69 43 70 52 71 44 72 45 73 51 74 53 75 46 76 47 77
REMARK SMILES IDX 48 78 49 79 50 80 76 81 77 82 86 83 78 84 79 85 85 86 87 87
REMARK SMILES IDX 80 88 81 89 82 90 83 91 84 92 60 93 61 94 70 95 62 96 63 97
REMARK SMILES IDX 69 98 71 99 64 100 65 101 66 102 67 103 68 104
REMARK H PARENT 25 6 7 16 30 35 92 54 58 65
REMARK Flexibility Score: inf
ROOT
ATOM      1  C   UNL A   1      38.637  21.721  25.777  1.00  0.00     0.023 C 
ENDROOT
BRANCH   1   2
ATOM      2  C   UNL A   1      37.433  22.667  25.709  1.00  0.00     0.116 C 
BRANCH   2   3
ATOM      3  N   UNL A   1      37.150  22.995  24.322  1.00  0.00    -0.352 N 
ATOM      4  C   UNL A   1      36.007  22.868  23.566  1.00  0.00     0.253 C 
ATOM      5  O   UNL A   1      36.061  23.171  22.374  1.00  0.00    -0.269 OA
ATOM      6  H   UNL A   1      37.915  23.376  23.833  1.00  0.00     0.163 HD
BRANCH   4   7
ATOM      7  C   UNL A   1      34.693  22.495  24.168  1.00  0.00     0.064 A 
ATOM      8  C   UNL A   1      33.007  19.348  25.443  1.00  0.00     0.044 C 
ATOM      9  C   UNL A   1      33.287  20.797  25.182  1.00  0.00    -0.050 A 
ATOM     10  C   UNL A   1      32.540  21.817  25.779  1.00  0.00     0.009 A 
ATOM     11  C   UNL A   1      34.376  21.151  24.389  1.00  0.00     0.019 A 
ATOM     12  C   UNL A   1      32.793  23.180  25.502  1.00  0.00    -0.026 A 
ATOM     13  C   UNL A   1      31.998  24.204  26.260  1.00  0.00     0.046 C 
ATOM     14  C   UNL A   1      33.783  23.511  24.559  1.00  0.00     0.065 A 
BRANCH  14  15
ATOM     15  N   UNL A   1      33.996  24.839  24.042  1.00  0.00    -0.278 N 
ATOM     16  H   UNL A   1      34.781  25.322  24.390  1.00  0.00     0.180 HD
BRANCH  15  17
ATOM     17  S   UNL A   1      33.059  25.659  22.910  1.00  0.00     0.264 S 
ATOM     18  O   UNL A   1      34.033  26.297  22.037  1.00  0.00    -0.201 OA
ATOM     19  O   UNL A   1      32.148  24.687  22.338  1.00  0.00    -0.201 OA
BRANCH  17  20
ATOM     20  C   UNL A   1      32.047  26.982  23.517  1.00  0.00     0.114 A 
ATOM     21  C   UNL A   1      30.915  27.269  22.719  1.00  0.00     0.024 A 
ATOM     22  C   UNL A   1      32.396  27.788  24.595  1.00  0.00     0.091 A 
ATOM     23  C   UNL A   1      30.184  28.429  22.911  1.00  0.00     0.002 A 
ATOM     24  C   UNL A   1      31.713  29.027  24.691  1.00  0.00     0.002 A 
ATOM     25  N   UNL A   1      33.351  27.472  25.495  1.00  0.00    -0.255 NA
ATOM     26  C   UNL A   1      30.615  29.332  23.869  1.00  0.00     0.010 A 
ATOM     27  C   UNL A   1      32.185  29.989  25.591  1.00  0.00     0.015 A 
ATOM     28  C   UNL A   1      33.753  28.413  26.381  1.00  0.00     0.115 A 
ATOM     29  C   UNL A   1      33.265  29.706  26.417  1.00  0.00    -0.032 A 
ATOM     30  C   UNL A   1      33.893  30.771  27.255  1.00  0.00     0.046 C 
ENDBRANCH  17  20
ENDBRANCH  15  17
ENDBRANCH  14  15
ENDBRANCH   4   7
ENDBRANCH   2   3
ENDBRANCH   1   2
BRANCH   1  31
ATOM     31  C   UNL A   1      39.743  22.217  26.710  1.00  0.00     0.023 C 
BRANCH  31  32
ATOM     32  C   UNL A   1      39.850  23.735  26.796  1.00  0.00     0.116 C 
BRANCH  32  33
ATOM     33  N   UNL A   1      40.819  24.291  25.863  1.00  0.00    -0.352 N 
ATOM     34  C   UNL A   1      41.380  25.546  25.874  1.00  0.00     0.251 C 
ATOM     35  H   UNL A   1      41.109  23.695  25.135  1.00  0.00     0.163 HD
ATOM     36  O   UNL A   1      42.115  25.908  24.960  1.00  0.00    -0.269 OA
BRANCH  34  37
ATOM     37  C   UNL A   1      41.041  26.463  26.979  1.00  0.00     0.039 A 
ATOM     38  C   UNL A   1      40.208  26.007  28.001  1.00  0.00     0.014 A 
ATOM     39  C   UNL A   1      41.611  27.738  27.038  1.00  0.00     0.014 A 
ATOM     40  C   UNL A   1      40.006  26.806  29.127  1.00  0.00     0.010 A 
ATOM     41  C   UNL A   1      41.461  28.504  28.189  1.00  0.00     0.010 A 
ATOM     42  C   UNL A   1      40.663  28.043  29.247  1.00  0.00    -0.014 A 
BRANCH  42  43
ATOM     43  C   UNL A   1      40.542  28.858  30.480  1.00  0.00     0.031 A 
ATOM     44  C   UNL A   1      39.509  29.948  30.564  1.00  0.00     0.074 A 
ATOM     45  C   UNL A   1      41.407  28.661  31.494  1.00  0.00     0.049 A 
ATOM     46  N   UNL A   1      39.289  30.801  31.529  1.00  0.00    -0.248 NA
ATOM     47  C   UNL A   1      38.630  30.120  29.397  1.00  0.00     0.031 C 
ATOM     48  C   UNL A   1      42.491  27.674  31.504  1.00  0.00     0.029 A 
ATOM     49  N   UNL A   1      41.519  29.285  32.710  1.00  0.00    -0.354 N 
ATOM     50  C   UNL A   1      38.257  31.616  31.084  1.00  0.00     0.074 A 
ATOM     51  C   UNL A   1      37.930  31.191  29.740  1.00  0.00     0.031 C 
ATOM     52  C   UNL A   1      43.142  27.747  32.677  1.00  0.00     0.029 A 
ATOM     53  C   UNL A   1      42.544  28.801  33.489  1.00  0.00     0.049 A 
ATOM     54  H   UNL A   1      40.921  30.012  33.000  1.00  0.00     0.167 HD
ATOM     55  C   UNL A   1      37.621  32.613  31.745  1.00  0.00     0.037 A 
ATOM     56  C   UNL A   1      42.954  29.167  34.719  1.00  0.00     0.037 A 
ATOM     57  C   UNL A   1      37.930  33.012  33.092  1.00  0.00     0.049 A 
ATOM     58  C   UNL A   1      42.218  30.262  35.441  1.00  0.00     0.074 A 
ATOM     59  C   UNL A   1      37.304  33.969  33.872  1.00  0.00     0.029 A 
ATOM     60  N   UNL A   1      38.950  32.473  33.862  1.00  0.00    -0.354 N 
ATOM     61  N   UNL A   1      41.198  30.977  35.031  1.00  0.00    -0.248 NA
ATOM     62  C   UNL A   1      42.682  30.596  36.795  1.00  0.00     0.031 C 
ATOM     63  C   UNL A   1      37.967  34.030  35.103  1.00  0.00     0.029 A 
ATOM     64  C   UNL A   1      38.980  33.085  35.104  1.00  0.00     0.049 A 
ATOM     65  H   UNL A   1      39.563  31.760  33.569  1.00  0.00     0.167 HD
ATOM     66  C   UNL A   1      40.880  31.826  36.085  1.00  0.00     0.074 A 
ATOM     67  C   UNL A   1      41.810  31.529  37.155  1.00  0.00     0.031 C 
ATOM     68  C   UNL A   1      39.906  32.766  36.161  1.00  0.00     0.037 A 
BRANCH  55  69
ATOM     69  C   UNL A   1      36.517  33.333  31.020  1.00  0.00     0.058 A 
ATOM     70  C   UNL A   1      36.790  34.205  29.954  1.00  0.00     0.135 A 
ATOM     71  C   UNL A   1      35.175  33.129  31.374  1.00  0.00     0.135 A 
ATOM     72  F   UNL A   1      38.057  34.449  29.585  1.00  0.00    -0.206 F 
ATOM     73  C   UNL A   1      35.770  34.872  29.284  1.00  0.00     0.059 A 
ATOM     74  C   UNL A   1      34.137  33.767  30.700  1.00  0.00     0.059 A 
ATOM     75  F   UNL A   1      34.860  32.307  32.388  1.00  0.00    -0.206 F 
ATOM     76  C   UNL A   1      34.448  34.650  29.666  1.00  0.00     0.060 A 
BRANCH  76  77
ATOM     77  S   UNL A   1      33.136  35.522  28.784  1.00  0.00     0.124 S 
ATOM     78  O   UNL A   1      32.535  34.438  28.013  1.00  0.00    -0.237 OA
ATOM     79  O   UNL A   1      32.321  36.049  29.874  1.00  0.00    -0.237 OA
ATOM     80  O   UNL A   1      33.857  36.523  28.006  1.00  0.00    -0.744 OA
ENDBRANCH  76  77
ENDBRANCH  55  69
BRANCH  56  81
ATOM     81  C   UNL A   1      44.099  28.469  35.360  1.00  0.00     0.058 A 
ATOM     82  C   UNL A   1      45.414  28.913  35.162  1.00  0.00     0.135 A 
ATOM     83  C   UNL A   1      43.903  27.353  36.189  1.00  0.00     0.135 A 
ATOM     84  F   UNL A   1      45.651  29.974  34.374  1.00  0.00    -0.206 F 
ATOM     85  C   UNL A   1      46.499  28.266  35.744  1.00  0.00     0.059 A 
ATOM     86  C   UNL A   1      44.970  26.703  36.801  1.00  0.00     0.059 A 
ATOM     87  F   UNL A   1      42.663  26.901  36.426  1.00  0.00    -0.206 F 
ATOM     88  C   UNL A   1      46.266  27.161  36.563  1.00  0.00     0.060 A 
BRANCH  88  89
ATOM     89  S   UNL A   1      47.677  26.353  37.351  1.00  0.00     0.124 S 
ATOM     90  O   UNL A   1      47.367  26.536  38.765  1.00  0.00    -0.237 OA
ATOM     91  O   UNL A   1      47.573  24.989  36.845  1.00  0.00    -0.237 OA
ATOM     92  O   UNL A   1      48.819  27.113  36.851  1.00  0.00    -0.744 OA
ENDBRANCH  88  89
ENDBRANCH  56  81
BRANCH  68  93
ATOM     93  C   UNL A   1      39.772  33.519  37.454  1.00  0.00     0.058 A 
ATOM     94  C   UNL A   1      40.485  34.703  37.693  1.00  0.00     0.135 A 
ATOM     95  C   UNL A   1      38.877  33.078  38.442  1.00  0.00     0.135 A 
ATOM     96  F   UNL A   1      41.358  35.162  36.782  1.00  0.00    -0.206 F 
ATOM     97  C   UNL A   1      40.329  35.416  38.877  1.00  0.00     0.059 A 
ATOM     98  C   UNL A   1      38.688  33.789  39.623  1.00  0.00     0.059 A 
ATOM     99  F   UNL A   1      38.165  31.956  38.256  1.00  0.00    -0.206 F 
ATOM    100  C   UNL A   1      39.427  34.951  39.835  1.00  0.00     0.060 A 
BRANCH 100 101
ATOM    101  S   UNL A   1      39.202  35.906  41.351  1.00  0.00     0.124 S 
ATOM    102  O   UNL A   1      39.607  37.240  40.919  1.00  0.00    -0.237 OA
ATOM    103  O   UNL A   1      37.779  35.734  41.623  1.00  0.00    -0.237 OA
ATOM    104  O   UNL A   1      40.098  35.253  42.300  1.00  0.00    -0.744 OA
ENDBRANCH 100 101
ENDBRANCH  68  93
ENDBRANCH  42  43
ENDBRANCH  34  37
ENDBRANCH  32  33
ENDBRANCH  31  32
ENDBRANCH   1  31
TORSDOF 17
ENDMDL
