MODEL 1
REMARK VINA RESULT:     -11.6      0.000      0.000
REMARK SMILES COCC[C@@]1(C(=O)NCCCCNC(=O)c2ccc(-c3c4nc(c(-c5c(F)cc(S(=O)(=O)[O-])cc5F)c5ccc([nH]5)c(-c5c(F)cc(S(=O)(=O)[O-])cc5F)c5nc(c(-c6c(F)cc(S(=O)(=O)[O-])cc6F)c6ccc3[nH]6)C=C5)C=C4)cc2)CCCN(C(=O)c2scc3c2OCCO3)C1
REMARK SMILES IDX 10 1 9 2 8 3 6 4 7 5 5 7 82 8 97 9 83 10 85 11 84 12 4 13
REMARK SMILES IDX 3 14 2 15 1 16 86 17 87 18 88 19 89 20 92 21 90 22 91 23
REMARK SMILES IDX 93 24 96 25 94 26 95 27 11 28 12 29 13 30 14 31 15 33 16 34
REMARK SMILES IDX 17 35 81 36 18 37 80 38 19 39 20 40 21 41 74 42 22 43 79 44
REMARK SMILES IDX 73 45 75 46 23 47 78 48 72 49 71 50 24 52 58 53 37 54 57 55
REMARK SMILES IDX 38 56 41 57 56 58 76 59 39 60 40 61 55 63 77 64 42 65 25 66
REMARK SMILES IDX 26 67 35 68 27 69 28 70 34 71 36 72 29 73 30 74 31 75 32 76
REMARK SMILES IDX 33 77 59 78 60 79 69 80 61 81 62 82 68 83 70 84 63 85 64 86
REMARK SMILES IDX 65 87 66 88 67 89 43 90 44 91 53 92 45 93 46 94 52 95 54 96
REMARK SMILES IDX 47 97 48 98 49 99 50 100 51 101
REMARK H PARENT 8 6 13 32 75 51 41 62
REMARK Flexibility Score: inf
ROOT
ATOM      1  C   UNL A   1      31.774  27.077  26.471  1.00  0.00     0.023 C 
ENDROOT
BRANCH   1   2
ATOM      2  C   UNL A   1      32.453  25.717  26.483  1.00  0.00     0.116 C 
BRANCH   2   3
ATOM      3  N   UNL A   1      31.484  24.649  26.553  1.00  0.00    -0.356 N 
ATOM      4  C   UNL A   1      31.429  23.395  26.057  1.00  0.00     0.228 C 
ATOM      5  O   UNL A   1      30.358  22.814  26.285  1.00  0.00    -0.274 OA
ATOM      6  H   UNL A   1      30.687  24.888  27.081  1.00  0.00     0.163 HD
BRANCH   4   7
ATOM      7  C   UNL A   1      32.528  22.697  25.201  1.00  0.00     0.069 C 
ATOM      8  C   UNL A   1      33.952  22.660  25.818  1.00  0.00     0.021 C 
ATOM      9  C   UNL A   1      32.501  23.275  23.774  1.00  0.00     0.136 C 
ATOM     10  C   UNL A   1      35.026  23.590  25.227  1.00  0.00     0.023 C 
ATOM     11  N   UNL A   1      33.509  24.270  23.415  1.00  0.00    -0.337 N 
ATOM     12  C   UNL A   1      34.878  23.922  23.742  1.00  0.00     0.120 C 
BRANCH   7  13
ATOM     13  C   UNL A   1      32.052  21.177  25.139  1.00  0.00     0.047 C 
BRANCH  13  14
ATOM     14  C   UNL A   1      33.093  20.091  25.482  1.00  0.00     0.161 C 
BRANCH  14  15
ATOM     15  O   UNL A   1      33.562  19.447  24.289  1.00  0.00    -0.385 OA
ATOM     16  C   UNL A   1      32.522  18.840  23.530  1.00  0.00     0.194 C 
ENDBRANCH  14  15
ENDBRANCH  13  14
ENDBRANCH   7  13
BRANCH  11  17
ATOM     17  C   UNL A   1      33.085  25.281  22.530  1.00  0.00     0.267 C 
ATOM     18  O   UNL A   1      33.124  25.059  21.315  1.00  0.00    -0.268 OA
BRANCH  17  19
ATOM     19  C   UNL A   1      32.655  26.595  22.968  1.00  0.00     0.138 A 
ATOM     20  S   UNL A   1      33.882  27.822  22.957  1.00  0.00    -0.131 S 
ATOM     21  C   UNL A   1      31.410  27.175  23.091  1.00  0.00     0.185 A 
ATOM     22  C   UNL A   1      32.733  29.068  22.731  1.00  0.00     0.116 A 
ATOM     23  C   UNL A   1      31.459  28.574  22.802  1.00  0.00     0.172 A 
ATOM     24  O   UNL A   1      30.242  26.506  23.269  1.00  0.00    -0.484 OA
ATOM     25  O   UNL A   1      30.376  29.362  22.589  1.00  0.00    -0.485 OA
ATOM     26  C   UNL A   1      29.172  27.458  23.485  1.00  0.00     0.271 C 
ATOM     27  C   UNL A   1      29.200  28.552  22.417  1.00  0.00     0.271 C 
ENDBRANCH  17  19
ENDBRANCH  11  17
ENDBRANCH   4   7
ENDBRANCH   2   3
ENDBRANCH   1   2
BRANCH   1  28
ATOM     28  C   UNL A   1      32.171  28.027  27.584  1.00  0.00     0.023 C 
BRANCH  28  29
ATOM     29  C   UNL A   1      33.424  28.838  27.319  1.00  0.00     0.116 C 
BRANCH  29  30
ATOM     30  N   UNL A   1      33.421  30.190  27.868  1.00  0.00    -0.352 N 
ATOM     31  C   UNL A   1      34.506  30.872  28.390  1.00  0.00     0.251 C 
ATOM     32  H   UNL A   1      32.560  30.666  27.867  1.00  0.00     0.163 HD
ATOM     33  O   UNL A   1      34.407  31.996  28.852  1.00  0.00    -0.269 OA
BRANCH  31  34
ATOM     34  C   UNL A   1      35.775  30.125  28.460  1.00  0.00     0.039 A 
ATOM     35  C   UNL A   1      36.640  30.147  27.361  1.00  0.00     0.014 A 
ATOM     36  C   UNL A   1      36.185  29.649  29.703  1.00  0.00     0.014 A 
ATOM     37  C   UNL A   1      37.969  29.757  27.534  1.00  0.00     0.010 A 
ATOM     38  C   UNL A   1      37.525  29.362  29.891  1.00  0.00     0.010 A 
ATOM     39  C   UNL A   1      38.428  29.406  28.810  1.00  0.00    -0.014 A 
BRANCH  39  40
ATOM     40  C   UNL A   1      39.817  28.968  29.082  1.00  0.00     0.031 A 
ATOM     41  C   UNL A   1      40.774  30.013  29.584  1.00  0.00     0.074 A 
ATOM     42  C   UNL A   1      40.251  27.738  28.748  1.00  0.00     0.049 A 
ATOM     43  N   UNL A   1      42.076  30.034  29.543  1.00  0.00    -0.248 NA
ATOM     44  C   UNL A   1      40.162  31.241  30.124  1.00  0.00     0.031 C 
ATOM     45  C   UNL A   1      39.424  26.644  28.234  1.00  0.00     0.029 A 
ATOM     46  N   UNL A   1      41.520  27.216  28.761  1.00  0.00    -0.354 N 
ATOM     47  C   UNL A   1      42.436  31.308  29.968  1.00  0.00     0.074 A 
ATOM     48  C   UNL A   1      41.214  32.036  30.230  1.00  0.00     0.031 C 
ATOM     49  C   UNL A   1      40.209  25.580  27.986  1.00  0.00     0.029 A 
ATOM     50  C   UNL A   1      41.597  25.933  28.272  1.00  0.00     0.049 A 
ATOM     51  H   UNL A   1      42.304  27.714  29.088  1.00  0.00     0.167 HD
ATOM     52  C   UNL A   1      43.676  31.817  30.133  1.00  0.00     0.037 A 
ATOM     53  C   UNL A   1      42.673  25.150  28.059  1.00  0.00     0.037 A 
ATOM     54  C   UNL A   1      44.875  31.044  29.966  1.00  0.00     0.049 A 
ATOM     55  C   UNL A   1      44.044  25.704  28.350  1.00  0.00     0.074 A 
ATOM     56  C   UNL A   1      46.186  31.427  30.178  1.00  0.00     0.029 A 
ATOM     57  N   UNL A   1      44.898  29.711  29.583  1.00  0.00    -0.354 N 
ATOM     58  N   UNL A   1      44.377  26.911  28.746  1.00  0.00    -0.248 NA
ATOM     59  C   UNL A   1      45.185  24.796  28.165  1.00  0.00     0.031 C 
ATOM     60  C   UNL A   1      47.004  30.322  29.923  1.00  0.00     0.029 A 
ATOM     61  C   UNL A   1      46.200  29.248  29.573  1.00  0.00     0.049 A 
ATOM     62  H   UNL A   1      44.105  29.175  29.353  1.00  0.00     0.167 HD
ATOM     63  C   UNL A   1      45.762  26.898  28.882  1.00  0.00     0.074 A 
ATOM     64  C   UNL A   1      46.204  25.564  28.533  1.00  0.00     0.031 C 
ATOM     65  C   UNL A   1      46.596  27.899  29.257  1.00  0.00     0.037 A 
BRANCH  52  66
ATOM     66  C   UNL A   1      43.781  33.264  30.520  1.00  0.00     0.058 A 
ATOM     67  C   UNL A   1      43.960  34.273  29.561  1.00  0.00     0.135 A 
ATOM     68  C   UNL A   1      43.727  33.643  31.871  1.00  0.00     0.135 A 
ATOM     69  F   UNL A   1      44.045  33.960  28.259  1.00  0.00    -0.206 F 
ATOM     70  C   UNL A   1      44.128  35.603  29.929  1.00  0.00     0.059 A 
ATOM     71  C   UNL A   1      43.861  34.973  32.260  1.00  0.00     0.059 A 
ATOM     72  F   UNL A   1      43.563  32.717  32.828  1.00  0.00    -0.206 F 
ATOM     73  C   UNL A   1      44.083  35.941  31.283  1.00  0.00     0.060 A 
BRANCH  73  74
ATOM     74  S   UNL A   1      44.319  37.668  31.750  1.00  0.00     0.124 S 
ATOM     75  O   UNL A   1      43.815  37.669  33.119  1.00  0.00    -0.237 OA
ATOM     76  O   UNL A   1      45.762  37.840  31.606  1.00  0.00    -0.237 OA
ATOM     77  O   UNL A   1      43.507  38.395  30.779  1.00  0.00    -0.744 OA
ENDBRANCH  73  74
ENDBRANCH  52  66
BRANCH  53  78
ATOM     78  C   UNL A   1      42.508  23.758  27.561  1.00  0.00     0.058 A 
ATOM     79  C   UNL A   1      42.427  22.686  28.462  1.00  0.00     0.135 A 
ATOM     80  C   UNL A   1      42.436  23.465  26.191  1.00  0.00     0.135 A 
ATOM     81  F   UNL A   1      42.498  22.914  29.783  1.00  0.00    -0.206 F 
ATOM     82  C   UNL A   1      42.304  21.371  28.025  1.00  0.00     0.059 A 
ATOM     83  C   UNL A   1      42.293  22.158  25.729  1.00  0.00     0.059 A 
ATOM     84  F   UNL A   1      42.492  24.456  25.288  1.00  0.00    -0.206 F 
ATOM     85  C   UNL A   1      42.240  21.117  26.655  1.00  0.00     0.060 A 
BRANCH  85  86
ATOM     86  S   UNL A   1      42.047  19.409  26.099  1.00  0.00     0.124 S 
ATOM     87  O   UNL A   1      42.539  18.667  27.254  1.00  0.00    -0.237 OA
ATOM     88  O   UNL A   1      40.611  19.325  25.852  1.00  0.00    -0.237 OA
ATOM     89  O   UNL A   1      42.884  19.350  24.905  1.00  0.00    -0.744 OA
ENDBRANCH  85  86
ENDBRANCH  53  78
BRANCH  65  90
ATOM     90  C   UNL A   1      48.056  27.579  29.368  1.00  0.00     0.058 A 
ATOM     91  C   UNL A   1      48.931  27.768  28.289  1.00  0.00     0.135 A 
ATOM     92  C   UNL A   1      48.598  27.181  30.600  1.00  0.00     0.135 A 
ATOM     93  F   UNL A   1      48.456  28.145  27.092  1.00  0.00    -0.206 F 
ATOM     94  C   UNL A   1      50.300  27.570  28.428  1.00  0.00     0.059 A 
ATOM     95  C   UNL A   1      49.965  26.994  30.766  1.00  0.00     0.059 A 
ATOM     96  F   UNL A   1      47.797  26.999  31.663  1.00  0.00    -0.206 F 
ATOM     97  C   UNL A   1      50.808  27.189  29.672  1.00  0.00     0.060 A 
BRANCH  97  98
ATOM     98  S   UNL A   1      52.594  27.008  29.862  1.00  0.00     0.124 S 
ATOM     99  O   UNL A   1      53.026  26.895  28.474  1.00  0.00    -0.237 OA
ATOM    100  O   UNL A   1      52.965  28.244  30.545  1.00  0.00    -0.237 OA
ATOM    101  O   UNL A   1      52.728  25.794  30.663  1.00  0.00    -0.744 OA
ENDBRANCH  97  98
ENDBRANCH  65  90
ENDBRANCH  39  40
ENDBRANCH  31  34
ENDBRANCH  29  30
ENDBRANCH  28  29
ENDBRANCH   1  28
TORSDOF 19
ENDMDL
MODEL 2
REMARK VINA RESULT:     -11.5      4.719     10.027
REMARK SMILES COCC[C@@]1(C(=O)NCCCCNC(=O)c2ccc(-c3c4nc(c(-c5c(F)cc(S(=O)(=O)[O-])cc5F)c5ccc([nH]5)c(-c5c(F)cc(S(=O)(=O)[O-])cc5F)c5nc(c(-c6c(F)cc(S(=O)(=O)[O-])cc6F)c6ccc3[nH]6)C=C5)C=C4)cc2)CCCN(C(=O)c2scc3c2OCCO3)C1
REMARK SMILES IDX 10 1 9 2 8 3 6 4 7 5 5 7 82 8 97 9 83 10 85 11 84 12 4 13
REMARK SMILES IDX 3 14 2 15 1 16 86 17 87 18 88 19 89 20 92 21 90 22 91 23
REMARK SMILES IDX 93 24 96 25 94 26 95 27 11 28 12 29 13 30 14 31 15 33 16 34
REMARK SMILES IDX 17 35 81 36 18 37 80 38 19 39 20 40 21 41 74 42 22 43 79 44
REMARK SMILES IDX 73 45 75 46 23 47 78 48 72 49 71 50 24 52 58 53 37 54 57 55
REMARK SMILES IDX 38 56 41 57 56 58 76 59 39 60 40 61 55 63 77 64 42 65 25 66
REMARK SMILES IDX 26 67 35 68 27 69 28 70 34 71 36 72 29 73 30 74 31 75 32 76
REMARK SMILES IDX 33 77 59 78 60 79 69 80 61 81 62 82 68 83 70 84 63 85 64 86
REMARK SMILES IDX 65 87 66 88 67 89 43 90 44 91 53 92 45 93 46 94 52 95 54 96
REMARK SMILES IDX 47 97 48 98 49 99 50 100 51 101
REMARK H PARENT 8 6 13 32 75 51 41 62
REMARK Flexibility Score: inf
ROOT
ATOM      1  C   UNL A   1      37.437  21.904  24.977  1.00  0.00     0.023 C 
ENDROOT
BRANCH   1   2
ATOM      2  C   UNL A   1      36.308  20.887  24.971  1.00  0.00     0.116 C 
BRANCH   2   3
ATOM      3  N   UNL A   1      35.446  21.056  26.118  1.00  0.00    -0.356 N 
ATOM      4  C   UNL A   1      34.130  21.313  26.275  1.00  0.00     0.228 C 
ATOM      5  O   UNL A   1      33.789  21.465  27.457  1.00  0.00    -0.274 OA
ATOM      6  H   UNL A   1      35.924  20.961  26.974  1.00  0.00     0.163 HD
BRANCH   4   7
ATOM      7  C   UNL A   1      33.087  21.496  25.132  1.00  0.00     0.069 C 
ATOM      8  C   UNL A   1      33.659  21.879  23.741  1.00  0.00     0.021 C 
ATOM      9  C   UNL A   1      31.974  22.447  25.611  1.00  0.00     0.136 C 
ATOM     10  C   UNL A   1      33.461  23.322  23.244  1.00  0.00     0.023 C 
ATOM     11  N   UNL A   1      32.015  23.837  25.165  1.00  0.00    -0.337 N 
ATOM     12  C   UNL A   1      32.203  24.033  23.741  1.00  0.00     0.120 C 
BRANCH   7  13
ATOM     13  C   UNL A   1      32.465  20.040  24.951  1.00  0.00     0.047 C 
BRANCH  13  14
ATOM     14  C   UNL A   1      33.353  18.965  24.291  1.00  0.00     0.161 C 
BRANCH  14  15
ATOM     15  O   UNL A   1      33.613  17.892  25.209  1.00  0.00    -0.385 OA
ATOM     16  C   UNL A   1      32.567  16.929  25.260  1.00  0.00     0.194 C 
ENDBRANCH  14  15
ENDBRANCH  13  14
ENDBRANCH   7  13
BRANCH  11  17
ATOM     17  C   UNL A   1      31.562  24.793  26.095  1.00  0.00     0.267 C 
ATOM     18  O   UNL A   1      31.194  24.407  27.210  1.00  0.00    -0.268 OA
BRANCH  17  19
ATOM     19  C   UNL A   1      31.450  26.207  25.793  1.00  0.00     0.138 A 
ATOM     20  S   UNL A   1      32.742  27.201  26.390  1.00  0.00    -0.131 S 
ATOM     21  C   UNL A   1      30.710  26.906  24.863  1.00  0.00     0.185 A 
ATOM     22  C   UNL A   1      32.521  28.356  25.149  1.00  0.00     0.116 A 
ATOM     23  C   UNL A   1      31.417  28.059  24.398  1.00  0.00     0.172 A 
ATOM     24  O   UNL A   1      29.551  26.482  24.298  1.00  0.00    -0.484 OA
ATOM     25  O   UNL A   1      31.073  28.795  23.312  1.00  0.00    -0.485 OA
ATOM     26  C   UNL A   1      29.005  27.540  23.472  1.00  0.00     0.271 C 
ATOM     27  C   UNL A   1      30.077  28.103  22.539  1.00  0.00     0.271 C 
ENDBRANCH  17  19
ENDBRANCH  11  17
ENDBRANCH   4   7
ENDBRANCH   2   3
ENDBRANCH   1   2
BRANCH   1  28
ATOM     28  C   UNL A   1      37.040  23.335  25.278  1.00  0.00     0.023 C 
BRANCH  28  29
ATOM     29  C   UNL A   1      38.009  24.101  26.155  1.00  0.00     0.116 C 
BRANCH  29  30
ATOM     30  N   UNL A   1      39.413  23.728  26.010  1.00  0.00    -0.352 N 
ATOM     31  C   UNL A   1      40.499  24.354  26.595  1.00  0.00     0.251 C 
ATOM     32  H   UNL A   1      39.607  22.951  25.437  1.00  0.00     0.163 HD
ATOM     33  O   UNL A   1      41.645  23.987  26.399  1.00  0.00    -0.269 OA
BRANCH  31  34
ATOM     34  C   UNL A   1      40.207  25.562  27.388  1.00  0.00     0.039 A 
ATOM     35  C   UNL A   1      39.410  25.451  28.532  1.00  0.00     0.014 A 
ATOM     36  C   UNL A   1      40.948  26.712  27.123  1.00  0.00     0.014 A 
ATOM     37  C   UNL A   1      39.419  26.484  29.470  1.00  0.00     0.010 A 
ATOM     38  C   UNL A   1      41.030  27.684  28.103  1.00  0.00     0.010 A 
ATOM     39  C   UNL A   1      40.264  27.585  29.281  1.00  0.00    -0.014 A 
BRANCH  39  40
ATOM     40  C   UNL A   1      40.328  28.731  30.218  1.00  0.00     0.031 A 
ATOM     41  C   UNL A   1      41.330  28.642  31.334  1.00  0.00     0.074 A 
ATOM     42  C   UNL A   1      39.429  29.732  30.175  1.00  0.00     0.049 A 
ATOM     43  N   UNL A   1      41.357  29.267  32.478  1.00  0.00    -0.248 NA
ATOM     44  C   UNL A   1      42.398  27.640  31.164  1.00  0.00     0.031 C 
ATOM     45  C   UNL A   1      38.397  29.920  29.154  1.00  0.00     0.029 A 
ATOM     46  N   UNL A   1      39.223  30.771  31.048  1.00  0.00    -0.354 N 
ATOM     47  C   UNL A   1      42.387  28.671  33.197  1.00  0.00     0.074 A 
ATOM     48  C   UNL A   1      42.936  27.618  32.372  1.00  0.00     0.031 C 
ATOM     49  C   UNL A   1      37.670  31.010  29.458  1.00  0.00     0.029 A 
ATOM     50  C   UNL A   1      38.150  31.567  30.720  1.00  0.00     0.049 A 
ATOM     51  H   UNL A   1      39.789  30.932  31.837  1.00  0.00     0.167 HD
ATOM     52  C   UNL A   1      42.837  28.985  34.432  1.00  0.00     0.037 A 
ATOM     53  C   UNL A   1      37.609  32.608  31.382  1.00  0.00     0.037 A 
ATOM     54  C   UNL A   1      42.346  30.101  35.191  1.00  0.00     0.049 A 
ATOM     55  C   UNL A   1      38.196  33.008  32.712  1.00  0.00     0.074 A 
ATOM     56  C   UNL A   1      42.774  30.565  36.420  1.00  0.00     0.029 A 
ATOM     57  N   UNL A   1      41.336  30.951  34.765  1.00  0.00    -0.354 N 
ATOM     58  N   UNL A   1      39.166  32.437  33.389  1.00  0.00    -0.248 NA
ATOM     59  C   UNL A   1      37.617  34.189  33.370  1.00  0.00     0.031 C 
ATOM     60  C   UNL A   1      42.022  31.700  36.737  1.00  0.00     0.029 A 
ATOM     61  C   UNL A   1      41.141  31.952  35.697  1.00  0.00     0.049 A 
ATOM     62  H   UNL A   1      40.834  30.856  33.923  1.00  0.00     0.167 HD
ATOM     63  C   UNL A   1      39.330  33.204  34.538  1.00  0.00     0.074 A 
ATOM     64  C   UNL A   1      38.365  34.281  34.463  1.00  0.00     0.031 C 
ATOM     65  C   UNL A   1      40.196  33.032  35.567  1.00  0.00     0.037 A 
BRANCH  52  66
ATOM     66  C   UNL A   1      43.913  28.115  35.014  1.00  0.00     0.058 A 
ATOM     67  C   UNL A   1      45.274  28.381  34.796  1.00  0.00     0.135 A 
ATOM     68  C   UNL A   1      43.578  26.987  35.779  1.00  0.00     0.135 A 
ATOM     69  F   UNL A   1      45.646  29.433  34.050  1.00  0.00    -0.206 F 
ATOM     70  C   UNL A   1      46.266  27.534  35.277  1.00  0.00     0.059 A 
ATOM     71  C   UNL A   1      44.556  26.142  36.297  1.00  0.00     0.059 A 
ATOM     72  F   UNL A   1      42.292  26.684  36.012  1.00  0.00    -0.206 F 
ATOM     73  C   UNL A   1      45.895  26.413  36.022  1.00  0.00     0.060 A 
BRANCH  73  74
ATOM     74  S   UNL A   1      47.190  25.311  36.626  1.00  0.00     0.124 S 
ATOM     75  O   UNL A   1      48.216  25.481  35.602  1.00  0.00    -0.237 OA
ATOM     76  O   UNL A   1      47.502  25.877  37.935  1.00  0.00    -0.237 OA
ATOM     77  O   UNL A   1      46.537  24.006  36.652  1.00  0.00    -0.744 OA
ENDBRANCH  73  74
ENDBRANCH  52  66
BRANCH  53  78
ATOM     78  C   UNL A   1      36.463  33.359  30.802  1.00  0.00     0.058 A 
ATOM     79  C   UNL A   1      36.646  34.178  29.677  1.00  0.00     0.135 A 
ATOM     80  C   UNL A   1      35.175  33.288  31.354  1.00  0.00     0.135 A 
ATOM     81  F   UNL A   1      37.862  34.285  29.117  1.00  0.00    -0.206 F 
ATOM     82  C   UNL A   1      35.601  34.917  29.133  1.00  0.00     0.059 A 
ATOM     83  C   UNL A   1      34.108  34.003  30.814  1.00  0.00     0.059 A 
ATOM     84  F   UNL A   1      34.944  32.508  32.420  1.00  0.00    -0.206 F 
ATOM     85  C   UNL A   1      34.335  34.824  29.710  1.00  0.00     0.060 A 
BRANCH  85  86
ATOM     86  S   UNL A   1      32.977  35.762  28.975  1.00  0.00     0.124 S 
ATOM     87  O   UNL A   1      32.352  34.755  28.124  1.00  0.00    -0.237 OA
ATOM     88  O   UNL A   1      32.211  36.169  30.149  1.00  0.00    -0.237 OA
ATOM     89  O   UNL A   1      33.660  36.845  28.275  1.00  0.00    -0.744 OA
ENDBRANCH  85  86
ENDBRANCH  53  78
BRANCH  65  90
ATOM     90  C   UNL A   1      40.185  34.057  36.661  1.00  0.00     0.058 A 
ATOM     91  C   UNL A   1      40.976  35.212  36.590  1.00  0.00     0.135 A 
ATOM     92  C   UNL A   1      39.293  33.928  37.737  1.00  0.00     0.135 A 
ATOM     93  F   UNL A   1      41.845  35.376  35.580  1.00  0.00    -0.206 F 
ATOM     94  C   UNL A   1      40.885  36.209  37.555  1.00  0.00     0.059 A 
ATOM     95  C   UNL A   1      39.173  34.920  38.703  1.00  0.00     0.059 A 
ATOM     96  F   UNL A   1      38.509  32.842  37.838  1.00  0.00    -0.206 F 
ATOM     97  C   UNL A   1      39.976  36.056  38.605  1.00  0.00     0.060 A 
BRANCH  97  98
ATOM     98  S   UNL A   1      39.811  37.389  39.811  1.00  0.00     0.124 S 
ATOM     99  O   UNL A   1      38.612  38.068  39.335  1.00  0.00    -0.237 OA
ATOM    100  O   UNL A   1      39.672  36.660  41.068  1.00  0.00    -0.237 OA
ATOM    101  O   UNL A   1      41.058  38.134  39.663  1.00  0.00    -0.744 OA
ENDBRANCH  97  98
ENDBRANCH  65  90
ENDBRANCH  39  40
ENDBRANCH  31  34
ENDBRANCH  29  30
ENDBRANCH  28  29
ENDBRANCH   1  28
TORSDOF 19
ENDMDL
MODEL 3
REMARK VINA RESULT:     -11.2      2.154      4.351
REMARK SMILES COCC[C@@]1(C(=O)NCCCCNC(=O)c2ccc(-c3c4nc(c(-c5c(F)cc(S(=O)(=O)[O-])cc5F)c5ccc([nH]5)c(-c5c(F)cc(S(=O)(=O)[O-])cc5F)c5nc(c(-c6c(F)cc(S(=O)(=O)[O-])cc6F)c6ccc3[nH]6)C=C5)C=C4)cc2)CCCN(C(=O)c2scc3c2OCCO3)C1
REMARK SMILES IDX 10 1 9 2 8 3 6 4 7 5 5 7 82 8 97 9 83 10 85 11 84 12 4 13
REMARK SMILES IDX 3 14 2 15 1 16 86 17 87 18 88 19 89 20 92 21 90 22 91 23
REMARK SMILES IDX 93 24 96 25 94 26 95 27 11 28 12 29 13 30 14 31 15 33 16 34
REMARK SMILES IDX 17 35 81 36 18 37 80 38 19 39 20 40 21 41 74 42 22 43 79 44
REMARK SMILES IDX 73 45 75 46 23 47 78 48 72 49 71 50 24 52 58 53 37 54 57 55
REMARK SMILES IDX 38 56 41 57 56 58 76 59 39 60 40 61 55 63 77 64 42 65 25 66
REMARK SMILES IDX 26 67 35 68 27 69 28 70 34 71 36 72 29 73 30 74 31 75 32 76
REMARK SMILES IDX 33 77 59 78 60 79 69 80 61 81 62 82 68 83 70 84 63 85 64 86
REMARK SMILES IDX 65 87 66 88 67 89 43 90 44 91 53 92 45 93 46 94 52 95 54 96
REMARK SMILES IDX 47 97 48 98 49 99 50 100 51 101
REMARK H PARENT 8 6 13 32 75 51 41 62
REMARK Flexibility Score: inf
ROOT
ATOM      1  C   UNL A   1      32.381  29.188  27.122  1.00  0.00     0.023 C 
ENDROOT
BRANCH   1   2
ATOM      2  C   UNL A   1      31.815  29.315  25.717  1.00  0.00     0.116 C 
BRANCH   2   3
ATOM      3  N   UNL A   1      32.535  28.479  24.786  1.00  0.00    -0.356 N 
ATOM      4  C   UNL A   1      32.322  27.251  24.266  1.00  0.00     0.228 C 
ATOM      5  O   UNL A   1      33.245  26.849  23.543  1.00  0.00    -0.274 OA
ATOM      6  H   UNL A   1      33.365  28.897  24.458  1.00  0.00     0.163 HD
BRANCH   4   7
ATOM      7  C   UNL A   1      31.100  26.330  24.556  1.00  0.00     0.069 C 
ATOM      8  C   UNL A   1      30.709  26.166  26.049  1.00  0.00     0.021 C 
ATOM      9  C   UNL A   1      31.296  24.986  23.830  1.00  0.00     0.136 C 
ATOM     10  C   UNL A   1      31.031  24.831  26.743  1.00  0.00     0.023 C 
ATOM     11  N   UNL A   1      31.755  23.841  24.612  1.00  0.00    -0.337 N 
ATOM     12  C   UNL A   1      31.034  23.594  25.845  1.00  0.00     0.120 C 
BRANCH   7  13
ATOM     13  C   UNL A   1      29.878  27.097  23.878  1.00  0.00     0.047 C 
BRANCH  13  14
ATOM     14  C   UNL A   1      30.171  27.911  22.600  1.00  0.00     0.161 C 
BRANCH  14  15
ATOM     15  O   UNL A   1      29.247  29.002  22.474  1.00  0.00    -0.385 OA
ATOM     16  C   UNL A   1      29.757  30.085  21.703  1.00  0.00     0.194 C 
ENDBRANCH  14  15
ENDBRANCH  13  14
ENDBRANCH   7  13
BRANCH  11  17
ATOM     17  C   UNL A   1      32.611  22.945  23.942  1.00  0.00     0.267 C 
ATOM     18  O   UNL A   1      32.721  23.036  22.715  1.00  0.00    -0.268 OA
BRANCH  17  19
ATOM     19  C   UNL A   1      33.331  21.879  24.612  1.00  0.00     0.138 A 
ATOM     20  S   UNL A   1      32.544  20.332  24.611  1.00  0.00    -0.131 S 
ATOM     21  C   UNL A   1      34.653  21.734  24.979  1.00  0.00     0.185 A 
ATOM     22  C   UNL A   1      34.032  19.496  24.714  1.00  0.00     0.116 A 
ATOM     23  C   UNL A   1      35.071  20.370  24.883  1.00  0.00     0.172 A 
ATOM     24  O   UNL A   1      35.522  22.750  25.214  1.00  0.00    -0.484 OA
ATOM     25  O   UNL A   1      36.359  19.948  24.928  1.00  0.00    -0.485 OA
ATOM     26  C   UNL A   1      36.774  22.208  25.701  1.00  0.00     0.271 C 
ATOM     27  C   UNL A   1      37.253  21.068  24.802  1.00  0.00     0.271 C 
ENDBRANCH  17  19
ENDBRANCH  11  17
ENDBRANCH   4   7
ENDBRANCH   2   3
ENDBRANCH   1   2
BRANCH   1  28
ATOM     28  C   UNL A   1      33.751  28.549  27.230  1.00  0.00     0.023 C 
BRANCH  28  29
ATOM     29  C   UNL A   1      34.904  29.522  27.376  1.00  0.00     0.116 C 
BRANCH  29  30
ATOM     30  N   UNL A   1      34.896  30.324  28.595  1.00  0.00    -0.352 N 
ATOM     31  C   UNL A   1      35.956  30.517  29.464  1.00  0.00     0.251 C 
ATOM     32  H   UNL A   1      34.051  30.773  28.824  1.00  0.00     0.163 HD
ATOM     33  O   UNL A   1      35.853  31.186  30.477  1.00  0.00    -0.269 OA
BRANCH  31  34
ATOM     34  C   UNL A   1      37.195  29.779  29.156  1.00  0.00     0.039 A 
ATOM     35  C   UNL A   1      37.829  29.993  27.928  1.00  0.00     0.014 A 
ATOM     36  C   UNL A   1      37.828  29.104  30.198  1.00  0.00     0.014 A 
ATOM     37  C   UNL A   1      39.156  29.590  27.769  1.00  0.00     0.010 A 
ATOM     38  C   UNL A   1      39.170  28.799  30.067  1.00  0.00     0.010 A 
ATOM     39  C   UNL A   1      39.846  29.032  28.853  1.00  0.00    -0.014 A 
BRANCH  39  40
ATOM     40  C   UNL A   1      41.250  28.566  28.770  1.00  0.00     0.031 A 
ATOM     41  C   UNL A   1      42.322  29.613  28.883  1.00  0.00     0.074 A 
ATOM     42  C   UNL A   1      41.557  27.296  28.448  1.00  0.00     0.049 A 
ATOM     43  N   UNL A   1      43.562  29.579  28.482  1.00  0.00    -0.248 NA
ATOM     44  C   UNL A   1      41.902  30.907  29.451  1.00  0.00     0.031 C 
ATOM     45  C   UNL A   1      40.606  26.193  28.292  1.00  0.00     0.029 A 
ATOM     46  N   UNL A   1      42.773  26.728  28.158  1.00  0.00    -0.354 N 
ATOM     47  C   UNL A   1      44.042  30.871  28.665  1.00  0.00     0.074 A 
ATOM     48  C   UNL A   1      42.952  31.667  29.184  1.00  0.00     0.031 C 
ATOM     49  C   UNL A   1      41.276  25.081  27.939  1.00  0.00     0.029 A 
ATOM     50  C   UNL A   1      42.693  25.404  27.793  1.00  0.00     0.049 A 
ATOM     51  H   UNL A   1      43.622  27.222  28.206  1.00  0.00     0.167 HD
ATOM     52  C   UNL A   1      45.286  31.344  28.429  1.00  0.00     0.037 A 
ATOM     53  C   UNL A   1      43.655  24.563  27.366  1.00  0.00     0.037 A 
ATOM     54  C   UNL A   1      46.380  30.513  28.012  1.00  0.00     0.049 A 
ATOM     55  C   UNL A   1      45.061  25.087  27.211  1.00  0.00     0.074 A 
ATOM     56  C   UNL A   1      47.702  30.861  27.814  1.00  0.00     0.029 A 
ATOM     57  N   UNL A   1      46.277  29.151  27.767  1.00  0.00    -0.354 N 
ATOM     58  N   UNL A   1      45.507  26.310  27.381  1.00  0.00    -0.248 NA
ATOM     59  C   UNL A   1      46.093  24.122  26.805  1.00  0.00     0.031 C 
ATOM     60  C   UNL A   1      48.402  29.706  27.449  1.00  0.00     0.029 A 
ATOM     61  C   UNL A   1      47.518  28.638  27.441  1.00  0.00     0.049 A 
ATOM     62  H   UNL A   1      45.445  28.628  27.819  1.00  0.00     0.167 HD
ATOM     63  C   UNL A   1      46.874  26.255  27.128  1.00  0.00     0.074 A 
ATOM     64  C   UNL A   1      47.183  24.879  26.800  1.00  0.00     0.031 C 
ATOM     65  C   UNL A   1      47.792  27.252  27.159  1.00  0.00     0.037 A 
BRANCH  52  66
ATOM     66  C   UNL A   1      45.513  32.814  28.632  1.00  0.00     0.058 A 
ATOM     67  C   UNL A   1      45.289  33.743  27.604  1.00  0.00     0.135 A 
ATOM     68  C   UNL A   1      45.986  33.296  29.862  1.00  0.00     0.135 A 
ATOM     69  F   UNL A   1      44.862  33.330  26.400  1.00  0.00    -0.206 F 
ATOM     70  C   UNL A   1      45.569  35.094  27.773  1.00  0.00     0.059 A 
ATOM     71  C   UNL A   1      46.243  34.650  30.064  1.00  0.00     0.059 A 
ATOM     72  F   UNL A   1      46.223  32.450  30.876  1.00  0.00    -0.206 F 
ATOM     73  C   UNL A   1      46.052  35.536  29.005  1.00  0.00     0.060 A 
BRANCH  73  74
ATOM     74  S   UNL A   1      46.428  37.290  29.207  1.00  0.00     0.124 S 
ATOM     75  O   UNL A   1      47.182  37.281  30.457  1.00  0.00    -0.237 OA
ATOM     76  O   UNL A   1      47.199  37.588  28.005  1.00  0.00    -0.237 OA
ATOM     77  O   UNL A   1      45.110  37.912  29.272  1.00  0.00    -0.744 OA
ENDBRANCH  73  74
ENDBRANCH  52  66
BRANCH  53  78
ATOM     78  C   UNL A   1      43.340  23.140  27.070  1.00  0.00     0.058 A 
ATOM     79  C   UNL A   1      43.346  22.671  25.747  1.00  0.00     0.135 A 
ATOM     80  C   UNL A   1      43.018  22.226  28.084  1.00  0.00     0.135 A 
ATOM     81  F   UNL A   1      43.641  23.510  24.741  1.00  0.00    -0.206 F 
ATOM     82  C   UNL A   1      43.024  21.354  25.437  1.00  0.00     0.059 A 
ATOM     83  C   UNL A   1      42.712  20.897  27.801  1.00  0.00     0.059 A 
ATOM     84  F   UNL A   1      43.013  22.620  29.367  1.00  0.00    -0.206 F 
ATOM     85  C   UNL A   1      42.706  20.474  26.471  1.00  0.00     0.060 A 
BRANCH  85  86
ATOM     86  S   UNL A   1      42.323  18.757  26.060  1.00  0.00     0.124 S 
ATOM     87  O   UNL A   1      40.903  18.844  25.735  1.00  0.00    -0.237 OA
ATOM     88  O   UNL A   1      43.220  18.500  24.938  1.00  0.00    -0.237 OA
ATOM     89  O   UNL A   1      42.648  18.039  27.289  1.00  0.00    -0.744 OA
ENDBRANCH  85  86
ENDBRANCH  53  78
BRANCH  65  90
ATOM     90  C   UNL A   1      49.221  26.886  26.891  1.00  0.00     0.058 A 
ATOM     91  C   UNL A   1      50.081  26.485  27.923  1.00  0.00     0.135 A 
ATOM     92  C   UNL A   1      49.699  26.838  25.572  1.00  0.00     0.135 A 
ATOM     93  F   UNL A   1      49.666  26.519  29.199  1.00  0.00    -0.206 F 
ATOM     94  C   UNL A   1      51.373  26.047  27.657  1.00  0.00     0.059 A 
ATOM     95  C   UNL A   1      50.982  26.387  25.281  1.00  0.00     0.059 A 
ATOM     96  F   UNL A   1      48.907  27.203  24.551  1.00  0.00    -0.206 F 
ATOM     97  C   UNL A   1      51.812  25.996  26.331  1.00  0.00     0.060 A 
BRANCH  97  98
ATOM     98  S   UNL A   1      53.465  25.356  25.988  1.00  0.00     0.124 S 
ATOM     99  O   UNL A   1      53.164  24.018  25.494  1.00  0.00    -0.237 OA
ATOM    100  O   UNL A   1      53.970  26.302  24.997  1.00  0.00    -0.237 OA
ATOM    101  O   UNL A   1      54.126  25.413  27.289  1.00  0.00    -0.744 OA
ENDBRANCH  97  98
ENDBRANCH  65  90
ENDBRANCH  39  40
ENDBRANCH  31  34
ENDBRANCH  29  30
ENDBRANCH  28  29
ENDBRANCH   1  28
TORSDOF 19
ENDMDL
