MODEL 1
REMARK VINA RESULT:     -12.6      0.000      0.000
REMARK SMILES C=CCn1nc(C(=O)NCCCCNC(=O)c2ccc(-c3c4nc(c(-c5c(F)cc(S(=O)(=O)[O-])cc5F)c5ccc([nH]5)c(-c5c(F)cc(S(=O)(=O)[O-])cc5F)c5nc(c(-c6c(F)cc(S(=O)(=O)[O-])cc6F)c6ccc3[nH]6)C=C5)C=C4)cc2)c2c1CC[C@@H]([NH+]1CCC(C(C)(C)O)CC1)C2
REMARK SMILES IDX 11 1 10 2 9 3 7 4 8 5 6 7 4 8 5 9 84 10 83 11 85 12 98 13
REMARK SMILES IDX 86 14 87 15 3 16 2 17 1 18 88 19 89 20 97 21 90 23 96 24
REMARK SMILES IDX 91 25 92 26 93 27 94 28 95 29 12 31 13 32 14 33 15 34 16 36
REMARK SMILES IDX 17 37 18 38 82 39 19 40 81 41 20 42 21 43 22 44 75 45 23 46
REMARK SMILES IDX 80 47 74 48 76 49 24 50 79 51 73 52 72 53 25 55 59 56 38 57
REMARK SMILES IDX 58 58 39 59 42 60 57 61 77 62 40 63 41 64 56 66 78 67 43 68
REMARK SMILES IDX 26 69 27 70 36 71 28 72 29 73 35 74 37 75 30 76 31 77 32 78
REMARK SMILES IDX 33 79 34 80 60 81 61 82 70 83 62 84 63 85 69 86 71 87 64 88
REMARK SMILES IDX 65 89 66 90 67 91 68 92 44 93 45 94 54 95 46 96 47 97 53 98
REMARK SMILES IDX 55 99 48 100 49 101 50 102 51 103 52 104
REMARK H PARENT 9 6 88 22 95 30 14 35 76 54 42 65
REMARK Flexibility Score: inf
ROOT
ATOM      1  C   UNL A   1      40.145  21.100  26.486  1.00  0.00     0.023 C 
ENDROOT
BRANCH   1   2
ATOM      2  C   UNL A   1      38.800  21.252  25.746  1.00  0.00     0.116 C 
BRANCH   2   3
ATOM      3  N   UNL A   1      38.213  22.573  25.924  1.00  0.00    -0.351 N 
ATOM      4  C   UNL A   1      36.967  23.145  25.746  1.00  0.00     0.272 C 
ATOM      5  O   UNL A   1      36.906  24.319  26.134  1.00  0.00    -0.267 OA
ATOM      6  H   UNL A   1      38.872  23.226  26.256  1.00  0.00     0.163 HD
BRANCH   4   7
ATOM      7  C   UNL A   1      35.778  22.471  25.151  1.00  0.00     0.153 A 
ATOM      8  N   UNL A   1      34.406  20.826  24.826  1.00  0.00    -0.265 N 
ATOM      9  N   UNL A   1      35.567  21.159  25.425  1.00  0.00    -0.167 NA
ATOM     10  C   UNL A   1      33.909  21.846  24.068  1.00  0.00     0.043 A 
ATOM     11  C   UNL A   1      34.675  22.944  24.389  1.00  0.00     0.012 A 
ATOM     12  C   UNL A   1      32.688  21.850  23.221  1.00  0.00     0.062 C 
ATOM     13  C   UNL A   1      34.238  24.306  24.036  1.00  0.00     0.105 C 
ATOM     14  C   UNL A   1      32.319  23.291  22.806  1.00  0.00     0.072 C 
ATOM     15  C   UNL A   1      32.730  24.444  23.757  1.00  0.00     0.189 C 
BRANCH   8  16
ATOM     16  C   UNL A   1      33.708  19.608  25.246  1.00  0.00     0.171 C 
BRANCH  16  17
ATOM     17  C   UNL A   1      33.775  18.489  24.247  1.00  0.00    -0.011 C 
ATOM     18  C   UNL A   1      34.666  17.488  24.299  1.00  0.00     0.006 C 
ENDBRANCH  16  17
ENDBRANCH   8  16
BRANCH  15  19
ATOM     19  N   UNL A   1      32.025  24.832  25.000  1.00  0.00    -0.332 N 
ATOM     20  C   UNL A   1      30.596  25.074  24.995  1.00  0.00     0.262 C 
ATOM     21  C   UNL A   1      32.692  25.808  25.844  1.00  0.00     0.262 C 
ATOM     22  H   UNL A   1      32.108  23.906  25.419  1.00  0.00     0.348 HD
ATOM     23  C   UNL A   1      30.211  26.445  24.468  1.00  0.00     0.068 C 
ATOM     24  C   UNL A   1      32.562  27.219  25.309  1.00  0.00     0.068 C 
ATOM     25  C   UNL A   1      31.138  27.627  24.843  1.00  0.00     0.031 C 
BRANCH  25  26
ATOM     26  C   UNL A   1      31.208  28.725  23.721  1.00  0.00     0.062 C 
ATOM     27  C   UNL A   1      32.600  28.877  23.099  1.00  0.00     0.042 C 
ATOM     28  C   UNL A   1      30.170  28.448  22.629  1.00  0.00     0.042 C 
BRANCH  26  29
ATOM     29  O   UNL A   1      30.886  30.003  24.275  1.00  0.00    -0.390 OA
ATOM     30  H   UNL A   1      30.726  30.635  23.557  1.00  0.00     0.211 HD
ENDBRANCH  26  29
ENDBRANCH  25  26
ENDBRANCH  15  19
ENDBRANCH   4   7
ENDBRANCH   2   3
ENDBRANCH   1   2
BRANCH   1  31
ATOM     31  C   UNL A   1      40.952  19.832  26.210  1.00  0.00     0.023 C 
BRANCH  31  32
ATOM     32  C   UNL A   1      42.322  19.822  26.879  1.00  0.00     0.116 C 
BRANCH  32  33
ATOM     33  N   UNL A   1      43.411  19.492  25.958  1.00  0.00    -0.352 N 
ATOM     34  C   UNL A   1      44.055  20.359  25.092  1.00  0.00     0.251 C 
ATOM     35  H   UNL A   1      43.718  18.556  25.955  1.00  0.00     0.163 HD
ATOM     36  O   UNL A   1      44.602  19.955  24.081  1.00  0.00    -0.269 OA
BRANCH  34  37
ATOM     37  C   UNL A   1      44.071  21.793  25.441  1.00  0.00     0.039 A 
ATOM     38  C   UNL A   1      43.121  22.669  24.913  1.00  0.00     0.014 A 
ATOM     39  C   UNL A   1      45.025  22.229  26.362  1.00  0.00     0.014 A 
ATOM     40  C   UNL A   1      43.077  23.975  25.396  1.00  0.00     0.010 A 
ATOM     41  C   UNL A   1      44.924  23.493  26.900  1.00  0.00     0.010 A 
ATOM     42  C   UNL A   1      43.960  24.374  26.414  1.00  0.00    -0.014 A 
BRANCH  42  43
ATOM     43  C   UNL A   1      43.744  25.647  27.108  1.00  0.00     0.031 A 
ATOM     44  C   UNL A   1      44.778  26.679  26.805  1.00  0.00     0.074 A 
ATOM     45  C   UNL A   1      42.614  25.961  27.778  1.00  0.00     0.049 A 
ATOM     46  N   UNL A   1      45.683  27.145  27.599  1.00  0.00    -0.248 NA
ATOM     47  C   UNL A   1      44.936  27.125  25.409  1.00  0.00     0.031 C 
ATOM     48  C   UNL A   1      41.389  25.165  27.890  1.00  0.00     0.029 A 
ATOM     49  N   UNL A   1      42.277  27.115  28.421  1.00  0.00    -0.354 N 
ATOM     50  C   UNL A   1      46.356  28.131  26.880  1.00  0.00     0.074 A 
ATOM     51  C   UNL A   1      46.010  27.915  25.501  1.00  0.00     0.031 C 
ATOM     52  C   UNL A   1      40.383  25.943  28.350  1.00  0.00     0.029 A 
ATOM     53  C   UNL A   1      40.920  27.243  28.714  1.00  0.00     0.049 A 
ATOM     54  H   UNL A   1      42.939  27.804  28.660  1.00  0.00     0.167 HD
ATOM     55  C   UNL A   1      46.921  29.198  27.514  1.00  0.00     0.037 A 
ATOM     56  C   UNL A   1      40.278  28.339  29.198  1.00  0.00     0.037 A 
ATOM     57  C   UNL A   1      47.028  28.946  28.932  1.00  0.00     0.049 A 
ATOM     58  C   UNL A   1      41.312  29.201  29.825  1.00  0.00     0.074 A 
ATOM     59  C   UNL A   1      47.634  27.978  29.710  1.00  0.00     0.029 A 
ATOM     60  N   UNL A   1      46.113  29.567  29.749  1.00  0.00    -0.354 N 
ATOM     61  N   UNL A   1      41.971  28.877  30.904  1.00  0.00    -0.248 NA
ATOM     62  C   UNL A   1      41.934  30.225  29.000  1.00  0.00     0.031 C 
ATOM     63  C   UNL A   1      46.728  27.750  30.787  1.00  0.00     0.029 A 
ATOM     64  C   UNL A   1      45.665  28.645  30.656  1.00  0.00     0.049 A 
ATOM     65  H   UNL A   1      45.830  30.508  29.692  1.00  0.00     0.167 HD
ATOM     66  C   UNL A   1      43.267  29.303  30.663  1.00  0.00     0.074 A 
ATOM     67  C   UNL A   1      43.162  30.215  29.526  1.00  0.00     0.031 C 
ATOM     68  C   UNL A   1      44.332  28.653  31.218  1.00  0.00     0.037 A 
BRANCH  55  69
ATOM     69  C   UNL A   1      46.996  30.609  26.956  1.00  0.00     0.058 A 
ATOM     70  C   UNL A   1      48.227  31.301  27.022  1.00  0.00     0.135 A 
ATOM     71  C   UNL A   1      45.876  31.411  26.644  1.00  0.00     0.135 A 
ATOM     72  F   UNL A   1      49.368  30.647  27.297  1.00  0.00    -0.206 F 
ATOM     73  C   UNL A   1      48.319  32.688  26.900  1.00  0.00     0.059 A 
ATOM     74  C   UNL A   1      45.955  32.788  26.464  1.00  0.00     0.059 A 
ATOM     75  F   UNL A   1      44.632  30.924  26.583  1.00  0.00    -0.206 F 
ATOM     76  C   UNL A   1      47.171  33.425  26.639  1.00  0.00     0.060 A 
BRANCH  76  77
ATOM     77  S   UNL A   1      47.267  35.221  26.573  1.00  0.00     0.124 S 
ATOM     78  O   UNL A   1      48.563  35.418  25.936  1.00  0.00    -0.237 OA
ATOM     79  O   UNL A   1      46.098  35.554  25.765  1.00  0.00    -0.237 OA
ATOM     80  O   UNL A   1      47.184  35.612  27.977  1.00  0.00    -0.744 OA
ENDBRANCH  76  77
ENDBRANCH  55  69
BRANCH  56  81
ATOM     81  C   UNL A   1      38.895  28.827  28.934  1.00  0.00     0.058 A 
ATOM     82  C   UNL A   1      37.967  28.994  29.982  1.00  0.00     0.135 A 
ATOM     83  C   UNL A   1      38.542  29.420  27.704  1.00  0.00     0.135 A 
ATOM     84  F   UNL A   1      38.217  28.475  31.194  1.00  0.00    -0.206 F 
ATOM     85  C   UNL A   1      36.801  29.757  29.840  1.00  0.00     0.059 A 
ATOM     86  C   UNL A   1      37.380  30.175  27.535  1.00  0.00     0.059 A 
ATOM     87  F   UNL A   1      39.368  29.364  26.649  1.00  0.00    -0.206 F 
ATOM     88  C   UNL A   1      36.529  30.366  28.617  1.00  0.00     0.060 A 
BRANCH  88  89
ATOM     89  S   UNL A   1      35.135  31.514  28.484  1.00  0.00     0.124 S 
ATOM     90  O   UNL A   1      34.105  30.672  27.884  1.00  0.00    -0.237 OA
ATOM     91  O   UNL A   1      34.915  31.896  29.875  1.00  0.00    -0.237 OA
ATOM     92  O   UNL A   1      35.652  32.575  27.624  1.00  0.00    -0.744 OA
ENDBRANCH  88  89
ENDBRANCH  56  81
BRANCH  68  93
ATOM     93  C   UNL A   1      44.084  27.713  32.368  1.00  0.00     0.058 A 
ATOM     94  C   UNL A   1      43.918  26.321  32.256  1.00  0.00     0.135 A 
ATOM     95  C   UNL A   1      44.178  28.244  33.665  1.00  0.00     0.135 A 
ATOM     96  F   UNL A   1      43.918  25.717  31.059  1.00  0.00    -0.206 F 
ATOM     97  C   UNL A   1      43.813  25.502  33.383  1.00  0.00     0.059 A 
ATOM     98  C   UNL A   1      44.112  27.443  34.800  1.00  0.00     0.059 A 
ATOM     99  F   UNL A   1      44.394  29.558  33.840  1.00  0.00    -0.206 F 
ATOM    100  C   UNL A   1      43.917  26.073  34.652  1.00  0.00     0.060 A 
BRANCH 100 101
ATOM    101  S   UNL A   1      43.861  25.007  36.109  1.00  0.00     0.124 S 
ATOM    102  O   UNL A   1      42.431  24.944  36.389  1.00  0.00    -0.237 OA
ATOM    103  O   UNL A   1      44.468  23.771  35.621  1.00  0.00    -0.237 OA
ATOM    104  O   UNL A   1      44.658  25.735  37.094  1.00  0.00    -0.744 OA
ENDBRANCH 100 101
ENDBRANCH  68  93
ENDBRANCH  42  43
ENDBRANCH  34  37
ENDBRANCH  32  33
ENDBRANCH  31  32
ENDBRANCH   1  31
TORSDOF 19
ENDMDL
MODEL 2
REMARK VINA RESULT:     -12.2      1.366      1.908
REMARK SMILES C=CCn1nc(C(=O)NCCCCNC(=O)c2ccc(-c3c4nc(c(-c5c(F)cc(S(=O)(=O)[O-])cc5F)c5ccc([nH]5)c(-c5c(F)cc(S(=O)(=O)[O-])cc5F)c5nc(c(-c6c(F)cc(S(=O)(=O)[O-])cc6F)c6ccc3[nH]6)C=C5)C=C4)cc2)c2c1CC[C@@H]([NH+]1CCC(C(C)(C)O)CC1)C2
REMARK SMILES IDX 11 1 10 2 9 3 7 4 8 5 6 7 4 8 5 9 84 10 83 11 85 12 98 13
REMARK SMILES IDX 86 14 87 15 3 16 2 17 1 18 88 19 89 20 97 21 90 23 96 24
REMARK SMILES IDX 91 25 92 26 93 27 94 28 95 29 12 31 13 32 14 33 15 34 16 36
REMARK SMILES IDX 17 37 18 38 82 39 19 40 81 41 20 42 21 43 22 44 75 45 23 46
REMARK SMILES IDX 80 47 74 48 76 49 24 50 79 51 73 52 72 53 25 55 59 56 38 57
REMARK SMILES IDX 58 58 39 59 42 60 57 61 77 62 40 63 41 64 56 66 78 67 43 68
REMARK SMILES IDX 26 69 27 70 36 71 28 72 29 73 35 74 37 75 30 76 31 77 32 78
REMARK SMILES IDX 33 79 34 80 60 81 61 82 70 83 62 84 63 85 69 86 71 87 64 88
REMARK SMILES IDX 65 89 66 90 67 91 68 92 44 93 45 94 54 95 46 96 47 97 53 98
REMARK SMILES IDX 55 99 48 100 49 101 50 102 51 103 52 104
REMARK H PARENT 9 6 88 22 95 30 14 35 76 54 42 65
REMARK Flexibility Score: inf
ROOT
ATOM      1  C   UNL A   1      39.095  22.243  26.167  1.00  0.00     0.023 C 
ENDROOT
BRANCH   1   2
ATOM      2  C   UNL A   1      37.702  22.318  25.511  1.00  0.00     0.116 C 
BRANCH   2   3
ATOM      3  N   UNL A   1      36.623  22.269  26.488  1.00  0.00    -0.351 N 
ATOM      4  C   UNL A   1      35.262  22.026  26.462  1.00  0.00     0.272 C 
ATOM      5  O   UNL A   1      34.749  21.991  27.588  1.00  0.00    -0.267 OA
ATOM      6  H   UNL A   1      36.945  22.458  27.399  1.00  0.00     0.163 HD
BRANCH   4   7
ATOM      7  C   UNL A   1      34.439  21.822  25.237  1.00  0.00     0.153 A 
ATOM      8  N   UNL A   1      33.250  20.677  23.833  1.00  0.00    -0.265 N 
ATOM      9  N   UNL A   1      34.020  20.568  24.934  1.00  0.00    -0.167 NA
ATOM     10  C   UNL A   1      33.246  21.947  23.334  1.00  0.00     0.043 A 
ATOM     11  C   UNL A   1      33.859  22.718  24.297  1.00  0.00     0.012 A 
ATOM     12  C   UNL A   1      32.565  22.453  22.114  1.00  0.00     0.062 C 
ATOM     13  C   UNL A   1      33.747  24.186  24.281  1.00  0.00     0.105 C 
ATOM     14  C   UNL A   1      32.548  23.996  22.100  1.00  0.00     0.072 C 
ATOM     15  C   UNL A   1      32.559  24.731  23.466  1.00  0.00     0.189 C 
BRANCH   8  16
ATOM     16  C   UNL A   1      32.342  19.581  23.483  1.00  0.00     0.171 C 
BRANCH  16  17
ATOM     17  C   UNL A   1      32.812  18.230  23.935  1.00  0.00    -0.011 C 
ATOM     18  C   UNL A   1      33.317  17.296  23.115  1.00  0.00     0.006 C 
ENDBRANCH  16  17
ENDBRANCH   8  16
BRANCH  15  19
ATOM     19  N   UNL A   1      31.389  24.921  24.354  1.00  0.00    -0.332 N 
ATOM     20  C   UNL A   1      30.148  25.460  23.836  1.00  0.00     0.262 C 
ATOM     21  C   UNL A   1      31.660  25.472  25.670  1.00  0.00     0.262 C 
ATOM     22  H   UNL A   1      31.200  23.923  24.435  1.00  0.00     0.348 HD
ATOM     23  C   UNL A   1      30.153  26.971  23.685  1.00  0.00     0.068 C 
ATOM     24  C   UNL A   1      31.898  26.968  25.633  1.00  0.00     0.068 C 
ATOM     25  C   UNL A   1      30.886  27.783  24.782  1.00  0.00     0.031 C 
BRANCH  25  26
ATOM     26  C   UNL A   1      31.550  29.095  24.227  1.00  0.00     0.062 C 
ATOM     27  C   UNL A   1      32.743  29.576  25.057  1.00  0.00     0.042 C 
ATOM     28  C   UNL A   1      31.966  28.911  22.764  1.00  0.00     0.042 C 
BRANCH  26  29
ATOM     29  O   UNL A   1      30.600  30.163  24.250  1.00  0.00    -0.390 OA
ATOM     30  H   UNL A   1      30.339  30.343  25.167  1.00  0.00     0.211 HD
ENDBRANCH  26  29
ENDBRANCH  25  26
ENDBRANCH  15  19
ENDBRANCH   4   7
ENDBRANCH   2   3
ENDBRANCH   1   2
BRANCH   1  31
ATOM     31  C   UNL A   1      39.807  20.891  26.141  1.00  0.00     0.023 C 
BRANCH  31  32
ATOM     32  C   UNL A   1      40.932  20.772  27.162  1.00  0.00     0.116 C 
BRANCH  32  33
ATOM     33  N   UNL A   1      42.192  20.306  26.579  1.00  0.00    -0.352 N 
ATOM     34  C   UNL A   1      43.180  21.090  26.007  1.00  0.00     0.251 C 
ATOM     35  H   UNL A   1      42.354  19.335  26.596  1.00  0.00     0.163 HD
ATOM     36  O   UNL A   1      43.946  20.637  25.175  1.00  0.00    -0.269 OA
BRANCH  34  37
ATOM     37  C   UNL A   1      43.288  22.493  26.452  1.00  0.00     0.039 A 
ATOM     38  C   UNL A   1      42.763  23.530  25.680  1.00  0.00     0.014 A 
ATOM     39  C   UNL A   1      43.873  22.740  27.695  1.00  0.00     0.014 A 
ATOM     40  C   UNL A   1      42.744  24.816  26.215  1.00  0.00     0.010 A 
ATOM     41  C   UNL A   1      43.775  23.994  28.256  1.00  0.00     0.010 A 
ATOM     42  C   UNL A   1      43.222  25.039  27.518  1.00  0.00    -0.014 A 
BRANCH  42  43
ATOM     43  C   UNL A   1      42.961  26.319  28.182  1.00  0.00     0.031 A 
ATOM     44  C   UNL A   1      44.043  27.328  27.988  1.00  0.00     0.074 A 
ATOM     45  C   UNL A   1      41.773  26.660  28.727  1.00  0.00     0.049 A 
ATOM     46  N   UNL A   1      44.868  27.779  28.872  1.00  0.00    -0.248 NA
ATOM     47  C   UNL A   1      44.358  27.763  26.615  1.00  0.00     0.031 C 
ATOM     48  C   UNL A   1      40.526  25.890  28.711  1.00  0.00     0.029 A 
ATOM     49  N   UNL A   1      41.395  27.824  29.328  1.00  0.00    -0.354 N 
ATOM     50  C   UNL A   1      45.635  28.747  28.226  1.00  0.00     0.074 A 
ATOM     51  C   UNL A   1      45.432  28.531  26.819  1.00  0.00     0.031 C 
ATOM     52  C   UNL A   1      39.494  26.691  29.060  1.00  0.00     0.029 A 
ATOM     53  C   UNL A   1      40.017  27.982  29.474  1.00  0.00     0.049 A 
ATOM     54  H   UNL A   1      42.042  28.500  29.634  1.00  0.00     0.167 HD
ATOM     55  C   UNL A   1      46.152  29.805  28.913  1.00  0.00     0.037 A 
ATOM     56  C   UNL A   1      39.351  29.093  29.884  1.00  0.00     0.037 A 
ATOM     57  C   UNL A   1      46.102  29.558  30.335  1.00  0.00     0.049 A 
ATOM     58  C   UNL A   1      40.330  29.937  30.615  1.00  0.00     0.074 A 
ATOM     59  C   UNL A   1      46.601  28.581  31.176  1.00  0.00     0.029 A 
ATOM     60  N   UNL A   1      45.119  30.203  31.048  1.00  0.00    -0.354 N 
ATOM     61  N   UNL A   1      40.864  29.605  31.759  1.00  0.00    -0.248 NA
ATOM     62  C   UNL A   1      41.058  30.943  29.858  1.00  0.00     0.031 C 
ATOM     63  C   UNL A   1      45.582  28.378  32.151  1.00  0.00     0.029 A 
ATOM     64  C   UNL A   1      44.558  29.294  31.906  1.00  0.00     0.049 A 
ATOM     65  H   UNL A   1      44.864  31.149  30.959  1.00  0.00     0.167 HD
ATOM     66  C   UNL A   1      42.188  30.002  31.656  1.00  0.00     0.074 A 
ATOM     67  C   UNL A   1      42.223  30.911  30.512  1.00  0.00     0.031 C 
ATOM     68  C   UNL A   1      43.174  29.333  32.322  1.00  0.00     0.037 A 
BRANCH  55  69
ATOM     69  C   UNL A   1      46.315  31.211  28.363  1.00  0.00     0.058 A 
ATOM     70  C   UNL A   1      45.211  31.826  27.729  1.00  0.00     0.135 A 
ATOM     71  C   UNL A   1      47.555  31.856  28.159  1.00  0.00     0.135 A 
ATOM     72  F   UNL A   1      43.975  31.316  27.859  1.00  0.00    -0.206 F 
ATOM     73  C   UNL A   1      45.346  32.921  26.874  1.00  0.00     0.059 A 
ATOM     74  C   UNL A   1      47.703  32.981  27.355  1.00  0.00     0.059 A 
ATOM     75  F   UNL A   1      48.705  31.384  28.652  1.00  0.00    -0.206 F 
ATOM     76  C   UNL A   1      46.602  33.479  26.679  1.00  0.00     0.060 A 
BRANCH  76  77
ATOM     77  S   UNL A   1      46.798  34.831  25.507  1.00  0.00     0.124 S 
ATOM     78  O   UNL A   1      45.697  34.578  24.586  1.00  0.00    -0.237 OA
ATOM     79  O   UNL A   1      46.655  36.000  26.371  1.00  0.00    -0.237 OA
ATOM     80  O   UNL A   1      48.138  34.617  24.970  1.00  0.00    -0.744 OA
ENDBRANCH  76  77
ENDBRANCH  55  69
BRANCH  56  81
ATOM     81  C   UNL A   1      38.014  29.609  29.473  1.00  0.00     0.058 A 
ATOM     82  C   UNL A   1      37.041  29.958  30.431  1.00  0.00     0.135 A 
ATOM     83  C   UNL A   1      37.764  30.050  28.158  1.00  0.00     0.135 A 
ATOM     84  F   UNL A   1      37.194  29.593  31.714  1.00  0.00    -0.206 F 
ATOM     85  C   UNL A   1      35.929  30.752  30.120  1.00  0.00     0.059 A 
ATOM     86  C   UNL A   1      36.658  30.831  27.821  1.00  0.00     0.059 A 
ATOM     87  F   UNL A   1      38.643  29.815  27.173  1.00  0.00    -0.206 F 
ATOM     88  C   UNL A   1      35.760  31.205  28.814  1.00  0.00     0.060 A 
BRANCH  88  89
ATOM     89  S   UNL A   1      34.443  32.392  28.446  1.00  0.00     0.124 S 
ATOM     90  O   UNL A   1      35.123  33.337  27.566  1.00  0.00    -0.237 OA
ATOM     91  O   UNL A   1      33.433  31.548  27.815  1.00  0.00    -0.237 OA
ATOM     92  O   UNL A   1      34.081  32.914  29.761  1.00  0.00    -0.744 OA
ENDBRANCH  88  89
ENDBRANCH  56  81
BRANCH  68  93
ATOM     93  C   UNL A   1      42.784  28.404  33.443  1.00  0.00     0.058 A 
ATOM     94  C   UNL A   1      42.801  27.000  33.374  1.00  0.00     0.135 A 
ATOM     95  C   UNL A   1      42.535  28.980  34.699  1.00  0.00     0.135 A 
ATOM     96  F   UNL A   1      43.128  26.365  32.239  1.00  0.00    -0.206 F 
ATOM     97  C   UNL A   1      42.542  26.208  34.496  1.00  0.00     0.059 A 
ATOM     98  C   UNL A   1      42.310  28.211  35.835  1.00  0.00     0.059 A 
ATOM     99  F   UNL A   1      42.561  30.316  34.844  1.00  0.00    -0.206 F 
ATOM    100  C   UNL A   1      42.304  26.824  35.724  1.00  0.00     0.060 A 
BRANCH 100 101
ATOM    101  S   UNL A   1      42.049  25.802  37.191  1.00  0.00     0.124 S 
ATOM    102  O   UNL A   1      42.400  24.473  36.705  1.00  0.00    -0.237 OA
ATOM    103  O   UNL A   1      42.976  26.392  38.153  1.00  0.00    -0.237 OA
ATOM    104  O   UNL A   1      40.635  25.999  37.503  1.00  0.00    -0.744 OA
ENDBRANCH 100 101
ENDBRANCH  68  93
ENDBRANCH  42  43
ENDBRANCH  34  37
ENDBRANCH  32  33
ENDBRANCH  31  32
ENDBRANCH   1  31
TORSDOF 19
ENDMDL
MODEL 3
REMARK VINA RESULT:     -12.2      2.328      7.087
REMARK SMILES C=CCn1nc(C(=O)NCCCCNC(=O)c2ccc(-c3c4nc(c(-c5c(F)cc(S(=O)(=O)[O-])cc5F)c5ccc([nH]5)c(-c5c(F)cc(S(=O)(=O)[O-])cc5F)c5nc(c(-c6c(F)cc(S(=O)(=O)[O-])cc6F)c6ccc3[nH]6)C=C5)C=C4)cc2)c2c1CC[C@@H]([NH+]1CCC(C(C)(C)O)CC1)C2
REMARK SMILES IDX 11 1 10 2 9 3 7 4 8 5 6 7 4 8 5 9 84 10 83 11 85 12 98 13
REMARK SMILES IDX 86 14 87 15 3 16 2 17 1 18 88 19 89 20 97 21 90 23 96 24
REMARK SMILES IDX 91 25 92 26 93 27 94 28 95 29 12 31 13 32 14 33 15 34 16 36
REMARK SMILES IDX 17 37 18 38 82 39 19 40 81 41 20 42 21 43 22 44 75 45 23 46
REMARK SMILES IDX 80 47 74 48 76 49 24 50 79 51 73 52 72 53 25 55 59 56 38 57
REMARK SMILES IDX 58 58 39 59 42 60 57 61 77 62 40 63 41 64 56 66 78 67 43 68
REMARK SMILES IDX 26 69 27 70 36 71 28 72 29 73 35 74 37 75 30 76 31 77 32 78
REMARK SMILES IDX 33 79 34 80 60 81 61 82 70 83 62 84 63 85 69 86 71 87 64 88
REMARK SMILES IDX 65 89 66 90 67 91 68 92 44 93 45 94 54 95 46 96 47 97 53 98
REMARK SMILES IDX 55 99 48 100 49 101 50 102 51 103 52 104
REMARK H PARENT 9 6 88 22 95 30 14 35 76 54 42 65
REMARK Flexibility Score: inf
ROOT
ATOM      1  C   UNL A   1      37.573  20.953  24.716  1.00  0.00     0.023 C 
ENDROOT
BRANCH   1   2
ATOM      2  C   UNL A   1      37.554  22.227  25.584  1.00  0.00     0.116 C 
BRANCH   2   3
ATOM      3  N   UNL A   1      36.402  22.277  26.474  1.00  0.00    -0.351 N 
ATOM      4  C   UNL A   1      35.028  22.306  26.328  1.00  0.00     0.272 C 
ATOM      5  O   UNL A   1      34.418  22.242  27.404  1.00  0.00    -0.267 OA
ATOM      6  H   UNL A   1      36.671  22.294  27.421  1.00  0.00     0.163 HD
BRANCH   4   7
ATOM      7  C   UNL A   1      34.292  22.407  25.036  1.00  0.00     0.153 A 
ATOM      8  N   UNL A   1      33.132  21.655  23.367  1.00  0.00    -0.265 N 
ATOM      9  N   UNL A   1      33.799  21.275  24.476  1.00  0.00    -0.167 NA
ATOM     10  C   UNL A   1      33.273  22.989  23.117  1.00  0.00     0.043 A 
ATOM     11  C   UNL A   1      33.867  23.510  24.245  1.00  0.00     0.012 A 
ATOM     12  C   UNL A   1      32.737  23.770  21.972  1.00  0.00     0.062 C 
ATOM     13  C   UNL A   1      33.877  24.961  24.498  1.00  0.00     0.105 C 
ATOM     14  C   UNL A   1      32.848  25.285  22.248  1.00  0.00     0.072 C 
ATOM     15  C   UNL A   1      32.808  25.755  23.724  1.00  0.00     0.189 C 
BRANCH   8  16
ATOM     16  C   UNL A   1      32.168  20.733  22.760  1.00  0.00     0.171 C 
BRANCH  16  17
ATOM     17  C   UNL A   1      32.302  19.313  23.228  1.00  0.00    -0.011 C 
ATOM     18  C   UNL A   1      32.409  18.257  22.408  1.00  0.00     0.006 C 
ENDBRANCH  16  17
ENDBRANCH   8  16
BRANCH  15  19
ATOM     19  N   UNL A   1      31.589  25.893  24.555  1.00  0.00    -0.332 N 
ATOM     20  C   UNL A   1      30.570  26.866  24.218  1.00  0.00     0.262 C 
ATOM     21  C   UNL A   1      31.779  25.850  25.994  1.00  0.00     0.262 C 
ATOM     22  H   UNL A   1      31.189  25.010  24.237  1.00  0.00     0.348 HD
ATOM     23  C   UNL A   1      30.907  28.280  24.657  1.00  0.00     0.068 C 
ATOM     24  C   UNL A   1      32.323  27.153  26.544  1.00  0.00     0.068 C 
ATOM     25  C   UNL A   1      31.630  28.439  26.018  1.00  0.00     0.031 C 
BRANCH  25  26
ATOM     26  C   UNL A   1      32.621  29.659  26.042  1.00  0.00     0.062 C 
ATOM     27  C   UNL A   1      31.949  30.986  26.405  1.00  0.00     0.042 C 
ATOM     28  C   UNL A   1      33.791  29.384  26.992  1.00  0.00     0.042 C 
BRANCH  26  29
ATOM     29  O   UNL A   1      33.186  29.848  24.743  1.00  0.00    -0.390 OA
ATOM     30  H   UNL A   1      34.118  30.103  24.830  1.00  0.00     0.211 HD
ENDBRANCH  26  29
ENDBRANCH  25  26
ENDBRANCH  15  19
ENDBRANCH   4   7
ENDBRANCH   2   3
ENDBRANCH   1   2
BRANCH   1  31
ATOM     31  C   UNL A   1      38.326  19.744  25.269  1.00  0.00     0.023 C 
BRANCH  31  32
ATOM     32  C   UNL A   1      39.532  20.113  26.124  1.00  0.00     0.116 C 
BRANCH  32  33
ATOM     33  N   UNL A   1      40.694  19.254  25.885  1.00  0.00    -0.352 N 
ATOM     34  C   UNL A   1      42.013  19.658  25.772  1.00  0.00     0.251 C 
ATOM     35  H   UNL A   1      40.518  18.290  25.795  1.00  0.00     0.163 HD
ATOM     36  O   UNL A   1      42.827  18.998  25.150  1.00  0.00    -0.269 OA
BRANCH  34  37
ATOM     37  C   UNL A   1      42.409  20.910  26.446  1.00  0.00     0.039 A 
ATOM     38  C   UNL A   1      42.648  22.073  25.713  1.00  0.00     0.014 A 
ATOM     39  C   UNL A   1      42.473  20.907  27.841  1.00  0.00     0.014 A 
ATOM     40  C   UNL A   1      42.859  23.265  26.403  1.00  0.00     0.010 A 
ATOM     41  C   UNL A   1      42.596  22.099  28.519  1.00  0.00     0.010 A 
ATOM     42  C   UNL A   1      42.801  23.280  27.808  1.00  0.00    -0.014 A 
BRANCH  42  43
ATOM     43  C   UNL A   1      42.753  24.558  28.521  1.00  0.00     0.031 A 
ATOM     44  C   UNL A   1      41.530  25.363  28.232  1.00  0.00     0.074 A 
ATOM     45  C   UNL A   1      43.598  24.901  29.518  1.00  0.00     0.049 A 
ATOM     46  N   UNL A   1      41.452  26.469  27.572  1.00  0.00    -0.248 NA
ATOM     47  C   UNL A   1      40.216  24.786  28.567  1.00  0.00     0.031 C 
ATOM     48  C   UNL A   1      44.650  24.079  30.122  1.00  0.00     0.029 A 
ATOM     49  N   UNL A   1      43.630  26.030  30.281  1.00  0.00    -0.354 N 
ATOM     50  C   UNL A   1      40.116  26.862  27.634  1.00  0.00     0.074 A 
ATOM     51  C   UNL A   1      39.385  25.697  28.052  1.00  0.00     0.031 C 
ATOM     52  C   UNL A   1      45.048  24.638  31.287  1.00  0.00     0.029 A 
ATOM     53  C   UNL A   1      44.401  25.928  31.439  1.00  0.00     0.049 A 
ATOM     54  H   UNL A   1      43.146  26.853  30.036  1.00  0.00     0.167 HD
ATOM     55  C   UNL A   1      39.771  28.180  27.596  1.00  0.00     0.037 A 
ATOM     56  C   UNL A   1      44.486  26.826  32.456  1.00  0.00     0.037 A 
ATOM     57  C   UNL A   1      40.880  28.981  27.133  1.00  0.00     0.049 A 
ATOM     58  C   UNL A   1      44.026  28.131  31.920  1.00  0.00     0.074 A 
ATOM     59  C   UNL A   1      41.661  29.002  25.993  1.00  0.00     0.029 A 
ATOM     60  N   UNL A   1      41.576  29.694  28.080  1.00  0.00    -0.354 N 
ATOM     61  N   UNL A   1      44.672  28.813  31.014  1.00  0.00    -0.248 NA
ATOM     62  C   UNL A   1      42.617  28.465  32.063  1.00  0.00     0.031 C 
ATOM     63  C   UNL A   1      42.976  29.306  26.453  1.00  0.00     0.029 A 
ATOM     64  C   UNL A   1      42.913  29.535  27.828  1.00  0.00     0.049 A 
ATOM     65  H   UNL A   1      41.183  30.226  28.809  1.00  0.00     0.167 HD
ATOM     66  C   UNL A   1      43.683  29.314  30.182  1.00  0.00     0.074 A 
ATOM     67  C   UNL A   1      42.439  29.157  30.934  1.00  0.00     0.031 C 
ATOM     68  C   UNL A   1      43.928  29.536  28.857  1.00  0.00     0.037 A 
BRANCH  55  69
ATOM     69  C   UNL A   1      38.610  28.804  28.351  1.00  0.00     0.058 A 
ATOM     70  C   UNL A   1      37.808  29.765  27.692  1.00  0.00     0.135 A 
ATOM     71  C   UNL A   1      38.431  28.736  29.750  1.00  0.00     0.135 A 
ATOM     72  F   UNL A   1      37.876  29.917  26.359  1.00  0.00    -0.206 F 
ATOM     73  C   UNL A   1      36.984  30.658  28.379  1.00  0.00     0.059 A 
ATOM     74  C   UNL A   1      37.574  29.580  30.448  1.00  0.00     0.059 A 
ATOM     75  F   UNL A   1      39.139  27.913  30.530  1.00  0.00    -0.206 F 
ATOM     76  C   UNL A   1      36.889  30.568  29.761  1.00  0.00     0.060 A 
BRANCH  76  77
ATOM     77  S   UNL A   1      35.902  31.774  30.661  1.00  0.00     0.124 S 
ATOM     78  O   UNL A   1      34.766  31.945  29.764  1.00  0.00    -0.237 OA
ATOM     79  O   UNL A   1      35.632  31.068  31.910  1.00  0.00    -0.237 OA
ATOM     80  O   UNL A   1      36.798  32.920  30.777  1.00  0.00    -0.744 OA
ENDBRANCH  76  77
ENDBRANCH  55  69
BRANCH  56  81
ATOM     81  C   UNL A   1      44.681  26.594  33.916  1.00  0.00     0.058 A 
ATOM     82  C   UNL A   1      45.875  26.972  34.562  1.00  0.00     0.135 A 
ATOM     83  C   UNL A   1      43.601  26.274  34.764  1.00  0.00     0.135 A 
ATOM     84  F   UNL A   1      46.957  27.306  33.840  1.00  0.00    -0.206 F 
ATOM     85  C   UNL A   1      45.973  27.093  35.954  1.00  0.00     0.059 A 
ATOM     86  C   UNL A   1      43.678  26.375  36.154  1.00  0.00     0.059 A 
ATOM     87  F   UNL A   1      42.403  25.944  34.261  1.00  0.00    -0.206 F 
ATOM     88  C   UNL A   1      44.857  26.816  36.742  1.00  0.00     0.060 A 
BRANCH  88  89
ATOM     89  S   UNL A   1      44.913  27.162  38.518  1.00  0.00     0.124 S 
ATOM     90  O   UNL A   1      46.140  26.483  38.921  1.00  0.00    -0.237 OA
ATOM     91  O   UNL A   1      44.953  28.620  38.549  1.00  0.00    -0.237 OA
ATOM     92  O   UNL A   1      43.677  26.565  39.017  1.00  0.00    -0.744 OA
ENDBRANCH  88  89
ENDBRANCH  56  81
BRANCH  68  93
ATOM     93  C   UNL A   1      45.359  29.583  28.387  1.00  0.00     0.058 A 
ATOM     94  C   UNL A   1      46.200  30.708  28.463  1.00  0.00     0.135 A 
ATOM     95  C   UNL A   1      45.944  28.372  27.986  1.00  0.00     0.135 A 
ATOM     96  F   UNL A   1      45.750  31.880  28.931  1.00  0.00    -0.206 F 
ATOM     97  C   UNL A   1      47.552  30.636  28.118  1.00  0.00     0.059 A 
ATOM     98  C   UNL A   1      47.295  28.270  27.672  1.00  0.00     0.059 A 
ATOM     99  F   UNL A   1      45.208  27.249  27.947  1.00  0.00    -0.206 F 
ATOM    100  C   UNL A   1      48.092  29.410  27.728  1.00  0.00     0.060 A 
BRANCH 100 101
ATOM    101  S   UNL A   1      49.856  29.297  27.359  1.00  0.00     0.124 S 
ATOM    102  O   UNL A   1      49.912  29.775  25.982  1.00  0.00    -0.237 OA
ATOM    103  O   UNL A   1      50.447  30.179  28.362  1.00  0.00    -0.237 OA
ATOM    104  O   UNL A   1      50.152  27.878  27.539  1.00  0.00    -0.744 OA
ENDBRANCH 100 101
ENDBRANCH  68  93
ENDBRANCH  42  43
ENDBRANCH  34  37
ENDBRANCH  32  33
ENDBRANCH  31  32
ENDBRANCH   1  31
TORSDOF 19
ENDMDL
