MODEL 1
REMARK VINA RESULT:     -12.4      0.000      0.000
REMARK SMILES CCOC(=O)c1c(NC(=O)[C@H]2CCCC[C@@H]2C(=O)NCCCCNC(=O)c2ccc(-c3c4nc(c(-c5c(F)cc(S(=O)(=O)[O-])cc5F)c5ccc([nH]5)c(-c5c(F)cc(S(=O)(=O)[O-])cc5F)c5nc(c(-c6c(F)cc(S(=O)(=O)[O-])cc6F)c6ccc3[nH]6)C=C5)C=C4)cc2)sc2c1CC[C@H](C)C2
REMARK SMILES IDX 20 1 19 2 17 3 18 4 16 6 11 7 12 8 13 9 15 10 14 11 9 12
REMARK SMILES IDX 8 13 10 15 7 16 6 17 95 18 93 19 94 20 96 21 100 22 97 23
REMARK SMILES IDX 98 24 99 25 4 26 5 27 3 28 2 29 1 30 21 31 22 32 23 33 24 34
REMARK SMILES IDX 25 35 26 37 27 38 28 39 92 40 29 41 91 42 30 43 31 44 32 45
REMARK SMILES IDX 85 46 33 47 90 48 84 49 86 50 34 51 89 52 83 53 82 54 35 56
REMARK SMILES IDX 69 57 48 58 68 59 49 60 52 61 67 62 87 63 50 64 51 65 66 67
REMARK SMILES IDX 88 68 53 69 36 70 37 71 46 72 38 73 39 74 45 75 47 76 40 77
REMARK SMILES IDX 41 78 42 79 43 80 44 81 70 82 71 83 80 84 72 85 73 86 79 87
REMARK SMILES IDX 81 88 74 89 75 90 76 91 77 92 78 93 54 94 55 95 64 96 56 97
REMARK SMILES IDX 57 98 63 99 65 100 58 101 59 102 60 103 61 104 62 105
REMARK H PARENT 19 5 8 14 24 36 86 55 52 66
REMARK Flexibility Score: inf
ROOT
ATOM      1  C   UNL A   1      38.466  23.762  26.593  1.00  0.00     0.116 C 
ENDROOT
BRANCH   1   2
ATOM      2  N   UNL A   1      37.968  23.071  25.359  1.00  0.00    -0.356 N 
ATOM      3  C   UNL A   1      36.877  23.123  24.498  1.00  0.00     0.223 C 
ATOM      4  O   UNL A   1      36.995  22.453  23.463  1.00  0.00    -0.275 OA
ATOM      5  H   UNL A   1      38.602  22.373  25.074  1.00  0.00     0.163 HD
BRANCH   3   6
ATOM      6  C   UNL A   1      35.528  23.932  24.757  1.00  0.00     0.091 C 
ATOM      7  C   UNL A   1      34.699  23.714  26.096  1.00  0.00     0.091 C 
ATOM      8  C   UNL A   1      34.934  22.351  26.628  1.00  0.00     0.014 C 
ATOM      9  C   UNL A   1      34.466  21.461  25.520  1.00  0.00     0.001 C 
ATOM     10  C   UNL A   1      34.565  23.485  23.740  1.00  0.00     0.014 C 
ATOM     11  C   UNL A   1      34.435  21.985  24.038  1.00  0.00     0.001 C 
BRANCH   7  12
ATOM     12  C   UNL A   1      33.092  23.888  26.100  1.00  0.00     0.228 C 
ATOM     13  N   UNL A   1      32.184  24.696  25.431  1.00  0.00    -0.317 N 
ATOM     14  H   UNL A   1      31.299  24.366  25.708  1.00  0.00     0.170 HD
ATOM     15  O   UNL A   1      32.517  23.166  26.948  1.00  0.00    -0.274 OA
BRANCH  13  16
ATOM     16  C   UNL A   1      31.909  25.775  24.534  1.00  0.00     0.110 A 
ATOM     17  C   UNL A   1      32.284  27.021  23.921  1.00  0.00     0.098 A 
ATOM     18  C   UNL A   1      31.044  27.812  23.720  1.00  0.00    -0.017 A 
ATOM     19  S   UNL A   1      30.263  25.417  23.993  1.00  0.00    -0.122 S 
ATOM     20  C   UNL A   1      29.905  27.046  23.739  1.00  0.00     0.011 A 
ATOM     21  C   UNL A   1      30.976  29.315  23.515  1.00  0.00     0.038 C 
ATOM     22  C   UNL A   1      28.512  27.581  23.556  1.00  0.00     0.050 C 
ATOM     23  C   UNL A   1      29.550  29.876  23.493  1.00  0.00     0.008 C 
ATOM     24  C   UNL A   1      28.568  28.925  22.792  1.00  0.00    -0.009 C 
ATOM     25  C   UNL A   1      27.193  29.576  22.677  1.00  0.00     0.008 C 
BRANCH  17  26
ATOM     26  C   UNL A   1      33.573  27.824  23.804  1.00  0.00     0.341 C 
ATOM     27  O   UNL A   1      33.901  28.334  22.731  1.00  0.00    -0.246 OA
BRANCH  26  28
ATOM     28  O   UNL A   1      34.335  28.007  24.925  1.00  0.00    -0.462 OA
BRANCH  28  29
ATOM     29  C   UNL A   1      33.778  28.970  25.864  1.00  0.00     0.230 C 
ATOM     30  C   UNL A   1      33.421  28.499  27.245  1.00  0.00     0.049 C 
ENDBRANCH  28  29
ENDBRANCH  26  28
ENDBRANCH  17  26
ENDBRANCH  13  16
ENDBRANCH   7  12
ENDBRANCH   3   6
ENDBRANCH   1   2
BRANCH   1  31
ATOM     31  C   UNL A   1      39.697  23.129  27.226  1.00  0.00     0.023 C 
BRANCH  31  32
ATOM     32  C   UNL A   1      40.006  21.735  26.673  1.00  0.00     0.023 C 
BRANCH  32  33
ATOM     33  C   UNL A   1      41.068  20.958  27.456  1.00  0.00     0.116 C 
BRANCH  33  34
ATOM     34  N   UNL A   1      42.253  20.629  26.667  1.00  0.00    -0.352 N 
ATOM     35  C   UNL A   1      43.119  21.515  26.040  1.00  0.00     0.251 C 
ATOM     36  H   UNL A   1      42.461  19.671  26.570  1.00  0.00     0.163 HD
ATOM     37  O   UNL A   1      43.815  21.158  25.112  1.00  0.00    -0.269 OA
BRANCH  35  38
ATOM     38  C   UNL A   1      43.176  22.906  26.538  1.00  0.00     0.039 A 
ATOM     39  C   UNL A   1      42.755  23.976  25.742  1.00  0.00     0.014 A 
ATOM     40  C   UNL A   1      43.638  23.121  27.835  1.00  0.00     0.014 A 
ATOM     41  C   UNL A   1      42.719  25.255  26.299  1.00  0.00     0.010 A 
ATOM     42  C   UNL A   1      43.499  24.361  28.416  1.00  0.00     0.010 A 
ATOM     43  C   UNL A   1      43.071  25.440  27.647  1.00  0.00    -0.014 A 
BRANCH  43  44
ATOM     44  C   UNL A   1      42.835  26.730  28.301  1.00  0.00     0.031 A 
ATOM     45  C   UNL A   1      43.879  27.758  28.014  1.00  0.00     0.074 A 
ATOM     46  C   UNL A   1      41.674  27.060  28.912  1.00  0.00     0.049 A 
ATOM     47  N   UNL A   1      44.724  28.288  28.835  1.00  0.00    -0.248 NA
ATOM     48  C   UNL A   1      44.110  28.136  26.608  1.00  0.00     0.031 C 
ATOM     49  C   UNL A   1      40.437  26.274  28.984  1.00  0.00     0.029 A 
ATOM     50  N   UNL A   1      41.312  28.230  29.513  1.00  0.00    -0.354 N 
ATOM     51  C   UNL A   1      45.420  29.248  28.102  1.00  0.00     0.074 A 
ATOM     52  C   UNL A   1      45.154  28.960  26.718  1.00  0.00     0.031 C 
ATOM     53  C   UNL A   1      39.415  27.068  29.374  1.00  0.00     0.029 A 
ATOM     54  C   UNL A   1      39.943  28.371  29.741  1.00  0.00     0.049 A 
ATOM     55  H   UNL A   1      41.966  28.920  29.768  1.00  0.00     0.167 HD
ATOM     56  C   UNL A   1      45.935  30.358  28.702  1.00  0.00     0.037 A 
ATOM     57  C   UNL A   1      39.289  29.489  30.163  1.00  0.00     0.037 A 
ATOM     58  C   UNL A   1      46.032  30.177  30.130  1.00  0.00     0.049 A 
ATOM     59  C   UNL A   1      40.301  30.367  30.798  1.00  0.00     0.074 A 
ATOM     60  C   UNL A   1      46.642  29.247  30.951  1.00  0.00     0.029 A 
ATOM     61  N   UNL A   1      45.105  30.812  30.921  1.00  0.00    -0.354 N 
ATOM     62  N   UNL A   1      40.924  30.071  31.905  1.00  0.00    -0.248 NA
ATOM     63  C   UNL A   1      40.952  31.358  29.956  1.00  0.00     0.031 C 
ATOM     64  C   UNL A   1      45.710  29.022  32.007  1.00  0.00     0.029 A 
ATOM     65  C   UNL A   1      44.633  29.887  31.817  1.00  0.00     0.049 A 
ATOM     66  H   UNL A   1      44.831  31.755  30.857  1.00  0.00     0.167 HD
ATOM     67  C   UNL A   1      42.228  30.486  31.692  1.00  0.00     0.074 A 
ATOM     68  C   UNL A   1      42.165  31.350  30.513  1.00  0.00     0.031 C 
ATOM     69  C   UNL A   1      43.275  29.868  32.312  1.00  0.00     0.037 A 
BRANCH  56  70
ATOM     70  C   UNL A   1      45.981  31.732  28.060  1.00  0.00     0.058 A 
ATOM     71  C   UNL A   1      47.170  32.491  28.136  1.00  0.00     0.135 A 
ATOM     72  C   UNL A   1      44.839  32.446  27.630  1.00  0.00     0.135 A 
ATOM     73  F   UNL A   1      48.318  31.924  28.539  1.00  0.00    -0.206 F 
ATOM     74  C   UNL A   1      47.201  33.864  27.886  1.00  0.00     0.059 A 
ATOM     75  C   UNL A   1      44.861  33.801  27.322  1.00  0.00     0.059 A 
ATOM     76  F   UNL A   1      43.621  31.895  27.580  1.00  0.00    -0.206 F 
ATOM     77  C   UNL A   1      46.035  34.512  27.492  1.00  0.00     0.060 A 
BRANCH  77  78
ATOM     78  S   UNL A   1      46.048  36.297  27.259  1.00  0.00     0.124 S 
ATOM     79  O   UNL A   1      46.538  36.407  25.891  1.00  0.00    -0.237 OA
ATOM     80  O   UNL A   1      44.645  36.638  27.468  1.00  0.00    -0.237 OA
ATOM     81  O   UNL A   1      46.961  36.764  28.299  1.00  0.00    -0.744 OA
ENDBRANCH  77  78
ENDBRANCH  56  70
BRANCH  57  82
ATOM     82  C   UNL A   1      37.952  30.004  29.754  1.00  0.00     0.058 A 
ATOM     83  C   UNL A   1      37.028  30.517  30.682  1.00  0.00     0.135 A 
ATOM     84  C   UNL A   1      37.682  30.290  28.408  1.00  0.00     0.135 A 
ATOM     85  F   UNL A   1      37.215  30.322  31.996  1.00  0.00    -0.206 F 
ATOM     86  C   UNL A   1      35.937  31.311  30.296  1.00  0.00     0.059 A 
ATOM     87  C   UNL A   1      36.597  31.061  27.994  1.00  0.00     0.059 A 
ATOM     88  F   UNL A   1      38.544  29.911  27.458  1.00  0.00    -0.206 F 
ATOM     89  C   UNL A   1      35.741  31.595  28.946  1.00  0.00     0.060 A 
BRANCH  89  90
ATOM     90  S   UNL A   1      34.460  32.771  28.443  1.00  0.00     0.124 S 
ATOM     91  O   UNL A   1      35.206  33.683  27.584  1.00  0.00    -0.237 OA
ATOM     92  O   UNL A   1      33.494  31.908  27.774  1.00  0.00    -0.237 OA
ATOM     93  O   UNL A   1      34.007  33.339  29.712  1.00  0.00    -0.744 OA
ENDBRANCH  89  90
ENDBRANCH  57  82
BRANCH  69  94
ATOM     94  C   UNL A   1      42.984  28.934  33.461  1.00  0.00     0.058 A 
ATOM     95  C   UNL A   1      42.729  29.336  34.785  1.00  0.00     0.135 A 
ATOM     96  C   UNL A   1      42.807  27.574  33.162  1.00  0.00     0.135 A 
ATOM     97  F   UNL A   1      42.778  30.627  35.139  1.00  0.00    -0.206 F 
ATOM     98  C   UNL A   1      42.351  28.421  35.772  1.00  0.00     0.059 A 
ATOM     99  C   UNL A   1      42.399  26.653  34.121  1.00  0.00     0.059 A 
ATOM    100  F   UNL A   1      42.980  27.134  31.905  1.00  0.00    -0.206 F 
ATOM    101  C   UNL A   1      42.184  27.080  35.429  1.00  0.00     0.060 A 
BRANCH 101 102
ATOM    102  S   UNL A   1      41.622  25.908  36.683  1.00  0.00     0.124 S 
ATOM    103  O   UNL A   1      40.728  26.730  37.492  1.00  0.00    -0.237 OA
ATOM    104  O   UNL A   1      40.980  24.870  35.884  1.00  0.00    -0.237 OA
ATOM    105  O   UNL A   1      42.859  25.498  37.345  1.00  0.00    -0.744 OA
ENDBRANCH 101 102
ENDBRANCH  69  94
ENDBRANCH  43  44
ENDBRANCH  35  38
ENDBRANCH  33  34
ENDBRANCH  32  33
ENDBRANCH  31  32
ENDBRANCH   1  31
TORSDOF 19
ENDMDL
MODEL 2
REMARK VINA RESULT:     -12.1      2.591      9.168
REMARK SMILES CCOC(=O)c1c(NC(=O)[C@H]2CCCC[C@@H]2C(=O)NCCCCNC(=O)c2ccc(-c3c4nc(c(-c5c(F)cc(S(=O)(=O)[O-])cc5F)c5ccc([nH]5)c(-c5c(F)cc(S(=O)(=O)[O-])cc5F)c5nc(c(-c6c(F)cc(S(=O)(=O)[O-])cc6F)c6ccc3[nH]6)C=C5)C=C4)cc2)sc2c1CC[C@H](C)C2
REMARK SMILES IDX 20 1 19 2 17 3 18 4 16 6 11 7 12 8 13 9 15 10 14 11 9 12
REMARK SMILES IDX 8 13 10 15 7 16 6 17 95 18 93 19 94 20 96 21 100 22 97 23
REMARK SMILES IDX 98 24 99 25 4 26 5 27 3 28 2 29 1 30 21 31 22 32 23 33 24 34
REMARK SMILES IDX 25 35 26 37 27 38 28 39 92 40 29 41 91 42 30 43 31 44 32 45
REMARK SMILES IDX 85 46 33 47 90 48 84 49 86 50 34 51 89 52 83 53 82 54 35 56
REMARK SMILES IDX 69 57 48 58 68 59 49 60 52 61 67 62 87 63 50 64 51 65 66 67
REMARK SMILES IDX 88 68 53 69 36 70 37 71 46 72 38 73 39 74 45 75 47 76 40 77
REMARK SMILES IDX 41 78 42 79 43 80 44 81 70 82 71 83 80 84 72 85 73 86 79 87
REMARK SMILES IDX 81 88 74 89 75 90 76 91 77 92 78 93 54 94 55 95 64 96 56 97
REMARK SMILES IDX 57 98 63 99 65 100 58 101 59 102 60 103 61 104 62 105
REMARK H PARENT 19 5 8 14 24 36 86 55 52 66
REMARK Flexibility Score: inf
ROOT
ATOM      1  C   UNL A   1      34.704  30.012  27.546  1.00  0.00     0.116 C 
ENDROOT
BRANCH   1   2
ATOM      2  N   UNL A   1      33.278  29.558  27.655  1.00  0.00    -0.356 N 
ATOM      3  C   UNL A   1      32.504  28.453  27.321  1.00  0.00     0.223 C 
ATOM      4  O   UNL A   1      31.359  28.453  27.795  1.00  0.00    -0.275 OA
ATOM      5  H   UNL A   1      32.728  30.248  28.092  1.00  0.00     0.163 HD
BRANCH   3   6
ATOM      6  C   UNL A   1      32.962  27.247  26.383  1.00  0.00     0.091 C 
ATOM      7  C   UNL A   1      33.667  27.532  24.987  1.00  0.00     0.091 C 
ATOM      8  C   UNL A   1      33.237  28.847  24.455  1.00  0.00     0.014 C 
ATOM      9  C   UNL A   1      31.755  28.699  24.321  1.00  0.00     0.001 C 
ATOM     10  C   UNL A   1      31.737  26.555  25.957  1.00  0.00     0.014 C 
ATOM     11  C   UNL A   1      30.977  27.652  25.200  1.00  0.00     0.001 C 
BRANCH   7  12
ATOM     12  C   UNL A   1      33.481  26.505  23.753  1.00  0.00     0.228 C 
ATOM     13  N   UNL A   1      33.212  25.150  23.627  1.00  0.00    -0.317 N 
ATOM     14  H   UNL A   1      33.103  25.002  22.659  1.00  0.00     0.170 HD
ATOM     15  O   UNL A   1      33.681  27.033  22.634  1.00  0.00    -0.274 OA
BRANCH  13  16
ATOM     16  C   UNL A   1      33.016  23.864  24.219  1.00  0.00     0.110 A 
ATOM     17  C   UNL A   1      33.315  22.896  25.241  1.00  0.00     0.098 A 
ATOM     18  C   UNL A   1      33.246  21.551  24.618  1.00  0.00    -0.017 A 
ATOM     19  S   UNL A   1      31.938  23.067  23.065  1.00  0.00    -0.122 S 
ATOM     20  C   UNL A   1      32.527  21.533  23.448  1.00  0.00     0.011 A 
ATOM     21  C   UNL A   1      33.885  20.287  25.164  1.00  0.00     0.038 C 
ATOM     22  C   UNL A   1      32.289  20.309  22.608  1.00  0.00     0.050 C 
ATOM     23  C   UNL A   1      33.780  19.080  24.226  1.00  0.00     0.008 C 
ATOM     24  C   UNL A   1      32.434  19.043  23.484  1.00  0.00    -0.009 C 
ATOM     25  C   UNL A   1      32.318  17.762  22.664  1.00  0.00     0.008 C 
BRANCH  17  26
ATOM     26  C   UNL A   1      34.017  22.931  26.592  1.00  0.00     0.341 C 
ATOM     27  O   UNL A   1      33.370  23.042  27.635  1.00  0.00    -0.246 OA
BRANCH  26  28
ATOM     28  O   UNL A   1      35.378  22.790  26.628  1.00  0.00    -0.462 OA
BRANCH  28  29
ATOM     29  C   UNL A   1      36.088  23.718  25.760  1.00  0.00     0.230 C 
ATOM     30  C   UNL A   1      37.591  23.712  25.782  1.00  0.00     0.049 C 
ENDBRANCH  28  29
ENDBRANCH  26  28
ENDBRANCH  17  26
ENDBRANCH  13  16
ENDBRANCH   7  12
ENDBRANCH   3   6
ENDBRANCH   1   2
BRANCH   1  31
ATOM     31  C   UNL A   1      34.896  31.521  27.580  1.00  0.00     0.023 C 
BRANCH  31  32
ATOM     32  C   UNL A   1      33.802  32.248  28.366  1.00  0.00     0.023 C 
BRANCH  32  33
ATOM     33  C   UNL A   1      34.233  33.584  28.977  1.00  0.00     0.116 C 
BRANCH  33  34
ATOM     34  N   UNL A   1      34.066  33.647  30.427  1.00  0.00    -0.352 N 
ATOM     35  C   UNL A   1      34.688  32.852  31.380  1.00  0.00     0.251 C 
ATOM     36  H   UNL A   1      33.442  34.329  30.765  1.00  0.00     0.163 HD
ATOM     37  O   UNL A   1      34.208  32.709  32.486  1.00  0.00    -0.269 OA
BRANCH  35  38
ATOM     38  C   UNL A   1      35.959  32.189  31.017  1.00  0.00     0.039 A 
ATOM     39  C   UNL A   1      37.128  32.928  30.814  1.00  0.00     0.014 A 
ATOM     40  C   UNL A   1      35.965  30.799  30.908  1.00  0.00     0.014 A 
ATOM     41  C   UNL A   1      38.324  32.247  30.588  1.00  0.00     0.010 A 
ATOM     42  C   UNL A   1      37.162  30.126  30.795  1.00  0.00     0.010 A 
ATOM     43  C   UNL A   1      38.341  30.842  30.603  1.00  0.00    -0.014 A 
BRANCH  43  44
ATOM     44  C   UNL A   1      39.615  30.118  30.582  1.00  0.00     0.031 A 
ATOM     45  C   UNL A   1      40.233  29.934  31.929  1.00  0.00     0.074 A 
ATOM     46  C   UNL A   1      40.088  29.462  29.497  1.00  0.00     0.049 A 
ATOM     47  N   UNL A   1      41.331  30.444  32.379  1.00  0.00    -0.248 NA
ATOM     48  C   UNL A   1      39.457  29.211  32.952  1.00  0.00     0.031 C 
ATOM     49  C   UNL A   1      39.430  29.275  28.199  1.00  0.00     0.029 A 
ATOM     50  N   UNL A   1      41.224  28.721  29.358  1.00  0.00    -0.354 N 
ATOM     51  C   UNL A   1      41.511  29.902  33.651  1.00  0.00     0.074 A 
ATOM     52  C   UNL A   1      40.243  29.335  34.024  1.00  0.00     0.031 C 
ATOM     53  C   UNL A   1      40.057  28.296  27.508  1.00  0.00     0.029 A 
ATOM     54  C   UNL A   1      41.253  27.900  28.231  1.00  0.00     0.049 A 
ATOM     55  H   UNL A   1      41.966  28.763  30.003  1.00  0.00     0.167 HD
ATOM     56  C   UNL A   1      42.757  29.728  34.175  1.00  0.00     0.037 A 
ATOM     57  C   UNL A   1      42.172  26.940  27.934  1.00  0.00     0.037 A 
ATOM     58  C   UNL A   1      43.731  30.527  33.470  1.00  0.00     0.049 A 
ATOM     59  C   UNL A   1      43.381  27.236  28.740  1.00  0.00     0.074 A 
ATOM     60  C   UNL A   1      43.857  31.874  33.184  1.00  0.00     0.029 A 
ATOM     61  N   UNL A   1      44.573  29.885  32.594  1.00  0.00    -0.354 N 
ATOM     62  N   UNL A   1      44.129  28.289  28.562  1.00  0.00    -0.248 NA
ATOM     63  C   UNL A   1      43.492  26.599  30.042  1.00  0.00     0.031 C 
ATOM     64  C   UNL A   1      44.349  31.920  31.846  1.00  0.00     0.029 A 
ATOM     65  C   UNL A   1      44.575  30.609  31.429  1.00  0.00     0.049 A 
ATOM     66  H   UNL A   1      45.080  29.060  32.769  1.00  0.00     0.167 HD
ATOM     67  C   UNL A   1      44.456  28.704  29.842  1.00  0.00     0.074 A 
ATOM     68  C   UNL A   1      44.111  27.576  30.708  1.00  0.00     0.031 C 
ATOM     69  C   UNL A   1      44.704  30.018  30.116  1.00  0.00     0.037 A 
BRANCH  56  70
ATOM     70  C   UNL A   1      43.160  28.557  35.051  1.00  0.00     0.058 A 
ATOM     71  C   UNL A   1      43.860  28.801  36.253  1.00  0.00     0.135 A 
ATOM     72  C   UNL A   1      43.143  27.207  34.629  1.00  0.00     0.135 A 
ATOM     73  F   UNL A   1      43.951  30.045  36.750  1.00  0.00    -0.206 F 
ATOM     74  C   UNL A   1      44.555  27.801  36.933  1.00  0.00     0.059 A 
ATOM     75  C   UNL A   1      43.783  26.186  35.323  1.00  0.00     0.059 A 
ATOM     76  F   UNL A   1      42.593  26.820  33.474  1.00  0.00    -0.206 F 
ATOM     77  C   UNL A   1      44.521  26.497  36.450  1.00  0.00     0.060 A 
BRANCH  77  78
ATOM     78  S   UNL A   1      45.492  25.220  37.269  1.00  0.00     0.124 S 
ATOM     79  O   UNL A   1      44.491  24.605  38.131  1.00  0.00    -0.237 OA
ATOM     80  O   UNL A   1      45.947  24.418  36.139  1.00  0.00    -0.237 OA
ATOM     81  O   UNL A   1      46.535  25.981  37.951  1.00  0.00    -0.744 OA
ENDBRANCH  77  78
ENDBRANCH  56  70
BRANCH  57  82
ATOM     82  C   UNL A   1      41.967  25.612  27.290  1.00  0.00     0.058 A 
ATOM     83  C   UNL A   1      42.923  25.034  26.435  1.00  0.00     0.135 A 
ATOM     84  C   UNL A   1      40.964  24.745  27.752  1.00  0.00     0.135 A 
ATOM     85  F   UNL A   1      43.938  25.775  25.965  1.00  0.00    -0.206 F 
ATOM     86  C   UNL A   1      42.912  23.670  26.107  1.00  0.00     0.059 A 
ATOM     87  C   UNL A   1      40.918  23.390  27.429  1.00  0.00     0.059 A 
ATOM     88  F   UNL A   1      40.056  25.183  28.630  1.00  0.00    -0.206 F 
ATOM     89  C   UNL A   1      41.913  22.849  26.627  1.00  0.00     0.060 A 
BRANCH  89  90
ATOM     90  S   UNL A   1      41.989  21.058  26.377  1.00  0.00     0.124 S 
ATOM     91  O   UNL A   1      40.605  20.739  26.049  1.00  0.00    -0.237 OA
ATOM     92  O   UNL A   1      42.949  20.939  25.286  1.00  0.00    -0.237 OA
ATOM     93  O   UNL A   1      42.455  20.556  27.668  1.00  0.00    -0.744 OA
ENDBRANCH  89  90
ENDBRANCH  57  82
BRANCH  69  94
ATOM     94  C   UNL A   1      44.922  30.967  28.963  1.00  0.00     0.058 A 
ATOM     95  C   UNL A   1      43.905  31.672  28.293  1.00  0.00     0.135 A 
ATOM     96  C   UNL A   1      46.246  31.286  28.627  1.00  0.00     0.135 A 
ATOM     97  F   UNL A   1      42.616  31.503  28.616  1.00  0.00    -0.206 F 
ATOM     98  C   UNL A   1      44.194  32.624  27.311  1.00  0.00     0.059 A 
ATOM     99  C   UNL A   1      46.557  32.254  27.677  1.00  0.00     0.059 A 
ATOM    100  F   UNL A   1      47.265  30.690  29.269  1.00  0.00    -0.206 F 
ATOM    101  C   UNL A   1      45.525  32.911  27.012  1.00  0.00     0.060 A 
BRANCH 101 102
ATOM    102  S   UNL A   1      45.903  34.194  25.798  1.00  0.00     0.124 S 
ATOM    103  O   UNL A   1      47.339  34.020  25.605  1.00  0.00    -0.237 OA
ATOM    104  O   UNL A   1      45.061  33.820  24.667  1.00  0.00    -0.237 OA
ATOM    105  O   UNL A   1      45.511  35.429  26.474  1.00  0.00    -0.744 OA
ENDBRANCH 101 102
ENDBRANCH  69  94
ENDBRANCH  43  44
ENDBRANCH  35  38
ENDBRANCH  33  34
ENDBRANCH  32  33
ENDBRANCH  31  32
ENDBRANCH   1  31
TORSDOF 19
ENDMDL
MODEL 3
REMARK VINA RESULT:     -11.8      1.285      1.751
REMARK SMILES CCOC(=O)c1c(NC(=O)[C@H]2CCCC[C@@H]2C(=O)NCCCCNC(=O)c2ccc(-c3c4nc(c(-c5c(F)cc(S(=O)(=O)[O-])cc5F)c5ccc([nH]5)c(-c5c(F)cc(S(=O)(=O)[O-])cc5F)c5nc(c(-c6c(F)cc(S(=O)(=O)[O-])cc6F)c6ccc3[nH]6)C=C5)C=C4)cc2)sc2c1CC[C@H](C)C2
REMARK SMILES IDX 20 1 19 2 17 3 18 4 16 6 11 7 12 8 13 9 15 10 14 11 9 12
REMARK SMILES IDX 8 13 10 15 7 16 6 17 95 18 93 19 94 20 96 21 100 22 97 23
REMARK SMILES IDX 98 24 99 25 4 26 5 27 3 28 2 29 1 30 21 31 22 32 23 33 24 34
REMARK SMILES IDX 25 35 26 37 27 38 28 39 92 40 29 41 91 42 30 43 31 44 32 45
REMARK SMILES IDX 85 46 33 47 90 48 84 49 86 50 34 51 89 52 83 53 82 54 35 56
REMARK SMILES IDX 69 57 48 58 68 59 49 60 52 61 67 62 87 63 50 64 51 65 66 67
REMARK SMILES IDX 88 68 53 69 36 70 37 71 46 72 38 73 39 74 45 75 47 76 40 77
REMARK SMILES IDX 41 78 42 79 43 80 44 81 70 82 71 83 80 84 72 85 73 86 79 87
REMARK SMILES IDX 81 88 74 89 75 90 76 91 77 92 78 93 54 94 55 95 64 96 56 97
REMARK SMILES IDX 57 98 63 99 65 100 58 101 59 102 60 103 61 104 62 105
REMARK H PARENT 19 5 8 14 24 36 86 55 52 66
REMARK Flexibility Score: inf
ROOT
ATOM      1  C   UNL A   1      37.333  22.531  25.493  1.00  0.00     0.116 C 
ENDROOT
BRANCH   1   2
ATOM      2  N   UNL A   1      36.270  21.527  25.159  1.00  0.00    -0.356 N 
ATOM      3  C   UNL A   1      34.945  21.506  24.739  1.00  0.00     0.223 C 
ATOM      4  O   UNL A   1      34.519  20.393  24.402  1.00  0.00    -0.275 OA
ATOM      5  H   UNL A   1      36.612  20.610  25.272  1.00  0.00     0.163 HD
BRANCH   3   6
ATOM      6  C   UNL A   1      33.967  22.765  24.689  1.00  0.00     0.091 C 
ATOM      7  C   UNL A   1      33.584  23.543  26.022  1.00  0.00     0.091 C 
ATOM      8  C   UNL A   1      33.665  22.633  27.188  1.00  0.00     0.014 C 
ATOM      9  C   UNL A   1      32.680  21.557  26.857  1.00  0.00     0.001 C 
ATOM     10  C   UNL A   1      32.655  22.264  24.255  1.00  0.00     0.014 C 
ATOM     11  C   UNL A   1      32.294  21.264  25.361  1.00  0.00     0.001 C 
BRANCH   7  12
ATOM     12  C   UNL A   1      32.145  24.267  26.160  1.00  0.00     0.228 C 
ATOM     13  N   UNL A   1      31.396  25.134  25.380  1.00  0.00    -0.317 N 
ATOM     14  H   UNL A   1      30.536  25.223  25.852  1.00  0.00     0.170 HD
ATOM     15  O   UNL A   1      31.583  24.045  27.258  1.00  0.00    -0.274 OA
BRANCH  13  16
ATOM     16  C   UNL A   1      31.265  25.963  24.221  1.00  0.00     0.110 A 
ATOM     17  C   UNL A   1      31.852  26.778  23.191  1.00  0.00     0.098 A 
ATOM     18  C   UNL A   1      30.905  27.884  22.903  1.00  0.00    -0.017 A 
ATOM     19  S   UNL A   1      29.511  26.103  24.043  1.00  0.00    -0.122 S 
ATOM     20  C   UNL A   1      29.623  27.621  23.316  1.00  0.00     0.011 A 
ATOM     21  C   UNL A   1      31.258  29.197  22.227  1.00  0.00     0.038 C 
ATOM     22  C   UNL A   1      28.460  28.559  23.148  1.00  0.00     0.050 C 
ATOM     23  C   UNL A   1      30.111  30.213  22.205  1.00  0.00     0.008 C 
ATOM     24  C   UNL A   1      28.747  29.538  21.986  1.00  0.00    -0.009 C 
ATOM     25  C   UNL A   1      27.654  30.592  21.840  1.00  0.00     0.008 C 
BRANCH  17  26
ATOM     26  C   UNL A   1      33.260  26.993  22.653  1.00  0.00     0.341 C 
ATOM     27  O   UNL A   1      33.629  26.440  21.616  1.00  0.00    -0.246 OA
BRANCH  26  28
ATOM     28  O   UNL A   1      34.092  27.851  23.320  1.00  0.00    -0.462 OA
BRANCH  28  29
ATOM     29  C   UNL A   1      33.972  27.780  24.768  1.00  0.00     0.230 C 
ATOM     30  C   UNL A   1      33.637  29.036  25.522  1.00  0.00     0.049 C 
ENDBRANCH  28  29
ENDBRANCH  26  28
ENDBRANCH  17  26
ENDBRANCH  13  16
ENDBRANCH   7  12
ENDBRANCH   3   6
ENDBRANCH   1   2
BRANCH   1  31
ATOM     31  C   UNL A   1      38.702  21.935  25.787  1.00  0.00     0.023 C 
BRANCH  31  32
ATOM     32  C   UNL A   1      39.474  22.705  26.862  1.00  0.00     0.023 C 
BRANCH  32  33
ATOM     33  C   UNL A   1      40.724  21.994  27.386  1.00  0.00     0.116 C 
BRANCH  33  34
ATOM     34  N   UNL A   1      41.775  21.840  26.383  1.00  0.00    -0.352 N 
ATOM     35  C   UNL A   1      42.426  22.850  25.687  1.00  0.00     0.251 C 
ATOM     36  H   UNL A   1      42.053  20.918  26.179  1.00  0.00     0.163 HD
ATOM     37  O   UNL A   1      42.977  22.625  24.628  1.00  0.00    -0.269 OA
BRANCH  35  38
ATOM     38  C   UNL A   1      42.438  24.208  26.272  1.00  0.00     0.039 A 
ATOM     39  C   UNL A   1      41.694  25.246  25.702  1.00  0.00     0.014 A 
ATOM     40  C   UNL A   1      43.190  24.418  27.426  1.00  0.00     0.014 A 
ATOM     41  C   UNL A   1      41.646  26.477  26.358  1.00  0.00     0.010 A 
ATOM     42  C   UNL A   1      43.055  25.595  28.128  1.00  0.00     0.010 A 
ATOM     43  C   UNL A   1      42.310  26.640  27.586  1.00  0.00    -0.014 A 
BRANCH  43  44
ATOM     44  C   UNL A   1      42.094  27.848  28.387  1.00  0.00     0.031 A 
ATOM     45  C   UNL A   1      43.171  28.873  28.245  1.00  0.00     0.074 A 
ATOM     46  C   UNL A   1      40.929  28.136  29.012  1.00  0.00     0.049 A 
ATOM     47  N   UNL A   1      44.012  29.276  29.140  1.00  0.00    -0.248 NA
ATOM     48  C   UNL A   1      43.442  29.411  26.899  1.00  0.00     0.031 C 
ATOM     49  C   UNL A   1      39.672  27.382  28.966  1.00  0.00     0.029 A 
ATOM     50  N   UNL A   1      40.586  29.234  29.744  1.00  0.00    -0.354 N 
ATOM     51  C   UNL A   1      44.748  30.297  28.541  1.00  0.00     0.074 A 
ATOM     52  C   UNL A   1      44.505  30.186  27.127  1.00  0.00     0.031 C 
ATOM     53  C   UNL A   1      38.663  28.153  29.431  1.00  0.00     0.029 A 
ATOM     54  C   UNL A   1      39.217  29.386  29.962  1.00  0.00     0.049 A 
ATOM     55  H   UNL A   1      41.252  29.869  30.092  1.00  0.00     0.167 HD
ATOM     56  C   UNL A   1      45.280  31.311  29.280  1.00  0.00     0.037 A 
ATOM     57  C   UNL A   1      38.583  30.463  30.505  1.00  0.00     0.037 A 
ATOM     58  C   UNL A   1      45.341  30.957  30.677  1.00  0.00     0.049 A 
ATOM     59  C   UNL A   1      39.604  31.229  31.259  1.00  0.00     0.074 A 
ATOM     60  C   UNL A   1      45.909  29.917  31.390  1.00  0.00     0.029 A 
ATOM     61  N   UNL A   1      44.414  31.518  31.522  1.00  0.00    -0.354 N 
ATOM     62  N   UNL A   1      40.195  30.784  32.333  1.00  0.00    -0.248 NA
ATOM     63  C   UNL A   1      40.298  32.295  30.556  1.00  0.00     0.031 C 
ATOM     64  C   UNL A   1      44.949  29.594  32.395  1.00  0.00     0.029 A 
ATOM     65  C   UNL A   1      43.899  30.506  32.291  1.00  0.00     0.049 A 
ATOM     66  H   UNL A   1      44.166  32.470  31.568  1.00  0.00     0.167 HD
ATOM     67  C   UNL A   1      41.513  31.185  32.196  1.00  0.00     0.074 A 
ATOM     68  C   UNL A   1      41.498  32.186  31.129  1.00  0.00     0.031 C 
ATOM     69  C   UNL A   1      42.530  30.466  32.755  1.00  0.00     0.037 A 
BRANCH  56  70
ATOM     70  C   UNL A   1      45.375  32.751  28.810  1.00  0.00     0.058 A 
ATOM     71  C   UNL A   1      46.605  33.435  28.924  1.00  0.00     0.135 A 
ATOM     72  C   UNL A   1      44.257  33.568  28.523  1.00  0.00     0.135 A 
ATOM     73  F   UNL A   1      47.736  32.766  29.202  1.00  0.00    -0.206 F 
ATOM     74  C   UNL A   1      46.702  34.825  28.843  1.00  0.00     0.059 A 
ATOM     75  C   UNL A   1      44.342  34.949  28.383  1.00  0.00     0.059 A 
ATOM     76  F   UNL A   1      43.011  33.089  28.461  1.00  0.00    -0.206 F 
ATOM     77  C   UNL A   1      45.559  35.574  28.585  1.00  0.00     0.060 A 
BRANCH  77  78
ATOM     78  S   UNL A   1      45.659  37.372  28.572  1.00  0.00     0.124 S 
ATOM     79  O   UNL A   1      46.129  37.626  27.216  1.00  0.00    -0.237 OA
ATOM     80  O   UNL A   1      44.279  37.752  28.856  1.00  0.00    -0.237 OA
ATOM     81  O   UNL A   1      46.614  37.660  29.638  1.00  0.00    -0.744 OA
ENDBRANCH  77  78
ENDBRANCH  56  70
BRANCH  57  82
ATOM     82  C   UNL A   1      37.269  31.062  30.137  1.00  0.00     0.058 A 
ATOM     83  C   UNL A   1      36.398  31.612  31.095  1.00  0.00     0.135 A 
ATOM     84  C   UNL A   1      36.984  31.386  28.802  1.00  0.00     0.135 A 
ATOM     85  F   UNL A   1      36.605  31.383  32.401  1.00  0.00    -0.206 F 
ATOM     86  C   UNL A   1      35.347  32.474  30.749  1.00  0.00     0.059 A 
ATOM     87  C   UNL A   1      35.937  32.226  28.427  1.00  0.00     0.059 A 
ATOM     88  F   UNL A   1      37.800  30.974  27.826  1.00  0.00    -0.206 F 
ATOM     89  C   UNL A   1      35.136  32.792  29.408  1.00  0.00     0.060 A 
BRANCH  89  90
ATOM     90  S   UNL A   1      33.914  34.048  28.956  1.00  0.00     0.124 S 
ATOM     91  O   UNL A   1      33.303  34.354  30.244  1.00  0.00    -0.237 OA
ATOM     92  O   UNL A   1      34.747  35.096  28.378  1.00  0.00    -0.237 OA
ATOM     93  O   UNL A   1      33.049  33.351  28.005  1.00  0.00    -0.744 OA
ENDBRANCH  89  90
ENDBRANCH  57  82
BRANCH  69  94
ATOM     94  C   UNL A   1      42.191  29.410  33.777  1.00  0.00     0.058 A 
ATOM     95  C   UNL A   1      41.753  28.106  33.478  1.00  0.00     0.135 A 
ATOM     96  C   UNL A   1      42.472  29.694  35.122  1.00  0.00     0.135 A 
ATOM     97  F   UNL A   1      41.554  27.716  32.212  1.00  0.00    -0.206 F 
ATOM     98  C   UNL A   1      41.571  27.144  34.475  1.00  0.00     0.059 A 
ATOM     99  C   UNL A   1      42.330  28.742  36.126  1.00  0.00     0.059 A 
ATOM    100  F   UNL A   1      42.947  30.902  35.468  1.00  0.00    -0.206 F 
ATOM    101  C   UNL A   1      41.866  27.470  35.798  1.00  0.00     0.060 A 
BRANCH 101 102
ATOM    102  S   UNL A   1      41.704  26.207  37.079  1.00  0.00     0.124 S 
ATOM    103  O   UNL A   1      42.854  26.486  37.932  1.00  0.00    -0.237 OA
ATOM    104  O   UNL A   1      40.399  26.507  37.657  1.00  0.00    -0.237 OA
ATOM    105  O   UNL A   1      41.772  24.953  36.332  1.00  0.00    -0.744 OA
ENDBRANCH 101 102
ENDBRANCH  69  94
ENDBRANCH  43  44
ENDBRANCH  35  38
ENDBRANCH  33  34
ENDBRANCH  32  33
ENDBRANCH  31  32
ENDBRANCH   1  31
TORSDOF 19
ENDMDL
