MODEL 1
REMARK VINA RESULT:      -9.7      0.000      0.000
REMARK SMILES Cc1c(CC(=O)N[C@@H](CCO)C(=O)NCCCCNC(=O)c2ccc(-c3c4nc(c(-c5c(F)cc(S(=O)(=O)[O-])cc5F)c5ccc([nH]5)c(-c5c(F)cc(S(=O)(=O)[O-])cc5F)c5nc(c(-c6c(F)cc(S(=O)(=O)[O-])cc6F)c6ccc3[nH]6)C=C5)C=C4)cc2)cc(-c2ccc(S(C)(=O)=O)cc2)n1-c1ccc(F)cc1
REMARK SMILES IDX 15 1 14 2 12 3 13 4 8 6 7 7 5 8 6 9 4 11 3 12 1 13 2 14
REMARK SMILES IDX 100 15 88 16 89 17 101 18 102 19 107 20 103 21 106 22 104 23
REMARK SMILES IDX 105 24 90 25 91 26 99 27 92 28 98 29 93 30 94 31 95 32 96 33
REMARK SMILES IDX 97 34 9 35 10 36 11 37 16 39 17 40 18 41 19 42 20 43 21 45
REMARK SMILES IDX 22 46 23 47 87 48 24 49 86 50 25 51 26 52 27 53 80 54 28 55
REMARK SMILES IDX 85 56 79 57 81 58 29 59 84 60 78 61 77 62 30 64 64 65 43 66
REMARK SMILES IDX 63 67 44 68 47 69 62 70 82 71 45 72 46 73 61 75 83 76 48 77
REMARK SMILES IDX 31 78 32 79 41 80 33 81 34 82 40 83 42 84 35 85 36 86 37 87
REMARK SMILES IDX 38 88 39 89 65 90 66 91 75 92 67 93 68 94 74 95 76 96 69 97
REMARK SMILES IDX 70 98 71 99 72 100 73 101 49 102 50 103 59 104 51 105 52 106
REMARK SMILES IDX 58 107 60 108 53 109 54 110 55 111 56 112 57 113
REMARK H PARENT 14 5 7 10 11 38 19 44 81 63 47 74
REMARK Flexibility Score: inf
ROOT
ATOM      1  C   UNL A   1      45.445  24.298  26.255  1.00  0.00     0.116 C 
ENDROOT
BRANCH   1   2
ATOM      2  N   UNL A   1      44.499  23.852  25.244  1.00  0.00    -0.354 N 
ATOM      3  C   UNL A   1      43.980  22.636  24.938  1.00  0.00     0.242 C 
ATOM      4  O   UNL A   1      42.992  22.631  24.198  1.00  0.00    -0.273 OA
ATOM      5  H   UNL A   1      44.168  24.578  24.668  1.00  0.00     0.163 HD
BRANCH   3   6
ATOM      6  C   UNL A   1      44.507  21.320  25.520  1.00  0.00     0.173 C 
BRANCH   6   7
ATOM      7  N   UNL A   1      43.572  20.217  25.292  1.00  0.00    -0.344 N 
ATOM      8  C   UNL A   1      42.421  19.941  25.977  1.00  0.00     0.225 C 
ATOM      9  O   UNL A   1      41.631  19.134  25.478  1.00  0.00    -0.275 OA
ATOM     10  H   UNL A   1      43.799  19.601  24.558  1.00  0.00     0.164 HD
BRANCH   8  11
ATOM     11  C   UNL A   1      42.127  20.611  27.315  1.00  0.00     0.137 C 
BRANCH  11  12
ATOM     12  C   UNL A   1      41.156  21.750  27.187  1.00  0.00    -0.017 A 
ATOM     13  C   UNL A   1      42.500  23.644  28.330  1.00  0.00     0.065 C 
ATOM     14  C   UNL A   1      41.348  23.074  27.565  1.00  0.00     0.024 A 
ATOM     15  N   UNL A   1      40.225  23.800  27.179  1.00  0.00    -0.314 N 
ATOM     16  C   UNL A   1      39.851  21.662  26.635  1.00  0.00     0.033 A 
ATOM     17  C   UNL A   1      39.302  22.931  26.592  1.00  0.00     0.053 A 
BRANCH  15  18
ATOM     18  C   UNL A   1      40.034  25.196  27.350  1.00  0.00     0.046 A 
ATOM     19  C   UNL A   1      40.530  26.079  26.382  1.00  0.00     0.029 A 
ATOM     20  C   UNL A   1      39.434  25.678  28.521  1.00  0.00     0.029 A 
ATOM     21  C   UNL A   1      40.417  27.453  26.585  1.00  0.00     0.041 A 
ATOM     22  C   UNL A   1      39.334  27.055  28.719  1.00  0.00     0.041 A 
ATOM     23  C   UNL A   1      39.825  27.927  27.752  1.00  0.00     0.123 A 
ATOM     24  F   UNL A   1      39.733  29.248  27.949  1.00  0.00    -0.207 F 
ENDBRANCH  15  18
BRANCH  17  25
ATOM     25  C   UNL A   1      38.025  23.338  25.988  1.00  0.00    -0.001 A 
ATOM     26  C   UNL A   1      36.918  23.677  26.784  1.00  0.00     0.011 A 
ATOM     27  C   UNL A   1      37.892  23.358  24.594  1.00  0.00     0.011 A 
ATOM     28  C   UNL A   1      35.675  23.941  26.202  1.00  0.00     0.021 A 
ATOM     29  C   UNL A   1      36.655  23.627  24.005  1.00  0.00     0.021 A 
ATOM     30  C   UNL A   1      35.546  23.884  24.813  1.00  0.00     0.067 A 
BRANCH  30  31
ATOM     31  S   UNL A   1      33.947  24.146  24.083  1.00  0.00     0.175 S 
ATOM     32  C   UNL A   1      33.479  25.762  24.650  1.00  0.00     0.163 C 
ATOM     33  O   UNL A   1      34.119  24.191  22.660  1.00  0.00    -0.224 OA
ATOM     34  O   UNL A   1      33.023  23.198  24.709  1.00  0.00    -0.224 OA
ENDBRANCH  30  31
ENDBRANCH  17  25
ENDBRANCH  11  12
ENDBRANCH   8  11
ENDBRANCH   6   7
BRANCH   6  35
ATOM     35  C   UNL A   1      45.985  20.986  25.251  1.00  0.00     0.063 C 
BRANCH  35  36
ATOM     36  C   UNL A   1      46.397  19.542  25.026  1.00  0.00     0.158 C 
BRANCH  36  37
ATOM     37  O   UNL A   1      46.118  19.084  23.716  1.00  0.00    -0.396 OA
ATOM     38  H   UNL A   1      45.284  18.587  23.718  1.00  0.00     0.210 HD
ENDBRANCH  36  37
ENDBRANCH  35  36
ENDBRANCH   6  35
ENDBRANCH   3   6
ENDBRANCH   1   2
BRANCH   1  39
ATOM     39  C   UNL A   1      46.092  25.634  25.918  1.00  0.00     0.023 C 
BRANCH  39  40
ATOM     40  C   UNL A   1      45.146  26.841  25.775  1.00  0.00     0.023 C 
BRANCH  40  41
ATOM     41  C   UNL A   1      43.979  27.007  26.772  1.00  0.00     0.116 C 
BRANCH  41  42
ATOM     42  N   UNL A   1      43.919  28.278  27.446  1.00  0.00    -0.352 N 
ATOM     43  C   UNL A   1      44.086  28.515  28.806  1.00  0.00     0.251 C 
ATOM     44  H   UNL A   1      43.739  29.065  26.882  1.00  0.00     0.163 HD
ATOM     45  O   UNL A   1      43.951  29.673  29.193  1.00  0.00    -0.269 OA
BRANCH  43  46
ATOM     46  C   UNL A   1      44.294  27.384  29.799  1.00  0.00     0.039 A 
ATOM     47  C   UNL A   1      43.617  27.440  31.005  1.00  0.00     0.014 A 
ATOM     48  C   UNL A   1      45.264  26.368  29.696  1.00  0.00     0.014 A 
ATOM     49  C   UNL A   1      43.857  26.468  32.034  1.00  0.00     0.010 A 
ATOM     50  C   UNL A   1      45.570  25.432  30.794  1.00  0.00     0.010 A 
ATOM     51  C   UNL A   1      44.879  25.439  32.026  1.00  0.00    -0.014 A 
BRANCH  51  52
ATOM     52  C   UNL A   1      45.419  24.934  33.525  1.00  0.00     0.031 A 
ATOM     53  C   UNL A   1      46.059  26.198  34.001  1.00  0.00     0.074 A 
ATOM     54  C   UNL A   1      45.592  23.838  34.400  1.00  0.00     0.049 A 
ATOM     55  N   UNL A   1      46.968  26.756  33.249  1.00  0.00    -0.248 NA
ATOM     56  C   UNL A   1      45.448  27.104  34.977  1.00  0.00     0.031 C 
ATOM     57  C   UNL A   1      45.307  22.410  34.153  1.00  0.00     0.029 A 
ATOM     58  N   UNL A   1      46.086  23.717  35.763  1.00  0.00    -0.354 N 
ATOM     59  C   UNL A   1      47.289  27.952  33.832  1.00  0.00     0.074 A 
ATOM     60  C   UNL A   1      46.165  28.210  34.731  1.00  0.00     0.031 C 
ATOM     61  C   UNL A   1      45.454  21.637  35.278  1.00  0.00     0.029 A 
ATOM     62  C   UNL A   1      45.930  22.415  36.427  1.00  0.00     0.049 A 
ATOM     63  H   UNL A   1      46.510  24.478  36.222  1.00  0.00     0.167 HD
ATOM     64  C   UNL A   1      48.622  28.100  34.086  1.00  0.00     0.037 A 
ATOM     65  C   UNL A   1      46.254  21.968  37.732  1.00  0.00     0.037 A 
ATOM     66  C   UNL A   1      48.947  27.685  35.427  1.00  0.00     0.049 A 
ATOM     67  C   UNL A   1      47.407  22.786  38.123  1.00  0.00     0.074 A 
ATOM     68  C   UNL A   1      48.326  27.897  36.642  1.00  0.00     0.029 A 
ATOM     69  N   UNL A   1      49.727  26.555  35.566  1.00  0.00    -0.354 N 
ATOM     70  N   UNL A   1      48.585  22.609  37.611  1.00  0.00    -0.248 NA
ATOM     71  C   UNL A   1      47.317  23.788  39.179  1.00  0.00     0.031 C 
ATOM     72  C   UNL A   1      48.307  26.624  37.244  1.00  0.00     0.029 A 
ATOM     73  C   UNL A   1      49.267  25.824  36.635  1.00  0.00     0.049 A 
ATOM     74  H   UNL A   1      50.491  26.313  34.993  1.00  0.00     0.167 HD
ATOM     75  C   UNL A   1      49.200  23.792  37.864  1.00  0.00     0.074 A 
ATOM     76  C   UNL A   1      48.520  24.344  39.025  1.00  0.00     0.031 C 
ATOM     77  C   UNL A   1      49.676  24.450  36.779  1.00  0.00     0.037 A 
BRANCH  64  78
ATOM     78  C   UNL A   1      49.505  27.813  32.898  1.00  0.00     0.058 A 
ATOM     79  C   UNL A   1      49.743  26.484  32.540  1.00  0.00     0.135 A 
ATOM     80  C   UNL A   1      50.166  28.814  32.148  1.00  0.00     0.135 A 
ATOM     81  F   UNL A   1      49.116  25.488  33.189  1.00  0.00    -0.206 F 
ATOM     82  C   UNL A   1      50.618  26.157  31.506  1.00  0.00     0.059 A 
ATOM     83  C   UNL A   1      51.083  28.510  31.150  1.00  0.00     0.059 A 
ATOM     84  F   UNL A   1      49.899  30.114  32.352  1.00  0.00    -0.206 F 
ATOM     85  C   UNL A   1      51.296  27.175  30.830  1.00  0.00     0.060 A 
BRANCH  85  86
ATOM     86  S   UNL A   1      52.446  26.722  29.517  1.00  0.00     0.124 S 
ATOM     87  O   UNL A   1      51.642  25.817  28.698  1.00  0.00    -0.237 OA
ATOM     88  O   UNL A   1      52.728  28.019  28.914  1.00  0.00    -0.237 OA
ATOM     89  O   UNL A   1      53.551  26.088  30.226  1.00  0.00    -0.744 OA
ENDBRANCH  85  86
ENDBRANCH  64  78
BRANCH  65  90
ATOM     90  C   UNL A   1      46.074  20.857  38.875  1.00  0.00     0.058 A 
ATOM     91  C   UNL A   1      46.840  19.628  38.878  1.00  0.00     0.135 A 
ATOM     92  C   UNL A   1      45.566  21.152  40.155  1.00  0.00     0.135 A 
ATOM     93  F   UNL A   1      47.394  19.159  37.750  1.00  0.00    -0.206 F 
ATOM     94  C   UNL A   1      47.161  18.858  40.028  1.00  0.00     0.059 A 
ATOM     95  C   UNL A   1      45.853  20.373  41.325  1.00  0.00     0.059 A 
ATOM     96  F   UNL A   1      44.849  22.270  40.338  1.00  0.00    -0.206 F 
ATOM     97  C   UNL A   1      46.688  19.252  41.265  1.00  0.00     0.060 A 
BRANCH  97  98
ATOM     98  S   UNL A   1      47.272  18.383  42.770  1.00  0.00     0.124 S 
ATOM     99  O   UNL A   1      46.462  17.168  42.779  1.00  0.00    -0.237 OA
ATOM    100  O   UNL A   1      48.693  18.187  42.493  1.00  0.00    -0.237 OA
ATOM    101  O   UNL A   1      46.983  19.329  43.844  1.00  0.00    -0.744 OA
ENDBRANCH  97  98
ENDBRANCH  65  90
BRANCH  77 102
ATOM    102  C   UNL A   1      50.470  23.636  35.775  1.00  0.00     0.058 A 
ATOM    103  C   UNL A   1      49.952  22.818  34.744  1.00  0.00     0.135 A 
ATOM    104  C   UNL A   1      51.862  23.598  35.949  1.00  0.00     0.135 A 
ATOM    105  F   UNL A   1      48.653  22.840  34.408  1.00  0.00    -0.206 F 
ATOM    106  C   UNL A   1      50.760  21.943  34.010  1.00  0.00     0.059 A 
ATOM    107  C   UNL A   1      52.693  22.769  35.198  1.00  0.00     0.059 A 
ATOM    108  F   UNL A   1      52.435  24.374  36.883  1.00  0.00    -0.206 F 
ATOM    109  C   UNL A   1      52.129  21.910  34.261  1.00  0.00     0.060 A 
BRANCH 109 110
ATOM    110  S   UNL A   1      53.161  20.726  33.367  1.00  0.00     0.124 S 
ATOM    111  O   UNL A   1      54.417  20.801  34.108  1.00  0.00    -0.237 OA
ATOM    112  O   UNL A   1      52.420  19.478  33.515  1.00  0.00    -0.237 OA
ATOM    113  O   UNL A   1      53.213  21.273  32.014  1.00  0.00    -0.744 OA
ENDBRANCH 109 110
ENDBRANCH  77 102
ENDBRANCH  51  52
ENDBRANCH  43  46
ENDBRANCH  41  42
ENDBRANCH  40  41
ENDBRANCH  39  40
ENDBRANCH   1  39
TORSDOF 23
ENDMDL
MODEL 2
REMARK VINA RESULT:      -9.6      8.157     14.183
REMARK SMILES Cc1c(CC(=O)N[C@@H](CCO)C(=O)NCCCCNC(=O)c2ccc(-c3c4nc(c(-c5c(F)cc(S(=O)(=O)[O-])cc5F)c5ccc([nH]5)c(-c5c(F)cc(S(=O)(=O)[O-])cc5F)c5nc(c(-c6c(F)cc(S(=O)(=O)[O-])cc6F)c6ccc3[nH]6)C=C5)C=C4)cc2)cc(-c2ccc(S(C)(=O)=O)cc2)n1-c1ccc(F)cc1
REMARK SMILES IDX 15 1 14 2 12 3 13 4 8 6 7 7 5 8 6 9 4 11 3 12 1 13 2 14
REMARK SMILES IDX 100 15 88 16 89 17 101 18 102 19 107 20 103 21 106 22 104 23
REMARK SMILES IDX 105 24 90 25 91 26 99 27 92 28 98 29 93 30 94 31 95 32 96 33
REMARK SMILES IDX 97 34 9 35 10 36 11 37 16 39 17 40 18 41 19 42 20 43 21 45
REMARK SMILES IDX 22 46 23 47 87 48 24 49 86 50 25 51 26 52 27 53 80 54 28 55
REMARK SMILES IDX 85 56 79 57 81 58 29 59 84 60 78 61 77 62 30 64 64 65 43 66
REMARK SMILES IDX 63 67 44 68 47 69 62 70 82 71 45 72 46 73 61 75 83 76 48 77
REMARK SMILES IDX 31 78 32 79 41 80 33 81 34 82 40 83 42 84 35 85 36 86 37 87
REMARK SMILES IDX 38 88 39 89 65 90 66 91 75 92 67 93 68 94 74 95 76 96 69 97
REMARK SMILES IDX 70 98 71 99 72 100 73 101 49 102 50 103 59 104 51 105 52 106
REMARK SMILES IDX 58 107 60 108 53 109 54 110 55 111 56 112 57 113
REMARK H PARENT 14 5 7 10 11 38 19 44 81 63 47 74
REMARK Flexibility Score: inf
ROOT
ATOM      1  C   UNL A   1      48.106  33.121  27.862  1.00  0.00     0.116 C 
ENDROOT
BRANCH   1   2
ATOM      2  N   UNL A   1      47.614  33.496  26.546  1.00  0.00    -0.354 N 
ATOM      3  C   UNL A   1      46.370  33.555  26.007  1.00  0.00     0.242 C 
ATOM      4  O   UNL A   1      46.260  34.175  24.945  1.00  0.00    -0.273 OA
ATOM      5  H   UNL A   1      48.326  33.761  25.921  1.00  0.00     0.163 HD
BRANCH   3   6
ATOM      6  C   UNL A   1      45.126  32.971  26.685  1.00  0.00     0.173 C 
BRANCH   6   7
ATOM      7  N   UNL A   1      43.902  33.637  26.233  1.00  0.00    -0.344 N 
ATOM      8  C   UNL A   1      43.361  34.802  26.704  1.00  0.00     0.225 C 
ATOM      9  O   UNL A   1      42.481  35.344  26.029  1.00  0.00    -0.275 OA
ATOM     10  H   UNL A   1      43.412  33.194  25.504  1.00  0.00     0.164 HD
BRANCH   8  11
ATOM     11  C   UNL A   1      43.833  35.407  28.021  1.00  0.00     0.137 C 
BRANCH  11  12
ATOM     12  C   UNL A   1      43.784  36.908  28.015  1.00  0.00    -0.017 A 
ATOM     13  C   UNL A   1      43.399  37.374  30.533  1.00  0.00     0.065 C 
ATOM     14  C   UNL A   1      43.664  37.756  29.111  1.00  0.00     0.024 A 
ATOM     15  N   UNL A   1      43.753  39.067  28.653  1.00  0.00    -0.314 N 
ATOM     16  C   UNL A   1      43.862  37.731  26.862  1.00  0.00     0.033 A 
ATOM     17  C   UNL A   1      43.888  39.054  27.263  1.00  0.00     0.053 A 
BRANCH  15  18
ATOM     18  C   UNL A   1      43.712  40.236  29.456  1.00  0.00     0.046 A 
ATOM     19  C   UNL A   1      44.913  40.853  29.832  1.00  0.00     0.029 A 
ATOM     20  C   UNL A   1      42.483  40.708  29.936  1.00  0.00     0.029 A 
ATOM     21  C   UNL A   1      44.882  41.952  30.686  1.00  0.00     0.041 A 
ATOM     22  C   UNL A   1      42.463  41.804  30.799  1.00  0.00     0.041 A 
ATOM     23  C   UNL A   1      43.660  42.414  31.164  1.00  0.00     0.123 A 
ATOM     24  F   UNL A   1      43.636  43.462  31.998  1.00  0.00    -0.207 F 
ENDBRANCH  15  18
BRANCH  17  25
ATOM     25  C   UNL A   1      44.089  40.244  26.423  1.00  0.00    -0.001 A 
ATOM     26  C   UNL A   1      43.016  41.084  26.080  1.00  0.00     0.011 A 
ATOM     27  C   UNL A   1      45.365  40.534  25.924  1.00  0.00     0.011 A 
ATOM     28  C   UNL A   1      43.194  42.139  25.182  1.00  0.00     0.021 A 
ATOM     29  C   UNL A   1      45.553  41.590  25.030  1.00  0.00     0.021 A 
ATOM     30  C   UNL A   1      44.460  42.366  24.638  1.00  0.00     0.067 A 
BRANCH  30  31
ATOM     31  S   UNL A   1      44.665  43.661  23.439  1.00  0.00     0.175 S 
ATOM     32  C   UNL A   1      44.810  45.133  24.420  1.00  0.00     0.163 C 
ATOM     33  O   UNL A   1      45.909  43.436  22.761  1.00  0.00    -0.224 OA
ATOM     34  O   UNL A   1      43.406  43.772  22.699  1.00  0.00    -0.224 OA
ENDBRANCH  30  31
ENDBRANCH  17  25
ENDBRANCH  11  12
ENDBRANCH   8  11
ENDBRANCH   6   7
BRANCH   6  35
ATOM     35  C   UNL A   1      45.037  31.437  26.769  1.00  0.00     0.063 C 
BRANCH  35  36
ATOM     36  C   UNL A   1      46.133  30.588  26.149  1.00  0.00     0.158 C 
BRANCH  36  37
ATOM     37  O   UNL A   1      46.109  29.244  26.592  1.00  0.00    -0.396 OA
ATOM     38  H   UNL A   1      45.923  28.659  25.839  1.00  0.00     0.210 HD
ENDBRANCH  36  37
ENDBRANCH  35  36
ENDBRANCH   6  35
ENDBRANCH   3   6
ENDBRANCH   1   2
BRANCH   1  39
ATOM     39  C   UNL A   1      49.326  33.921  28.293  1.00  0.00     0.023 C 
BRANCH  39  40
ATOM     40  C   UNL A   1      49.961  33.537  29.643  1.00  0.00     0.023 C 
BRANCH  40  41
ATOM     41  C   UNL A   1      49.882  34.528  30.822  1.00  0.00     0.116 C 
BRANCH  41  42
ATOM     42  N   UNL A   1      49.269  35.797  30.524  1.00  0.00    -0.352 N 
ATOM     43  C   UNL A   1      47.942  36.156  30.728  1.00  0.00     0.251 C 
ATOM     44  H   UNL A   1      49.855  36.484  30.132  1.00  0.00     0.163 HD
ATOM     45  O   UNL A   1      47.604  37.280  30.363  1.00  0.00    -0.269 OA
BRANCH  43  46
ATOM     46  C   UNL A   1      46.913  35.170  31.256  1.00  0.00     0.039 A 
ATOM     47  C   UNL A   1      46.283  34.336  30.349  1.00  0.00     0.014 A 
ATOM     48  C   UNL A   1      46.392  35.148  32.564  1.00  0.00     0.014 A 
ATOM     49  C   UNL A   1      45.220  33.464  30.762  1.00  0.00     0.010 A 
ATOM     50  C   UNL A   1      45.238  34.318  32.957  1.00  0.00     0.010 A 
ATOM     51  C   UNL A   1      44.589  33.432  32.067  1.00  0.00    -0.014 A 
BRANCH  51  52
ATOM     52  C   UNL A   1      43.006  32.898  32.101  1.00  0.00     0.031 A 
ATOM     53  C   UNL A   1      43.154  31.728  33.019  1.00  0.00     0.074 A 
ATOM     54  C   UNL A   1      41.709  33.040  31.558  1.00  0.00     0.049 A 
ATOM     55  N   UNL A   1      44.036  30.813  32.723  1.00  0.00    -0.248 NA
ATOM     56  C   UNL A   1      42.753  31.741  34.428  1.00  0.00     0.031 C 
ATOM     57  C   UNL A   1      41.264  33.919  30.457  1.00  0.00     0.029 A 
ATOM     58  N   UNL A   1      40.429  32.414  31.852  1.00  0.00    -0.354 N 
ATOM     59  C   UNL A   1      44.074  29.938  33.775  1.00  0.00     0.074 A 
ATOM     60  C   UNL A   1      43.459  30.689  34.868  1.00  0.00     0.031 C 
ATOM     61  C   UNL A   1      39.902  33.911  30.289  1.00  0.00     0.029 A 
ATOM     62  C   UNL A   1      39.236  32.971  31.198  1.00  0.00     0.049 A 
ATOM     63  H   UNL A   1      40.365  31.646  32.464  1.00  0.00     0.167 HD
ATOM     64  C   UNL A   1      43.857  28.638  33.418  1.00  0.00     0.037 A 
ATOM     65  C   UNL A   1      37.862  32.641  31.286  1.00  0.00     0.037 A 
ATOM     66  C   UNL A   1      42.466  28.288  33.547  1.00  0.00     0.049 A 
ATOM     67  C   UNL A   1      37.849  31.206  31.593  1.00  0.00     0.074 A 
ATOM     68  C   UNL A   1      41.526  28.552  34.524  1.00  0.00     0.029 A 
ATOM     69  N   UNL A   1      41.771  28.024  32.383  1.00  0.00    -0.354 N 
ATOM     70  N   UNL A   1      38.160  30.309  30.710  1.00  0.00    -0.248 NA
ATOM     71  C   UNL A   1      37.399  30.699  32.884  1.00  0.00     0.031 C 
ATOM     72  C   UNL A   1      40.396  28.985  33.805  1.00  0.00     0.029 A 
ATOM     73  C   UNL A   1      40.506  28.554  32.489  1.00  0.00     0.049 A 
ATOM     74  H   UNL A   1      42.124  27.536  31.605  1.00  0.00     0.167 HD
ATOM     75  C   UNL A   1      38.467  29.232  31.477  1.00  0.00     0.074 A 
ATOM     76  C   UNL A   1      37.740  29.420  32.722  1.00  0.00     0.031 C 
ATOM     77  C   UNL A   1      39.711  28.721  31.300  1.00  0.00     0.037 A 
BRANCH  64  78
ATOM     78  C   UNL A   1      44.724  28.165  32.279  1.00  0.00     0.058 A 
ATOM     79  C   UNL A   1      45.694  27.190  32.529  1.00  0.00     0.135 A 
ATOM     80  C   UNL A   1      44.660  28.694  30.969  1.00  0.00     0.135 A 
ATOM     81  F   UNL A   1      45.781  26.622  33.743  1.00  0.00    -0.206 F 
ATOM     82  C   UNL A   1      46.579  26.778  31.536  1.00  0.00     0.059 A 
ATOM     83  C   UNL A   1      45.567  28.337  29.979  1.00  0.00     0.059 A 
ATOM     84  F   UNL A   1      43.682  29.545  30.618  1.00  0.00    -0.206 F 
ATOM     85  C   UNL A   1      46.520  27.370  30.271  1.00  0.00     0.060 A 
BRANCH  85  86
ATOM     86  S   UNL A   1      47.699  26.839  29.014  1.00  0.00     0.124 S 
ATOM     87  O   UNL A   1      48.193  25.577  29.562  1.00  0.00    -0.237 OA
ATOM     88  O   UNL A   1      46.840  26.713  27.842  1.00  0.00    -0.237 OA
ATOM     89  O   UNL A   1      48.680  27.917  28.979  1.00  0.00    -0.744 OA
ENDBRANCH  85  86
ENDBRANCH  64  78
BRANCH  65  90
ATOM     90  C   UNL A   1      36.339  33.060  31.005  1.00  0.00     0.058 A 
ATOM     91  C   UNL A   1      35.483  33.588  32.047  1.00  0.00     0.135 A 
ATOM     92  C   UNL A   1      35.864  33.402  29.725  1.00  0.00     0.135 A 
ATOM     93  F   UNL A   1      35.751  33.356  33.341  1.00  0.00    -0.206 F 
ATOM     94  C   UNL A   1      34.370  34.447  31.845  1.00  0.00     0.059 A 
ATOM     95  C   UNL A   1      34.725  34.244  29.496  1.00  0.00     0.059 A 
ATOM     96  F   UNL A   1      36.550  33.012  28.641  1.00  0.00    -0.206 F 
ATOM     97  C   UNL A   1      34.008  34.801  30.559  1.00  0.00     0.060 A 
BRANCH  97  98
ATOM     98  S   UNL A   1      32.708  36.070  30.309  1.00  0.00     0.124 S 
ATOM     99  O   UNL A   1      32.475  36.017  28.869  1.00  0.00    -0.237 OA
ATOM    100  O   UNL A   1      31.614  35.573  31.140  1.00  0.00    -0.237 OA
ATOM    101  O   UNL A   1      33.334  37.297  30.792  1.00  0.00    -0.744 OA
ENDBRANCH  97  98
ENDBRANCH  65  90
BRANCH  77 102
ATOM    102  C   UNL A   1      40.170  28.512  29.870  1.00  0.00     0.058 A 
ATOM    103  C   UNL A   1      39.970  27.362  29.071  1.00  0.00     0.135 A 
ATOM    104  C   UNL A   1      40.973  29.518  29.309  1.00  0.00     0.135 A 
ATOM    105  F   UNL A   1      39.143  26.375  29.447  1.00  0.00    -0.206 F 
ATOM    106  C   UNL A   1      40.616  27.187  27.843  1.00  0.00     0.059 A 
ATOM    107  C   UNL A   1      41.589  29.386  28.066  1.00  0.00     0.059 A 
ATOM    108  F   UNL A   1      41.181  30.657  29.989  1.00  0.00    -0.206 F 
ATOM    109  C   UNL A   1      41.442  28.197  27.358  1.00  0.00     0.060 A 
BRANCH 109 110
ATOM    110  S   UNL A   1      42.337  27.938  25.809  1.00  0.00     0.124 S 
ATOM    111  O   UNL A   1      43.700  27.719  26.281  1.00  0.00    -0.237 OA
ATOM    112  O   UNL A   1      41.672  26.767  25.247  1.00  0.00    -0.237 OA
ATOM    113  O   UNL A   1      42.131  29.189  25.085  1.00  0.00    -0.744 OA
ENDBRANCH 109 110
ENDBRANCH  77 102
ENDBRANCH  51  52
ENDBRANCH  43  46
ENDBRANCH  41  42
ENDBRANCH  40  41
ENDBRANCH  39  40
ENDBRANCH   1  39
TORSDOF 23
ENDMDL
MODEL 3
REMARK VINA RESULT:      -9.1      6.673     12.549
REMARK SMILES Cc1c(CC(=O)N[C@@H](CCO)C(=O)NCCCCNC(=O)c2ccc(-c3c4nc(c(-c5c(F)cc(S(=O)(=O)[O-])cc5F)c5ccc([nH]5)c(-c5c(F)cc(S(=O)(=O)[O-])cc5F)c5nc(c(-c6c(F)cc(S(=O)(=O)[O-])cc6F)c6ccc3[nH]6)C=C5)C=C4)cc2)cc(-c2ccc(S(C)(=O)=O)cc2)n1-c1ccc(F)cc1
REMARK SMILES IDX 15 1 14 2 12 3 13 4 8 6 7 7 5 8 6 9 4 11 3 12 1 13 2 14
REMARK SMILES IDX 100 15 88 16 89 17 101 18 102 19 107 20 103 21 106 22 104 23
REMARK SMILES IDX 105 24 90 25 91 26 99 27 92 28 98 29 93 30 94 31 95 32 96 33
REMARK SMILES IDX 97 34 9 35 10 36 11 37 16 39 17 40 18 41 19 42 20 43 21 45
REMARK SMILES IDX 22 46 23 47 87 48 24 49 86 50 25 51 26 52 27 53 80 54 28 55
REMARK SMILES IDX 85 56 79 57 81 58 29 59 84 60 78 61 77 62 30 64 64 65 43 66
REMARK SMILES IDX 63 67 44 68 47 69 62 70 82 71 45 72 46 73 61 75 83 76 48 77
REMARK SMILES IDX 31 78 32 79 41 80 33 81 34 82 40 83 42 84 35 85 36 86 37 87
REMARK SMILES IDX 38 88 39 89 65 90 66 91 75 92 67 93 68 94 74 95 76 96 69 97
REMARK SMILES IDX 70 98 71 99 72 100 73 101 49 102 50 103 59 104 51 105 52 106
REMARK SMILES IDX 58 107 60 108 53 109 54 110 55 111 56 112 57 113
REMARK H PARENT 14 5 7 10 11 38 19 44 81 63 47 74
REMARK Flexibility Score: inf
ROOT
ATOM      1  C   UNL A   1      49.880  28.136  31.414  1.00  0.00     0.116 C 
ENDROOT
BRANCH   1   2
ATOM      2  N   UNL A   1      50.137  29.093  30.349  1.00  0.00    -0.354 N 
ATOM      3  C   UNL A   1      49.828  29.109  29.028  1.00  0.00     0.242 C 
ATOM      4  O   UNL A   1      49.948  30.192  28.448  1.00  0.00    -0.273 OA
ATOM      5  H   UNL A   1      50.632  29.890  30.647  1.00  0.00     0.163 HD
BRANCH   3   6
ATOM      6  C   UNL A   1      49.278  27.894  28.273  1.00  0.00     0.173 C 
BRANCH   6   7
ATOM      7  N   UNL A   1      48.803  28.258  26.937  1.00  0.00    -0.344 N 
ATOM      8  C   UNL A   1      47.577  28.760  26.594  1.00  0.00     0.225 C 
ATOM      9  O   UNL A   1      47.450  29.253  25.469  1.00  0.00    -0.275 OA
ATOM     10  H   UNL A   1      49.441  28.127  26.199  1.00  0.00     0.164 HD
BRANCH   8  11
ATOM     11  C   UNL A   1      46.409  28.708  27.572  1.00  0.00     0.137 C 
BRANCH  11  12
ATOM     12  C   UNL A   1      45.540  27.500  27.368  1.00  0.00    -0.017 A 
ATOM     13  C   UNL A   1      43.282  28.389  28.269  1.00  0.00     0.065 C 
ATOM     14  C   UNL A   1      44.175  27.388  27.606  1.00  0.00     0.024 A 
ATOM     15  N   UNL A   1      43.767  26.124  27.192  1.00  0.00    -0.314 N 
ATOM     16  C   UNL A   1      45.979  26.243  26.875  1.00  0.00     0.033 A 
ATOM     17  C   UNL A   1      44.879  25.418  26.727  1.00  0.00     0.053 A 
BRANCH  15  18
ATOM     18  C   UNL A   1      42.441  25.621  27.230  1.00  0.00     0.046 A 
ATOM     19  C   UNL A   1      42.075  24.728  28.246  1.00  0.00     0.029 A 
ATOM     20  C   UNL A   1      41.542  25.949  26.206  1.00  0.00     0.029 A 
ATOM     21  C   UNL A   1      40.800  24.168  28.241  1.00  0.00     0.041 A 
ATOM     22  C   UNL A   1      40.271  25.376  26.205  1.00  0.00     0.041 A 
ATOM     23  C   UNL A   1      39.912  24.494  27.219  1.00  0.00     0.123 A 
ATOM     24  F   UNL A   1      38.693  23.941  27.210  1.00  0.00    -0.207 F 
ENDBRANCH  15  18
BRANCH  17  25
ATOM     25  C   UNL A   1      44.838  24.074  26.133  1.00  0.00    -0.001 A 
ATOM     26  C   UNL A   1      45.253  22.944  26.857  1.00  0.00     0.011 A 
ATOM     27  C   UNL A   1      44.409  23.913  24.809  1.00  0.00     0.011 A 
ATOM     28  C   UNL A   1      45.328  21.691  26.243  1.00  0.00     0.021 A 
ATOM     29  C   UNL A   1      44.474  22.663  24.190  1.00  0.00     0.021 A 
ATOM     30  C   UNL A   1      44.965  21.565  24.900  1.00  0.00     0.067 A 
BRANCH  30  31
ATOM     31  S   UNL A   1      45.133  19.986  24.104  1.00  0.00     0.175 S 
ATOM     32  C   UNL A   1      44.132  18.902  25.090  1.00  0.00     0.163 C 
ATOM     33  O   UNL A   1      44.549  20.091  22.798  1.00  0.00    -0.224 OA
ATOM     34  O   UNL A   1      46.522  19.554  24.283  1.00  0.00    -0.224 OA
ENDBRANCH  30  31
ENDBRANCH  17  25
ENDBRANCH  11  12
ENDBRANCH   8  11
ENDBRANCH   6   7
BRANCH   6  35
ATOM     35  C   UNL A   1      50.114  26.603  28.335  1.00  0.00     0.063 C 
BRANCH  35  36
ATOM     36  C   UNL A   1      51.576  26.636  27.929  1.00  0.00     0.158 C 
BRANCH  36  37
ATOM     37  O   UNL A   1      52.459  26.550  29.033  1.00  0.00    -0.396 OA
ATOM     38  H   UNL A   1      52.276  25.737  29.530  1.00  0.00     0.210 HD
ENDBRANCH  36  37
ENDBRANCH  35  36
ENDBRANCH   6  35
ENDBRANCH   3   6
ENDBRANCH   1   2
BRANCH   1  39
ATOM     39  C   UNL A   1      48.846  28.625  32.418  1.00  0.00     0.023 C 
BRANCH  39  40
ATOM     40  C   UNL A   1      47.379  28.247  32.135  1.00  0.00     0.023 C 
BRANCH  40  41
ATOM     41  C   UNL A   1      47.070  26.928  31.396  1.00  0.00     0.116 C 
BRANCH  41  42
ATOM     42  N   UNL A   1      47.021  25.752  32.225  1.00  0.00    -0.352 N 
ATOM     43  C   UNL A   1      45.916  25.249  32.903  1.00  0.00     0.251 C 
ATOM     44  H   UNL A   1      47.861  25.249  32.322  1.00  0.00     0.163 HD
ATOM     45  O   UNL A   1      46.092  24.251  33.597  1.00  0.00    -0.269 OA
BRANCH  43  46
ATOM     46  C   UNL A   1      44.576  25.966  32.900  1.00  0.00     0.039 A 
ATOM     47  C   UNL A   1      44.083  26.425  31.691  1.00  0.00     0.014 A 
ATOM     48  C   UNL A   1      43.865  26.384  34.042  1.00  0.00     0.014 A 
ATOM     49  C   UNL A   1      42.884  27.212  31.632  1.00  0.00     0.010 A 
ATOM     50  C   UNL A   1      42.688  27.270  33.978  1.00  0.00     0.010 A 
ATOM     51  C   UNL A   1      42.138  27.733  32.761  1.00  0.00    -0.014 A 
BRANCH  51  52
ATOM     52  C   UNL A   1      41.265  29.129  32.479  1.00  0.00     0.031 A 
ATOM     53  C   UNL A   1      42.386  30.113  32.383  1.00  0.00     0.074 A 
ATOM     54  C   UNL A   1      39.980  29.716  32.413  1.00  0.00     0.049 A 
ATOM     55  N   UNL A   1      43.235  30.187  33.372  1.00  0.00    -0.248 NA
ATOM     56  C   UNL A   1      42.889  30.656  31.119  1.00  0.00     0.031 C 
ATOM     57  C   UNL A   1      38.671  29.096  32.703  1.00  0.00     0.029 A 
ATOM     58  N   UNL A   1      39.507  31.048  32.069  1.00  0.00    -0.354 N 
ATOM     59  C   UNL A   1      44.228  31.046  32.984  1.00  0.00     0.074 A 
ATOM     60  C   UNL A   1      44.086  31.100  31.530  1.00  0.00     0.031 C 
ATOM     61  C   UNL A   1      37.616  29.917  32.391  1.00  0.00     0.029 A 
ATOM     62  C   UNL A   1      38.058  31.234  31.917  1.00  0.00     0.049 A 
ATOM     63  H   UNL A   1      40.135  31.796  31.945  1.00  0.00     0.167 HD
ATOM     64  C   UNL A   1      44.429  32.081  33.850  1.00  0.00     0.037 A 
ATOM     65  C   UNL A   1      37.275  32.358  31.558  1.00  0.00     0.037 A 
ATOM     66  C   UNL A   1      43.666  33.240  33.464  1.00  0.00     0.049 A 
ATOM     67  C   UNL A   1      38.052  33.510  32.030  1.00  0.00     0.074 A 
ATOM     68  C   UNL A   1      43.438  33.838  32.239  1.00  0.00     0.029 A 
ATOM     69  N   UNL A   1      42.633  33.622  34.295  1.00  0.00    -0.354 N 
ATOM     70  N   UNL A   1      38.159  33.801  33.289  1.00  0.00    -0.248 NA
ATOM     71  C   UNL A   1      38.676  34.449  31.104  1.00  0.00     0.031 C 
ATOM     72  C   UNL A   1      42.049  34.064  32.222  1.00  0.00     0.029 A 
ATOM     73  C   UNL A   1      41.571  34.037  33.527  1.00  0.00     0.049 A 
ATOM     74  H   UNL A   1      42.654  33.602  35.279  1.00  0.00     0.167 HD
ATOM     75  C   UNL A   1      39.269  34.583  33.319  1.00  0.00     0.074 A 
ATOM     76  C   UNL A   1      39.373  35.162  31.990  1.00  0.00     0.031 C 
ATOM     77  C   UNL A   1      40.268  34.152  34.129  1.00  0.00     0.037 A 
BRANCH  64  78
ATOM     78  C   UNL A   1      44.604  31.651  35.285  1.00  0.00     0.058 A 
ATOM     79  C   UNL A   1      45.881  31.698  35.852  1.00  0.00     0.135 A 
ATOM     80  C   UNL A   1      43.558  31.140  36.087  1.00  0.00     0.135 A 
ATOM     81  F   UNL A   1      46.910  32.208  35.154  1.00  0.00    -0.206 F 
ATOM     82  C   UNL A   1      46.117  31.233  37.143  1.00  0.00     0.059 A 
ATOM     83  C   UNL A   1      43.781  30.621  37.356  1.00  0.00     0.059 A 
ATOM     84  F   UNL A   1      42.285  31.172  35.659  1.00  0.00    -0.206 F 
ATOM     85  C   UNL A   1      45.066  30.680  37.880  1.00  0.00     0.060 A 
BRANCH  85  86
ATOM     86  S   UNL A   1      45.408  30.057  39.537  1.00  0.00     0.124 S 
ATOM     87  O   UNL A   1      45.058  28.643  39.417  1.00  0.00    -0.237 OA
ATOM     88  O   UNL A   1      46.833  30.336  39.666  1.00  0.00    -0.237 OA
ATOM     89  O   UNL A   1      44.520  30.837  40.392  1.00  0.00    -0.744 OA
ENDBRANCH  85  86
ENDBRANCH  64  78
BRANCH  65  90
ATOM     90  C   UNL A   1      35.860  32.934  31.068  1.00  0.00     0.058 A 
ATOM     91  C   UNL A   1      34.890  33.477  31.996  1.00  0.00     0.135 A 
ATOM     92  C   UNL A   1      35.634  33.393  29.756  1.00  0.00     0.135 A 
ATOM     93  F   UNL A   1      34.919  33.145  33.295  1.00  0.00    -0.206 F 
ATOM     94  C   UNL A   1      33.900  34.446  31.682  1.00  0.00     0.059 A 
ATOM     95  C   UNL A   1      34.621  34.349  29.411  1.00  0.00     0.059 A 
ATOM     96  F   UNL A   1      36.455  33.005  28.771  1.00  0.00    -0.206 F 
ATOM     97  C   UNL A   1      33.786  34.908  30.384  1.00  0.00     0.060 A 
BRANCH  97  98
ATOM     98  S   UNL A   1      32.655  36.305  30.022  1.00  0.00     0.124 S 
ATOM     99  O   UNL A   1      32.272  36.062  28.635  1.00  0.00    -0.237 OA
ATOM    100  O   UNL A   1      31.594  36.118  31.008  1.00  0.00    -0.237 OA
ATOM    101  O   UNL A   1      33.491  37.483  30.238  1.00  0.00    -0.744 OA
ENDBRANCH  97  98
ENDBRANCH  65  90
BRANCH  77 102
ATOM    102  C   UNL A   1      39.878  33.716  35.528  1.00  0.00     0.058 A 
ATOM    103  C   UNL A   1      39.412  32.441  35.923  1.00  0.00     0.135 A 
ATOM    104  C   UNL A   1      39.874  34.707  36.522  1.00  0.00     0.135 A 
ATOM    105  F   UNL A   1      39.461  31.383  35.099  1.00  0.00    -0.206 F 
ATOM    106  C   UNL A   1      38.878  32.203  37.194  1.00  0.00     0.059 A 
ATOM    107  C   UNL A   1      39.390  34.481  37.810  1.00  0.00     0.059 A 
ATOM    108  F   UNL A   1      40.335  35.935  36.237  1.00  0.00    -0.206 F 
ATOM    109  C   UNL A   1      38.852  33.238  38.125  1.00  0.00     0.060 A 
BRANCH 109 110
ATOM    110  S   UNL A   1      38.093  32.952  39.740  1.00  0.00     0.124 S 
ATOM    111  O   UNL A   1      38.374  34.207  40.431  1.00  0.00    -0.237 OA
ATOM    112  O   UNL A   1      36.693  32.723  39.401  1.00  0.00    -0.237 OA
ATOM    113  O   UNL A   1      38.815  31.792  40.255  1.00  0.00    -0.744 OA
ENDBRANCH 109 110
ENDBRANCH  77 102
ENDBRANCH  51  52
ENDBRANCH  43  46
ENDBRANCH  41  42
ENDBRANCH  40  41
ENDBRANCH  39  40
ENDBRANCH   1  39
TORSDOF 23
ENDMDL
