MODEL 1
REMARK VINA RESULT:     -12.5      0.000      0.000
REMARK SMILES C[C@@H](C(=O)NCCCCNC(=O)c1ccc(-c2c3nc(c(-c4c(F)cc(S(=O)(=O)[O-])cc4F)c4ccc([nH]4)c(-c4c(F)cc(S(=O)(=O)[O-])cc4F)c4nc(c(-c5c(F)cc(S(=O)(=O)[O-])cc5F)c5ccc2[nH]5)C=C4)C=C3)cc1)N1C(=O)/C(=C/c2nc3ccccc3[nH]2)SC1=S
REMARK SMILES IDX 8 1 7 2 6 3 5 4 3 5 4 6 2 8 1 9 79 10 80 11 94 12 81 13
REMARK SMILES IDX 82 14 93 15 95 16 83 17 84 18 85 19 92 20 86 21 91 22 87 24
REMARK SMILES IDX 90 25 88 26 89 27 9 28 10 29 11 30 12 32 13 33 14 34 78 35
REMARK SMILES IDX 15 36 77 37 16 38 17 39 18 40 71 41 19 42 76 43 70 44 72 45
REMARK SMILES IDX 20 46 75 47 69 48 68 49 21 51 55 52 34 53 54 54 35 55 38 56
REMARK SMILES IDX 53 57 73 58 36 59 37 60 52 62 74 63 39 64 22 65 23 66 32 67
REMARK SMILES IDX 24 68 25 69 31 70 33 71 26 72 27 73 28 74 29 75 30 76 56 77
REMARK SMILES IDX 57 78 66 79 58 80 59 81 65 82 67 83 60 84 61 85 62 86 63 87
REMARK SMILES IDX 64 88 40 89 41 90 50 91 42 92 43 93 49 94 51 95 44 96 45 97
REMARK SMILES IDX 46 98 47 99 48 100
REMARK H PARENT 5 7 92 23 10 31 72 50 38 61
REMARK Flexibility Score: inf
ROOT
ATOM      1  C   UNL A   1      33.297  28.433  27.292  1.00  0.00     0.023 C 
ENDROOT
BRANCH   1   2
ATOM      2  C   UNL A   1      32.136  29.339  26.875  1.00  0.00     0.023 C 
BRANCH   2   3
ATOM      3  C   UNL A   1      32.059  29.640  25.380  1.00  0.00     0.116 C 
BRANCH   3   4
ATOM      4  N   UNL A   1      31.143  28.753  24.691  1.00  0.00    -0.354 N 
ATOM      5  C   UNL A   1      31.384  27.559  24.073  1.00  0.00     0.242 C 
ATOM      6  O   UNL A   1      30.415  26.938  23.633  1.00  0.00    -0.273 OA
ATOM      7  H   UNL A   1      30.206  29.058  24.663  1.00  0.00     0.163 HD
BRANCH   5   8
ATOM      8  C   UNL A   1      32.827  27.023  23.964  1.00  0.00     0.178 C 
ATOM      9  C   UNL A   1      33.651  27.706  22.877  1.00  0.00     0.042 C 
BRANCH   8  10
ATOM     10  N   UNL A   1      32.764  25.555  23.827  1.00  0.00    -0.281 N 
ATOM     11  C   UNL A   1      32.911  24.741  24.942  1.00  0.00     0.267 C 
ATOM     12  C   UNL A   1      32.681  24.912  22.608  1.00  0.00     0.149 C 
ATOM     13  O   UNL A   1      32.954  25.096  26.113  1.00  0.00    -0.268 OA
ATOM     14  C   UNL A   1      32.951  23.311  24.541  1.00  0.00     0.084 C 
ATOM     15  S   UNL A   1      32.702  23.180  22.845  1.00  0.00    -0.054 SA
ATOM     16  S   UNL A   1      32.530  25.578  21.084  1.00  0.00    -0.052 S 
ATOM     17  C   UNL A   1      33.112  22.329  25.443  1.00  0.00     0.068 C 
BRANCH  17  18
ATOM     18  C   UNL A   1      33.122  20.965  25.067  1.00  0.00     0.132 A 
ATOM     19  N   UNL A   1      32.153  20.074  25.073  1.00  0.00    -0.229 NA
ATOM     20  N   UNL A   1      34.309  20.379  24.692  1.00  0.00    -0.338 N 
ATOM     21  C   UNL A   1      32.749  18.865  24.857  1.00  0.00     0.089 A 
ATOM     22  C   UNL A   1      34.110  19.020  24.625  1.00  0.00     0.066 A 
ATOM     23  H   UNL A   1      35.152  20.849  24.503  1.00  0.00     0.168 HD
ATOM     24  C   UNL A   1      32.187  17.584  24.882  1.00  0.00     0.030 A 
ATOM     25  C   UNL A   1      34.972  17.941  24.414  1.00  0.00     0.028 A 
ATOM     26  C   UNL A   1      33.029  16.484  24.694  1.00  0.00     0.002 A 
ATOM     27  C   UNL A   1      34.396  16.662  24.465  1.00  0.00     0.002 A 
ENDBRANCH  17  18
ENDBRANCH   8  10
ENDBRANCH   5   8
ENDBRANCH   3   4
ENDBRANCH   2   3
ENDBRANCH   1   2
BRANCH   1  28
ATOM     28  C   UNL A   1      34.664  29.109  27.372  1.00  0.00     0.116 C 
BRANCH  28  29
ATOM     29  N   UNL A   1      34.722  30.162  28.376  1.00  0.00    -0.352 N 
ATOM     30  C   UNL A   1      35.772  30.530  29.189  1.00  0.00     0.251 C 
ATOM     31  H   UNL A   1      33.896  30.684  28.489  1.00  0.00     0.163 HD
ATOM     32  O   UNL A   1      35.608  31.368  30.063  1.00  0.00    -0.269 OA
BRANCH  30  33
ATOM     33  C   UNL A   1      37.086  29.871  29.020  1.00  0.00     0.039 A 
ATOM     34  C   UNL A   1      37.677  29.864  27.753  1.00  0.00     0.014 A 
ATOM     35  C   UNL A   1      37.751  29.310  30.114  1.00  0.00     0.014 A 
ATOM     36  C   UNL A   1      38.980  29.381  27.603  1.00  0.00     0.010 A 
ATOM     37  C   UNL A   1      39.068  28.882  29.972  1.00  0.00     0.010 A 
ATOM     38  C   UNL A   1      39.704  28.936  28.722  1.00  0.00    -0.014 A 
BRANCH  38  39
ATOM     39  C   UNL A   1      41.146  28.592  28.628  1.00  0.00     0.031 A 
ATOM     40  C   UNL A   1      42.189  29.671  28.695  1.00  0.00     0.074 A 
ATOM     41  C   UNL A   1      41.503  27.319  28.358  1.00  0.00     0.049 A 
ATOM     42  N   UNL A   1      43.477  29.585  28.484  1.00  0.00    -0.248 NA
ATOM     43  C   UNL A   1      41.722  31.030  29.014  1.00  0.00     0.031 C 
ATOM     44  C   UNL A   1      40.576  26.192  28.213  1.00  0.00     0.029 A 
ATOM     45  N   UNL A   1      42.736  26.762  28.125  1.00  0.00    -0.354 N 
ATOM     46  C   UNL A   1      43.971  30.876  28.617  1.00  0.00     0.074 A 
ATOM     47  C   UNL A   1      42.841  31.733  28.907  1.00  0.00     0.031 C 
ATOM     48  C   UNL A   1      41.272  25.085  27.907  1.00  0.00     0.029 A 
ATOM     49  C   UNL A   1      42.685  25.427  27.794  1.00  0.00     0.049 A 
ATOM     50  H   UNL A   1      43.577  27.269  28.188  1.00  0.00     0.167 HD
ATOM     51  C   UNL A   1      45.252  31.302  28.517  1.00  0.00     0.037 A 
ATOM     52  C   UNL A   1      43.661  24.581  27.409  1.00  0.00     0.037 A 
ATOM     53  C   UNL A   1      46.376  30.436  28.276  1.00  0.00     0.049 A 
ATOM     54  C   UNL A   1      45.075  25.082  27.313  1.00  0.00     0.074 A 
ATOM     55  C   UNL A   1      47.723  30.760  28.276  1.00  0.00     0.029 A 
ATOM     56  N   UNL A   1      46.289  29.086  27.979  1.00  0.00    -0.354 N 
ATOM     57  N   UNL A   1      45.537  26.288  27.542  1.00  0.00    -0.248 NA
ATOM     58  C   UNL A   1      46.102  24.112  26.902  1.00  0.00     0.031 C 
ATOM     59  C   UNL A   1      48.447  29.613  27.935  1.00  0.00     0.029 A 
ATOM     60  C   UNL A   1      47.555  28.567  27.760  1.00  0.00     0.049 A 
ATOM     61  H   UNL A   1      45.452  28.570  27.932  1.00  0.00     0.167 HD
ATOM     62  C   UNL A   1      46.907  26.218  27.315  1.00  0.00     0.074 A 
ATOM     63  C   UNL A   1      47.204  24.850  26.950  1.00  0.00     0.031 C 
ATOM     64  C   UNL A   1      47.835  27.202  27.400  1.00  0.00     0.037 A 
BRANCH  51  65
ATOM     65  C   UNL A   1      45.525  32.771  28.675  1.00  0.00     0.058 A 
ATOM     66  C   UNL A   1      45.903  33.320  29.908  1.00  0.00     0.135 A 
ATOM     67  C   UNL A   1      45.495  33.621  27.557  1.00  0.00     0.135 A 
ATOM     68  F   UNL A   1      45.935  32.553  31.010  1.00  0.00    -0.206 F 
ATOM     69  C   UNL A   1      46.238  34.664  30.031  1.00  0.00     0.059 A 
ATOM     70  C   UNL A   1      45.845  34.964  27.652  1.00  0.00     0.059 A 
ATOM     71  F   UNL A   1      45.135  33.143  26.355  1.00  0.00    -0.206 F 
ATOM     72  C   UNL A   1      46.211  35.478  28.896  1.00  0.00     0.060 A 
BRANCH  72  73
ATOM     73  S   UNL A   1      46.692  37.210  29.064  1.00  0.00     0.124 S 
ATOM     74  O   UNL A   1      45.399  37.850  29.281  1.00  0.00    -0.237 OA
ATOM     75  O   UNL A   1      47.584  37.176  30.219  1.00  0.00    -0.237 OA
ATOM     76  O   UNL A   1      47.335  37.510  27.788  1.00  0.00    -0.744 OA
ENDBRANCH  72  73
ENDBRANCH  51  65
BRANCH  52  77
ATOM     77  C   UNL A   1      43.334  23.173  27.060  1.00  0.00     0.058 A 
ATOM     78  C   UNL A   1      43.309  22.746  25.725  1.00  0.00     0.135 A 
ATOM     79  C   UNL A   1      43.023  22.231  28.053  1.00  0.00     0.135 A 
ATOM     80  F   UNL A   1      43.593  23.611  24.739  1.00  0.00    -0.206 F 
ATOM     81  C   UNL A   1      42.963  21.443  25.383  1.00  0.00     0.059 A 
ATOM     82  C   UNL A   1      42.697  20.917  27.738  1.00  0.00     0.059 A 
ATOM     83  F   UNL A   1      43.049  22.586  29.348  1.00  0.00    -0.206 F 
ATOM     84  C   UNL A   1      42.655  20.535  26.398  1.00  0.00     0.060 A 
BRANCH  84  85
ATOM     85  S   UNL A   1      42.230  18.839  25.950  1.00  0.00     0.124 S 
ATOM     86  O   UNL A   1      40.789  18.941  25.751  1.00  0.00    -0.237 OA
ATOM     87  O   UNL A   1      43.028  18.626  24.746  1.00  0.00    -0.237 OA
ATOM     88  O   UNL A   1      42.655  18.070  27.117  1.00  0.00    -0.744 OA
ENDBRANCH  84  85
ENDBRANCH  52  77
BRANCH  64  89
ATOM     89  C   UNL A   1      49.262  26.837  27.105  1.00  0.00     0.058 A 
ATOM     90  C   UNL A   1      50.106  26.327  28.103  1.00  0.00     0.135 A 
ATOM     91  C   UNL A   1      49.768  26.929  25.798  1.00  0.00     0.135 A 
ATOM     92  F   UNL A   1      49.673  26.230  29.369  1.00  0.00    -0.206 F 
ATOM     93  C   UNL A   1      51.408  25.930  27.818  1.00  0.00     0.059 A 
ATOM     94  C   UNL A   1      51.058  26.516  25.486  1.00  0.00     0.059 A 
ATOM     95  F   UNL A   1      48.996  27.403  24.807  1.00  0.00    -0.206 F 
ATOM     96  C   UNL A   1      51.873  26.023  26.504  1.00  0.00     0.060 A 
BRANCH  96  97
ATOM     97  S   UNL A   1      53.545  25.451  26.134  1.00  0.00     0.124 S 
ATOM     98  O   UNL A   1      53.962  26.403  25.110  1.00  0.00    -0.237 OA
ATOM     99  O   UNL A   1      54.213  25.577  27.426  1.00  0.00    -0.237 OA
ATOM    100  O   UNL A   1      53.342  24.081  25.673  1.00  0.00    -0.744 OA
ENDBRANCH  96  97
ENDBRANCH  64  89
ENDBRANCH  38  39
ENDBRANCH  30  33
ENDBRANCH  28  29
ENDBRANCH   1  28
TORSDOF 16
ENDMDL
MODEL 2
REMARK VINA RESULT:     -12.5      0.645      1.747
REMARK SMILES C[C@@H](C(=O)NCCCCNC(=O)c1ccc(-c2c3nc(c(-c4c(F)cc(S(=O)(=O)[O-])cc4F)c4ccc([nH]4)c(-c4c(F)cc(S(=O)(=O)[O-])cc4F)c4nc(c(-c5c(F)cc(S(=O)(=O)[O-])cc5F)c5ccc2[nH]5)C=C4)C=C3)cc1)N1C(=O)/C(=C/c2nc3ccccc3[nH]2)SC1=S
REMARK SMILES IDX 8 1 7 2 6 3 5 4 3 5 4 6 2 8 1 9 79 10 80 11 94 12 81 13
REMARK SMILES IDX 82 14 93 15 95 16 83 17 84 18 85 19 92 20 86 21 91 22 87 24
REMARK SMILES IDX 90 25 88 26 89 27 9 28 10 29 11 30 12 32 13 33 14 34 78 35
REMARK SMILES IDX 15 36 77 37 16 38 17 39 18 40 71 41 19 42 76 43 70 44 72 45
REMARK SMILES IDX 20 46 75 47 69 48 68 49 21 51 55 52 34 53 54 54 35 55 38 56
REMARK SMILES IDX 53 57 73 58 36 59 37 60 52 62 74 63 39 64 22 65 23 66 32 67
REMARK SMILES IDX 24 68 25 69 31 70 33 71 26 72 27 73 28 74 29 75 30 76 56 77
REMARK SMILES IDX 57 78 66 79 58 80 59 81 65 82 67 83 60 84 61 85 62 86 63 87
REMARK SMILES IDX 64 88 40 89 41 90 50 91 42 92 43 93 49 94 51 95 44 96 45 97
REMARK SMILES IDX 46 98 47 99 48 100
REMARK H PARENT 5 7 92 23 10 31 72 50 38 61
REMARK Flexibility Score: inf
ROOT
ATOM      1  C   UNL A   1      33.353  28.712  27.276  1.00  0.00     0.023 C 
ENDROOT
BRANCH   1   2
ATOM      2  C   UNL A   1      32.074  29.433  26.842  1.00  0.00     0.023 C 
BRANCH   2   3
ATOM      3  C   UNL A   1      31.978  29.730  25.348  1.00  0.00     0.116 C 
BRANCH   3   4
ATOM      4  N   UNL A   1      31.072  28.826  24.668  1.00  0.00    -0.354 N 
ATOM      5  C   UNL A   1      31.328  27.629  24.062  1.00  0.00     0.242 C 
ATOM      6  O   UNL A   1      30.366  26.991  23.628  1.00  0.00    -0.273 OA
ATOM      7  H   UNL A   1      30.132  29.119  24.636  1.00  0.00     0.163 HD
BRANCH   5   8
ATOM      8  C   UNL A   1      32.777  27.109  23.959  1.00  0.00     0.178 C 
ATOM      9  C   UNL A   1      33.599  27.803  22.878  1.00  0.00     0.042 C 
BRANCH   8  10
ATOM     10  N   UNL A   1      32.731  25.641  23.817  1.00  0.00    -0.281 N 
ATOM     11  C   UNL A   1      32.874  24.825  24.932  1.00  0.00     0.267 C 
ATOM     12  C   UNL A   1      32.667  25.000  22.596  1.00  0.00     0.149 C 
ATOM     13  O   UNL A   1      32.901  25.177  26.104  1.00  0.00    -0.268 OA
ATOM     14  C   UNL A   1      32.933  23.397  24.527  1.00  0.00     0.084 C 
ATOM     15  S   UNL A   1      32.703  23.267  22.828  1.00  0.00    -0.054 SA
ATOM     16  S   UNL A   1      32.525  25.668  21.072  1.00  0.00    -0.052 S 
ATOM     17  C   UNL A   1      33.095  22.414  25.428  1.00  0.00     0.068 C 
BRANCH  17  18
ATOM     18  C   UNL A   1      33.123  21.051  25.049  1.00  0.00     0.132 A 
ATOM     19  N   UNL A   1      32.158  20.155  25.022  1.00  0.00    -0.229 NA
ATOM     20  N   UNL A   1      34.324  20.471  24.711  1.00  0.00    -0.338 N 
ATOM     21  C   UNL A   1      32.766  18.950  24.822  1.00  0.00     0.089 A 
ATOM     22  C   UNL A   1      34.133  19.111  24.634  1.00  0.00     0.066 A 
ATOM     23  H   UNL A   1      35.171  20.946  24.551  1.00  0.00     0.168 HD
ATOM     24  C   UNL A   1      32.208  17.666  24.825  1.00  0.00     0.030 A 
ATOM     25  C   UNL A   1      35.005  18.036  24.448  1.00  0.00     0.028 A 
ATOM     26  C   UNL A   1      33.061  16.570  24.661  1.00  0.00     0.002 A 
ATOM     27  C   UNL A   1      34.434  16.755  24.476  1.00  0.00     0.002 A 
ENDBRANCH  17  18
ENDBRANCH   8  10
ENDBRANCH   5   8
ENDBRANCH   3   4
ENDBRANCH   2   3
ENDBRANCH   1   2
BRANCH   1  28
ATOM     28  C   UNL A   1      34.615  29.570  27.302  1.00  0.00     0.116 C 
BRANCH  28  29
ATOM     29  N   UNL A   1      34.611  30.558  28.372  1.00  0.00    -0.352 N 
ATOM     30  C   UNL A   1      35.598  30.850  29.289  1.00  0.00     0.251 C 
ATOM     31  H   UNL A   1      33.789  31.093  28.450  1.00  0.00     0.163 HD
ATOM     32  O   UNL A   1      35.379  31.637  30.197  1.00  0.00    -0.269 OA
BRANCH  30  33
ATOM     33  C   UNL A   1      36.908  30.170  29.186  1.00  0.00     0.039 A 
ATOM     34  C   UNL A   1      37.550  30.130  27.945  1.00  0.00     0.014 A 
ATOM     35  C   UNL A   1      37.519  29.620  30.316  1.00  0.00     0.014 A 
ATOM     36  C   UNL A   1      38.851  29.626  27.858  1.00  0.00     0.010 A 
ATOM     37  C   UNL A   1      38.835  29.171  30.237  1.00  0.00     0.010 A 
ATOM     38  C   UNL A   1      39.522  29.193  29.013  1.00  0.00    -0.014 A 
BRANCH  38  39
ATOM     39  C   UNL A   1      40.961  28.827  28.984  1.00  0.00     0.031 A 
ATOM     40  C   UNL A   1      42.016  29.882  29.166  1.00  0.00     0.074 A 
ATOM     41  C   UNL A   1      41.313  27.562  28.672  1.00  0.00     0.049 A 
ATOM     42  N   UNL A   1      43.312  29.782  29.025  1.00  0.00    -0.248 NA
ATOM     43  C   UNL A   1      41.553  31.231  29.527  1.00  0.00     0.031 C 
ATOM     44  C   UNL A   1      40.379  26.461  28.417  1.00  0.00     0.029 A 
ATOM     45  N   UNL A   1      42.549  26.995  28.482  1.00  0.00    -0.354 N 
ATOM     46  C   UNL A   1      43.818  31.055  29.252  1.00  0.00     0.074 A 
ATOM     47  C   UNL A   1      42.687  31.918  29.519  1.00  0.00     0.031 C 
ATOM     48  C   UNL A   1      41.074  25.359  28.095  1.00  0.00     0.029 A 
ATOM     49  C   UNL A   1      42.497  25.679  28.081  1.00  0.00     0.049 A 
ATOM     50  H   UNL A   1      43.393  27.483  28.619  1.00  0.00     0.167 HD
ATOM     51  C   UNL A   1      45.109  31.462  29.248  1.00  0.00     0.037 A 
ATOM     52  C   UNL A   1      43.479  24.835  27.711  1.00  0.00     0.037 A 
ATOM     53  C   UNL A   1      46.232  30.588  29.028  1.00  0.00     0.049 A 
ATOM     54  C   UNL A   1      44.905  25.313  27.721  1.00  0.00     0.074 A 
ATOM     55  C   UNL A   1      47.581  30.886  29.122  1.00  0.00     0.029 A 
ATOM     56  N   UNL A   1      46.141  29.256  28.659  1.00  0.00    -0.354 N 
ATOM     57  N   UNL A   1      45.371  26.498  28.037  1.00  0.00    -0.248 NA
ATOM     58  C   UNL A   1      45.938  24.347  27.321  1.00  0.00     0.031 C 
ATOM     59  C   UNL A   1      48.306  29.745  28.765  1.00  0.00     0.029 A 
ATOM     60  C   UNL A   1      47.409  28.726  28.486  1.00  0.00     0.049 A 
ATOM     61  H   UNL A   1      45.300  28.759  28.538  1.00  0.00     0.167 HD
ATOM     62  C   UNL A   1      46.752  26.414  27.887  1.00  0.00     0.074 A 
ATOM     63  C   UNL A   1      47.047  25.060  27.470  1.00  0.00     0.031 C 
ATOM     64  C   UNL A   1      47.688  27.375  28.074  1.00  0.00     0.037 A 
BRANCH  51  65
ATOM     65  C   UNL A   1      45.395  32.915  29.495  1.00  0.00     0.058 A 
ATOM     66  C   UNL A   1      45.393  33.853  28.454  1.00  0.00     0.135 A 
ATOM     67  C   UNL A   1      45.584  33.387  30.806  1.00  0.00     0.135 A 
ATOM     68  F   UNL A   1      45.229  33.453  27.182  1.00  0.00    -0.206 F 
ATOM     69  C   UNL A   1      45.573  35.211  28.699  1.00  0.00     0.059 A 
ATOM     70  C   UNL A   1      45.746  34.742  31.077  1.00  0.00     0.059 A 
ATOM     71  F   UNL A   1      45.599  32.528  31.836  1.00  0.00    -0.206 F 
ATOM     72  C   UNL A   1      45.744  35.646  30.015  1.00  0.00     0.060 A 
BRANCH  72  73
ATOM     73  S   UNL A   1      45.931  37.416  30.321  1.00  0.00     0.124 S 
ATOM     74  O   UNL A   1      47.174  37.447  31.087  1.00  0.00    -0.237 OA
ATOM     75  O   UNL A   1      46.007  37.960  28.969  1.00  0.00    -0.237 OA
ATOM     76  O   UNL A   1      44.726  37.762  31.067  1.00  0.00    -0.744 OA
ENDBRANCH  72  73
ENDBRANCH  51  65
BRANCH  52  77
ATOM     77  C   UNL A   1      43.151  23.452  27.272  1.00  0.00     0.058 A 
ATOM     78  C   UNL A   1      42.903  22.436  28.206  1.00  0.00     0.135 A 
ATOM     79  C   UNL A   1      43.097  23.116  25.910  1.00  0.00     0.135 A 
ATOM     80  F   UNL A   1      42.950  22.708  29.520  1.00  0.00    -0.206 F 
ATOM     81  C   UNL A   1      42.638  21.130  27.808  1.00  0.00     0.059 A 
ATOM     82  C   UNL A   1      42.810  21.823  25.487  1.00  0.00     0.059 A 
ATOM     83  F   UNL A   1      43.311  24.057  24.976  1.00  0.00    -0.206 F 
ATOM     84  C   UNL A   1      42.597  20.832  26.445  1.00  0.00     0.060 A 
BRANCH  84  85
ATOM     85  S   UNL A   1      42.229  19.141  25.933  1.00  0.00     0.124 S 
ATOM     86  O   UNL A   1      40.784  19.202  25.739  1.00  0.00    -0.237 OA
ATOM     87  O   UNL A   1      43.031  19.000  24.721  1.00  0.00    -0.237 OA
ATOM     88  O   UNL A   1      42.681  18.343  27.070  1.00  0.00    -0.744 OA
ENDBRANCH  84  85
ENDBRANCH  52  77
BRANCH  64  89
ATOM     89  C   UNL A   1      49.124  26.998  27.844  1.00  0.00     0.058 A 
ATOM     90  C   UNL A   1      49.716  27.124  26.578  1.00  0.00     0.135 A 
ATOM     91  C   UNL A   1      49.933  26.577  28.911  1.00  0.00     0.135 A 
ATOM     92  F   UNL A   1      48.982  27.512  25.524  1.00  0.00    -0.206 F 
ATOM     93  C   UNL A   1      51.062  26.835  26.376  1.00  0.00     0.059 A 
ATOM     94  C   UNL A   1      51.285  26.306  28.737  1.00  0.00     0.059 A 
ATOM     95  F   UNL A   1      49.414  26.450  30.143  1.00  0.00    -0.206 F 
ATOM     96  C   UNL A   1      51.840  26.432  27.464  1.00  0.00     0.060 A 
BRANCH  96  97
ATOM     97  S   UNL A   1      53.598  26.116  27.202  1.00  0.00     0.124 S 
ATOM     98  O   UNL A   1      54.086  26.014  28.573  1.00  0.00    -0.237 OA
ATOM     99  O   UNL A   1      53.583  24.871  26.440  1.00  0.00    -0.237 OA
ATOM    100  O   UNL A   1      54.048  27.291  26.460  1.00  0.00    -0.744 OA
ENDBRANCH  96  97
ENDBRANCH  64  89
ENDBRANCH  38  39
ENDBRANCH  30  33
ENDBRANCH  28  29
ENDBRANCH   1  28
TORSDOF 16
ENDMDL
MODEL 3
REMARK VINA RESULT:     -12.4      2.588      8.729
REMARK SMILES C[C@@H](C(=O)NCCCCNC(=O)c1ccc(-c2c3nc(c(-c4c(F)cc(S(=O)(=O)[O-])cc4F)c4ccc([nH]4)c(-c4c(F)cc(S(=O)(=O)[O-])cc4F)c4nc(c(-c5c(F)cc(S(=O)(=O)[O-])cc5F)c5ccc2[nH]5)C=C4)C=C3)cc1)N1C(=O)/C(=C/c2nc3ccccc3[nH]2)SC1=S
REMARK SMILES IDX 8 1 7 2 6 3 5 4 3 5 4 6 2 8 1 9 79 10 80 11 94 12 81 13
REMARK SMILES IDX 82 14 93 15 95 16 83 17 84 18 85 19 92 20 86 21 91 22 87 24
REMARK SMILES IDX 90 25 88 26 89 27 9 28 10 29 11 30 12 32 13 33 14 34 78 35
REMARK SMILES IDX 15 36 77 37 16 38 17 39 18 40 71 41 19 42 76 43 70 44 72 45
REMARK SMILES IDX 20 46 75 47 69 48 68 49 21 51 55 52 34 53 54 54 35 55 38 56
REMARK SMILES IDX 53 57 73 58 36 59 37 60 52 62 74 63 39 64 22 65 23 66 32 67
REMARK SMILES IDX 24 68 25 69 31 70 33 71 26 72 27 73 28 74 29 75 30 76 56 77
REMARK SMILES IDX 57 78 66 79 58 80 59 81 65 82 67 83 60 84 61 85 62 86 63 87
REMARK SMILES IDX 64 88 40 89 41 90 50 91 42 92 43 93 49 94 51 95 44 96 45 97
REMARK SMILES IDX 46 98 47 99 48 100
REMARK H PARENT 5 7 92 23 10 31 72 50 38 61
REMARK Flexibility Score: inf
ROOT
ATOM      1  C   UNL A   1      37.936  21.513  24.953  1.00  0.00     0.023 C 
ENDROOT
BRANCH   1   2
ATOM      2  C   UNL A   1      36.608  20.760  25.065  1.00  0.00     0.023 C 
BRANCH   2   3
ATOM      3  C   UNL A   1      35.576  21.410  25.983  1.00  0.00     0.116 C 
BRANCH   3   4
ATOM      4  N   UNL A   1      35.675  22.856  25.979  1.00  0.00    -0.354 N 
ATOM      5  C   UNL A   1      34.992  23.774  25.235  1.00  0.00     0.242 C 
ATOM      6  O   UNL A   1      35.186  24.967  25.479  1.00  0.00    -0.273 OA
ATOM      7  H   UNL A   1      36.335  23.232  26.607  1.00  0.00     0.163 HD
BRANCH   5   8
ATOM      8  C   UNL A   1      34.002  23.306  24.148  1.00  0.00     0.178 C 
ATOM      9  C   UNL A   1      34.671  22.958  22.822  1.00  0.00     0.042 C 
BRANCH   8  10
ATOM     10  N   UNL A   1      32.937  24.320  24.026  1.00  0.00    -0.281 N 
ATOM     11  C   UNL A   1      33.101  25.408  23.179  1.00  0.00     0.267 C 
ATOM     12  C   UNL A   1      31.800  24.321  24.809  1.00  0.00     0.149 C 
ATOM     13  O   UNL A   1      34.002  25.583  22.370  1.00  0.00    -0.268 OA
ATOM     14  C   UNL A   1      31.968  26.358  23.328  1.00  0.00     0.084 C 
ATOM     15  S   UNL A   1      30.814  25.714  24.427  1.00  0.00    -0.054 SA
ATOM     16  S   UNL A   1      31.311  23.197  25.943  1.00  0.00    -0.052 S 
ATOM     17  C   UNL A   1      31.911  27.505  22.629  1.00  0.00     0.068 C 
BRANCH  17  18
ATOM     18  C   UNL A   1      30.820  28.397  22.748  1.00  0.00     0.132 A 
ATOM     19  N   UNL A   1      29.746  28.533  21.997  1.00  0.00    -0.229 NA
ATOM     20  N   UNL A   1      30.839  29.356  23.734  1.00  0.00    -0.338 N 
ATOM     21  C   UNL A   1      29.147  29.691  22.400  1.00  0.00     0.089 A 
ATOM     22  C   UNL A   1      29.817  30.243  23.485  1.00  0.00     0.066 A 
ATOM     23  H   UNL A   1      31.472  29.401  24.485  1.00  0.00     0.168 HD
ATOM     24  C   UNL A   1      28.040  30.351  21.855  1.00  0.00     0.030 A 
ATOM     25  C   UNL A   1      29.440  31.452  24.074  1.00  0.00     0.028 A 
ATOM     26  C   UNL A   1      27.653  31.573  22.412  1.00  0.00     0.002 A 
ATOM     27  C   UNL A   1      28.343  32.111  23.502  1.00  0.00     0.002 A 
ENDBRANCH  17  18
ENDBRANCH   8  10
ENDBRANCH   5   8
ENDBRANCH   3   4
ENDBRANCH   2   3
ENDBRANCH   1   2
BRANCH   1  28
ATOM     28  C   UNL A   1      38.897  21.331  26.125  1.00  0.00     0.116 C 
BRANCH  28  29
ATOM     29  N   UNL A   1      39.672  20.101  26.042  1.00  0.00    -0.352 N 
ATOM     30  C   UNL A   1      41.035  19.925  26.132  1.00  0.00     0.251 C 
ATOM     31  H   UNL A   1      39.147  19.279  25.904  1.00  0.00     0.163 HD
ATOM     32  O   UNL A   1      41.529  18.827  25.924  1.00  0.00    -0.269 OA
BRANCH  30  33
ATOM     33  C   UNL A   1      41.898  21.087  26.443  1.00  0.00     0.039 A 
ATOM     34  C   UNL A   1      42.308  21.919  25.398  1.00  0.00     0.014 A 
ATOM     35  C   UNL A   1      42.256  21.379  27.761  1.00  0.00     0.014 A 
ATOM     36  C   UNL A   1      42.996  23.101  25.687  1.00  0.00     0.010 A 
ATOM     37  C   UNL A   1      42.892  22.584  28.051  1.00  0.00     0.010 A 
ATOM     38  C   UNL A   1      43.245  23.467  27.019  1.00  0.00    -0.014 A 
BRANCH  38  39
ATOM     39  C   UNL A   1      43.806  24.798  27.367  1.00  0.00     0.031 A 
ATOM     40  C   UNL A   1      42.903  25.902  27.841  1.00  0.00     0.074 A 
ATOM     41  C   UNL A   1      45.113  25.043  27.136  1.00  0.00     0.049 A 
ATOM     42  N   UNL A   1      43.183  27.162  28.047  1.00  0.00    -0.248 NA
ATOM     43  C   UNL A   1      41.496  25.550  28.090  1.00  0.00     0.031 C 
ATOM     44  C   UNL A   1      46.079  24.067  26.623  1.00  0.00     0.029 A 
ATOM     45  N   UNL A   1      45.849  26.194  27.271  1.00  0.00    -0.354 N 
ATOM     46  C   UNL A   1      41.987  27.760  28.423  1.00  0.00     0.074 A 
ATOM     47  C   UNL A   1      40.972  26.729  28.396  1.00  0.00     0.031 C 
ATOM     48  C   UNL A   1      47.273  24.663  26.477  1.00  0.00     0.029 A 
ATOM     49  C   UNL A   1      47.152  26.069  26.847  1.00  0.00     0.049 A 
ATOM     50  H   UNL A   1      45.479  27.030  27.636  1.00  0.00     0.167 HD
ATOM     51  C   UNL A   1      41.762  29.050  28.769  1.00  0.00     0.037 A 
ATOM     52  C   UNL A   1      48.131  26.989  26.735  1.00  0.00     0.037 A 
ATOM     53  C   UNL A   1      42.786  30.059  28.839  1.00  0.00     0.049 A 
ATOM     54  C   UNL A   1      47.852  28.413  27.132  1.00  0.00     0.074 A 
ATOM     55  C   UNL A   1      42.675  31.362  29.293  1.00  0.00     0.029 A 
ATOM     56  N   UNL A   1      44.100  29.886  28.435  1.00  0.00    -0.354 N 
ATOM     57  N   UNL A   1      46.737  28.937  27.582  1.00  0.00    -0.248 NA
ATOM     58  C   UNL A   1      48.960  29.372  27.004  1.00  0.00     0.031 C 
ATOM     59  C   UNL A   1      43.912  31.992  29.121  1.00  0.00     0.029 A 
ATOM     60  C   UNL A   1      44.803  31.069  28.596  1.00  0.00     0.049 A 
ATOM     61  H   UNL A   1      44.479  29.047  28.086  1.00  0.00     0.167 HD
ATOM     62  C   UNL A   1      47.013  30.282  27.802  1.00  0.00     0.074 A 
ATOM     63  C   UNL A   1      48.403  30.488  27.454  1.00  0.00     0.031 C 
ATOM     64  C   UNL A   1      46.187  31.259  28.249  1.00  0.00     0.037 A 
BRANCH  51  65
ATOM     65  C   UNL A   1      40.357  29.457  29.110  1.00  0.00     0.058 A 
ATOM     66  C   UNL A   1      39.977  29.756  30.426  1.00  0.00     0.135 A 
ATOM     67  C   UNL A   1      39.405  29.638  28.092  1.00  0.00     0.135 A 
ATOM     68  F   UNL A   1      40.845  29.588  31.436  1.00  0.00    -0.206 F 
ATOM     69  C   UNL A   1      38.699  30.217  30.724  1.00  0.00     0.059 A 
ATOM     70  C   UNL A   1      38.128  30.116  28.365  1.00  0.00     0.059 A 
ATOM     71  F   UNL A   1      39.720  29.362  26.817  1.00  0.00    -0.206 F 
ATOM     72  C   UNL A   1      37.782  30.398  29.687  1.00  0.00     0.060 A 
BRANCH  72  73
ATOM     73  S   UNL A   1      36.142  31.038  30.086  1.00  0.00     0.124 S 
ATOM     74  O   UNL A   1      35.815  30.271  31.284  1.00  0.00    -0.237 OA
ATOM     75  O   UNL A   1      36.404  32.458  30.296  1.00  0.00    -0.237 OA
ATOM     76  O   UNL A   1      35.353  30.718  28.900  1.00  0.00    -0.744 OA
ENDBRANCH  72  73
ENDBRANCH  51  65
BRANCH  52  77
ATOM     77  C   UNL A   1      49.463  26.602  26.201  1.00  0.00     0.058 A 
ATOM     78  C   UNL A   1      50.459  26.088  27.042  1.00  0.00     0.135 A 
ATOM     79  C   UNL A   1      49.771  26.755  24.840  1.00  0.00     0.135 A 
ATOM     80  F   UNL A   1      50.214  25.930  28.352  1.00  0.00    -0.206 F 
ATOM     81  C   UNL A   1      51.723  25.763  26.562  1.00  0.00     0.059 A 
ATOM     82  C   UNL A   1      51.020  26.415  24.330  1.00  0.00     0.059 A 
ATOM     83  F   UNL A   1      48.846  27.227  23.989  1.00  0.00    -0.206 F 
ATOM     84  C   UNL A   1      51.995  25.934  25.202  1.00  0.00     0.060 A 
BRANCH  84  85
ATOM     85  S   UNL A   1      53.630  25.487  24.579  1.00  0.00     0.124 S 
ATOM     86  O   UNL A   1      53.605  26.077  23.245  1.00  0.00    -0.237 OA
ATOM     87  O   UNL A   1      54.517  26.130  25.545  1.00  0.00    -0.237 OA
ATOM     88  O   UNL A   1      53.618  24.028  24.627  1.00  0.00    -0.744 OA
ENDBRANCH  84  85
ENDBRANCH  52  77
BRANCH  64  89
ATOM     89  C   UNL A   1      46.762  32.638  28.400  1.00  0.00     0.058 A 
ATOM     90  C   UNL A   1      47.409  33.033  29.581  1.00  0.00     0.135 A 
ATOM     91  C   UNL A   1      46.730  33.547  27.331  1.00  0.00     0.135 A 
ATOM     92  F   UNL A   1      47.457  32.204  30.635  1.00  0.00    -0.206 F 
ATOM     93  C   UNL A   1      47.996  34.288  29.700  1.00  0.00     0.059 A 
ATOM     94  C   UNL A   1      47.331  34.798  27.419  1.00  0.00     0.059 A 
ATOM     95  F   UNL A   1      46.130  33.213  26.177  1.00  0.00    -0.206 F 
ATOM     96  C   UNL A   1      47.957  35.162  28.611  1.00  0.00     0.060 A 
BRANCH  96  97
ATOM     97  S   UNL A   1      48.773  36.766  28.758  1.00  0.00     0.124 S 
ATOM     98  O   UNL A   1      49.838  36.645  27.766  1.00  0.00    -0.237 OA
ATOM     99  O   UNL A   1      47.699  37.697  28.424  1.00  0.00    -0.237 OA
ATOM    100  O   UNL A   1      49.212  36.798  30.150  1.00  0.00    -0.744 OA
ENDBRANCH  96  97
ENDBRANCH  64  89
ENDBRANCH  38  39
ENDBRANCH  30  33
ENDBRANCH  28  29
ENDBRANCH   1  28
TORSDOF 16
ENDMDL
