MODEL 1
REMARK VINA RESULT:     -13.3      0.000      0.000
REMARK SMILES COc1cc(C)cc2c1[C@@H](C)[C@@H](CC(=O)N[C@@H](Cc1c[nH]c3ccccc13)C(=O)NCCCCNC(=O)c1ccc(-c3c4nc(c(-c5c(F)cc(S(=O)(=O)[O-])cc5F)c5ccc([nH]5)c(-c5c(F)cc(S(=O)(=O)[O-])cc5F)c5nc(c(-c6c(F)cc(S(=O)(=O)[O-])cc6F)c6ccc3[nH]6)C=C5)C=C4)cc1)C(=O)O2
REMARK SMILES IDX 32 1 31 2 30 3 28 4 29 5 17 7 16 8 14 9 15 10 13 12 12 13
REMARK SMILES IDX 3 14 4 15 9 16 5 17 8 18 10 19 6 20 7 21 106 22 11 23 104 24
REMARK SMILES IDX 105 25 2 26 1 27 18 28 19 29 20 30 27 31 21 32 22 33 26 34
REMARK SMILES IDX 23 36 25 37 24 38 33 39 34 40 35 41 36 42 37 44 38 45 39 46
REMARK SMILES IDX 103 47 40 48 102 49 41 50 42 51 43 52 96 53 44 54 101 55
REMARK SMILES IDX 95 56 97 57 45 58 100 59 94 60 93 61 46 63 80 64 59 65 79 66
REMARK SMILES IDX 60 67 63 68 78 69 98 70 61 71 62 72 77 74 99 75 64 76 47 77
REMARK SMILES IDX 48 78 57 79 49 80 50 81 56 82 58 83 51 84 52 85 53 86 54 87
REMARK SMILES IDX 55 88 81 89 82 90 91 91 83 92 84 93 90 94 92 95 85 96 86 97
REMARK SMILES IDX 87 98 88 99 89 100 65 101 66 102 75 103 67 104 68 105 74 106
REMARK SMILES IDX 76 107 69 108 70 109 71 110 72 111 73 112
REMARK H PARENT 30 6 16 11 21 35 35 43 97 62 63 73
REMARK Flexibility Score: inf
ROOT
ATOM      1  C   UNL A   1      37.604  21.850  25.410  1.00  0.00     0.023 C 
ENDROOT
BRANCH   1   2
ATOM      2  C   UNL A   1      36.346  21.112  24.966  1.00  0.00     0.116 C 
BRANCH   2   3
ATOM      3  N   UNL A   1      35.497  20.842  26.099  1.00  0.00    -0.354 N 
ATOM      4  C   UNL A   1      34.433  21.534  26.568  1.00  0.00     0.242 C 
ATOM      5  O   UNL A   1      34.041  21.224  27.702  1.00  0.00    -0.273 OA
ATOM      6  H   UNL A   1      35.726  20.032  26.609  1.00  0.00     0.163 HD
BRANCH   4   7
ATOM      7  C   UNL A   1      33.694  22.656  25.799  1.00  0.00     0.175 C 
BRANCH   7   8
ATOM      8  N   UNL A   1      34.055  24.003  26.223  1.00  0.00    -0.344 N 
ATOM      9  C   UNL A   1      33.956  25.162  25.512  1.00  0.00     0.221 C 
ATOM     10  O   UNL A   1      34.694  26.106  25.790  1.00  0.00    -0.275 OA
ATOM     11  H   UNL A   1      34.415  24.085  27.135  1.00  0.00     0.164 HD
BRANCH   9  12
ATOM     12  C   UNL A   1      32.850  25.305  24.485  1.00  0.00     0.116 C 
BRANCH  12  13
ATOM     13  C   UNL A   1      31.416  24.934  24.929  1.00  0.00     0.116 C 
ATOM     14  C   UNL A   1      30.383  28.464  24.124  1.00  0.00     0.126 A 
ATOM     15  C   UNL A   1      30.862  29.698  24.598  1.00  0.00     0.050 A 
ATOM     16  C   UNL A   1      30.643  27.288  24.830  1.00  0.00     0.041 A 
ATOM     17  C   UNL A   1      31.619  29.781  25.776  1.00  0.00    -0.044 A 
ATOM     18  C   UNL A   1      31.290  27.421  26.072  1.00  0.00     0.138 A 
ATOM     19  C   UNL A   1      30.323  25.875  24.354  1.00  0.00     0.038 C 
ATOM     20  C   UNL A   1      32.169  31.095  26.243  1.00  0.00     0.044 C 
ATOM     21  C   UNL A   1      31.797  28.631  26.538  1.00  0.00     0.051 A 
ATOM     22  O   UNL A   1      31.461  26.322  26.932  1.00  0.00    -0.426 OA
ATOM     23  C   UNL A   1      30.175  25.636  22.849  1.00  0.00     0.014 C 
ATOM     24  C   UNL A   1      31.187  25.070  26.417  1.00  0.00     0.315 C 
ATOM     25  O   UNL A   1      30.774  24.161  27.128  1.00  0.00    -0.251 OA
BRANCH  14  26
ATOM     26  O   UNL A   1      29.569  28.396  23.027  1.00  0.00    -0.496 OA
ATOM     27  C   UNL A   1      29.442  29.631  22.329  1.00  0.00     0.278 C 
ENDBRANCH  14  26
ENDBRANCH  12  13
ENDBRANCH   9  12
ENDBRANCH   7   8
BRANCH   7  28
ATOM     28  C   UNL A   1      33.256  22.579  24.339  1.00  0.00     0.072 C 
BRANCH  28  29
ATOM     29  C   UNL A   1      32.723  21.389  23.582  1.00  0.00    -0.020 A 
ATOM     30  C   UNL A   1      32.048  21.611  22.386  1.00  0.00     0.087 A 
ATOM     31  C   UNL A   1      32.854  19.956  23.695  1.00  0.00     0.003 A 
ATOM     32  N   UNL A   1      31.790  20.422  21.782  1.00  0.00    -0.361 N 
ATOM     33  C   UNL A   1      32.263  19.394  22.554  1.00  0.00     0.046 A 
ATOM     34  C   UNL A   1      33.417  19.044  24.614  1.00  0.00     0.010 A 
ATOM     35  H   UNL A   1      31.330  20.315  20.918  1.00  0.00     0.166 HD
ATOM     36  C   UNL A   1      32.219  18.018  22.296  1.00  0.00     0.026 A 
ATOM     37  C   UNL A   1      33.358  17.660  24.390  1.00  0.00     0.001 A 
ATOM     38  C   UNL A   1      32.771  17.155  23.240  1.00  0.00     0.002 A 
ENDBRANCH  28  29
ENDBRANCH   7  28
ENDBRANCH   4   7
ENDBRANCH   2   3
ENDBRANCH   1   2
BRANCH   1  39
ATOM     39  C   UNL A   1      37.515  23.369  25.286  1.00  0.00     0.023 C 
BRANCH  39  40
ATOM     40  C   UNL A   1      38.356  24.129  26.300  1.00  0.00     0.116 C 
BRANCH  40  41
ATOM     41  N   UNL A   1      39.775  23.794  26.266  1.00  0.00    -0.352 N 
ATOM     42  C   UNL A   1      40.793  24.477  26.894  1.00  0.00     0.251 C 
ATOM     43  H   UNL A   1      40.030  23.000  25.744  1.00  0.00     0.163 HD
ATOM     44  O   UNL A   1      41.967  24.152  26.761  1.00  0.00    -0.269 OA
BRANCH  42  45
ATOM     45  C   UNL A   1      40.411  25.658  27.688  1.00  0.00     0.039 A 
ATOM     46  C   UNL A   1      41.185  26.815  27.596  1.00  0.00     0.014 A 
ATOM     47  C   UNL A   1      39.426  25.522  28.667  1.00  0.00     0.014 A 
ATOM     48  C   UNL A   1      41.092  27.767  28.601  1.00  0.00     0.010 A 
ATOM     49  C   UNL A   1      39.280  26.522  29.627  1.00  0.00     0.010 A 
ATOM     50  C   UNL A   1      40.153  27.623  29.637  1.00  0.00    -0.014 A 
BRANCH  50  51
ATOM     51  C   UNL A   1      40.127  28.618  30.738  1.00  0.00     0.031 A 
ATOM     52  C   UNL A   1      41.125  28.549  31.866  1.00  0.00     0.074 A 
ATOM     53  C   UNL A   1      39.236  29.627  30.681  1.00  0.00     0.049 A 
ATOM     54  N   UNL A   1      41.230  29.320  32.918  1.00  0.00    -0.248 NA
ATOM     55  C   UNL A   1      42.134  27.476  31.812  1.00  0.00     0.031 C 
ATOM     56  C   UNL A   1      38.233  29.807  29.627  1.00  0.00     0.029 A 
ATOM     57  N   UNL A   1      39.043  30.702  31.510  1.00  0.00    -0.354 N 
ATOM     58  C   UNL A   1      42.289  28.813  33.662  1.00  0.00     0.074 A 
ATOM     59  C   UNL A   1      42.791  27.658  32.950  1.00  0.00     0.031 C 
ATOM     60  C   UNL A   1      37.567  30.950  29.846  1.00  0.00     0.029 A 
ATOM     61  C   UNL A   1      38.045  31.547  31.088  1.00  0.00     0.049 A 
ATOM     62  H   UNL A   1      39.569  30.854  32.328  1.00  0.00     0.167 HD
ATOM     63  C   UNL A   1      42.799  29.276  34.829  1.00  0.00     0.037 A 
ATOM     64  C   UNL A   1      37.551  32.667  31.648  1.00  0.00     0.037 A 
ATOM     65  C   UNL A   1      42.323  30.452  35.509  1.00  0.00     0.049 A 
ATOM     66  C   UNL A   1      38.125  33.145  32.950  1.00  0.00     0.074 A 
ATOM     67  C   UNL A   1      42.791  31.013  36.686  1.00  0.00     0.029 A 
ATOM     68  N   UNL A   1      41.282  31.256  35.071  1.00  0.00    -0.354 N 
ATOM     69  N   UNL A   1      39.111  32.637  33.649  1.00  0.00    -0.248 NA
ATOM     70  C   UNL A   1      37.508  34.336  33.549  1.00  0.00     0.031 C 
ATOM     71  C   UNL A   1      42.014  32.139  36.974  1.00  0.00     0.029 A 
ATOM     72  C   UNL A   1      41.084  32.300  35.959  1.00  0.00     0.049 A 
ATOM     73  H   UNL A   1      40.760  31.106  34.250  1.00  0.00     0.167 HD
ATOM     74  C   UNL A   1      39.233  33.446  34.770  1.00  0.00     0.074 A 
ATOM     75  C   UNL A   1      38.239  34.492  34.645  1.00  0.00     0.031 C 
ATOM     76  C   UNL A   1      40.086  33.328  35.817  1.00  0.00     0.037 A 
BRANCH  63  77
ATOM     77  C   UNL A   1      43.935  28.521  35.462  1.00  0.00     0.058 A 
ATOM     78  C   UNL A   1      43.710  27.507  36.405  1.00  0.00     0.135 A 
ATOM     79  C   UNL A   1      45.256  28.741  35.037  1.00  0.00     0.135 A 
ATOM     80  F   UNL A   1      42.469  27.269  36.857  1.00  0.00    -0.206 F 
ATOM     81  C   UNL A   1      44.754  26.733  36.902  1.00  0.00     0.059 A 
ATOM     82  C   UNL A   1      46.313  27.967  35.507  1.00  0.00     0.059 A 
ATOM     83  F   UNL A   1      45.525  29.702  34.139  1.00  0.00    -0.206 F 
ATOM     84  C   UNL A   1      46.051  26.965  36.439  1.00  0.00     0.060 A 
BRANCH  84  85
ATOM     85  S   UNL A   1      47.386  25.914  37.054  1.00  0.00     0.124 S 
ATOM     86  O   UNL A   1      47.232  24.728  36.217  1.00  0.00    -0.237 OA
ATOM     87  O   UNL A   1      48.569  26.727  36.789  1.00  0.00    -0.237 OA
ATOM     88  O   UNL A   1      47.056  25.734  38.464  1.00  0.00    -0.744 OA
ENDBRANCH  84  85
ENDBRANCH  63  77
BRANCH  64  89
ATOM     89  C   UNL A   1      36.434  33.389  30.990  1.00  0.00     0.058 A 
ATOM     90  C   UNL A   1      35.144  33.377  31.538  1.00  0.00     0.135 A 
ATOM     91  C   UNL A   1      36.641  34.125  29.813  1.00  0.00     0.135 A 
ATOM     92  F   UNL A   1      34.898  32.684  32.660  1.00  0.00    -0.206 F 
ATOM     93  C   UNL A   1      34.094  34.061  30.936  1.00  0.00     0.059 A 
ATOM     94  C   UNL A   1      35.613  34.837  29.207  1.00  0.00     0.059 A 
ATOM     95  F   UNL A   1      37.864  34.180  29.261  1.00  0.00    -0.206 F 
ATOM     96  C   UNL A   1      34.340  34.790  29.770  1.00  0.00     0.060 A 
BRANCH  96  97
ATOM     97  S   UNL A   1      32.983  35.715  29.019  1.00  0.00     0.124 S 
ATOM     98  O   UNL A   1      33.702  36.781  28.333  1.00  0.00    -0.237 OA
ATOM     99  O   UNL A   1      32.360  34.710  28.163  1.00  0.00    -0.237 OA
ATOM    100  O   UNL A   1      32.186  36.127  30.170  1.00  0.00    -0.744 OA
ENDBRANCH  96  97
ENDBRANCH  64  89
BRANCH  76 101
ATOM    101  C   UNL A   1      39.983  34.356  36.905  1.00  0.00     0.058 A 
ATOM    102  C   UNL A   1      40.564  35.625  36.763  1.00  0.00     0.135 A 
ATOM    103  C   UNL A   1      39.254  34.089  38.075  1.00  0.00     0.135 A 
ATOM    104  F   UNL A   1      41.278  35.923  35.666  1.00  0.00    -0.206 F 
ATOM    105  C   UNL A   1      40.437  36.593  37.752  1.00  0.00     0.059 A 
ATOM    106  C   UNL A   1      39.097  35.050  39.067  1.00  0.00     0.059 A 
ATOM    107  F   UNL A   1      38.674  32.891  38.251  1.00  0.00    -0.206 F 
ATOM    108  C   UNL A   1      39.699  36.297  38.901  1.00  0.00     0.060 A 
BRANCH 108 109
ATOM    109  S   UNL A   1      39.512  37.576  40.160  1.00  0.00     0.124 S 
ATOM    110  O   UNL A   1      39.125  36.787  41.325  1.00  0.00    -0.237 OA
ATOM    111  O   UNL A   1      40.846  38.166  40.207  1.00  0.00    -0.237 OA
ATOM    112  O   UNL A   1      38.471  38.440  39.613  1.00  0.00    -0.744 OA
ENDBRANCH 108 109
ENDBRANCH  76 101
ENDBRANCH  50  51
ENDBRANCH  42  45
ENDBRANCH  40  41
ENDBRANCH  39  40
ENDBRANCH   1  39
TORSDOF 20
ENDMDL
MODEL 2
REMARK VINA RESULT:     -13.1      0.456      7.672
REMARK SMILES COc1cc(C)cc2c1[C@@H](C)[C@@H](CC(=O)N[C@@H](Cc1c[nH]c3ccccc13)C(=O)NCCCCNC(=O)c1ccc(-c3c4nc(c(-c5c(F)cc(S(=O)(=O)[O-])cc5F)c5ccc([nH]5)c(-c5c(F)cc(S(=O)(=O)[O-])cc5F)c5nc(c(-c6c(F)cc(S(=O)(=O)[O-])cc6F)c6ccc3[nH]6)C=C5)C=C4)cc1)C(=O)O2
REMARK SMILES IDX 32 1 31 2 30 3 28 4 29 5 17 7 16 8 14 9 15 10 13 12 12 13
REMARK SMILES IDX 3 14 4 15 9 16 5 17 8 18 10 19 6 20 7 21 106 22 11 23 104 24
REMARK SMILES IDX 105 25 2 26 1 27 18 28 19 29 20 30 27 31 21 32 22 33 26 34
REMARK SMILES IDX 23 36 25 37 24 38 33 39 34 40 35 41 36 42 37 44 38 45 39 46
REMARK SMILES IDX 103 47 40 48 102 49 41 50 42 51 43 52 96 53 44 54 101 55
REMARK SMILES IDX 95 56 97 57 45 58 100 59 94 60 93 61 46 63 80 64 59 65 79 66
REMARK SMILES IDX 60 67 63 68 78 69 98 70 61 71 62 72 77 74 99 75 64 76 47 77
REMARK SMILES IDX 48 78 57 79 49 80 50 81 56 82 58 83 51 84 52 85 53 86 54 87
REMARK SMILES IDX 55 88 81 89 82 90 91 91 83 92 84 93 90 94 92 95 85 96 86 97
REMARK SMILES IDX 87 98 88 99 89 100 65 101 66 102 75 103 67 104 68 105 74 106
REMARK SMILES IDX 76 107 69 108 70 109 71 110 72 111 73 112
REMARK H PARENT 30 6 16 11 21 35 35 43 97 62 63 73
REMARK Flexibility Score: inf
ROOT
ATOM      1  C   UNL A   1      38.024  21.877  25.462  1.00  0.00     0.023 C 
ENDROOT
BRANCH   1   2
ATOM      2  C   UNL A   1      36.627  21.426  25.048  1.00  0.00     0.116 C 
BRANCH   2   3
ATOM      3  N   UNL A   1      35.826  21.144  26.213  1.00  0.00    -0.354 N 
ATOM      4  C   UNL A   1      34.718  21.768  26.674  1.00  0.00     0.242 C 
ATOM      5  O   UNL A   1      34.376  21.483  27.830  1.00  0.00    -0.273 OA
ATOM      6  H   UNL A   1      36.132  20.382  26.756  1.00  0.00     0.163 HD
BRANCH   4   7
ATOM      7  C   UNL A   1      33.873  22.786  25.870  1.00  0.00     0.175 C 
BRANCH   7   8
ATOM      8  N   UNL A   1      34.032  24.166  26.309  1.00  0.00    -0.344 N 
ATOM      9  C   UNL A   1      33.846  25.305  25.582  1.00  0.00     0.221 C 
ATOM     10  O   UNL A   1      34.438  26.333  25.907  1.00  0.00    -0.275 OA
ATOM     11  H   UNL A   1      34.309  24.292  27.245  1.00  0.00     0.164 HD
BRANCH   9  12
ATOM     12  C   UNL A   1      32.811  25.312  24.473  1.00  0.00     0.116 C 
BRANCH  12  13
ATOM     13  C   UNL A   1      31.354  24.971  24.860  1.00  0.00     0.116 C 
ATOM     14  C   UNL A   1      30.466  28.571  24.199  1.00  0.00     0.126 A 
ATOM     15  C   UNL A   1      30.973  29.763  24.745  1.00  0.00     0.050 A 
ATOM     16  C   UNL A   1      30.665  27.353  24.854  1.00  0.00     0.041 A 
ATOM     17  C   UNL A   1      31.698  29.763  25.947  1.00  0.00    -0.044 A 
ATOM     18  C   UNL A   1      31.280  27.404  26.118  1.00  0.00     0.138 A 
ATOM     19  C   UNL A   1      30.310  25.977  24.302  1.00  0.00     0.038 C 
ATOM     20  C   UNL A   1      32.279  31.032  26.491  1.00  0.00     0.044 C 
ATOM     21  C   UNL A   1      31.814  28.572  26.656  1.00  0.00     0.051 A 
ATOM     22  O   UNL A   1      31.389  26.259  26.928  1.00  0.00    -0.426 OA
ATOM     23  C   UNL A   1      30.197  25.815  22.783  1.00  0.00     0.014 C 
ATOM     24  C   UNL A   1      31.087  25.045  26.346  1.00  0.00     0.315 C 
ATOM     25  O   UNL A   1      30.622  24.118  27.000  1.00  0.00    -0.251 OA
BRANCH  14  26
ATOM     26  O   UNL A   1      29.682  28.584  23.078  1.00  0.00    -0.496 OA
ATOM     27  C   UNL A   1      29.995  29.636  22.172  1.00  0.00     0.278 C 
ENDBRANCH  14  26
ENDBRANCH  12  13
ENDBRANCH   9  12
ENDBRANCH   7   8
BRANCH   7  28
ATOM     28  C   UNL A   1      33.517  22.659  24.391  1.00  0.00     0.072 C 
BRANCH  28  29
ATOM     29  C   UNL A   1      32.904  21.484  23.672  1.00  0.00    -0.020 A 
ATOM     30  C   UNL A   1      32.096  21.729  22.568  1.00  0.00     0.087 A 
ATOM     31  C   UNL A   1      33.052  20.049  23.736  1.00  0.00     0.003 A 
ATOM     32  N   UNL A   1      31.774  20.553  21.969  1.00  0.00    -0.361 N 
ATOM     33  C   UNL A   1      32.336  19.510  22.657  1.00  0.00     0.046 A 
ATOM     34  C   UNL A   1      33.720  19.119  24.563  1.00  0.00     0.010 A 
ATOM     35  H   UNL A   1      31.219  20.462  21.161  1.00  0.00     0.166 HD
ATOM     36  C   UNL A   1      32.267  18.139  22.374  1.00  0.00     0.026 A 
ATOM     37  C   UNL A   1      33.639  17.740  24.315  1.00  0.00     0.001 A 
ATOM     38  C   UNL A   1      32.926  17.259  23.228  1.00  0.00     0.002 A 
ENDBRANCH  28  29
ENDBRANCH   7  28
ENDBRANCH   4   7
ENDBRANCH   2   3
ENDBRANCH   1   2
BRANCH   1  39
ATOM     39  C   UNL A   1      38.103  23.334  25.913  1.00  0.00     0.023 C 
BRANCH  39  40
ATOM     40  C   UNL A   1      39.208  23.617  26.920  1.00  0.00     0.116 C 
BRANCH  40  41
ATOM     41  N   UNL A   1      40.527  23.788  26.322  1.00  0.00    -0.352 N 
ATOM     42  C   UNL A   1      41.364  24.871  26.480  1.00  0.00     0.251 C 
ATOM     43  H   UNL A   1      40.852  23.057  25.749  1.00  0.00     0.163 HD
ATOM     44  O   UNL A   1      42.435  24.951  25.891  1.00  0.00    -0.269 OA
BRANCH  42  45
ATOM     45  C   UNL A   1      40.883  25.961  27.348  1.00  0.00     0.039 A 
ATOM     46  C   UNL A   1      41.485  27.216  27.256  1.00  0.00     0.014 A 
ATOM     47  C   UNL A   1      39.999  25.657  28.384  1.00  0.00     0.014 A 
ATOM     48  C   UNL A   1      41.338  28.111  28.305  1.00  0.00     0.010 A 
ATOM     49  C   UNL A   1      39.788  26.594  29.394  1.00  0.00     0.010 A 
ATOM     50  C   UNL A   1      40.503  27.804  29.394  1.00  0.00    -0.014 A 
BRANCH  50  51
ATOM     51  C   UNL A   1      40.422  28.748  30.537  1.00  0.00     0.031 A 
ATOM     52  C   UNL A   1      39.371  29.828  30.573  1.00  0.00     0.074 A 
ATOM     53  C   UNL A   1      41.264  28.585  31.576  1.00  0.00     0.049 A 
ATOM     54  N   UNL A   1      39.173  30.751  31.479  1.00  0.00    -0.248 NA
ATOM     55  C   UNL A   1      38.421  29.886  29.448  1.00  0.00     0.031 C 
ATOM     56  C   UNL A   1      42.310  27.562  31.660  1.00  0.00     0.029 A 
ATOM     57  N   UNL A   1      41.359  29.255  32.768  1.00  0.00    -0.354 N 
ATOM     58  C   UNL A   1      38.103  31.513  31.025  1.00  0.00     0.074 A 
ATOM     59  C   UNL A   1      37.696  30.955  29.754  1.00  0.00     0.031 C 
ATOM     60  C   UNL A   1      42.906  27.640  32.858  1.00  0.00     0.029 A 
ATOM     61  C   UNL A   1      42.335  28.760  33.599  1.00  0.00     0.049 A 
ATOM     62  H   UNL A   1      40.785  30.018  33.005  1.00  0.00     0.167 HD
ATOM     63  C   UNL A   1      37.510  32.576  31.621  1.00  0.00     0.037 A 
ATOM     64  C   UNL A   1      42.742  29.172  34.813  1.00  0.00     0.037 A 
ATOM     65  C   UNL A   1      37.891  33.098  32.907  1.00  0.00     0.049 A 
ATOM     66  C   UNL A   1      42.078  30.363  35.439  1.00  0.00     0.074 A 
ATOM     67  C   UNL A   1      37.334  34.158  33.604  1.00  0.00     0.029 A 
ATOM     68  N   UNL A   1      38.912  32.594  33.698  1.00  0.00    -0.354 N 
ATOM     69  N   UNL A   1      41.083  31.084  34.982  1.00  0.00    -0.248 NA
ATOM     70  C   UNL A   1      42.602  30.809  36.737  1.00  0.00     0.031 C 
ATOM     71  C   UNL A   1      38.038  34.313  34.802  1.00  0.00     0.029 A 
ATOM     72  C   UNL A   1      39.010  33.329  34.868  1.00  0.00     0.049 A 
ATOM     73  H   UNL A   1      39.483  31.828  33.462  1.00  0.00     0.167 HD
ATOM     74  C   UNL A   1      40.862  32.069  35.935  1.00  0.00     0.074 A 
ATOM     75  C   UNL A   1      41.809  31.837  37.007  1.00  0.00     0.031 C 
ATOM     76  C   UNL A   1      39.962  33.083  35.920  1.00  0.00     0.037 A 
BRANCH  63  77
ATOM     77  C   UNL A   1      36.381  33.261  30.901  1.00  0.00     0.058 A 
ATOM     78  C   UNL A   1      35.054  33.148  31.340  1.00  0.00     0.135 A 
ATOM     79  C   UNL A   1      36.646  34.127  29.828  1.00  0.00     0.135 A 
ATOM     80  F   UNL A   1      34.744  32.320  32.349  1.00  0.00    -0.206 F 
ATOM     81  C   UNL A   1      34.028  33.874  30.742  1.00  0.00     0.059 A 
ATOM     82  C   UNL A   1      35.640  34.877  29.227  1.00  0.00     0.059 A 
ATOM     83  F   UNL A   1      37.900  34.268  29.367  1.00  0.00    -0.206 F 
ATOM     84  C   UNL A   1      34.333  34.743  29.692  1.00  0.00     0.060 A 
BRANCH  84  85
ATOM     85  S   UNL A   1      32.997  35.719  28.966  1.00  0.00     0.124 S 
ATOM     86  O   UNL A   1      32.351  34.734  28.105  1.00  0.00    -0.237 OA
ATOM     87  O   UNL A   1      32.235  36.128  30.143  1.00  0.00    -0.237 OA
ATOM     88  O   UNL A   1      33.699  36.795  28.273  1.00  0.00    -0.744 OA
ENDBRANCH  84  85
ENDBRANCH  63  77
BRANCH  64  89
ATOM     89  C   UNL A   1      43.855  28.466  35.496  1.00  0.00     0.058 A 
ATOM     90  C   UNL A   1      43.603  27.432  36.408  1.00  0.00     0.135 A 
ATOM     91  C   UNL A   1      45.193  28.797  35.232  1.00  0.00     0.135 A 
ATOM     92  F   UNL A   1      42.340  27.083  36.694  1.00  0.00    -0.206 F 
ATOM     93  C   UNL A   1      44.638  26.755  37.043  1.00  0.00     0.059 A 
ATOM     94  C   UNL A   1      46.246  28.120  35.835  1.00  0.00     0.059 A 
ATOM     95  F   UNL A   1      45.484  29.769  34.352  1.00  0.00    -0.206 F 
ATOM     96  C   UNL A   1      45.958  27.108  36.748  1.00  0.00     0.060 A 
BRANCH  96  97
ATOM     97  S   UNL A   1      47.299  26.194  37.540  1.00  0.00     0.124 S 
ATOM     98  O   UNL A   1      47.507  25.103  36.595  1.00  0.00    -0.237 OA
ATOM     99  O   UNL A   1      48.360  27.196  37.602  1.00  0.00    -0.237 OA
ATOM    100  O   UNL A   1      46.729  25.817  38.829  1.00  0.00    -0.744 OA
ENDBRANCH  96  97
ENDBRANCH  64  89
BRANCH  76 101
ATOM    101  C   UNL A   1      39.957  34.012  37.097  1.00  0.00     0.058 A 
ATOM    102  C   UNL A   1      39.189  33.736  38.238  1.00  0.00     0.135 A 
ATOM    103  C   UNL A   1      40.766  35.159  37.107  1.00  0.00     0.135 A 
ATOM    104  F   UNL A   1      38.393  32.656  38.272  1.00  0.00    -0.206 F 
ATOM    105  C   UNL A   1      39.211  34.575  39.346  1.00  0.00     0.059 A 
ATOM    106  C   UNL A   1      40.820  36.001  38.213  1.00  0.00     0.059 A 
ATOM    107  F   UNL A   1      41.524  35.461  36.041  1.00  0.00    -0.206 F 
ATOM    108  C   UNL A   1      40.033  35.705  39.324  1.00  0.00     0.060 A 
BRANCH 108 109
ATOM    109  S   UNL A   1      40.081  36.765  40.784  1.00  0.00     0.124 S 
ATOM    110  O   UNL A   1      41.262  37.579  40.518  1.00  0.00    -0.237 OA
ATOM    111  O   UNL A   1      38.800  37.461  40.707  1.00  0.00    -0.237 OA
ATOM    112  O   UNL A   1      40.206  35.817  41.888  1.00  0.00    -0.744 OA
ENDBRANCH 108 109
ENDBRANCH  76 101
ENDBRANCH  50  51
ENDBRANCH  42  45
ENDBRANCH  40  41
ENDBRANCH  39  40
ENDBRANCH   1  39
TORSDOF 20
ENDMDL
MODEL 3
REMARK VINA RESULT:     -12.9      5.997     10.104
REMARK SMILES COc1cc(C)cc2c1[C@@H](C)[C@@H](CC(=O)N[C@@H](Cc1c[nH]c3ccccc13)C(=O)NCCCCNC(=O)c1ccc(-c3c4nc(c(-c5c(F)cc(S(=O)(=O)[O-])cc5F)c5ccc([nH]5)c(-c5c(F)cc(S(=O)(=O)[O-])cc5F)c5nc(c(-c6c(F)cc(S(=O)(=O)[O-])cc6F)c6ccc3[nH]6)C=C5)C=C4)cc1)C(=O)O2
REMARK SMILES IDX 32 1 31 2 30 3 28 4 29 5 17 7 16 8 14 9 15 10 13 12 12 13
REMARK SMILES IDX 3 14 4 15 9 16 5 17 8 18 10 19 6 20 7 21 106 22 11 23 104 24
REMARK SMILES IDX 105 25 2 26 1 27 18 28 19 29 20 30 27 31 21 32 22 33 26 34
REMARK SMILES IDX 23 36 25 37 24 38 33 39 34 40 35 41 36 42 37 44 38 45 39 46
REMARK SMILES IDX 103 47 40 48 102 49 41 50 42 51 43 52 96 53 44 54 101 55
REMARK SMILES IDX 95 56 97 57 45 58 100 59 94 60 93 61 46 63 80 64 59 65 79 66
REMARK SMILES IDX 60 67 63 68 78 69 98 70 61 71 62 72 77 74 99 75 64 76 47 77
REMARK SMILES IDX 48 78 57 79 49 80 50 81 56 82 58 83 51 84 52 85 53 86 54 87
REMARK SMILES IDX 55 88 81 89 82 90 91 91 83 92 84 93 90 94 92 95 85 96 86 97
REMARK SMILES IDX 87 98 88 99 89 100 65 101 66 102 75 103 67 104 68 105 74 106
REMARK SMILES IDX 76 107 69 108 70 109 71 110 72 111 73 112
REMARK H PARENT 30 6 16 11 21 35 35 43 97 62 63 73
REMARK Flexibility Score: inf
ROOT
ATOM      1  C   UNL A   1      37.990  21.292  25.348  1.00  0.00     0.023 C 
ENDROOT
BRANCH   1   2
ATOM      2  C   UNL A   1      36.820  22.207  25.697  1.00  0.00     0.116 C 
BRANCH   2   3
ATOM      3  N   UNL A   1      35.845  21.495  26.483  1.00  0.00    -0.354 N 
ATOM      4  C   UNL A   1      34.539  21.774  26.705  1.00  0.00     0.242 C 
ATOM      5  O   UNL A   1      33.997  21.141  27.621  1.00  0.00    -0.273 OA
ATOM      6  H   UNL A   1      36.179  20.682  26.928  1.00  0.00     0.163 HD
BRANCH   4   7
ATOM      7  C   UNL A   1      33.704  22.803  25.906  1.00  0.00     0.175 C 
BRANCH   7   8
ATOM      8  N   UNL A   1      33.891  24.182  26.339  1.00  0.00    -0.344 N 
ATOM      9  C   UNL A   1      33.740  25.321  25.604  1.00  0.00     0.221 C 
ATOM     10  O   UNL A   1      34.353  26.337  25.930  1.00  0.00    -0.275 OA
ATOM     11  H   UNL A   1      34.160  24.307  27.278  1.00  0.00     0.164 HD
BRANCH   9  12
ATOM     12  C   UNL A   1      32.718  25.346  24.484  1.00  0.00     0.116 C 
BRANCH  12  13
ATOM     13  C   UNL A   1      31.247  25.048  24.857  1.00  0.00     0.116 C 
ATOM     14  C   UNL A   1      30.479  28.681  24.230  1.00  0.00     0.126 A 
ATOM     15  C   UNL A   1      31.021  29.850  24.792  1.00  0.00     0.050 A 
ATOM     16  C   UNL A   1      30.635  27.450  24.873  1.00  0.00     0.041 A 
ATOM     17  C   UNL A   1      31.737  29.814  25.998  1.00  0.00    -0.044 A 
ATOM     18  C   UNL A   1      31.243  27.468  26.141  1.00  0.00     0.138 A 
ATOM     19  C   UNL A   1      30.240  26.092  24.303  1.00  0.00     0.038 C 
ATOM     20  C   UNL A   1      32.355  31.058  26.561  1.00  0.00     0.044 C 
ATOM     21  C   UNL A   1      31.810  28.613  26.696  1.00  0.00     0.051 A 
ATOM     22  O   UNL A   1      31.309  26.312  26.940  1.00  0.00    -0.426 OA
ATOM     23  C   UNL A   1      30.133  25.951  22.782  1.00  0.00     0.014 C 
ATOM     24  C   UNL A   1      30.973  25.114  26.343  1.00  0.00     0.315 C 
ATOM     25  O   UNL A   1      30.474  24.196  26.984  1.00  0.00    -0.251 OA
BRANCH  14  26
ATOM     26  O   UNL A   1      29.704  28.731  23.104  1.00  0.00    -0.496 OA
ATOM     27  C   UNL A   1      30.165  29.663  22.131  1.00  0.00     0.278 C 
ENDBRANCH  14  26
ENDBRANCH  12  13
ENDBRANCH   9  12
ENDBRANCH   7   8
BRANCH   7  28
ATOM     28  C   UNL A   1      33.332  22.678  24.431  1.00  0.00     0.072 C 
BRANCH  28  29
ATOM     29  C   UNL A   1      32.801  21.472  23.698  1.00  0.00    -0.020 A 
ATOM     30  C   UNL A   1      32.002  21.675  22.578  1.00  0.00     0.087 A 
ATOM     31  C   UNL A   1      33.029  20.048  23.762  1.00  0.00     0.003 A 
ATOM     32  N   UNL A   1      31.760  20.484  21.970  1.00  0.00    -0.361 N 
ATOM     33  C   UNL A   1      32.366  19.473  22.668  1.00  0.00     0.046 A 
ATOM     34  C   UNL A   1      33.731  19.155  24.600  1.00  0.00     0.010 A 
ATOM     35  H   UNL A   1      31.228  20.365  21.150  1.00  0.00     0.166 HD
ATOM     36  C   UNL A   1      32.381  18.102  22.380  1.00  0.00     0.026 A 
ATOM     37  C   UNL A   1      33.734  17.775  24.347  1.00  0.00     0.001 A 
ATOM     38  C   UNL A   1      33.072  17.257  23.245  1.00  0.00     0.002 A 
ENDBRANCH  28  29
ENDBRANCH   7  28
ENDBRANCH   4   7
ENDBRANCH   2   3
ENDBRANCH   1   2
BRANCH   1  39
ATOM     39  C   UNL A   1      39.351  21.819  25.796  1.00  0.00     0.023 C 
BRANCH  39  40
ATOM     40  C   UNL A   1      40.022  20.979  26.872  1.00  0.00     0.116 C 
BRANCH  40  41
ATOM     41  N   UNL A   1      40.669  19.774  26.368  1.00  0.00    -0.352 N 
ATOM     42  C   UNL A   1      42.007  19.623  26.074  1.00  0.00     0.251 C 
ATOM     43  H   UNL A   1      40.094  18.988  26.227  1.00  0.00     0.163 HD
ATOM     44  O   UNL A   1      42.451  18.585  25.600  1.00  0.00    -0.269 OA
BRANCH  42  45
ATOM     45  C   UNL A   1      42.872  20.795  26.299  1.00  0.00     0.039 A 
ATOM     46  C   UNL A   1      43.069  21.251  27.602  1.00  0.00     0.014 A 
ATOM     47  C   UNL A   1      43.291  21.544  25.198  1.00  0.00     0.014 A 
ATOM     48  C   UNL A   1      43.528  22.545  27.799  1.00  0.00     0.010 A 
ATOM     49  C   UNL A   1      43.830  22.813  25.406  1.00  0.00     0.010 A 
ATOM     50  C   UNL A   1      43.896  23.347  26.705  1.00  0.00    -0.014 A 
BRANCH  50  51
ATOM     51  C   UNL A   1      44.313  24.752  26.940  1.00  0.00     0.031 A 
ATOM     52  C   UNL A   1      43.325  25.778  27.434  1.00  0.00     0.074 A 
ATOM     53  C   UNL A   1      45.607  25.084  26.768  1.00  0.00     0.049 A 
ATOM     54  N   UNL A   1      43.512  27.052  27.669  1.00  0.00    -0.248 NA
ATOM     55  C   UNL A   1      41.948  25.322  27.696  1.00  0.00     0.031 C 
ATOM     56  C   UNL A   1      46.657  24.169  26.311  1.00  0.00     0.029 A 
ATOM     57  N   UNL A   1      46.266  26.267  26.978  1.00  0.00    -0.354 N 
ATOM     58  C   UNL A   1      42.281  27.554  28.076  1.00  0.00     0.074 A 
ATOM     59  C   UNL A   1      41.345  26.451  28.045  1.00  0.00     0.031 C 
ATOM     60  C   UNL A   1      47.834  24.811  26.324  1.00  0.00     0.029 A 
ATOM     61  C   UNL A   1      47.614  26.197  26.722  1.00  0.00     0.049 A 
ATOM     62  H   UNL A   1      45.817  27.088  27.284  1.00  0.00     0.167 HD
ATOM     63  C   UNL A   1      41.965  28.818  28.447  1.00  0.00     0.037 A 
ATOM     64  C   UNL A   1      48.566  27.146  26.778  1.00  0.00     0.037 A 
ATOM     65  C   UNL A   1      42.912  29.900  28.518  1.00  0.00     0.049 A 
ATOM     66  C   UNL A   1      48.183  28.541  27.176  1.00  0.00     0.074 A 
ATOM     67  C   UNL A   1      42.691  31.211  28.906  1.00  0.00     0.029 A 
ATOM     68  N   UNL A   1      44.260  29.797  28.209  1.00  0.00    -0.354 N 
ATOM     69  N   UNL A   1      47.008  29.000  27.534  1.00  0.00    -0.248 NA
ATOM     70  C   UNL A   1      49.248  29.552  27.161  1.00  0.00     0.031 C 
ATOM     71  C   UNL A   1      43.899  31.908  28.803  1.00  0.00     0.029 A 
ATOM     72  C   UNL A   1      44.879  31.023  28.385  1.00  0.00     0.049 A 
ATOM     73  H   UNL A   1      44.709  28.974  27.909  1.00  0.00     0.167 HD
ATOM     74  C   UNL A   1      47.192  30.352  27.786  1.00  0.00     0.074 A 
ATOM     75  C   UNL A   1      48.596  30.633  27.566  1.00  0.00     0.031 C 
ATOM     76  C   UNL A   1      46.278  31.282  28.157  1.00  0.00     0.037 A 
BRANCH  63  77
ATOM     77  C   UNL A   1      40.538  29.120  28.811  1.00  0.00     0.058 A 
ATOM     78  C   UNL A   1      40.129  29.238  30.148  1.00  0.00     0.135 A 
ATOM     79  C   UNL A   1      39.595  29.403  27.809  1.00  0.00     0.135 A 
ATOM     80  F   UNL A   1      40.986  28.962  31.143  1.00  0.00    -0.206 F 
ATOM     81  C   UNL A   1      38.836  29.631  30.479  1.00  0.00     0.059 A 
ATOM     82  C   UNL A   1      38.302  29.815  28.117  1.00  0.00     0.059 A 
ATOM     83  F   UNL A   1      39.935  29.301  26.514  1.00  0.00    -0.206 F 
ATOM     84  C   UNL A   1      37.932  29.927  29.456  1.00  0.00     0.060 A 
BRANCH  84  85
ATOM     85  S   UNL A   1      36.275  30.489  29.906  1.00  0.00     0.124 S 
ATOM     86  O   UNL A   1      35.507  30.104  28.726  1.00  0.00    -0.237 OA
ATOM     87  O   UNL A   1      36.004  29.721  31.117  1.00  0.00    -0.237 OA
ATOM     88  O   UNL A   1      36.445  31.925  30.103  1.00  0.00    -0.744 OA
ENDBRANCH  84  85
ENDBRANCH  63  77
BRANCH  64  89
ATOM     89  C   UNL A   1      49.966  26.808  26.418  1.00  0.00     0.058 A 
ATOM     90  C   UNL A   1      50.900  26.455  27.403  1.00  0.00     0.135 A 
ATOM     91  C   UNL A   1      50.390  26.808  25.081  1.00  0.00     0.135 A 
ATOM     92  F   UNL A   1      50.540  26.444  28.695  1.00  0.00    -0.206 F 
ATOM     93  C   UNL A   1      52.210  26.124  27.075  1.00  0.00     0.059 A 
ATOM     94  C   UNL A   1      51.687  26.457  24.726  1.00  0.00     0.059 A 
ATOM     95  F   UNL A   1      49.526  27.122  24.102  1.00  0.00    -0.206 F 
ATOM     96  C   UNL A   1      52.593  26.127  25.731  1.00  0.00     0.060 A 
BRANCH  96  97
ATOM     97  S   UNL A   1      54.282  25.651  25.308  1.00  0.00     0.124 S 
ATOM     98  O   UNL A   1      54.965  25.833  26.583  1.00  0.00    -0.237 OA
ATOM     99  O   UNL A   1      54.111  24.270  24.866  1.00  0.00    -0.237 OA
ATOM    100  O   UNL A   1      54.641  26.597  24.256  1.00  0.00    -0.744 OA
ENDBRANCH  96  97
ENDBRANCH  64  89
BRANCH  76 101
ATOM    101  C   UNL A   1      46.768  32.686  28.351  1.00  0.00     0.058 A 
ATOM    102  C   UNL A   1      46.702  33.629  27.314  1.00  0.00     0.135 A 
ATOM    103  C   UNL A   1      47.257  33.108  29.597  1.00  0.00     0.135 A 
ATOM    104  F   UNL A   1      46.249  33.270  26.102  1.00  0.00    -0.206 F 
ATOM    105  C   UNL A   1      47.118  34.942  27.502  1.00  0.00     0.059 A 
ATOM    106  C   UNL A   1      47.659  34.422  29.813  1.00  0.00     0.059 A 
ATOM    107  F   UNL A   1      47.332  32.243  30.622  1.00  0.00    -0.206 F 
ATOM    108  C   UNL A   1      47.594  35.329  28.757  1.00  0.00     0.060 A 
BRANCH 108 109
ATOM    109  S   UNL A   1      48.097  37.046  28.997  1.00  0.00     0.124 S 
ATOM    110  O   UNL A   1      47.471  37.359  30.277  1.00  0.00    -0.237 OA
ATOM    111  O   UNL A   1      49.553  36.946  29.010  1.00  0.00    -0.237 OA
ATOM    112  O   UNL A   1      47.533  37.730  27.837  1.00  0.00    -0.744 OA
ENDBRANCH 108 109
ENDBRANCH  76 101
ENDBRANCH  50  51
ENDBRANCH  42  45
ENDBRANCH  40  41
ENDBRANCH  39  40
ENDBRANCH   1  39
TORSDOF 20
ENDMDL
