MODEL 1
REMARK VINA RESULT:      -9.9      0.000      0.000
REMARK SMILES COc1cc([C@@H]2CC(=O)Nc3c(C(=O)NCCCCNC(=O)c4ccc(-c5c6nc(c(-c7c(F)cc(S(=O)(=O)[O-])cc7F)c7ccc([nH]7)c(-c7c(F)cc(S(=O)(=O)[O-])cc7F)c7nc(c(-c8c(F)cc(S(=O)(=O)[O-])cc8F)c8ccc5[nH]8)C=C7)C=C6)cc4)cn(-c4ccc(F)cc4)c32)c(OC)c2c1OCO2
REMARK SMILES IDX 18 1 17 2 16 3 15 4 13 5 14 6 12 8 6 9 7 10 98 11 8 12 11 13
REMARK SMILES IDX 90 14 9 15 10 16 89 17 5 19 3 20 4 21 103 22 102 23 104 24
REMARK SMILES IDX 99 25 106 26 105 27 2 28 1 29 100 30 101 31 91 32 92 33
REMARK SMILES IDX 97 34 93 35 96 36 94 37 95 38 19 39 20 40 21 41 22 43 23 44
REMARK SMILES IDX 24 45 88 46 25 47 87 48 26 49 27 50 28 51 81 52 29 53 86 54
REMARK SMILES IDX 80 55 82 56 30 57 85 58 79 59 78 60 31 62 65 63 44 64 64 65
REMARK SMILES IDX 45 66 48 67 63 68 83 69 46 70 47 71 62 73 84 74 49 75 32 76
REMARK SMILES IDX 33 77 42 78 34 79 35 80 41 81 43 82 36 83 37 84 38 85 39 86
REMARK SMILES IDX 40 87 66 88 67 89 76 90 68 91 69 92 75 93 77 94 70 95 71 96
REMARK SMILES IDX 72 97 73 98 74 99 50 100 51 101 60 102 52 103 53 104 59 105
REMARK SMILES IDX 61 106 54 107 55 108 56 109 57 110 58 111
REMARK H PARENT 15 7 10 18 20 42 82 61 48 72
REMARK Flexibility Score: inf
ROOT
ATOM      1  C   UNL A   1      34.403  32.806  31.632  1.00  0.00     0.023 C 
ENDROOT
BRANCH   1   2
ATOM      2  C   UNL A   1      35.629  32.774  32.552  1.00  0.00     0.023 C 
BRANCH   2   3
ATOM      3  C   UNL A   1      36.406  31.449  32.551  1.00  0.00     0.116 C 
BRANCH   3   4
ATOM      4  N   UNL A   1      36.843  31.101  33.882  1.00  0.00    -0.352 N 
ATOM      5  C   UNL A   1      37.833  31.550  34.713  1.00  0.00     0.254 C 
ATOM      6  O   UNL A   1      37.877  30.973  35.806  1.00  0.00    -0.269 OA
ATOM      7  H   UNL A   1      36.308  30.378  34.281  1.00  0.00     0.163 HD
BRANCH   5   8
ATOM      8  C   UNL A   1      38.796  32.625  34.416  1.00  0.00     0.081 A 
ATOM      9  C   UNL A   1      41.059  35.610  34.560  1.00  0.00     0.082 C 
ATOM     10  C   UNL A   1      40.418  36.327  35.753  1.00  0.00     0.115 C 
ATOM     11  C   UNL A   1      40.279  34.367  34.222  1.00  0.00     0.055 A 
ATOM     12  C   UNL A   1      39.850  35.396  36.796  1.00  0.00     0.225 C 
ATOM     13  C   UNL A   1      39.417  33.721  35.092  1.00  0.00     0.076 A 
ATOM     14  N   UNL A   1      40.156  33.778  32.983  1.00  0.00    -0.317 N 
ATOM     15  O   UNL A   1      39.744  35.732  37.976  1.00  0.00    -0.275 OA
ATOM     16  N   UNL A   1      39.297  34.221  36.366  1.00  0.00    -0.324 N 
ATOM     17  C   UNL A   1      39.244  32.761  33.098  1.00  0.00     0.107 A 
ATOM     18  H   UNL A   1      38.776  33.696  37.016  1.00  0.00     0.170 HD
BRANCH   9  19
ATOM     19  C   UNL A   1      42.565  35.428  34.765  1.00  0.00     0.012 A 
ATOM     20  C   UNL A   1      44.303  34.105  35.890  1.00  0.00     0.165 A 
ATOM     21  C   UNL A   1      42.969  34.315  35.553  1.00  0.00     0.059 A 
ATOM     22  C   UNL A   1      45.245  34.948  35.342  1.00  0.00     0.211 A 
ATOM     23  C   UNL A   1      44.883  36.003  34.525  1.00  0.00     0.211 A 
ATOM     24  O   UNL A   1      46.595  34.853  35.505  1.00  0.00    -0.449 OA
ATOM     25  C   UNL A   1      43.554  36.283  34.225  1.00  0.00     0.168 A 
ATOM     26  O   UNL A   1      45.983  36.686  34.091  1.00  0.00    -0.449 OA
ATOM     27  C   UNL A   1      47.054  35.923  34.665  1.00  0.00     0.468 C 
BRANCH  20  28
ATOM     28  O   UNL A   1      44.574  33.057  36.722  1.00  0.00    -0.493 OA
ATOM     29  C   UNL A   1      43.570  32.895  37.724  1.00  0.00     0.278 C 
ENDBRANCH  20  28
BRANCH  25  30
ATOM     30  O   UNL A   1      43.104  37.307  33.448  1.00  0.00    -0.492 OA
ATOM     31  C   UNL A   1      43.202  38.639  33.936  1.00  0.00     0.278 C 
ENDBRANCH  25  30
ENDBRANCH   9  19
BRANCH  14  32
ATOM     32  C   UNL A   1      40.716  34.231  31.764  1.00  0.00     0.046 A 
ATOM     33  C   UNL A   1      39.882  34.643  30.721  1.00  0.00     0.029 A 
ATOM     34  C   UNL A   1      42.103  34.182  31.586  1.00  0.00     0.029 A 
ATOM     35  C   UNL A   1      40.422  34.899  29.461  1.00  0.00     0.041 A 
ATOM     36  C   UNL A   1      42.638  34.442  30.322  1.00  0.00     0.041 A 
ATOM     37  C   UNL A   1      41.791  34.774  29.268  1.00  0.00     0.123 A 
ATOM     38  F   UNL A   1      42.304  34.973  28.046  1.00  0.00    -0.207 F 
ENDBRANCH  14  32
ENDBRANCH   5   8
ENDBRANCH   3   4
ENDBRANCH   2   3
ENDBRANCH   1   2
BRANCH   1  39
ATOM     39  C   UNL A   1      34.689  33.378  30.245  1.00  0.00     0.116 C 
BRANCH  39  40
ATOM     40  N   UNL A   1      34.250  32.492  29.167  1.00  0.00    -0.352 N 
ATOM     41  C   UNL A   1      35.022  31.623  28.418  1.00  0.00     0.251 C 
ATOM     42  H   UNL A   1      33.290  32.517  28.950  1.00  0.00     0.163 HD
ATOM     43  O   UNL A   1      34.670  31.251  27.313  1.00  0.00    -0.269 OA
BRANCH  41  44
ATOM     44  C   UNL A   1      36.285  31.145  29.006  1.00  0.00     0.039 A 
ATOM     45  C   UNL A   1      36.478  29.791  29.293  1.00  0.00     0.014 A 
ATOM     46  C   UNL A   1      37.302  32.080  29.194  1.00  0.00     0.014 A 
ATOM     47  C   UNL A   1      37.744  29.361  29.686  1.00  0.00     0.010 A 
ATOM     48  C   UNL A   1      38.571  31.640  29.481  1.00  0.00     0.010 A 
ATOM     49  C   UNL A   1      38.796  30.288  29.753  1.00  0.00    -0.014 A 
BRANCH  49  50
ATOM     50  C   UNL A   1      40.181  29.832  29.919  1.00  0.00     0.031 A 
ATOM     51  C   UNL A   1      40.602  29.658  31.344  1.00  0.00     0.074 A 
ATOM     52  C   UNL A   1      40.886  29.317  28.884  1.00  0.00     0.049 A 
ATOM     53  N   UNL A   1      41.571  30.234  31.978  1.00  0.00    -0.248 NA
ATOM     54  C   UNL A   1      39.745  28.835  32.220  1.00  0.00     0.031 C 
ATOM     55  C   UNL A   1      40.407  29.137  27.505  1.00  0.00     0.029 A 
ATOM     56  N   UNL A   1      42.103  28.704  28.855  1.00  0.00    -0.354 N 
ATOM     57  C   UNL A   1      41.601  29.646  33.246  1.00  0.00     0.074 A 
ATOM     58  C   UNL A   1      40.340  28.982  33.406  1.00  0.00     0.031 C 
ATOM     59  C   UNL A   1      41.189  28.241  26.867  1.00  0.00     0.029 A 
ATOM     60  C   UNL A   1      42.320  27.926  27.719  1.00  0.00     0.049 A 
ATOM     61  H   UNL A   1      42.770  28.801  29.573  1.00  0.00     0.167 HD
ATOM     62  C   UNL A   1      42.778  29.488  33.918  1.00  0.00     0.037 A 
ATOM     63  C   UNL A   1      43.342  27.064  27.488  1.00  0.00     0.037 A 
ATOM     64  C   UNL A   1      43.806  30.302  33.321  1.00  0.00     0.049 A 
ATOM     65  C   UNL A   1      44.443  27.435  28.405  1.00  0.00     0.074 A 
ATOM     66  C   UNL A   1      44.112  31.643  33.247  1.00  0.00     0.029 A 
ATOM     67  N   UNL A   1      44.513  29.663  32.337  1.00  0.00    -0.354 N 
ATOM     68  N   UNL A   1      45.079  28.572  28.344  1.00  0.00    -0.248 NA
ATOM     69  C   UNL A   1      44.631  26.681  29.639  1.00  0.00     0.031 C 
ATOM     70  C   UNL A   1      44.857  31.809  32.042  1.00  0.00     0.029 A 
ATOM     71  C   UNL A   1      45.020  30.562  31.440  1.00  0.00     0.049 A 
ATOM     72  H   UNL A   1      44.639  28.688  32.283  1.00  0.00     0.167 HD
ATOM     73  C   UNL A   1      45.380  28.870  29.658  1.00  0.00     0.074 A 
ATOM     74  C   UNL A   1      45.250  27.608  30.375  1.00  0.00     0.031 C 
ATOM     75  C   UNL A   1      45.378  30.161  30.096  1.00  0.00     0.037 A 
BRANCH  62  76
ATOM     76  C   UNL A   1      43.163  28.263  34.746  1.00  0.00     0.058 A 
ATOM     77  C   UNL A   1      43.585  28.453  36.083  1.00  0.00     0.135 A 
ATOM     78  C   UNL A   1      43.452  26.989  34.208  1.00  0.00     0.135 A 
ATOM     79  F   UNL A   1      43.351  29.615  36.717  1.00  0.00    -0.206 F 
ATOM     80  C   UNL A   1      44.329  27.500  36.786  1.00  0.00     0.059 A 
ATOM     81  C   UNL A   1      44.151  26.009  34.907  1.00  0.00     0.059 A 
ATOM     82  F   UNL A   1      43.159  26.651  32.949  1.00  0.00    -0.206 F 
ATOM     83  C   UNL A   1      44.627  26.287  36.176  1.00  0.00     0.060 A 
BRANCH  83  84
ATOM     84  S   UNL A   1      45.683  25.098  37.021  1.00  0.00     0.124 S 
ATOM     85  O   UNL A   1      45.079  23.834  36.617  1.00  0.00    -0.237 OA
ATOM     86  O   UNL A   1      46.992  25.395  36.449  1.00  0.00    -0.237 OA
ATOM     87  O   UNL A   1      45.527  25.454  38.429  1.00  0.00    -0.744 OA
ENDBRANCH  83  84
ENDBRANCH  62  76
BRANCH  63  88
ATOM     88  C   UNL A   1      43.353  25.808  26.696  1.00  0.00     0.058 A 
ATOM     89  C   UNL A   1      44.091  25.706  25.503  1.00  0.00     0.135 A 
ATOM     90  C   UNL A   1      42.878  24.596  27.238  1.00  0.00     0.135 A 
ATOM     91  F   UNL A   1      44.587  26.807  24.920  1.00  0.00    -0.206 F 
ATOM     92  C   UNL A   1      44.398  24.472  24.918  1.00  0.00     0.059 A 
ATOM     93  C   UNL A   1      43.163  23.356  26.667  1.00  0.00     0.059 A 
ATOM     94  F   UNL A   1      42.197  24.579  28.394  1.00  0.00    -0.206 F 
ATOM     95  C   UNL A   1      43.951  23.299  25.523  1.00  0.00     0.060 A 
BRANCH  95  96
ATOM     96  S   UNL A   1      44.509  21.701  24.883  1.00  0.00     0.124 S 
ATOM     97  O   UNL A   1      43.415  20.820  25.277  1.00  0.00    -0.237 OA
ATOM     98  O   UNL A   1      44.630  21.967  23.454  1.00  0.00    -0.237 OA
ATOM     99  O   UNL A   1      45.772  21.479  25.583  1.00  0.00    -0.744 OA
ENDBRANCH  95  96
ENDBRANCH  63  88
BRANCH  75 100
ATOM    100  C   UNL A   1      45.607  31.241  29.081  1.00  0.00     0.058 A 
ATOM    101  C   UNL A   1      46.860  31.631  28.583  1.00  0.00     0.135 A 
ATOM    102  C   UNL A   1      44.473  31.846  28.519  1.00  0.00     0.135 A 
ATOM    103  F   UNL A   1      47.987  31.043  29.008  1.00  0.00    -0.206 F 
ATOM    104  C   UNL A   1      46.982  32.606  27.591  1.00  0.00     0.059 A 
ATOM    105  C   UNL A   1      44.567  32.795  27.509  1.00  0.00     0.059 A 
ATOM    106  F   UNL A   1      43.246  31.477  28.922  1.00  0.00    -0.206 F 
ATOM    107  C   UNL A   1      45.827  33.180  27.058  1.00  0.00     0.060 A 
BRANCH 107 108
ATOM    108  S   UNL A   1      45.975  34.389  25.727  1.00  0.00     0.124 S 
ATOM    109  O   UNL A   1      45.536  35.619  26.378  1.00  0.00    -0.237 OA
ATOM    110  O   UNL A   1      47.395  34.321  25.393  1.00  0.00    -0.237 OA
ATOM    111  O   UNL A   1      45.077  33.874  24.696  1.00  0.00    -0.744 OA
ENDBRANCH 107 108
ENDBRANCH  75 100
ENDBRANCH  49  50
ENDBRANCH  41  44
ENDBRANCH  39  40
ENDBRANCH   1  39
TORSDOF 18
ENDMDL
MODEL 2
REMARK VINA RESULT:      -9.8      4.894     12.528
REMARK SMILES COc1cc([C@@H]2CC(=O)Nc3c(C(=O)NCCCCNC(=O)c4ccc(-c5c6nc(c(-c7c(F)cc(S(=O)(=O)[O-])cc7F)c7ccc([nH]7)c(-c7c(F)cc(S(=O)(=O)[O-])cc7F)c7nc(c(-c8c(F)cc(S(=O)(=O)[O-])cc8F)c8ccc5[nH]8)C=C7)C=C6)cc4)cn(-c4ccc(F)cc4)c32)c(OC)c2c1OCO2
REMARK SMILES IDX 18 1 17 2 16 3 15 4 13 5 14 6 12 8 6 9 7 10 98 11 8 12 11 13
REMARK SMILES IDX 90 14 9 15 10 16 89 17 5 19 3 20 4 21 103 22 102 23 104 24
REMARK SMILES IDX 99 25 106 26 105 27 2 28 1 29 100 30 101 31 91 32 92 33
REMARK SMILES IDX 97 34 93 35 96 36 94 37 95 38 19 39 20 40 21 41 22 43 23 44
REMARK SMILES IDX 24 45 88 46 25 47 87 48 26 49 27 50 28 51 81 52 29 53 86 54
REMARK SMILES IDX 80 55 82 56 30 57 85 58 79 59 78 60 31 62 65 63 44 64 64 65
REMARK SMILES IDX 45 66 48 67 63 68 83 69 46 70 47 71 62 73 84 74 49 75 32 76
REMARK SMILES IDX 33 77 42 78 34 79 35 80 41 81 43 82 36 83 37 84 38 85 39 86
REMARK SMILES IDX 40 87 66 88 67 89 76 90 68 91 69 92 75 93 77 94 70 95 71 96
REMARK SMILES IDX 72 97 73 98 74 99 50 100 51 101 60 102 52 103 53 104 59 105
REMARK SMILES IDX 61 106 54 107 55 108 56 109 57 110 58 111
REMARK H PARENT 15 7 10 18 20 42 82 61 48 72
REMARK Flexibility Score: inf
ROOT
ATOM      1  C   UNL A   1      38.682  22.865  26.735  1.00  0.00     0.023 C 
ENDROOT
BRANCH   1   2
ATOM      2  C   UNL A   1      37.635  23.933  26.399  1.00  0.00     0.023 C 
BRANCH   2   3
ATOM      3  C   UNL A   1      36.785  23.640  25.153  1.00  0.00     0.116 C 
BRANCH   3   4
ATOM      4  N   UNL A   1      35.522  23.041  25.514  1.00  0.00    -0.352 N 
ATOM      5  C   UNL A   1      34.223  23.470  25.511  1.00  0.00     0.254 C 
ATOM      6  O   UNL A   1      33.410  22.626  25.907  1.00  0.00    -0.269 OA
ATOM      7  H   UNL A   1      35.618  22.116  25.836  1.00  0.00     0.163 HD
BRANCH   5   8
ATOM      8  C   UNL A   1      33.748  24.797  25.081  1.00  0.00     0.081 A 
ATOM      9  C   UNL A   1      32.570  27.770  23.124  1.00  0.00     0.082 C 
ATOM     10  C   UNL A   1      33.096  27.360  21.745  1.00  0.00     0.115 C 
ATOM     11  C   UNL A   1      32.978  26.753  24.157  1.00  0.00     0.055 A 
ATOM     12  C   UNL A   1      33.074  25.871  21.497  1.00  0.00     0.225 C 
ATOM     13  C   UNL A   1      33.358  25.453  23.872  1.00  0.00     0.076 A 
ATOM     14  N   UNL A   1      33.205  26.981  25.498  1.00  0.00    -0.317 N 
ATOM     15  O   UNL A   1      32.992  25.405  20.360  1.00  0.00    -0.275 OA
ATOM     16  N   UNL A   1      33.318  25.046  22.560  1.00  0.00    -0.324 N 
ATOM     17  C   UNL A   1      33.696  25.819  26.035  1.00  0.00     0.107 A 
ATOM     18  H   UNL A   1      33.475  24.092  22.372  1.00  0.00     0.170 HD
BRANCH   9  19
ATOM     19  C   UNL A   1      31.080  28.118  23.070  1.00  0.00     0.012 A 
ATOM     20  C   UNL A   1      29.430  29.841  22.483  1.00  0.00     0.165 A 
ATOM     21  C   UNL A   1      30.741  29.375  22.496  1.00  0.00     0.059 A 
ATOM     22  C   UNL A   1      28.443  28.997  22.944  1.00  0.00     0.211 A 
ATOM     23  C   UNL A   1      28.740  27.748  23.454  1.00  0.00     0.211 A 
ATOM     24  O   UNL A   1      27.105  29.258  22.945  1.00  0.00    -0.449 OA
ATOM     25  C   UNL A   1      30.047  27.278  23.546  1.00  0.00     0.168 A 
ATOM     26  O   UNL A   1      27.605  27.091  23.833  1.00  0.00    -0.449 OA
ATOM     27  C   UNL A   1      26.580  28.023  23.457  1.00  0.00     0.468 C 
BRANCH  20  28
ATOM     28  O   UNL A   1      29.225  31.096  21.987  1.00  0.00    -0.493 OA
ATOM     29  C   UNL A   1      28.891  32.031  23.014  1.00  0.00     0.278 C 
ENDBRANCH  20  28
BRANCH  25  30
ATOM     30  O   UNL A   1      30.434  26.073  24.048  1.00  0.00    -0.492 OA
ATOM     31  C   UNL A   1      29.950  25.668  25.322  1.00  0.00     0.278 C 
ENDBRANCH  25  30
ENDBRANCH   9  19
BRANCH  14  32
ATOM     32  C   UNL A   1      33.127  28.219  26.178  1.00  0.00     0.046 A 
ATOM     33  C   UNL A   1      31.884  28.808  26.421  1.00  0.00     0.029 A 
ATOM     34  C   UNL A   1      34.308  28.885  26.528  1.00  0.00     0.029 A 
ATOM     35  C   UNL A   1      31.817  30.111  26.911  1.00  0.00     0.041 A 
ATOM     36  C   UNL A   1      34.234  30.190  27.020  1.00  0.00     0.041 A 
ATOM     37  C   UNL A   1      32.992  30.798  27.184  1.00  0.00     0.123 A 
ATOM     38  F   UNL A   1      32.928  32.068  27.609  1.00  0.00    -0.207 F 
ENDBRANCH  14  32
ENDBRANCH   5   8
ENDBRANCH   3   4
ENDBRANCH   2   3
ENDBRANCH   1   2
BRANCH   1  39
ATOM     39  C   UNL A   1      39.036  21.958  25.558  1.00  0.00     0.116 C 
BRANCH  39  40
ATOM     40  N   UNL A   1      39.854  20.813  25.954  1.00  0.00    -0.352 N 
ATOM     41  C   UNL A   1      41.206  20.800  26.248  1.00  0.00     0.251 C 
ATOM     42  H   UNL A   1      39.388  19.948  26.019  1.00  0.00     0.163 HD
ATOM     43  O   UNL A   1      41.865  19.780  26.162  1.00  0.00    -0.269 OA
BRANCH  41  44
ATOM     44  C   UNL A   1      41.826  22.062  26.685  1.00  0.00     0.039 A 
ATOM     45  C   UNL A   1      41.832  23.186  25.855  1.00  0.00     0.014 A 
ATOM     46  C   UNL A   1      42.337  22.113  27.981  1.00  0.00     0.014 A 
ATOM     47  C   UNL A   1      42.274  24.402  26.373  1.00  0.00     0.010 A 
ATOM     48  C   UNL A   1      42.675  23.330  28.520  1.00  0.00     0.010 A 
ATOM     49  C   UNL A   1      42.670  24.474  27.717  1.00  0.00    -0.014 A 
BRANCH  49  50
ATOM     50  C   UNL A   1      42.901  25.775  28.356  1.00  0.00     0.031 A 
ATOM     51  C   UNL A   1      44.122  26.489  27.868  1.00  0.00     0.074 A 
ATOM     52  C   UNL A   1      41.933  26.394  29.072  1.00  0.00     0.049 A 
ATOM     53  N   UNL A   1      45.152  26.885  28.542  1.00  0.00    -0.248 NA
ATOM     54  C   UNL A   1      44.280  26.666  26.411  1.00  0.00     0.031 C 
ATOM     55  C   UNL A   1      40.570  25.897  29.311  1.00  0.00     0.029 A 
ATOM     56  N   UNL A   1      41.887  27.648  29.606  1.00  0.00    -0.354 N 
ATOM     57  C   UNL A   1      45.953  27.588  27.637  1.00  0.00     0.074 A 
ATOM     58  C   UNL A   1      45.489  27.224  26.329  1.00  0.00     0.031 C 
ATOM     59  C   UNL A   1      39.773  26.919  29.686  1.00  0.00     0.029 A 
ATOM     60  C   UNL A   1      40.598  28.095  29.892  1.00  0.00     0.049 A 
ATOM     61  H   UNL A   1      42.691  28.190  29.774  1.00  0.00     0.167 HD
ATOM     62  C   UNL A   1      46.710  28.647  28.047  1.00  0.00     0.037 A 
ATOM     63  C   UNL A   1      40.216  29.345  30.255  1.00  0.00     0.037 A 
ATOM     64  C   UNL A   1      46.823  28.653  29.482  1.00  0.00     0.049 A 
ATOM     65  C   UNL A   1      41.418  30.036  30.775  1.00  0.00     0.074 A 
ATOM     66  C   UNL A   1      47.471  27.911  30.445  1.00  0.00     0.029 A 
ATOM     67  N   UNL A   1      45.839  29.372  30.109  1.00  0.00    -0.354 N 
ATOM     68  N   UNL A   1      42.053  29.664  31.852  1.00  0.00    -0.248 NA
ATOM     69  C   UNL A   1      42.146  30.955  29.907  1.00  0.00     0.031 C 
ATOM     70  C   UNL A   1      46.694  28.046  31.633  1.00  0.00     0.029 A 
ATOM     71  C   UNL A   1      45.621  28.899  31.373  1.00  0.00     0.049 A 
ATOM     72  H   UNL A   1      45.355  30.126  29.704  1.00  0.00     0.167 HD
ATOM     73  C   UNL A   1      43.378  29.944  31.584  1.00  0.00     0.074 A 
ATOM     74  C   UNL A   1      43.354  30.889  30.475  1.00  0.00     0.031 C 
ATOM     75  C   UNL A   1      44.368  29.135  32.058  1.00  0.00     0.037 A 
BRANCH  62  76
ATOM     76  C   UNL A   1      46.912  29.942  27.261  1.00  0.00     0.058 A 
ATOM     77  C   UNL A   1      48.204  30.519  27.223  1.00  0.00     0.135 A 
ATOM     78  C   UNL A   1      45.869  30.797  26.841  1.00  0.00     0.135 A 
ATOM     79  F   UNL A   1      49.284  29.803  27.579  1.00  0.00    -0.206 F 
ATOM     80  C   UNL A   1      48.425  31.862  26.903  1.00  0.00     0.059 A 
ATOM     81  C   UNL A   1      46.073  32.124  26.473  1.00  0.00     0.059 A 
ATOM     82  F   UNL A   1      44.584  30.429  26.849  1.00  0.00    -0.206 F 
ATOM     83  C   UNL A   1      47.345  32.663  26.552  1.00  0.00     0.060 A 
BRANCH  83  84
ATOM     84  S   UNL A   1      47.597  34.421  26.253  1.00  0.00     0.124 S 
ATOM     85  O   UNL A   1      49.019  34.461  25.934  1.00  0.00    -0.237 OA
ATOM     86  O   UNL A   1      46.684  34.673  25.142  1.00  0.00    -0.237 OA
ATOM     87  O   UNL A   1      47.214  35.034  27.521  1.00  0.00    -0.744 OA
ENDBRANCH  83  84
ENDBRANCH  62  76
BRANCH  63  88
ATOM     88  C   UNL A   1      38.944  30.060  29.976  1.00  0.00     0.058 A 
ATOM     89  C   UNL A   1      38.276  30.777  30.985  1.00  0.00     0.135 A 
ATOM     90  C   UNL A   1      38.510  30.295  28.656  1.00  0.00     0.135 A 
ATOM     91  F   UNL A   1      38.627  30.620  32.270  1.00  0.00    -0.206 F 
ATOM     92  C   UNL A   1      37.283  31.720  30.698  1.00  0.00     0.059 A 
ATOM     93  C   UNL A   1      37.516  31.224  28.347  1.00  0.00     0.059 A 
ATOM     94  F   UNL A   1      39.107  29.692  27.616  1.00  0.00    -0.206 F 
ATOM     95  C   UNL A   1      36.929  31.957  29.371  1.00  0.00     0.060 A 
BRANCH  95  96
ATOM     96  S   UNL A   1      35.792  33.310  28.983  1.00  0.00     0.124 S 
ATOM     97  O   UNL A   1      35.700  33.219  27.530  1.00  0.00    -0.237 OA
ATOM     98  O   UNL A   1      34.595  32.928  29.723  1.00  0.00    -0.237 OA
ATOM     99  O   UNL A   1      36.487  34.490  29.491  1.00  0.00    -0.744 OA
ENDBRANCH  95  96
ENDBRANCH  63  88
BRANCH  75 100
ATOM    100  C   UNL A   1      44.076  28.321  33.283  1.00  0.00     0.058 A 
ATOM    101  C   UNL A   1      43.686  26.972  33.285  1.00  0.00     0.135 A 
ATOM    102  C   UNL A   1      44.300  28.929  34.527  1.00  0.00     0.135 A 
ATOM    103  F   UNL A   1      43.532  26.296  32.138  1.00  0.00    -0.206 F 
ATOM    104  C   UNL A   1      43.493  26.268  34.475  1.00  0.00     0.059 A 
ATOM    105  C   UNL A   1      44.146  28.241  35.723  1.00  0.00     0.059 A 
ATOM    106  F   UNL A   1      44.721  30.203  34.586  1.00  0.00    -0.206 F 
ATOM    107  C   UNL A   1      43.729  26.912  35.691  1.00  0.00     0.060 A 
BRANCH 107 108
ATOM    108  S   UNL A   1      43.549  25.987  37.229  1.00  0.00     0.124 S 
ATOM    109  O   UNL A   1      42.295  26.511  37.758  1.00  0.00    -0.237 OA
ATOM    110  O   UNL A   1      43.512  24.603  36.764  1.00  0.00    -0.237 OA
ATOM    111  O   UNL A   1      44.746  26.347  37.986  1.00  0.00    -0.744 OA
ENDBRANCH 107 108
ENDBRANCH  75 100
ENDBRANCH  49  50
ENDBRANCH  41  44
ENDBRANCH  39  40
ENDBRANCH   1  39
TORSDOF 18
ENDMDL
MODEL 3
REMARK VINA RESULT:      -9.3      1.024      1.488
REMARK SMILES COc1cc([C@@H]2CC(=O)Nc3c(C(=O)NCCCCNC(=O)c4ccc(-c5c6nc(c(-c7c(F)cc(S(=O)(=O)[O-])cc7F)c7ccc([nH]7)c(-c7c(F)cc(S(=O)(=O)[O-])cc7F)c7nc(c(-c8c(F)cc(S(=O)(=O)[O-])cc8F)c8ccc5[nH]8)C=C7)C=C6)cc4)cn(-c4ccc(F)cc4)c32)c(OC)c2c1OCO2
REMARK SMILES IDX 18 1 17 2 16 3 15 4 13 5 14 6 12 8 6 9 7 10 98 11 8 12 11 13
REMARK SMILES IDX 90 14 9 15 10 16 89 17 5 19 3 20 4 21 103 22 102 23 104 24
REMARK SMILES IDX 99 25 106 26 105 27 2 28 1 29 100 30 101 31 91 32 92 33
REMARK SMILES IDX 97 34 93 35 96 36 94 37 95 38 19 39 20 40 21 41 22 43 23 44
REMARK SMILES IDX 24 45 88 46 25 47 87 48 26 49 27 50 28 51 81 52 29 53 86 54
REMARK SMILES IDX 80 55 82 56 30 57 85 58 79 59 78 60 31 62 65 63 44 64 64 65
REMARK SMILES IDX 45 66 48 67 63 68 83 69 46 70 47 71 62 73 84 74 49 75 32 76
REMARK SMILES IDX 33 77 42 78 34 79 35 80 41 81 43 82 36 83 37 84 38 85 39 86
REMARK SMILES IDX 40 87 66 88 67 89 76 90 68 91 69 92 75 93 77 94 70 95 71 96
REMARK SMILES IDX 72 97 73 98 74 99 50 100 51 101 60 102 52 103 53 104 59 105
REMARK SMILES IDX 61 106 54 107 55 108 56 109 57 110 58 111
REMARK H PARENT 15 7 10 18 20 42 82 61 48 72
REMARK Flexibility Score: inf
ROOT
ATOM      1  C   UNL A   1      35.355  31.855  32.104  1.00  0.00     0.023 C 
ENDROOT
BRANCH   1   2
ATOM      2  C   UNL A   1      36.647  31.770  32.924  1.00  0.00     0.023 C 
BRANCH   2   3
ATOM      3  C   UNL A   1      37.261  30.364  33.024  1.00  0.00     0.116 C 
BRANCH   3   4
ATOM      4  N   UNL A   1      37.772  30.114  34.351  1.00  0.00    -0.352 N 
ATOM      5  C   UNL A   1      38.699  30.724  35.151  1.00  0.00     0.254 C 
ATOM      6  O   UNL A   1      38.852  30.182  36.253  1.00  0.00    -0.269 OA
ATOM      7  H   UNL A   1      37.361  29.326  34.775  1.00  0.00     0.163 HD
BRANCH   5   8
ATOM      8  C   UNL A   1      39.482  31.925  34.813  1.00  0.00     0.081 A 
ATOM      9  C   UNL A   1      41.106  35.304  34.771  1.00  0.00     0.082 C 
ATOM     10  C   UNL A   1      40.165  36.024  35.742  1.00  0.00     0.115 C 
ATOM     11  C   UNL A   1      40.631  33.894  34.537  1.00  0.00     0.055 A 
ATOM     12  C   UNL A   1      39.620  35.140  36.838  1.00  0.00     0.225 C 
ATOM     13  C   UNL A   1      39.776  33.204  35.381  1.00  0.00     0.076 A 
ATOM     14  N   UNL A   1      40.815  33.136  33.402  1.00  0.00    -0.317 N 
ATOM     15  O   UNL A   1      39.270  35.598  37.926  1.00  0.00    -0.275 OA
ATOM     16  N   UNL A   1      39.367  33.831  36.533  1.00  0.00    -0.324 N 
ATOM     17  C   UNL A   1      40.099  31.978  33.559  1.00  0.00     0.107 A 
ATOM     18  H   UNL A   1      38.856  33.299  37.186  1.00  0.00     0.170 HD
BRANCH   9  19
ATOM     19  C   UNL A   1      42.568  35.463  35.194  1.00  0.00     0.012 A 
ATOM     20  C   UNL A   1      44.287  34.779  36.811  1.00  0.00     0.165 A 
ATOM     21  C   UNL A   1      43.009  34.650  36.275  1.00  0.00     0.059 A 
ATOM     22  C   UNL A   1      45.161  35.644  36.189  1.00  0.00     0.211 A 
ATOM     23  C   UNL A   1      44.775  36.403  35.101  1.00  0.00     0.211 A 
ATOM     24  O   UNL A   1      46.465  35.847  36.532  1.00  0.00    -0.449 OA
ATOM     25  C   UNL A   1      43.484  36.351  34.584  1.00  0.00     0.168 A 
ATOM     26  O   UNL A   1      45.809  37.171  34.648  1.00  0.00    -0.449 OA
ATOM     27  C   UNL A   1      46.880  36.773  35.516  1.00  0.00     0.468 C 
BRANCH  20  28
ATOM     28  O   UNL A   1      44.581  34.012  37.901  1.00  0.00    -0.493 OA
ATOM     29  C   UNL A   1      44.928  32.675  37.539  1.00  0.00     0.278 C 
ENDBRANCH  20  28
BRANCH  25  30
ATOM     30  O   UNL A   1      43.011  37.073  33.530  1.00  0.00    -0.492 OA
ATOM     31  C   UNL A   1      43.483  36.778  32.222  1.00  0.00     0.278 C 
ENDBRANCH  25  30
ENDBRANCH   9  19
BRANCH  14  32
ATOM     32  C   UNL A   1      41.466  33.531  32.209  1.00  0.00     0.046 A 
ATOM     33  C   UNL A   1      40.777  34.276  31.248  1.00  0.00     0.029 A 
ATOM     34  C   UNL A   1      42.774  33.098  31.965  1.00  0.00     0.029 A 
ATOM     35  C   UNL A   1      41.351  34.495  29.997  1.00  0.00     0.041 A 
ATOM     36  C   UNL A   1      43.344  33.321  30.710  1.00  0.00     0.041 A 
ATOM     37  C   UNL A   1      42.619  33.996  29.731  1.00  0.00     0.123 A 
ATOM     38  F   UNL A   1      43.150  34.163  28.512  1.00  0.00    -0.207 F 
ENDBRANCH  14  32
ENDBRANCH   5   8
ENDBRANCH   3   4
ENDBRANCH   2   3
ENDBRANCH   1   2
BRANCH   1  39
ATOM     39  C   UNL A   1      35.414  32.871  30.965  1.00  0.00     0.116 C 
BRANCH  39  40
ATOM     40  N   UNL A   1      35.058  32.290  29.671  1.00  0.00    -0.352 N 
ATOM     41  C   UNL A   1      35.887  31.625  28.785  1.00  0.00     0.251 C 
ATOM     42  H   UNL A   1      34.117  32.383  29.398  1.00  0.00     0.163 HD
ATOM     43  O   UNL A   1      35.619  31.548  27.600  1.00  0.00    -0.269 OA
BRANCH  41  44
ATOM     44  C   UNL A   1      37.105  30.997  29.324  1.00  0.00     0.039 A 
ATOM     45  C   UNL A   1      37.206  29.608  29.444  1.00  0.00     0.014 A 
ATOM     46  C   UNL A   1      38.176  31.833  29.637  1.00  0.00     0.014 A 
ATOM     47  C   UNL A   1      38.434  29.052  29.794  1.00  0.00     0.010 A 
ATOM     48  C   UNL A   1      39.409  31.279  29.882  1.00  0.00     0.010 A 
ATOM     49  C   UNL A   1      39.542  29.891  29.988  1.00  0.00    -0.014 A 
BRANCH  49  50
ATOM     50  C   UNL A   1      40.891  29.328  30.112  1.00  0.00     0.031 A 
ATOM     51  C   UNL A   1      41.315  29.058  31.521  1.00  0.00     0.074 A 
ATOM     52  C   UNL A   1      41.544  28.813  29.044  1.00  0.00     0.049 A 
ATOM     53  N   UNL A   1      42.331  29.531  32.166  1.00  0.00    -0.248 NA
ATOM     54  C   UNL A   1      40.410  28.258  32.370  1.00  0.00     0.031 C 
ATOM     55  C   UNL A   1      41.038  28.734  27.665  1.00  0.00     0.029 A 
ATOM     56  N   UNL A   1      42.713  28.115  28.968  1.00  0.00    -0.354 N 
ATOM     57  C   UNL A   1      42.331  28.883  33.405  1.00  0.00     0.074 A 
ATOM     58  C   UNL A   1      41.027  28.305  33.552  1.00  0.00     0.031 C 
ATOM     59  C   UNL A   1      41.745  27.815  26.974  1.00  0.00     0.029 A 
ATOM     60  C   UNL A   1      42.859  27.379  27.794  1.00  0.00     0.049 A 
ATOM     61  H   UNL A   1      43.393  28.129  29.680  1.00  0.00     0.167 HD
ATOM     62  C   UNL A   1      43.502  28.608  34.051  1.00  0.00     0.037 A 
ATOM     63  C   UNL A   1      43.812  26.457  27.508  1.00  0.00     0.037 A 
ATOM     64  C   UNL A   1      44.579  29.372  33.477  1.00  0.00     0.049 A 
ATOM     65  C   UNL A   1      44.948  26.703  28.424  1.00  0.00     0.074 A 
ATOM     66  C   UNL A   1      44.982  30.689  33.461  1.00  0.00     0.029 A 
ATOM     67  N   UNL A   1      45.226  28.731  32.454  1.00  0.00    -0.354 N 
ATOM     68  N   UNL A   1      45.665  27.792  28.407  1.00  0.00    -0.248 NA
ATOM     69  C   UNL A   1      45.094  25.879  29.620  1.00  0.00     0.031 C 
ATOM     70  C   UNL A   1      45.723  30.858  32.254  1.00  0.00     0.029 A 
ATOM     71  C   UNL A   1      45.787  29.632  31.592  1.00  0.00     0.049 A 
ATOM     72  H   UNL A   1      45.280  27.753  32.353  1.00  0.00     0.167 HD
ATOM     73  C   UNL A   1      46.002  28.004  29.729  1.00  0.00     0.074 A 
ATOM     74  C   UNL A   1      45.788  26.723  30.389  1.00  0.00     0.031 C 
ATOM     75  C   UNL A   1      46.100  29.270  30.226  1.00  0.00     0.037 A 
BRANCH  62  76
ATOM     76  C   UNL A   1      43.805  27.320  34.815  1.00  0.00     0.058 A 
ATOM     77  C   UNL A   1      44.212  27.414  36.168  1.00  0.00     0.135 A 
ATOM     78  C   UNL A   1      44.035  26.063  34.212  1.00  0.00     0.135 A 
ATOM     79  F   UNL A   1      44.030  28.550  36.861  1.00  0.00    -0.206 F 
ATOM     80  C   UNL A   1      44.891  26.385  36.827  1.00  0.00     0.059 A 
ATOM     81  C   UNL A   1      44.667  25.010  34.867  1.00  0.00     0.059 A 
ATOM     82  F   UNL A   1      43.747  25.811  32.932  1.00  0.00    -0.206 F 
ATOM     83  C   UNL A   1      45.134  25.192  36.156  1.00  0.00     0.060 A 
BRANCH  83  84
ATOM     84  S   UNL A   1      46.110  23.903  36.950  1.00  0.00     0.124 S 
ATOM     85  O   UNL A   1      47.433  24.154  36.390  1.00  0.00    -0.237 OA
ATOM     86  O   UNL A   1      45.940  24.222  38.364  1.00  0.00    -0.237 OA
ATOM     87  O   UNL A   1      45.459  22.673  36.509  1.00  0.00    -0.744 OA
ENDBRANCH  83  84
ENDBRANCH  62  76
BRANCH  63  88
ATOM     88  C   UNL A   1      43.722  25.241  26.658  1.00  0.00     0.058 A 
ATOM     89  C   UNL A   1      44.526  25.092  25.514  1.00  0.00     0.135 A 
ATOM     90  C   UNL A   1      43.059  24.081  27.108  1.00  0.00     0.135 A 
ATOM     91  F   UNL A   1      45.197  26.142  25.019  1.00  0.00    -0.206 F 
ATOM     92  C   UNL A   1      44.716  23.853  24.891  1.00  0.00     0.059 A 
ATOM     93  C   UNL A   1      43.227  22.837  26.498  1.00  0.00     0.059 A 
ATOM     94  F   UNL A   1      42.300  24.106  28.214  1.00  0.00    -0.206 F 
ATOM     95  C   UNL A   1      44.082  22.725  25.408  1.00  0.00     0.060 A 
BRANCH  95  96
ATOM     96  S   UNL A   1      44.479  21.094  24.730  1.00  0.00     0.124 S 
ATOM     97  O   UNL A   1      43.371  20.284  25.226  1.00  0.00    -0.237 OA
ATOM     98  O   UNL A   1      44.487  21.352  23.294  1.00  0.00    -0.237 OA
ATOM     99  O   UNL A   1      45.783  20.794  25.315  1.00  0.00    -0.744 OA
ENDBRANCH  95  96
ENDBRANCH  63  88
BRANCH  75 100
ATOM    100  C   UNL A   1      46.396  30.378  29.259  1.00  0.00     0.058 A 
ATOM    101  C   UNL A   1      45.432  31.143  28.585  1.00  0.00     0.135 A 
ATOM    102  C   UNL A   1      47.741  30.737  29.087  1.00  0.00     0.135 A 
ATOM    103  F   UNL A   1      44.123  30.917  28.761  1.00  0.00    -0.206 F 
ATOM    104  C   UNL A   1      45.793  32.200  27.747  1.00  0.00     0.059 A 
ATOM    105  C   UNL A   1      48.123  31.803  28.284  1.00  0.00     0.059 A 
ATOM    106  F   UNL A   1      48.704  30.070  29.746  1.00  0.00    -0.206 F 
ATOM    107  C   UNL A   1      47.143  32.524  27.606  1.00  0.00     0.060 A 
BRANCH 107 108
ATOM    108  S   UNL A   1      47.610  33.933  26.580  1.00  0.00     0.124 S 
ATOM    109  O   UNL A   1      46.678  33.822  25.463  1.00  0.00    -0.237 OA
ATOM    110  O   UNL A   1      47.393  35.065  27.477  1.00  0.00    -0.237 OA
ATOM    111  O   UNL A   1      49.009  33.669  26.254  1.00  0.00    -0.744 OA
ENDBRANCH 107 108
ENDBRANCH  75 100
ENDBRANCH  49  50
ENDBRANCH  41  44
ENDBRANCH  39  40
ENDBRANCH   1  39
TORSDOF 18
ENDMDL
