MODEL 1
REMARK VINA RESULT:     -11.2      0.000      0.000
REMARK SMILES C[C@@H](CC[NH+](C)C)NC(=O)Cn1cccc1C(=O)NCCCCNC(=O)c1ccc(-c2c3nc(c(-c4c(F)cc(S(=O)(=O)[O-])cc4F)c4ccc([nH]4)c(-c4c(F)cc(S(=O)(=O)[O-])cc4F)c4nc(c(-c5c(F)cc(S(=O)(=O)[O-])cc5F)c5ccc2[nH]5)C=C4)C=C3)cc1
REMARK SMILES IDX 20 1 19 2 17 3 18 4 16 6 12 7 13 8 14 9 15 10 11 11 9 12
REMARK SMILES IDX 8 13 10 15 2 16 1 17 3 18 4 19 5 20 6 21 7 22 21 24 22 25
REMARK SMILES IDX 23 26 24 27 25 28 26 30 27 31 28 32 92 33 29 34 91 35 30 36
REMARK SMILES IDX 31 37 32 38 85 39 33 40 90 41 84 42 86 43 34 44 89 45 83 46
REMARK SMILES IDX 82 47 35 49 69 50 48 51 68 52 49 53 52 54 67 55 87 56 50 57
REMARK SMILES IDX 51 58 66 60 88 61 53 62 36 63 37 64 46 65 38 66 39 67 45 68
REMARK SMILES IDX 47 69 40 70 41 71 42 72 43 73 44 74 70 75 71 76 80 77 72 78
REMARK SMILES IDX 73 79 79 80 81 81 74 82 75 83 76 84 77 85 78 86 54 87 55 88
REMARK SMILES IDX 64 89 56 90 57 91 63 92 65 93 58 94 59 95 60 96 61 97 62 98
REMARK H PARENT 19 5 8 14 5 23 24 29 86 48 52 59
REMARK Flexibility Score: inf
ROOT
ATOM      1  C   UNL A   1      31.684  26.869  26.494  1.00  0.00     0.116 C 
ENDROOT
BRANCH   1   2
ATOM      2  N   UNL A   1      30.610  27.124  25.576  1.00  0.00    -0.351 N 
ATOM      3  C   UNL A   1      30.598  27.336  24.214  1.00  0.00     0.267 C 
ATOM      4  O   UNL A   1      29.461  27.453  23.743  1.00  0.00    -0.268 OA
ATOM      5  H   UNL A   1      29.720  27.154  25.996  1.00  0.00     0.163 HD
BRANCH   3   6
ATOM      6  C   UNL A   1      31.775  27.495  23.342  1.00  0.00     0.107 A 
ATOM      7  N   UNL A   1      32.469  26.673  22.457  1.00  0.00    -0.334 N 
ATOM      8  C   UNL A   1      33.604  27.314  22.002  1.00  0.00     0.087 A 
ATOM      9  C   UNL A   1      33.555  28.620  22.405  1.00  0.00     0.020 A 
ATOM     10  C   UNL A   1      32.415  28.737  23.221  1.00  0.00     0.033 A 
BRANCH   7  11
ATOM     11  C   UNL A   1      32.118  25.346  21.979  1.00  0.00     0.222 C 
BRANCH  11  12
ATOM     12  C   UNL A   1      31.839  24.312  23.032  1.00  0.00     0.240 C 
ATOM     13  N   UNL A   1      32.893  23.721  23.655  1.00  0.00    -0.352 N 
ATOM     14  H   UNL A   1      32.672  22.917  24.181  1.00  0.00     0.163 HD
ATOM     15  O   UNL A   1      30.693  23.925  23.272  1.00  0.00    -0.273 OA
BRANCH  13  16
ATOM     16  C   UNL A   1      34.304  24.099  23.662  1.00  0.00     0.084 C 
ATOM     17  C   UNL A   1      34.634  24.962  24.877  1.00  0.00     0.031 C 
BRANCH  16  18
ATOM     18  C   UNL A   1      35.222  22.882  23.496  1.00  0.00     0.086 C 
BRANCH  18  19
ATOM     19  C   UNL A   1      36.747  23.088  23.530  1.00  0.00     0.263 C 
BRANCH  19  20
ATOM     20  N   UNL A   1      37.452  22.271  24.535  1.00  0.00    -0.340 N 
ATOM     21  C   UNL A   1      37.708  23.078  25.738  1.00  0.00     0.332 C 
ATOM     22  C   UNL A   1      36.725  21.067  24.944  1.00  0.00     0.332 C 
ATOM     23  H   UNL A   1      38.315  21.968  24.086  1.00  0.00     0.347 HD
ENDBRANCH  19  20
ENDBRANCH  18  19
ENDBRANCH  16  18
ENDBRANCH  13  16
ENDBRANCH  11  12
ENDBRANCH   7  11
ENDBRANCH   3   6
ENDBRANCH   1   2
BRANCH   1  24
ATOM     24  C   UNL A   1      32.295  28.042  27.245  1.00  0.00     0.023 C 
BRANCH  24  25
ATOM     25  C   UNL A   1      33.275  28.942  26.492  1.00  0.00     0.023 C 
BRANCH  25  26
ATOM     26  C   UNL A   1      34.695  29.029  27.056  1.00  0.00     0.116 C 
BRANCH  26  27
ATOM     27  N   UNL A   1      35.126  30.395  27.302  1.00  0.00    -0.352 N 
ATOM     28  C   UNL A   1      36.235  30.836  27.995  1.00  0.00     0.251 C 
ATOM     29  H   UNL A   1      34.551  31.099  26.923  1.00  0.00     0.163 HD
ATOM     30  O   UNL A   1      36.290  32.001  28.361  1.00  0.00    -0.269 OA
BRANCH  28  31
ATOM     31  C   UNL A   1      37.346  29.909  28.320  1.00  0.00     0.039 A 
ATOM     32  C   UNL A   1      38.440  29.848  27.447  1.00  0.00     0.014 A 
ATOM     33  C   UNL A   1      37.288  29.061  29.432  1.00  0.00     0.014 A 
ATOM     34  C   UNL A   1      39.507  28.999  27.731  1.00  0.00     0.010 A 
ATOM     35  C   UNL A   1      38.357  28.216  29.724  1.00  0.00     0.010 A 
ATOM     36  C   UNL A   1      39.480  28.207  28.888  1.00  0.00    -0.014 A 
BRANCH  36  37
ATOM     37  C   UNL A   1      40.738  27.547  29.323  1.00  0.00     0.031 A 
ATOM     38  C   UNL A   1      40.994  26.253  28.488  1.00  0.00     0.074 A 
ATOM     39  C   UNL A   1      41.423  28.130  30.359  1.00  0.00     0.049 A 
ATOM     40  N   UNL A   1      41.592  25.142  28.802  1.00  0.00    -0.248 NA
ATOM     41  C   UNL A   1      40.412  26.153  27.115  1.00  0.00     0.031 C 
ATOM     42  C   UNL A   1      41.057  29.415  31.003  1.00  0.00     0.029 A 
ATOM     43  N   UNL A   1      42.552  27.792  31.084  1.00  0.00    -0.354 N 
ATOM     44  C   UNL A   1      41.652  24.330  27.636  1.00  0.00     0.074 A 
ATOM     45  C   UNL A   1      40.797  24.952  26.675  1.00  0.00     0.031 C 
ATOM     46  C   UNL A   1      41.872  29.692  32.049  1.00  0.00     0.029 A 
ATOM     47  C   UNL A   1      42.857  28.639  32.194  1.00  0.00     0.049 A 
ATOM     48  H   UNL A   1      43.111  27.016  30.849  1.00  0.00     0.167 HD
ATOM     49  C   UNL A   1      42.511  23.272  27.494  1.00  0.00     0.037 A 
ATOM     50  C   UNL A   1      43.799  28.469  33.182  1.00  0.00     0.037 A 
ATOM     51  C   UNL A   1      43.279  23.136  28.684  1.00  0.00     0.049 A 
ATOM     52  C   UNL A   1      44.553  27.284  32.755  1.00  0.00     0.074 A 
ATOM     53  C   UNL A   1      42.967  22.682  29.935  1.00  0.00     0.029 A 
ATOM     54  N   UNL A   1      44.459  23.838  28.730  1.00  0.00    -0.354 N 
ATOM     55  N   UNL A   1      45.414  27.262  31.783  1.00  0.00    -0.248 NA
ATOM     56  C   UNL A   1      44.256  26.000  33.403  1.00  0.00     0.031 C 
ATOM     57  C   UNL A   1      43.688  23.554  30.773  1.00  0.00     0.029 A 
ATOM     58  C   UNL A   1      44.583  24.316  30.008  1.00  0.00     0.049 A 
ATOM     59  H   UNL A   1      45.093  23.973  27.989  1.00  0.00     0.167 HD
ATOM     60  C   UNL A   1      45.496  25.924  31.500  1.00  0.00     0.074 A 
ATOM     61  C   UNL A   1      45.056  25.218  32.684  1.00  0.00     0.031 C 
ATOM     62  C   UNL A   1      45.376  25.504  30.216  1.00  0.00     0.037 A 
BRANCH  49  63
ATOM     63  C   UNL A   1      42.975  22.436  26.321  1.00  0.00     0.058 A 
ATOM     64  C   UNL A   1      42.603  21.063  26.303  1.00  0.00     0.135 A 
ATOM     65  C   UNL A   1      44.024  22.793  25.464  1.00  0.00     0.135 A 
ATOM     66  F   UNL A   1      41.552  20.624  27.017  1.00  0.00    -0.206 F 
ATOM     67  C   UNL A   1      43.337  20.090  25.633  1.00  0.00     0.059 A 
ATOM     68  C   UNL A   1      44.746  21.835  24.739  1.00  0.00     0.059 A 
ATOM     69  F   UNL A   1      44.428  24.065  25.365  1.00  0.00    -0.206 F 
ATOM     70  C   UNL A   1      44.437  20.481  24.885  1.00  0.00     0.060 A 
BRANCH  70  71
ATOM     71  S   UNL A   1      45.467  19.194  24.148  1.00  0.00     0.124 S 
ATOM     72  O   UNL A   1      46.780  19.830  24.143  1.00  0.00    -0.237 OA
ATOM     73  O   UNL A   1      45.306  18.089  25.089  1.00  0.00    -0.237 OA
ATOM     74  O   UNL A   1      44.857  18.985  22.838  1.00  0.00    -0.744 OA
ENDBRANCH  70  71
ENDBRANCH  49  63
BRANCH  50  75
ATOM     75  C   UNL A   1      44.190  29.024  34.548  1.00  0.00     0.058 A 
ATOM     76  C   UNL A   1      45.431  29.557  34.917  1.00  0.00     0.135 A 
ATOM     77  C   UNL A   1      43.190  29.156  35.564  1.00  0.00     0.135 A 
ATOM     78  F   UNL A   1      46.510  29.379  34.146  1.00  0.00    -0.206 F 
ATOM     79  C   UNL A   1      45.611  30.308  36.103  1.00  0.00     0.059 A 
ATOM     80  C   UNL A   1      43.323  29.938  36.708  1.00  0.00     0.059 A 
ATOM     81  F   UNL A   1      42.000  28.546  35.473  1.00  0.00    -0.206 F 
ATOM     82  C   UNL A   1      44.533  30.548  36.957  1.00  0.00     0.060 A 
BRANCH  82  83
ATOM     83  S   UNL A   1      44.643  31.746  38.308  1.00  0.00     0.124 S 
ATOM     84  O   UNL A   1      45.664  32.665  37.822  1.00  0.00    -0.237 OA
ATOM     85  O   UNL A   1      43.284  32.275  38.369  1.00  0.00    -0.237 OA
ATOM     86  O   UNL A   1      45.028  30.923  39.452  1.00  0.00    -0.744 OA
ENDBRANCH  82  83
ENDBRANCH  50  75
BRANCH  62  87
ATOM     87  C   UNL A   1      45.763  26.533  29.164  1.00  0.00     0.058 A 
ATOM     88  C   UNL A   1      47.105  26.926  29.031  1.00  0.00     0.135 A 
ATOM     89  C   UNL A   1      44.848  27.211  28.340  1.00  0.00     0.135 A 
ATOM     90  F   UNL A   1      48.050  26.331  29.777  1.00  0.00    -0.206 F 
ATOM     91  C   UNL A   1      47.510  27.922  28.138  1.00  0.00     0.059 A 
ATOM     92  C   UNL A   1      45.224  28.205  27.430  1.00  0.00     0.059 A 
ATOM     93  F   UNL A   1      43.546  26.932  28.401  1.00  0.00    -0.206 F 
ATOM     94  C   UNL A   1      46.564  28.557  27.335  1.00  0.00     0.060 A 
BRANCH  94  95
ATOM     95  S   UNL A   1      47.108  29.824  26.165  1.00  0.00     0.124 S 
ATOM     96  O   UNL A   1      46.740  29.242  24.879  1.00  0.00    -0.237 OA
ATOM     97  O   UNL A   1      46.325  30.982  26.583  1.00  0.00    -0.237 OA
ATOM     98  O   UNL A   1      48.546  29.924  26.407  1.00  0.00    -0.744 OA
ENDBRANCH  94  95
ENDBRANCH  62  87
ENDBRANCH  36  37
ENDBRANCH  28  31
ENDBRANCH  26  27
ENDBRANCH  25  26
ENDBRANCH  24  25
ENDBRANCH   1  24
TORSDOF 20
ENDMDL
MODEL 2
REMARK VINA RESULT:     -11.0      1.333      2.059
REMARK SMILES C[C@@H](CC[NH+](C)C)NC(=O)Cn1cccc1C(=O)NCCCCNC(=O)c1ccc(-c2c3nc(c(-c4c(F)cc(S(=O)(=O)[O-])cc4F)c4ccc([nH]4)c(-c4c(F)cc(S(=O)(=O)[O-])cc4F)c4nc(c(-c5c(F)cc(S(=O)(=O)[O-])cc5F)c5ccc2[nH]5)C=C4)C=C3)cc1
REMARK SMILES IDX 20 1 19 2 17 3 18 4 16 6 12 7 13 8 14 9 15 10 11 11 9 12
REMARK SMILES IDX 8 13 10 15 2 16 1 17 3 18 4 19 5 20 6 21 7 22 21 24 22 25
REMARK SMILES IDX 23 26 24 27 25 28 26 30 27 31 28 32 92 33 29 34 91 35 30 36
REMARK SMILES IDX 31 37 32 38 85 39 33 40 90 41 84 42 86 43 34 44 89 45 83 46
REMARK SMILES IDX 82 47 35 49 69 50 48 51 68 52 49 53 52 54 67 55 87 56 50 57
REMARK SMILES IDX 51 58 66 60 88 61 53 62 36 63 37 64 46 65 38 66 39 67 45 68
REMARK SMILES IDX 47 69 40 70 41 71 42 72 43 73 44 74 70 75 71 76 80 77 72 78
REMARK SMILES IDX 73 79 79 80 81 81 74 82 75 83 76 84 77 85 78 86 54 87 55 88
REMARK SMILES IDX 64 89 56 90 57 91 63 92 65 93 58 94 59 95 60 96 61 97 62 98
REMARK H PARENT 19 5 8 14 5 23 24 29 86 48 52 59
REMARK Flexibility Score: inf
ROOT
ATOM      1  C   UNL A   1      33.910  27.298  24.520  1.00  0.00     0.116 C 
ENDROOT
BRANCH   1   2
ATOM      2  N   UNL A   1      33.664  26.787  23.200  1.00  0.00    -0.351 N 
ATOM      3  C   UNL A   1      32.496  26.605  22.490  1.00  0.00     0.267 C 
ATOM      4  O   UNL A   1      32.680  26.203  21.336  1.00  0.00    -0.268 OA
ATOM      5  H   UNL A   1      34.477  26.518  22.715  1.00  0.00     0.163 HD
BRANCH   3   6
ATOM      6  C   UNL A   1      31.125  26.775  23.001  1.00  0.00     0.107 A 
ATOM      7  N   UNL A   1      30.298  26.066  23.869  1.00  0.00    -0.334 N 
ATOM      8  C   UNL A   1      29.034  26.622  23.883  1.00  0.00     0.087 A 
ATOM      9  C   UNL A   1      29.074  27.808  23.203  1.00  0.00     0.020 A 
ATOM     10  C   UNL A   1      30.372  27.912  22.671  1.00  0.00     0.033 A 
BRANCH   7  11
ATOM     11  C   UNL A   1      30.624  24.932  24.717  1.00  0.00     0.222 C 
BRANCH  11  12
ATOM     12  C   UNL A   1      31.347  25.244  25.996  1.00  0.00     0.240 C 
ATOM     13  N   UNL A   1      32.468  24.534  26.296  1.00  0.00    -0.352 N 
ATOM     14  H   UNL A   1      32.787  24.628  27.223  1.00  0.00     0.163 HD
ATOM     15  O   UNL A   1      30.899  26.051  26.813  1.00  0.00    -0.273 OA
BRANCH  13  16
ATOM     16  C   UNL A   1      33.269  23.655  25.449  1.00  0.00     0.084 C 
ATOM     17  C   UNL A   1      34.761  23.868  25.694  1.00  0.00     0.031 C 
BRANCH  16  18
ATOM     18  C   UNL A   1      32.823  22.192  25.561  1.00  0.00     0.086 C 
BRANCH  18  19
ATOM     19  C   UNL A   1      33.824  21.077  25.205  1.00  0.00     0.263 C 
BRANCH  19  20
ATOM     20  N   UNL A   1      33.200  19.800  24.813  1.00  0.00    -0.340 N 
ATOM     21  C   UNL A   1      32.406  19.992  23.589  1.00  0.00     0.332 C 
ATOM     22  C   UNL A   1      34.154  18.717  24.567  1.00  0.00     0.332 C 
ATOM     23  H   UNL A   1      32.621  19.523  25.605  1.00  0.00     0.347 HD
ENDBRANCH  19  20
ENDBRANCH  18  19
ENDBRANCH  16  18
ENDBRANCH  13  16
ENDBRANCH  11  12
ENDBRANCH   7  11
ENDBRANCH   3   6
ENDBRANCH   1   2
BRANCH   1  24
ATOM     24  C   UNL A   1      33.121  28.509  24.991  1.00  0.00     0.023 C 
BRANCH  24  25
ATOM     25  C   UNL A   1      33.258  28.928  26.454  1.00  0.00     0.023 C 
BRANCH  25  26
ATOM     26  C   UNL A   1      34.683  29.018  27.009  1.00  0.00     0.116 C 
BRANCH  26  27
ATOM     27  N   UNL A   1      35.136  30.388  27.189  1.00  0.00    -0.352 N 
ATOM     28  C   UNL A   1      36.262  30.842  27.844  1.00  0.00     0.251 C 
ATOM     29  H   UNL A   1      34.563  31.082  26.791  1.00  0.00     0.163 HD
ATOM     30  O   UNL A   1      36.339  32.020  28.160  1.00  0.00    -0.269 OA
BRANCH  28  31
ATOM     31  C   UNL A   1      37.366  29.914  28.189  1.00  0.00     0.039 A 
ATOM     32  C   UNL A   1      38.479  29.858  27.339  1.00  0.00     0.014 A 
ATOM     33  C   UNL A   1      37.285  29.061  29.296  1.00  0.00     0.014 A 
ATOM     34  C   UNL A   1      39.540  29.008  27.642  1.00  0.00     0.010 A 
ATOM     35  C   UNL A   1      38.348  28.216  29.607  1.00  0.00     0.010 A 
ATOM     36  C   UNL A   1      39.489  28.211  28.795  1.00  0.00    -0.014 A 
BRANCH  36  37
ATOM     37  C   UNL A   1      40.738  27.549  29.254  1.00  0.00     0.031 A 
ATOM     38  C   UNL A   1      41.006  26.252  28.427  1.00  0.00     0.074 A 
ATOM     39  C   UNL A   1      41.406  28.134  30.300  1.00  0.00     0.049 A 
ATOM     40  N   UNL A   1      41.596  25.142  28.755  1.00  0.00    -0.248 NA
ATOM     41  C   UNL A   1      40.449  26.150  27.044  1.00  0.00     0.031 C 
ATOM     42  C   UNL A   1      41.031  29.422  30.935  1.00  0.00     0.029 A 
ATOM     43  N   UNL A   1      42.521  27.796  31.046  1.00  0.00    -0.354 N 
ATOM     44  C   UNL A   1      41.675  24.326  27.592  1.00  0.00     0.074 A 
ATOM     45  C   UNL A   1      40.839  24.947  26.615  1.00  0.00     0.031 C 
ATOM     46  C   UNL A   1      41.827  29.700  31.994  1.00  0.00     0.029 A 
ATOM     47  C   UNL A   1      42.808  28.645  32.159  1.00  0.00     0.049 A 
ATOM     48  H   UNL A   1      43.082  27.019  30.824  1.00  0.00     0.167 HD
ATOM     49  C   UNL A   1      42.535  23.266  27.469  1.00  0.00     0.037 A 
ATOM     50  C   UNL A   1      43.733  28.476  33.164  1.00  0.00     0.037 A 
ATOM     51  C   UNL A   1      43.281  23.131  28.672  1.00  0.00     0.049 A 
ATOM     52  C   UNL A   1      44.491  27.289  32.753  1.00  0.00     0.074 A 
ATOM     53  C   UNL A   1      42.946  22.682  29.920  1.00  0.00     0.029 A 
ATOM     54  N   UNL A   1      44.461  23.832  28.738  1.00  0.00    -0.354 N 
ATOM     55  N   UNL A   1      45.369  27.263  31.798  1.00  0.00    -0.248 NA
ATOM     56  C   UNL A   1      44.180  26.008  33.400  1.00  0.00     0.031 C 
ATOM     57  C   UNL A   1      43.654  23.555  30.767  1.00  0.00     0.029 A 
ATOM     58  C   UNL A   1      44.564  24.313  30.016  1.00  0.00     0.049 A 
ATOM     59  H   UNL A   1      45.108  23.963  28.007  1.00  0.00     0.167 HD
ATOM     60  C   UNL A   1      45.453  25.924  31.519  1.00  0.00     0.074 A 
ATOM     61  C   UNL A   1      44.991  25.222  32.697  1.00  0.00     0.031 C 
ATOM     62  C   UNL A   1      45.355  25.500  30.235  1.00  0.00     0.037 A 
BRANCH  49  63
ATOM     63  C   UNL A   1      43.017  22.425  26.307  1.00  0.00     0.058 A 
ATOM     64  C   UNL A   1      42.669  21.046  26.302  1.00  0.00     0.135 A 
ATOM     65  C   UNL A   1      44.064  22.791  25.451  1.00  0.00     0.135 A 
ATOM     66  F   UNL A   1      41.622  20.597  27.016  1.00  0.00    -0.206 F 
ATOM     67  C   UNL A   1      43.422  20.079  25.645  1.00  0.00     0.059 A 
ATOM     68  C   UNL A   1      44.804  21.837  24.738  1.00  0.00     0.059 A 
ATOM     69  F   UNL A   1      44.447  24.069  25.339  1.00  0.00    -0.206 F 
ATOM     70  C   UNL A   1      44.517  20.481  24.897  1.00  0.00     0.060 A 
BRANCH  70  71
ATOM     71  S   UNL A   1      45.572  19.203  24.178  1.00  0.00     0.124 S 
ATOM     72  O   UNL A   1      46.871  19.869  24.153  1.00  0.00    -0.237 OA
ATOM     73  O   UNL A   1      45.441  18.113  25.140  1.00  0.00    -0.237 OA
ATOM     74  O   UNL A   1      44.960  18.956  22.876  1.00  0.00    -0.744 OA
ENDBRANCH  70  71
ENDBRANCH  49  63
BRANCH  50  75
ATOM     75  C   UNL A   1      44.100  29.035  34.535  1.00  0.00     0.058 A 
ATOM     76  C   UNL A   1      43.357  28.922  35.717  1.00  0.00     0.135 A 
ATOM     77  C   UNL A   1      45.384  29.639  34.726  1.00  0.00     0.135 A 
ATOM     78  F   UNL A   1      42.080  28.523  35.689  1.00  0.00    -0.206 F 
ATOM     79  C   UNL A   1      43.908  29.214  36.988  1.00  0.00     0.059 A 
ATOM     80  C   UNL A   1      45.969  29.877  35.966  1.00  0.00     0.059 A 
ATOM     81  F   UNL A   1      46.159  30.001  33.695  1.00  0.00    -0.206 F 
ATOM     82  C   UNL A   1      45.235  29.627  37.105  1.00  0.00     0.060 A 
BRANCH  82  83
ATOM     83  S   UNL A   1      46.064  29.711  38.711  1.00  0.00     0.124 S 
ATOM     84  O   UNL A   1      44.961  30.030  39.610  1.00  0.00    -0.237 OA
ATOM     85  O   UNL A   1      46.629  28.372  38.844  1.00  0.00    -0.237 OA
ATOM     86  O   UNL A   1      47.049  30.773  38.522  1.00  0.00    -0.744 OA
ENDBRANCH  82  83
ENDBRANCH  50  75
BRANCH  62  87
ATOM     87  C   UNL A   1      45.763  26.525  29.187  1.00  0.00     0.058 A 
ATOM     88  C   UNL A   1      47.103  26.935  29.094  1.00  0.00     0.135 A 
ATOM     89  C   UNL A   1      44.866  27.184  28.327  1.00  0.00     0.135 A 
ATOM     90  F   UNL A   1      48.031  26.360  29.876  1.00  0.00    -0.206 F 
ATOM     91  C   UNL A   1      47.524  27.929  28.206  1.00  0.00     0.059 A 
ATOM     92  C   UNL A   1      45.258  28.175  27.422  1.00  0.00     0.059 A 
ATOM     93  F   UNL A   1      43.567  26.888  28.348  1.00  0.00    -0.206 F 
ATOM     94  C   UNL A   1      46.596  28.544  27.367  1.00  0.00     0.060 A 
BRANCH  94  95
ATOM     95  S   UNL A   1      47.162  29.808  26.204  1.00  0.00     0.124 S 
ATOM     96  O   UNL A   1      46.421  29.474  24.992  1.00  0.00    -0.237 OA
ATOM     97  O   UNL A   1      46.758  31.041  26.873  1.00  0.00    -0.237 OA
ATOM     98  O   UNL A   1      48.604  29.587  26.126  1.00  0.00    -0.744 OA
ENDBRANCH  94  95
ENDBRANCH  62  87
ENDBRANCH  36  37
ENDBRANCH  28  31
ENDBRANCH  26  27
ENDBRANCH  25  26
ENDBRANCH  24  25
ENDBRANCH   1  24
TORSDOF 20
ENDMDL
MODEL 3
REMARK VINA RESULT:     -10.9      1.188      3.127
REMARK SMILES C[C@@H](CC[NH+](C)C)NC(=O)Cn1cccc1C(=O)NCCCCNC(=O)c1ccc(-c2c3nc(c(-c4c(F)cc(S(=O)(=O)[O-])cc4F)c4ccc([nH]4)c(-c4c(F)cc(S(=O)(=O)[O-])cc4F)c4nc(c(-c5c(F)cc(S(=O)(=O)[O-])cc5F)c5ccc2[nH]5)C=C4)C=C3)cc1
REMARK SMILES IDX 20 1 19 2 17 3 18 4 16 6 12 7 13 8 14 9 15 10 11 11 9 12
REMARK SMILES IDX 8 13 10 15 2 16 1 17 3 18 4 19 5 20 6 21 7 22 21 24 22 25
REMARK SMILES IDX 23 26 24 27 25 28 26 30 27 31 28 32 92 33 29 34 91 35 30 36
REMARK SMILES IDX 31 37 32 38 85 39 33 40 90 41 84 42 86 43 34 44 89 45 83 46
REMARK SMILES IDX 82 47 35 49 69 50 48 51 68 52 49 53 52 54 67 55 87 56 50 57
REMARK SMILES IDX 51 58 66 60 88 61 53 62 36 63 37 64 46 65 38 66 39 67 45 68
REMARK SMILES IDX 47 69 40 70 41 71 42 72 43 73 44 74 70 75 71 76 80 77 72 78
REMARK SMILES IDX 73 79 79 80 81 81 74 82 75 83 76 84 77 85 78 86 54 87 55 88
REMARK SMILES IDX 64 89 56 90 57 91 63 92 65 93 58 94 59 95 60 96 61 97 62 98
REMARK H PARENT 19 5 8 14 5 23 24 29 86 48 52 59
REMARK Flexibility Score: inf
ROOT
ATOM      1  C   UNL A   1      32.554  26.333  26.462  1.00  0.00     0.116 C 
ENDROOT
BRANCH   1   2
ATOM      2  N   UNL A   1      31.485  25.450  26.837  1.00  0.00    -0.351 N 
ATOM      3  C   UNL A   1      31.376  24.076  26.803  1.00  0.00     0.267 C 
ATOM      4  O   UNL A   1      30.315  23.654  27.279  1.00  0.00    -0.268 OA
ATOM      5  H   UNL A   1      30.684  25.910  27.178  1.00  0.00     0.163 HD
BRANCH   3   6
ATOM      6  C   UNL A   1      32.342  23.135  26.210  1.00  0.00     0.107 A 
ATOM      7  N   UNL A   1      32.956  23.002  24.966  1.00  0.00    -0.334 N 
ATOM      8  C   UNL A   1      33.687  21.831  24.920  1.00  0.00     0.087 A 
ATOM      9  C   UNL A   1      33.737  21.300  26.180  1.00  0.00     0.020 A 
ATOM     10  C   UNL A   1      32.918  22.116  26.982  1.00  0.00     0.033 A 
BRANCH   7  11
ATOM     11  C   UNL A   1      32.938  23.916  23.838  1.00  0.00     0.222 C 
BRANCH  11  12
ATOM     12  C   UNL A   1      31.595  24.192  23.227  1.00  0.00     0.240 C 
ATOM     13  N   UNL A   1      31.292  25.472  22.880  1.00  0.00    -0.352 N 
ATOM     14  H   UNL A   1      30.342  25.637  22.677  1.00  0.00     0.163 HD
ATOM     15  O   UNL A   1      30.737  23.313  23.121  1.00  0.00    -0.273 OA
BRANCH  13  16
ATOM     16  C   UNL A   1      32.164  26.637  22.763  1.00  0.00     0.084 C 
ATOM     17  C   UNL A   1      33.218  26.427  21.679  1.00  0.00     0.031 C 
BRANCH  16  18
ATOM     18  C   UNL A   1      31.364  27.936  22.608  1.00  0.00     0.086 C 
BRANCH  18  19
ATOM     19  C   UNL A   1      30.096  28.139  23.458  1.00  0.00     0.263 C 
BRANCH  19  20
ATOM     20  N   UNL A   1      29.332  29.358  23.134  1.00  0.00    -0.340 N 
ATOM     21  C   UNL A   1      29.891  29.985  21.926  1.00  0.00     0.332 C 
ATOM     22  C   UNL A   1      27.904  29.127  22.905  1.00  0.00     0.332 C 
ATOM     23  H   UNL A   1      29.416  29.960  23.952  1.00  0.00     0.347 HD
ENDBRANCH  19  20
ENDBRANCH  18  19
ENDBRANCH  16  18
ENDBRANCH  13  16
ENDBRANCH  11  12
ENDBRANCH   7  11
ENDBRANCH   3   6
ENDBRANCH   1   2
BRANCH   1  24
ATOM     24  C   UNL A   1      32.330  27.833  26.567  1.00  0.00     0.023 C 
BRANCH  24  25
ATOM     25  C   UNL A   1      33.291  28.642  27.438  1.00  0.00     0.023 C 
BRANCH  25  26
ATOM     26  C   UNL A   1      34.665  28.948  26.837  1.00  0.00     0.116 C 
BRANCH  26  27
ATOM     27  N   UNL A   1      35.083  30.324  27.049  1.00  0.00    -0.352 N 
ATOM     28  C   UNL A   1      36.178  30.793  27.747  1.00  0.00     0.251 C 
ATOM     29  H   UNL A   1      34.510  31.012  26.641  1.00  0.00     0.163 HD
ATOM     30  O   UNL A   1      36.219  31.968  28.079  1.00  0.00    -0.269 OA
BRANCH  28  31
ATOM     31  C   UNL A   1      37.289  29.883  28.117  1.00  0.00     0.039 A 
ATOM     32  C   UNL A   1      38.394  29.799  27.259  1.00  0.00     0.014 A 
ATOM     33  C   UNL A   1      37.222  29.073  29.255  1.00  0.00     0.014 A 
ATOM     34  C   UNL A   1      39.462  28.966  27.584  1.00  0.00     0.010 A 
ATOM     35  C   UNL A   1      38.292  28.244  29.589  1.00  0.00     0.010 A 
ATOM     36  C   UNL A   1      39.425  28.214  28.767  1.00  0.00    -0.014 A 
BRANCH  36  37
ATOM     37  C   UNL A   1      40.681  27.575  29.239  1.00  0.00     0.031 A 
ATOM     38  C   UNL A   1      40.974  26.275  28.426  1.00  0.00     0.074 A 
ATOM     39  C   UNL A   1      41.333  28.178  30.285  1.00  0.00     0.049 A 
ATOM     40  N   UNL A   1      41.578  25.177  28.767  1.00  0.00    -0.248 NA
ATOM     41  C   UNL A   1      40.427  26.153  27.040  1.00  0.00     0.031 C 
ATOM     42  C   UNL A   1      40.934  29.466  30.906  1.00  0.00     0.029 A 
ATOM     43  N   UNL A   1      42.449  27.864  31.040  1.00  0.00    -0.354 N 
ATOM     44  C   UNL A   1      41.677  24.352  27.611  1.00  0.00     0.074 A 
ATOM     45  C   UNL A   1      40.838  24.952  26.623  1.00  0.00     0.031 C 
ATOM     46  C   UNL A   1      41.720  29.765  31.967  1.00  0.00     0.029 A 
ATOM     47  C   UNL A   1      42.716  28.727  32.148  1.00  0.00     0.049 A 
ATOM     48  H   UNL A   1      43.023  27.093  30.828  1.00  0.00     0.167 HD
ATOM     49  C   UNL A   1      42.554  23.304  27.502  1.00  0.00     0.037 A 
ATOM     50  C   UNL A   1      43.636  28.580  33.159  1.00  0.00     0.037 A 
ATOM     51  C   UNL A   1      43.295  23.192  28.711  1.00  0.00     0.049 A 
ATOM     52  C   UNL A   1      44.416  27.401  32.764  1.00  0.00     0.074 A 
ATOM     53  C   UNL A   1      42.959  22.748  29.960  1.00  0.00     0.029 A 
ATOM     54  N   UNL A   1      44.463  23.910  28.778  1.00  0.00    -0.354 N 
ATOM     55  N   UNL A   1      45.300  27.381  31.814  1.00  0.00    -0.248 NA
ATOM     56  C   UNL A   1      44.120  26.121  33.419  1.00  0.00     0.031 C 
ATOM     57  C   UNL A   1      43.648  23.639  30.805  1.00  0.00     0.029 A 
ATOM     58  C   UNL A   1      44.551  24.404  30.053  1.00  0.00     0.049 A 
ATOM     59  H   UNL A   1      45.113  24.045  28.050  1.00  0.00     0.167 HD
ATOM     60  C   UNL A   1      45.406  26.041  31.547  1.00  0.00     0.074 A 
ATOM     61  C   UNL A   1      44.947  25.342  32.729  1.00  0.00     0.031 C 
ATOM     62  C   UNL A   1      45.323  25.605  30.266  1.00  0.00     0.037 A 
BRANCH  49  63
ATOM     63  C   UNL A   1      43.056  22.461  26.350  1.00  0.00     0.058 A 
ATOM     64  C   UNL A   1      42.639  21.103  26.297  1.00  0.00     0.135 A 
ATOM     65  C   UNL A   1      44.166  22.788  25.560  1.00  0.00     0.135 A 
ATOM     66  F   UNL A   1      41.533  20.695  26.944  1.00  0.00    -0.206 F 
ATOM     67  C   UNL A   1      43.377  20.110  25.662  1.00  0.00     0.059 A 
ATOM     68  C   UNL A   1      44.895  21.811  24.869  1.00  0.00     0.059 A 
ATOM     69  F   UNL A   1      44.619  24.046  25.497  1.00  0.00    -0.206 F 
ATOM     70  C   UNL A   1      44.531  20.468  24.983  1.00  0.00     0.060 A 
BRANCH  70  71
ATOM     71  S   UNL A   1      45.558  19.151  24.295  1.00  0.00     0.124 S 
ATOM     72  O   UNL A   1      45.307  18.059  25.230  1.00  0.00    -0.237 OA
ATOM     73  O   UNL A   1      44.992  18.981  22.960  1.00  0.00    -0.237 OA
ATOM     74  O   UNL A   1      46.902  19.720  24.329  1.00  0.00    -0.744 OA
ENDBRANCH  70  71
ENDBRANCH  49  63
BRANCH  50  75
ATOM     75  C   UNL A   1      43.987  29.156  34.528  1.00  0.00     0.058 A 
ATOM     76  C   UNL A   1      45.019  30.054  34.825  1.00  0.00     0.135 A 
ATOM     77  C   UNL A   1      43.131  28.886  35.643  1.00  0.00     0.135 A 
ATOM     78  F   UNL A   1      45.995  30.293  33.940  1.00  0.00    -0.206 F 
ATOM     79  C   UNL A   1      45.086  30.752  36.054  1.00  0.00     0.059 A 
ATOM     80  C   UNL A   1      43.138  29.601  36.838  1.00  0.00     0.059 A 
ATOM     81  F   UNL A   1      42.205  27.918  35.610  1.00  0.00    -0.206 F 
ATOM     82  C   UNL A   1      44.103  30.567  37.026  1.00  0.00     0.060 A 
BRANCH  82  83
ATOM     83  S   UNL A   1      43.977  31.653  38.467  1.00  0.00     0.124 S 
ATOM     84  O   UNL A   1      45.189  32.455  38.356  1.00  0.00    -0.237 OA
ATOM     85  O   UNL A   1      42.722  32.356  38.222  1.00  0.00    -0.237 OA
ATOM     86  O   UNL A   1      43.942  30.717  39.588  1.00  0.00    -0.744 OA
ENDBRANCH  82  83
ENDBRANCH  50  75
BRANCH  62  87
ATOM     87  C   UNL A   1      45.721  26.627  29.212  1.00  0.00     0.058 A 
ATOM     88  C   UNL A   1      44.740  27.193  28.380  1.00  0.00     0.135 A 
ATOM     89  C   UNL A   1      47.046  27.006  28.932  1.00  0.00     0.135 A 
ATOM     90  F   UNL A   1      43.447  26.889  28.575  1.00  0.00    -0.206 F 
ATOM     91  C   UNL A   1      45.055  28.076  27.343  1.00  0.00     0.059 A 
ATOM     92  C   UNL A   1      47.391  27.895  27.908  1.00  0.00     0.059 A 
ATOM     93  F   UNL A   1      48.057  26.512  29.646  1.00  0.00    -0.206 F 
ATOM     94  C   UNL A   1      46.384  28.428  27.114  1.00  0.00     0.060 A 
BRANCH  94  95
ATOM     95  S   UNL A   1      46.771  29.594  25.787  1.00  0.00     0.124 S 
ATOM     96  O   UNL A   1      46.789  28.734  24.609  1.00  0.00    -0.237 OA
ATOM     97  O   UNL A   1      45.654  30.530  25.870  1.00  0.00    -0.237 OA
ATOM     98  O   UNL A   1      48.070  30.140  26.173  1.00  0.00    -0.744 OA
ENDBRANCH  94  95
ENDBRANCH  62  87
ENDBRANCH  36  37
ENDBRANCH  28  31
ENDBRANCH  26  27
ENDBRANCH  25  26
ENDBRANCH  24  25
ENDBRANCH   1  24
TORSDOF 20
ENDMDL
