MODEL 1
REMARK VINA RESULT:     -11.8      0.000      0.000
REMARK SMILES Cc1[nH]c2ccccc2c1[C@@H](C(=O)NCCCCNC(=O)c1ccc(-c2c3nc(c(-c4c(F)cc(S(=O)(=O)[O-])cc4F)c4ccc([nH]4)c(-c4c(F)cc(S(=O)(=O)[O-])cc4F)c4nc(c(-c5c(F)cc(S(=O)(=O)[O-])cc5F)c5ccc2[nH]5)C=C4)C=C3)cc1)[NH+]1CCCC1
REMARK SMILES IDX 17 1 16 2 15 3 14 4 12 5 13 6 11 8 10 9 1 10 2 11 3 12 4 13
REMARK SMILES IDX 9 15 5 16 8 17 6 18 7 19 88 20 89 21 92 22 90 24 91 25 18 26
REMARK SMILES IDX 19 27 20 28 21 30 22 31 23 32 87 33 24 34 86 35 25 36 26 37
REMARK SMILES IDX 27 38 80 39 28 40 85 41 79 42 81 43 29 44 84 45 78 46 77 47
REMARK SMILES IDX 30 49 64 50 43 51 63 52 44 53 47 54 62 55 82 56 45 57 46 58
REMARK SMILES IDX 61 60 83 61 48 62 31 63 32 64 41 65 33 66 34 67 40 68 42 69
REMARK SMILES IDX 35 70 36 71 37 72 38 73 39 74 65 75 66 76 75 77 67 78 68 79
REMARK SMILES IDX 74 80 76 81 69 82 70 83 71 84 72 85 73 86 49 87 50 88 59 89
REMARK SMILES IDX 51 90 52 91 58 92 60 93 53 94 54 95 55 96 56 97 57 98
REMARK H PARENT 14 7 3 14 88 23 19 29 81 48 47 59
REMARK Flexibility Score: inf
ROOT
ATOM      1  C   UNL A   1      35.900  23.529  26.076  1.00  0.00     0.023 C 
ENDROOT
BRANCH   1   2
ATOM      2  C   UNL A   1      34.508  23.801  25.508  1.00  0.00     0.023 C 
BRANCH   2   3
ATOM      3  C   UNL A   1      34.008  25.234  25.692  1.00  0.00     0.116 C 
BRANCH   3   4
ATOM      4  N   UNL A   1      32.631  25.283  26.141  1.00  0.00    -0.351 N 
ATOM      5  C   UNL A   1      31.555  25.925  25.574  1.00  0.00     0.283 C 
ATOM      6  O   UNL A   1      30.483  25.835  26.180  1.00  0.00    -0.268 OA
ATOM      7  H   UNL A   1      32.438  24.787  26.970  1.00  0.00     0.163 HD
BRANCH   5   8
ATOM      8  C   UNL A   1      31.735  26.664  24.210  1.00  0.00     0.307 C 
BRANCH   8   9
ATOM      9  C   UNL A   1      31.239  28.099  24.241  1.00  0.00     0.047 A 
ATOM     10  C   UNL A   1      33.237  29.299  25.475  1.00  0.00     0.065 C 
ATOM     11  C   UNL A   1      31.930  29.190  24.773  1.00  0.00     0.022 A 
ATOM     12  N   UNL A   1      31.170  30.312  24.563  1.00  0.00    -0.358 N 
ATOM     13  C   UNL A   1      29.987  29.992  23.952  1.00  0.00     0.046 A 
ATOM     14  H   UNL A   1      31.440  31.225  24.816  1.00  0.00     0.166 HD
ATOM     15  C   UNL A   1      29.968  28.607  23.788  1.00  0.00     0.009 A 
ATOM     16  C   UNL A   1      28.935  30.826  23.553  1.00  0.00     0.027 A 
ATOM     17  C   UNL A   1      28.798  28.028  23.249  1.00  0.00     0.011 A 
ATOM     18  C   UNL A   1      27.812  30.225  22.980  1.00  0.00     0.002 A 
ATOM     19  C   UNL A   1      27.737  28.845  22.840  1.00  0.00     0.001 A 
ENDBRANCH   8   9
BRANCH   8  20
ATOM     20  N   UNL A   1      31.246  25.872  23.047  1.00  0.00    -0.321 N 
ATOM     21  C   UNL A   1      31.462  24.429  23.142  1.00  0.00     0.263 C 
ATOM     22  C   UNL A   1      31.718  26.259  21.718  1.00  0.00     0.263 C 
ATOM     23  H   UNL A   1      30.258  26.109  23.126  1.00  0.00     0.349 HD
ATOM     24  C   UNL A   1      32.705  24.129  22.321  1.00  0.00     0.067 C 
ATOM     25  C   UNL A   1      32.772  25.245  21.293  1.00  0.00     0.067 C 
ENDBRANCH   8  20
ENDBRANCH   5   8
ENDBRANCH   3   4
ENDBRANCH   2   3
ENDBRANCH   1   2
BRANCH   1  26
ATOM     26  C   UNL A   1      37.043  23.603  25.070  1.00  0.00     0.116 C 
BRANCH  26  27
ATOM     27  N   UNL A   1      38.142  22.698  25.377  1.00  0.00    -0.352 N 
ATOM     28  C   UNL A   1      39.274  22.944  26.120  1.00  0.00     0.251 C 
ATOM     29  H   UNL A   1      38.065  21.791  25.003  1.00  0.00     0.163 HD
ATOM     30  O   UNL A   1      40.159  22.103  26.201  1.00  0.00    -0.269 OA
BRANCH  28  31
ATOM     31  C   UNL A   1      39.425  24.258  26.781  1.00  0.00     0.039 A 
ATOM     32  C   UNL A   1      38.875  24.442  28.051  1.00  0.00     0.014 A 
ATOM     33  C   UNL A   1      40.171  25.274  26.176  1.00  0.00     0.014 A 
ATOM     34  C   UNL A   1      39.153  25.614  28.759  1.00  0.00     0.010 A 
ATOM     35  C   UNL A   1      40.495  26.414  26.904  1.00  0.00     0.010 A 
ATOM     36  C   UNL A   1      40.008  26.584  28.211  1.00  0.00    -0.014 A 
BRANCH  36  37
ATOM     37  C   UNL A   1      40.460  27.754  29.004  1.00  0.00     0.031 A 
ATOM     38  C   UNL A   1      41.755  27.699  29.764  1.00  0.00     0.074 A 
ATOM     39  C   UNL A   1      39.649  28.825  29.122  1.00  0.00     0.049 A 
ATOM     40  N   UNL A   1      42.254  28.567  30.605  1.00  0.00    -0.248 NA
ATOM     41  C   UNL A   1      42.585  26.499  29.573  1.00  0.00     0.031 C 
ATOM     42  C   UNL A   1      38.343  28.973  28.475  1.00  0.00     0.029 A 
ATOM     43  N   UNL A   1      39.791  29.983  29.846  1.00  0.00    -0.354 N 
ATOM     44  C   UNL A   1      43.444  28.013  31.058  1.00  0.00     0.074 A 
ATOM     45  C   UNL A   1      43.576  26.719  30.425  1.00  0.00     0.031 C 
ATOM     46  C   UNL A   1      37.807  30.153  28.827  1.00  0.00     0.029 A 
ATOM     47  C   UNL A   1      38.712  30.829  29.752  1.00  0.00     0.049 A 
ATOM     48  H   UNL A   1      40.591  30.187  30.383  1.00  0.00     0.167 HD
ATOM     49  C   UNL A   1      44.351  28.545  31.911  1.00  0.00     0.037 A 
ATOM     50  C   UNL A   1      38.465  32.006  30.360  1.00  0.00     0.037 A 
ATOM     51  C   UNL A   1      44.229  29.846  32.514  1.00  0.00     0.049 A 
ATOM     52  C   UNL A   1      39.485  32.573  31.306  1.00  0.00     0.074 A 
ATOM     53  C   UNL A   1      45.137  30.508  33.322  1.00  0.00     0.029 A 
ATOM     54  N   UNL A   1      43.130  30.682  32.379  1.00  0.00    -0.354 N 
ATOM     55  N   UNL A   1      40.642  32.068  31.666  1.00  0.00    -0.248 NA
ATOM     56  C   UNL A   1      39.169  33.863  31.933  1.00  0.00     0.031 C 
ATOM     57  C   UNL A   1      44.570  31.728  33.709  1.00  0.00     0.029 A 
ATOM     58  C   UNL A   1      43.325  31.841  33.112  1.00  0.00     0.049 A 
ATOM     59  H   UNL A   1      42.330  30.481  31.842  1.00  0.00     0.167 HD
ATOM     60  C   UNL A   1      41.197  32.986  32.552  1.00  0.00     0.074 A 
ATOM     61  C   UNL A   1      40.257  34.082  32.662  1.00  0.00     0.031 C 
ATOM     62  C   UNL A   1      42.377  32.923  33.214  1.00  0.00     0.037 A 
BRANCH  49  63
ATOM     63  C   UNL A   1      45.563  27.721  32.239  1.00  0.00     0.058 A 
ATOM     64  C   UNL A   1      46.737  27.806  31.475  1.00  0.00     0.135 A 
ATOM     65  C   UNL A   1      45.566  26.867  33.354  1.00  0.00     0.135 A 
ATOM     66  F   UNL A   1      46.782  28.595  30.390  1.00  0.00    -0.206 F 
ATOM     67  C   UNL A   1      47.864  27.053  31.788  1.00  0.00     0.059 A 
ATOM     68  C   UNL A   1      46.690  26.123  33.701  1.00  0.00     0.059 A 
ATOM     69  F   UNL A   1      44.468  26.750  34.118  1.00  0.00    -0.206 F 
ATOM     70  C   UNL A   1      47.830  26.213  32.902  1.00  0.00     0.060 A 
BRANCH  70  71
ATOM     71  S   UNL A   1      49.302  25.247  33.301  1.00  0.00     0.124 S 
ATOM     72  O   UNL A   1      50.086  26.215  34.062  1.00  0.00    -0.237 OA
ATOM     73  O   UNL A   1      48.749  24.136  34.069  1.00  0.00    -0.237 OA
ATOM     74  O   UNL A   1      49.842  24.893  31.992  1.00  0.00    -0.744 OA
ENDBRANCH  70  71
ENDBRANCH  49  63
BRANCH  50  75
ATOM     75  C   UNL A   1      37.195  32.728  30.088  1.00  0.00     0.058 A 
ATOM     76  C   UNL A   1      36.038  32.452  30.831  1.00  0.00     0.135 A 
ATOM     77  C   UNL A   1      37.117  33.719  29.098  1.00  0.00     0.135 A 
ATOM     78  F   UNL A   1      36.062  31.508  31.784  1.00  0.00    -0.206 F 
ATOM     79  C   UNL A   1      34.844  33.126  30.595  1.00  0.00     0.059 A 
ATOM     80  C   UNL A   1      35.940  34.422  28.858  1.00  0.00     0.059 A 
ATOM     81  F   UNL A   1      38.202  34.031  28.371  1.00  0.00    -0.206 F 
ATOM     82  C   UNL A   1      34.805  34.110  29.606  1.00  0.00     0.060 A 
BRANCH  82  83
ATOM     83  S   UNL A   1      33.266  35.020  29.345  1.00  0.00     0.124 S 
ATOM     84  O   UNL A   1      33.764  36.306  28.874  1.00  0.00    -0.237 OA
ATOM     85  O   UNL A   1      32.586  34.195  28.352  1.00  0.00    -0.237 OA
ATOM     86  O   UNL A   1      32.652  35.024  30.670  1.00  0.00    -0.744 OA
ENDBRANCH  82  83
ENDBRANCH  50  75
BRANCH  62  87
ATOM     87  C   UNL A   1      42.727  34.073  34.114  1.00  0.00     0.058 A 
ATOM     88  C   UNL A   1      42.421  34.047  35.483  1.00  0.00     0.135 A 
ATOM     89  C   UNL A   1      43.434  35.179  33.617  1.00  0.00     0.135 A 
ATOM     90  F   UNL A   1      41.736  33.016  36.003  1.00  0.00    -0.206 F 
ATOM     91  C   UNL A   1      42.797  35.085  36.329  1.00  0.00     0.059 A 
ATOM     92  C   UNL A   1      43.839  36.217  34.450  1.00  0.00     0.059 A 
ATOM     93  F   UNL A   1      43.757  35.246  32.316  1.00  0.00    -0.206 F 
ATOM     94  C   UNL A   1      43.511  36.164  35.803  1.00  0.00     0.060 A 
BRANCH  94  95
ATOM     95  S   UNL A   1      44.043  37.478  36.923  1.00  0.00     0.124 S 
ATOM     96  O   UNL A   1      45.333  36.972  37.377  1.00  0.00    -0.237 OA
ATOM     97  O   UNL A   1      44.091  38.640  36.042  1.00  0.00    -0.237 OA
ATOM     98  O   UNL A   1      42.988  37.509  37.933  1.00  0.00    -0.744 OA
ENDBRANCH  94  95
ENDBRANCH  62  87
ENDBRANCH  36  37
ENDBRANCH  28  31
ENDBRANCH  26  27
ENDBRANCH   1  26
TORSDOF 16
ENDMDL
MODEL 2
REMARK VINA RESULT:     -11.7      2.487      3.510
REMARK SMILES Cc1[nH]c2ccccc2c1[C@@H](C(=O)NCCCCNC(=O)c1ccc(-c2c3nc(c(-c4c(F)cc(S(=O)(=O)[O-])cc4F)c4ccc([nH]4)c(-c4c(F)cc(S(=O)(=O)[O-])cc4F)c4nc(c(-c5c(F)cc(S(=O)(=O)[O-])cc5F)c5ccc2[nH]5)C=C4)C=C3)cc1)[NH+]1CCCC1
REMARK SMILES IDX 17 1 16 2 15 3 14 4 12 5 13 6 11 8 10 9 1 10 2 11 3 12 4 13
REMARK SMILES IDX 9 15 5 16 8 17 6 18 7 19 88 20 89 21 92 22 90 24 91 25 18 26
REMARK SMILES IDX 19 27 20 28 21 30 22 31 23 32 87 33 24 34 86 35 25 36 26 37
REMARK SMILES IDX 27 38 80 39 28 40 85 41 79 42 81 43 29 44 84 45 78 46 77 47
REMARK SMILES IDX 30 49 64 50 43 51 63 52 44 53 47 54 62 55 82 56 45 57 46 58
REMARK SMILES IDX 61 60 83 61 48 62 31 63 32 64 41 65 33 66 34 67 40 68 42 69
REMARK SMILES IDX 35 70 36 71 37 72 38 73 39 74 65 75 66 76 75 77 67 78 68 79
REMARK SMILES IDX 74 80 76 81 69 82 70 83 71 84 72 85 73 86 49 87 50 88 59 89
REMARK SMILES IDX 51 90 52 91 58 92 60 93 53 94 54 95 55 96 56 97 57 98
REMARK H PARENT 14 7 3 14 88 23 19 29 81 48 47 59
REMARK Flexibility Score: inf
ROOT
ATOM      1  C   UNL A   1      37.247  23.258  25.394  1.00  0.00     0.023 C 
ENDROOT
BRANCH   1   2
ATOM      2  C   UNL A   1      35.771  23.301  25.787  1.00  0.00     0.023 C 
BRANCH   2   3
ATOM      3  C   UNL A   1      35.044  24.592  25.413  1.00  0.00     0.116 C 
BRANCH   3   4
ATOM      4  N   UNL A   1      33.787  24.740  26.121  1.00  0.00    -0.351 N 
ATOM      5  C   UNL A   1      32.786  25.663  25.928  1.00  0.00     0.283 C 
ATOM      6  O   UNL A   1      31.822  25.592  26.697  1.00  0.00    -0.268 OA
ATOM      7  H   UNL A   1      33.628  24.089  26.842  1.00  0.00     0.163 HD
BRANCH   5   8
ATOM      8  C   UNL A   1      32.899  26.682  24.751  1.00  0.00     0.307 C 
BRANCH   8   9
ATOM      9  C   UNL A   1      32.621  28.114  25.174  1.00  0.00     0.047 A 
ATOM     10  C   UNL A   1      30.524  28.687  23.680  1.00  0.00     0.065 C 
ATOM     11  C   UNL A   1      31.581  28.918  24.702  1.00  0.00     0.022 A 
ATOM     12  N   UNL A   1      31.643  30.117  25.363  1.00  0.00    -0.358 N 
ATOM     13  C   UNL A   1      32.712  30.147  26.220  1.00  0.00     0.046 A 
ATOM     14  H   UNL A   1      31.005  30.857  25.240  1.00  0.00     0.166 HD
ATOM     15  C   UNL A   1      33.383  28.932  26.084  1.00  0.00     0.009 A 
ATOM     16  C   UNL A   1      33.135  31.165  27.083  1.00  0.00     0.027 A 
ATOM     17  C   UNL A   1      34.580  28.762  26.815  1.00  0.00     0.011 A 
ATOM     18  C   UNL A   1      34.297  30.946  27.826  1.00  0.00     0.002 A 
ATOM     19  C   UNL A   1      35.018  29.766  27.687  1.00  0.00     0.001 A 
ENDBRANCH   8   9
BRANCH   8  20
ATOM     20  N   UNL A   1      32.163  26.250  23.530  1.00  0.00    -0.321 N 
ATOM     21  C   UNL A   1      31.327  25.062  23.695  1.00  0.00     0.263 C 
ATOM     22  C   UNL A   1      32.942  26.023  22.314  1.00  0.00     0.263 C 
ATOM     23  H   UNL A   1      31.599  27.090  23.406  1.00  0.00     0.349 HD
ATOM     24  C   UNL A   1      32.130  23.895  23.145  1.00  0.00     0.067 C 
ATOM     25  C   UNL A   1      33.072  24.517  22.128  1.00  0.00     0.067 C 
ENDBRANCH   8  20
ENDBRANCH   5   8
ENDBRANCH   3   4
ENDBRANCH   2   3
ENDBRANCH   1   2
BRANCH   1  26
ATOM     26  C   UNL A   1      38.166  24.164  26.204  1.00  0.00     0.116 C 
BRANCH  26  27
ATOM     27  N   UNL A   1      39.554  23.723  26.210  1.00  0.00    -0.352 N 
ATOM     28  C   UNL A   1      40.641  24.314  26.814  1.00  0.00     0.251 C 
ATOM     29  H   UNL A   1      39.740  22.893  25.714  1.00  0.00     0.163 HD
ATOM     30  O   UNL A   1      41.768  23.869  26.637  1.00  0.00    -0.269 OA
BRANCH  28  31
ATOM     31  C   UNL A   1      40.431  25.521  27.642  1.00  0.00     0.039 A 
ATOM     32  C   UNL A   1      39.406  25.519  28.590  1.00  0.00     0.014 A 
ATOM     33  C   UNL A   1      41.291  26.616  27.528  1.00  0.00     0.014 A 
ATOM     34  C   UNL A   1      39.302  26.578  29.494  1.00  0.00     0.010 A 
ATOM     35  C   UNL A   1      41.223  27.642  28.465  1.00  0.00     0.010 A 
ATOM     36  C   UNL A   1      40.243  27.621  29.471  1.00  0.00    -0.014 A 
BRANCH  36  37
ATOM     37  C   UNL A   1      40.264  28.668  30.523  1.00  0.00     0.031 A 
ATOM     38  C   UNL A   1      41.166  28.526  31.715  1.00  0.00     0.074 A 
ATOM     39  C   UNL A   1      39.391  29.694  30.451  1.00  0.00     0.049 A 
ATOM     40  N   UNL A   1      41.235  29.267  32.790  1.00  0.00    -0.248 NA
ATOM     41  C   UNL A   1      42.095  27.384  31.711  1.00  0.00     0.031 C 
ATOM     42  C   UNL A   1      38.428  29.911  29.369  1.00  0.00     0.029 A 
ATOM     43  N   UNL A   1      39.155  30.733  31.317  1.00  0.00    -0.354 N 
ATOM     44  C   UNL A   1      42.198  28.675  33.597  1.00  0.00     0.074 A 
ATOM     45  C   UNL A   1      42.661  27.493  32.904  1.00  0.00     0.031 C 
ATOM     46  C   UNL A   1      37.710  31.015  29.633  1.00  0.00     0.029 A 
ATOM     47  C   UNL A   1      38.133  31.562  30.918  1.00  0.00     0.049 A 
ATOM     48  H   UNL A   1      39.668  30.870  32.146  1.00  0.00     0.167 HD
ATOM     49  C   UNL A   1      42.663  29.092  34.799  1.00  0.00     0.037 A 
ATOM     50  C   UNL A   1      37.583  32.630  31.527  1.00  0.00     0.037 A 
ATOM     51  C   UNL A   1      42.219  30.286  35.469  1.00  0.00     0.049 A 
ATOM     52  C   UNL A   1      38.114  33.069  32.863  1.00  0.00     0.074 A 
ATOM     53  C   UNL A   1      42.692  30.836  36.647  1.00  0.00     0.029 A 
ATOM     54  N   UNL A   1      41.196  31.110  35.024  1.00  0.00    -0.354 N 
ATOM     55  N   UNL A   1      39.077  32.539  33.578  1.00  0.00    -0.248 NA
ATOM     56  C   UNL A   1      37.483  34.245  33.477  1.00  0.00     0.031 C 
ATOM     57  C   UNL A   1      41.929  31.973  36.935  1.00  0.00     0.029 A 
ATOM     58  C   UNL A   1      41.005  32.150  35.918  1.00  0.00     0.049 A 
ATOM     59  H   UNL A   1      40.683  30.976  34.195  1.00  0.00     0.167 HD
ATOM     60  C   UNL A   1      39.176  33.324  34.722  1.00  0.00     0.074 A 
ATOM     61  C   UNL A   1      38.186  34.373  34.596  1.00  0.00     0.031 C 
ATOM     62  C   UNL A   1      40.012  33.186  35.780  1.00  0.00     0.037 A 
BRANCH  49  63
ATOM     63  C   UNL A   1      43.714  28.251  35.466  1.00  0.00     0.058 A 
ATOM     64  C   UNL A   1      45.077  28.414  35.175  1.00  0.00     0.135 A 
ATOM     65  C   UNL A   1      43.358  27.300  36.436  1.00  0.00     0.135 A 
ATOM     66  F   UNL A   1      45.469  29.299  34.245  1.00  0.00    -0.206 F 
ATOM     67  C   UNL A   1      46.051  27.646  35.805  1.00  0.00     0.059 A 
ATOM     68  C   UNL A   1      44.318  26.537  37.096  1.00  0.00     0.059 A 
ATOM     69  F   UNL A   1      42.068  27.105  36.750  1.00  0.00    -0.206 F 
ATOM     70  C   UNL A   1      45.661  26.708  36.762  1.00  0.00     0.060 A 
BRANCH  70  71
ATOM     71  S   UNL A   1      46.937  25.723  37.575  1.00  0.00     0.124 S 
ATOM     72  O   UNL A   1      47.898  25.543  36.491  1.00  0.00    -0.237 OA
ATOM     73  O   UNL A   1      47.364  26.598  38.661  1.00  0.00    -0.237 OA
ATOM     74  O   UNL A   1      46.225  24.518  37.988  1.00  0.00    -0.744 OA
ENDBRANCH  70  71
ENDBRANCH  49  63
BRANCH  50  75
ATOM     75  C   UNL A   1      36.464  33.360  30.876  1.00  0.00     0.058 A 
ATOM     76  C   UNL A   1      35.153  33.246  31.359  1.00  0.00     0.135 A 
ATOM     77  C   UNL A   1      36.686  34.200  29.773  1.00  0.00     0.135 A 
ATOM     78  F   UNL A   1      34.891  32.449  32.407  1.00  0.00    -0.206 F 
ATOM     79  C   UNL A   1      34.097  33.929  30.766  1.00  0.00     0.059 A 
ATOM     80  C   UNL A   1      35.649  34.911  29.176  1.00  0.00     0.059 A 
ATOM     81  F   UNL A   1      37.926  34.355  29.284  1.00  0.00    -0.206 F 
ATOM     82  C   UNL A   1      34.355  34.761  29.675  1.00  0.00     0.060 A 
BRANCH  82  83
ATOM     83  S   UNL A   1      32.986  35.688  28.946  1.00  0.00     0.124 S 
ATOM     84  O   UNL A   1      32.349  34.669  28.122  1.00  0.00    -0.237 OA
ATOM     85  O   UNL A   1      32.241  36.115  30.126  1.00  0.00    -0.237 OA
ATOM     86  O   UNL A   1      33.660  36.761  28.219  1.00  0.00    -0.744 OA
ENDBRANCH  82  83
ENDBRANCH  50  75
BRANCH  62  87
ATOM     87  C   UNL A   1      39.899  34.196  36.886  1.00  0.00     0.058 A 
ATOM     88  C   UNL A   1      40.547  35.438  36.808  1.00  0.00     0.135 A 
ATOM     89  C   UNL A   1      39.084  33.946  38.000  1.00  0.00     0.135 A 
ATOM     90  F   UNL A   1      41.346  35.719  35.767  1.00  0.00    -0.206 F 
ATOM     91  C   UNL A   1      40.395  36.397  37.804  1.00  0.00     0.059 A 
ATOM     92  C   UNL A   1      38.901  34.899  38.997  1.00  0.00     0.059 A 
ATOM     93  F   UNL A   1      38.437  32.775  38.116  1.00  0.00    -0.206 F 
ATOM     94  C   UNL A   1      39.565  36.120  38.892  1.00  0.00     0.060 A 
BRANCH  94  95
ATOM     95  S   UNL A   1      39.333  37.395  40.151  1.00  0.00     0.124 S 
ATOM     96  O   UNL A   1      40.702  37.848  40.366  1.00  0.00    -0.237 OA
ATOM     97  O   UNL A   1      38.449  38.342  39.479  1.00  0.00    -0.237 OA
ATOM     98  O   UNL A   1      38.729  36.666  41.263  1.00  0.00    -0.744 OA
ENDBRANCH  94  95
ENDBRANCH  62  87
ENDBRANCH  36  37
ENDBRANCH  28  31
ENDBRANCH  26  27
ENDBRANCH   1  26
TORSDOF 16
ENDMDL
MODEL 3
REMARK VINA RESULT:     -11.6      1.003      2.089
REMARK SMILES Cc1[nH]c2ccccc2c1[C@@H](C(=O)NCCCCNC(=O)c1ccc(-c2c3nc(c(-c4c(F)cc(S(=O)(=O)[O-])cc4F)c4ccc([nH]4)c(-c4c(F)cc(S(=O)(=O)[O-])cc4F)c4nc(c(-c5c(F)cc(S(=O)(=O)[O-])cc5F)c5ccc2[nH]5)C=C4)C=C3)cc1)[NH+]1CCCC1
REMARK SMILES IDX 17 1 16 2 15 3 14 4 12 5 13 6 11 8 10 9 1 10 2 11 3 12 4 13
REMARK SMILES IDX 9 15 5 16 8 17 6 18 7 19 88 20 89 21 92 22 90 24 91 25 18 26
REMARK SMILES IDX 19 27 20 28 21 30 22 31 23 32 87 33 24 34 86 35 25 36 26 37
REMARK SMILES IDX 27 38 80 39 28 40 85 41 79 42 81 43 29 44 84 45 78 46 77 47
REMARK SMILES IDX 30 49 64 50 43 51 63 52 44 53 47 54 62 55 82 56 45 57 46 58
REMARK SMILES IDX 61 60 83 61 48 62 31 63 32 64 41 65 33 66 34 67 40 68 42 69
REMARK SMILES IDX 35 70 36 71 37 72 38 73 39 74 65 75 66 76 75 77 67 78 68 79
REMARK SMILES IDX 74 80 76 81 69 82 70 83 71 84 72 85 73 86 49 87 50 88 59 89
REMARK SMILES IDX 51 90 52 91 58 92 60 93 53 94 54 95 55 96 56 97 57 98
REMARK H PARENT 14 7 3 14 88 23 19 29 81 48 47 59
REMARK Flexibility Score: inf
ROOT
ATOM      1  C   UNL A   1      35.694  22.949  24.658  1.00  0.00     0.023 C 
ENDROOT
BRANCH   1   2
ATOM      2  C   UNL A   1      34.793  23.693  23.674  1.00  0.00     0.023 C 
BRANCH   2   3
ATOM      3  C   UNL A   1      34.169  24.977  24.219  1.00  0.00     0.116 C 
BRANCH   3   4
ATOM      4  N   UNL A   1      33.974  25.976  23.187  1.00  0.00    -0.351 N 
ATOM      5  C   UNL A   1      33.098  27.036  23.158  1.00  0.00     0.283 C 
ATOM      6  O   UNL A   1      33.109  27.727  22.134  1.00  0.00    -0.268 OA
ATOM      7  H   UNL A   1      34.550  25.883  22.393  1.00  0.00     0.163 HD
BRANCH   5   8
ATOM      8  C   UNL A   1      32.204  27.326  24.405  1.00  0.00     0.307 C 
BRANCH   8   9
ATOM      9  C   UNL A   1      30.723  27.129  24.135  1.00  0.00     0.047 A 
ATOM     10  C   UNL A   1      30.438  24.571  24.711  1.00  0.00     0.065 C 
ATOM     11  C   UNL A   1      30.014  25.939  24.303  1.00  0.00     0.022 A 
ATOM     12  N   UNL A   1      28.699  26.186  24.002  1.00  0.00    -0.358 N 
ATOM     13  C   UNL A   1      28.526  27.484  23.601  1.00  0.00     0.046 A 
ATOM     14  H   UNL A   1      27.976  25.520  24.067  1.00  0.00     0.166 HD
ATOM     15  C   UNL A   1      29.782  28.090  23.614  1.00  0.00     0.009 A 
ATOM     16  C   UNL A   1      27.357  28.151  23.215  1.00  0.00     0.027 A 
ATOM     17  C   UNL A   1      29.870  29.423  23.153  1.00  0.00     0.011 A 
ATOM     18  C   UNL A   1      27.472  29.482  22.809  1.00  0.00     0.002 A 
ATOM     19  C   UNL A   1      28.713  30.108  22.767  1.00  0.00     0.001 A 
ENDBRANCH   8   9
BRANCH   8  20
ATOM     20  N   UNL A   1      32.539  28.613  25.078  1.00  0.00    -0.321 N 
ATOM     21  C   UNL A   1      33.954  28.797  25.400  1.00  0.00     0.263 C 
ATOM     22  C   UNL A   1      31.806  28.950  26.297  1.00  0.00     0.263 C 
ATOM     23  H   UNL A   1      32.240  29.239  24.331  1.00  0.00     0.349 HD
ATOM     24  C   UNL A   1      34.106  28.443  26.869  1.00  0.00     0.067 C 
ATOM     25  C   UNL A   1      32.737  28.700  27.475  1.00  0.00     0.067 C 
ENDBRANCH   8  20
ENDBRANCH   5   8
ENDBRANCH   3   4
ENDBRANCH   2   3
ENDBRANCH   1   2
BRANCH   1  26
ATOM     26  C   UNL A   1      37.001  23.652  25.007  1.00  0.00     0.116 C 
BRANCH  26  27
ATOM     27  N   UNL A   1      38.082  22.732  25.333  1.00  0.00    -0.352 N 
ATOM     28  C   UNL A   1      39.206  22.963  26.092  1.00  0.00     0.251 C 
ATOM     29  H   UNL A   1      37.998  21.825  24.959  1.00  0.00     0.163 HD
ATOM     30  O   UNL A   1      40.078  22.108  26.187  1.00  0.00    -0.269 OA
BRANCH  28  31
ATOM     31  C   UNL A   1      39.367  24.276  26.752  1.00  0.00     0.039 A 
ATOM     32  C   UNL A   1      38.817  24.464  28.022  1.00  0.00     0.014 A 
ATOM     33  C   UNL A   1      40.121  25.285  26.148  1.00  0.00     0.014 A 
ATOM     34  C   UNL A   1      39.103  25.634  28.730  1.00  0.00     0.010 A 
ATOM     35  C   UNL A   1      40.453  26.423  26.877  1.00  0.00     0.010 A 
ATOM     36  C   UNL A   1      39.966  26.597  28.183  1.00  0.00    -0.014 A 
BRANCH  36  37
ATOM     37  C   UNL A   1      40.427  27.763  28.976  1.00  0.00     0.031 A 
ATOM     38  C   UNL A   1      41.725  27.703  29.729  1.00  0.00     0.074 A 
ATOM     39  C   UNL A   1      39.620  28.837  29.100  1.00  0.00     0.049 A 
ATOM     40  N   UNL A   1      42.232  28.566  30.569  1.00  0.00    -0.248 NA
ATOM     41  C   UNL A   1      42.550  26.500  29.531  1.00  0.00     0.031 C 
ATOM     42  C   UNL A   1      38.311  28.991  28.461  1.00  0.00     0.029 A 
ATOM     43  N   UNL A   1      39.770  29.993  29.827  1.00  0.00    -0.354 N 
ATOM     44  C   UNL A   1      43.422  28.008  31.015  1.00  0.00     0.074 A 
ATOM     45  C   UNL A   1      43.546  26.714  30.378  1.00  0.00     0.031 C 
ATOM     46  C   UNL A   1      37.782  30.172  28.818  1.00  0.00     0.029 A 
ATOM     47  C   UNL A   1      38.693  30.843  29.741  1.00  0.00     0.049 A 
ATOM     48  H   UNL A   1      40.574  30.193  30.359  1.00  0.00     0.167 HD
ATOM     49  C   UNL A   1      44.336  28.535  31.865  1.00  0.00     0.037 A 
ATOM     50  C   UNL A   1      38.454  32.019  30.352  1.00  0.00     0.037 A 
ATOM     51  C   UNL A   1      44.222  29.835  32.471  1.00  0.00     0.049 A 
ATOM     52  C   UNL A   1      39.481  32.581  31.294  1.00  0.00     0.074 A 
ATOM     53  C   UNL A   1      45.136  30.491  33.276  1.00  0.00     0.029 A 
ATOM     54  N   UNL A   1      43.125  30.675  32.344  1.00  0.00    -0.354 N 
ATOM     55  N   UNL A   1      40.638  32.071  31.646  1.00  0.00    -0.248 NA
ATOM     56  C   UNL A   1      39.173  33.870  31.926  1.00  0.00     0.031 C 
ATOM     57  C   UNL A   1      44.575  31.712  33.668  1.00  0.00     0.029 A 
ATOM     58  C   UNL A   1      43.328  31.831  33.078  1.00  0.00     0.049 A 
ATOM     59  H   UNL A   1      42.322  30.477  31.811  1.00  0.00     0.167 HD
ATOM     60  C   UNL A   1      41.201  32.985  32.531  1.00  0.00     0.074 A 
ATOM     61  C   UNL A   1      40.265  34.084  32.649  1.00  0.00     0.031 C 
ATOM     62  C   UNL A   1      42.384  32.916  33.187  1.00  0.00     0.037 A 
BRANCH  49  63
ATOM     63  C   UNL A   1      45.547  27.705  32.184  1.00  0.00     0.058 A 
ATOM     64  C   UNL A   1      46.715  27.783  31.410  1.00  0.00     0.135 A 
ATOM     65  C   UNL A   1      45.554  26.854  33.301  1.00  0.00     0.135 A 
ATOM     66  F   UNL A   1      46.754  28.569  30.323  1.00  0.00    -0.206 F 
ATOM     67  C   UNL A   1      47.841  27.025  31.716  1.00  0.00     0.059 A 
ATOM     68  C   UNL A   1      46.678  26.105  33.640  1.00  0.00     0.059 A 
ATOM     69  F   UNL A   1      44.463  26.744  34.074  1.00  0.00    -0.206 F 
ATOM     70  C   UNL A   1      47.812  26.188  32.832  1.00  0.00     0.060 A 
BRANCH  70  71
ATOM     71  S   UNL A   1      49.283  25.216  33.220  1.00  0.00     0.124 S 
ATOM     72  O   UNL A   1      50.055  26.165  34.017  1.00  0.00    -0.237 OA
ATOM     73  O   UNL A   1      48.725  24.083  33.951  1.00  0.00    -0.237 OA
ATOM     74  O   UNL A   1      49.838  24.900  31.909  1.00  0.00    -0.744 OA
ENDBRANCH  70  71
ENDBRANCH  49  63
BRANCH  50  75
ATOM     75  C   UNL A   1      37.185  32.747  30.089  1.00  0.00     0.058 A 
ATOM     76  C   UNL A   1      37.101  33.698  29.062  1.00  0.00     0.135 A 
ATOM     77  C   UNL A   1      36.029  32.492  30.843  1.00  0.00     0.135 A 
ATOM     78  F   UNL A   1      38.182  33.980  28.319  1.00  0.00    -0.206 F 
ATOM     79  C   UNL A   1      35.918  34.381  28.798  1.00  0.00     0.059 A 
ATOM     80  C   UNL A   1      34.828  33.147  30.583  1.00  0.00     0.059 A 
ATOM     81  F   UNL A   1      36.055  31.579  31.826  1.00  0.00    -0.206 F 
ATOM     82  C   UNL A   1      34.786  34.097  29.564  1.00  0.00     0.060 A 
BRANCH  82  83
ATOM     83  S   UNL A   1      33.240  34.948  29.177  1.00  0.00     0.124 S 
ATOM     84  O   UNL A   1      32.668  34.067  28.165  1.00  0.00    -0.237 OA
ATOM     85  O   UNL A   1      32.563  34.960  30.469  1.00  0.00    -0.237 OA
ATOM     86  O   UNL A   1      33.687  36.253  28.701  1.00  0.00    -0.744 OA
ENDBRANCH  82  83
ENDBRANCH  50  75
BRANCH  62  87
ATOM     87  C   UNL A   1      42.743  34.063  34.088  1.00  0.00     0.058 A 
ATOM     88  C   UNL A   1      42.428  34.043  35.455  1.00  0.00     0.135 A 
ATOM     89  C   UNL A   1      43.466  35.160  33.594  1.00  0.00     0.135 A 
ATOM     90  F   UNL A   1      41.728  33.020  35.972  1.00  0.00    -0.206 F 
ATOM     91  C   UNL A   1      42.812  35.077  36.302  1.00  0.00     0.059 A 
ATOM     92  C   UNL A   1      43.880  36.194  34.428  1.00  0.00     0.059 A 
ATOM     93  F   UNL A   1      43.798  35.221  32.295  1.00  0.00    -0.206 F 
ATOM     94  C   UNL A   1      43.543  36.146  35.780  1.00  0.00     0.060 A 
BRANCH  94  95
ATOM     95  S   UNL A   1      44.084  37.455  36.900  1.00  0.00     0.124 S 
ATOM     96  O   UNL A   1      45.360  36.929  37.371  1.00  0.00    -0.237 OA
ATOM     97  O   UNL A   1      44.162  38.613  36.017  1.00  0.00    -0.237 OA
ATOM     98  O   UNL A   1      43.018  37.507  37.898  1.00  0.00    -0.744 OA
ENDBRANCH  94  95
ENDBRANCH  62  87
ENDBRANCH  36  37
ENDBRANCH  28  31
ENDBRANCH  26  27
ENDBRANCH   1  26
TORSDOF 16
ENDMDL
