MODEL 1
REMARK VINA RESULT:     -10.8      0.000      0.000
REMARK SMILES CC(C)(C)OC(=O)Nc1ccc(SCC(=O)NCCCCNC(=O)c2ccc(-c3c4nc(c(-c5c(F)cc(S(=O)(=O)[O-])cc5F)c5ccc([nH]5)c(-c5c(F)cc(S(=O)(=O)[O-])cc5F)c5nc(c(-c6c(F)cc(S(=O)(=O)[O-])cc6F)c6ccc3[nH]6)C=C5)C=C4)cc2)cc1
REMARK SMILES IDX 18 1 17 2 15 3 16 4 14 6 13 7 12 8 9 9 10 10 92 11 11 12
REMARK SMILES IDX 91 13 8 14 6 15 7 16 5 18 2 19 1 20 3 21 4 22 19 23 20 24
REMARK SMILES IDX 21 25 22 26 23 27 24 29 25 30 26 31 90 32 27 33 89 34 28 35
REMARK SMILES IDX 29 36 30 37 83 38 31 39 88 40 82 41 84 42 32 43 87 44 81 45
REMARK SMILES IDX 80 46 33 48 67 49 46 50 66 51 47 52 50 53 65 54 85 55 48 56
REMARK SMILES IDX 49 57 64 59 86 60 51 61 34 62 35 63 44 64 36 65 37 66 43 67
REMARK SMILES IDX 45 68 38 69 39 70 40 71 41 72 42 73 68 74 69 75 78 76 70 77
REMARK SMILES IDX 71 78 77 79 79 80 72 81 73 82 74 83 75 84 76 85 52 86 53 87
REMARK SMILES IDX 62 88 54 89 55 90 61 91 63 92 56 93 57 94 58 95 59 96 60 97
REMARK H PARENT 17 5 8 17 22 28 84 47 50 58
REMARK Flexibility Score: inf
ROOT
ATOM      1  C   UNL A   1      36.111  21.159  24.679  1.00  0.00     0.116 C 
ENDROOT
BRANCH   1   2
ATOM      2  N   UNL A   1      35.310  20.064  25.187  1.00  0.00    -0.355 N 
ATOM      3  C   UNL A   1      33.996  19.774  24.983  1.00  0.00     0.230 C 
ATOM      4  O   UNL A   1      33.551  18.750  25.509  1.00  0.00    -0.274 OA
ATOM      5  H   UNL A   1      35.789  19.432  25.770  1.00  0.00     0.163 HD
BRANCH   3   6
ATOM      6  C   UNL A   1      33.124  20.605  24.060  1.00  0.00     0.174 C 
BRANCH   6   7
ATOM      7  S   UNL A   1      31.983  21.763  24.877  1.00  0.00    -0.116 SA
BRANCH   7   8
ATOM      8  C   UNL A   1      32.321  23.364  24.165  1.00  0.00     0.008 A 
ATOM      9  C   UNL A   1      33.055  25.926  23.220  1.00  0.00     0.044 A 
ATOM     10  C   UNL A   1      34.004  25.096  23.813  1.00  0.00     0.027 A 
ATOM     11  C   UNL A   1      31.758  25.445  23.043  1.00  0.00     0.027 A 
ATOM     12  C   UNL A   1      33.634  23.838  24.302  1.00  0.00     0.017 A 
ATOM     13  C   UNL A   1      31.402  24.165  23.489  1.00  0.00     0.017 A 
BRANCH   9  14
ATOM     14  N   UNL A   1      33.471  27.194  22.789  1.00  0.00    -0.291 N 
ATOM     15  C   UNL A   1      33.394  28.400  23.437  1.00  0.00     0.412 C 
ATOM     16  O   UNL A   1      33.662  29.439  22.846  1.00  0.00    -0.224 OA
ATOM     17  H   UNL A   1      33.876  27.222  21.892  1.00  0.00     0.173 HD
BRANCH  15  18
ATOM     18  O   UNL A   1      33.116  28.294  24.757  1.00  0.00    -0.444 OA
BRANCH  18  19
ATOM     19  C   UNL A   1      31.830  28.688  25.296  1.00  0.00     0.106 C 
ATOM     20  C   UNL A   1      31.420  27.523  26.210  1.00  0.00     0.056 C 
ATOM     21  C   UNL A   1      30.794  28.832  24.179  1.00  0.00     0.056 C 
ATOM     22  C   UNL A   1      31.937  29.958  26.150  1.00  0.00     0.056 C 
ENDBRANCH  18  19
ENDBRANCH  15  18
ENDBRANCH   9  14
ENDBRANCH   7   8
ENDBRANCH   6   7
ENDBRANCH   3   6
ENDBRANCH   1   2
BRANCH   1  23
ATOM     23  C   UNL A   1      36.666  22.029  25.807  1.00  0.00     0.023 C 
BRANCH  23  24
ATOM     24  C   UNL A   1      37.259  23.371  25.362  1.00  0.00     0.023 C 
BRANCH  24  25
ATOM     25  C   UNL A   1      38.137  24.086  26.387  1.00  0.00     0.116 C 
BRANCH  25  26
ATOM     26  N   UNL A   1      39.554  23.806  26.219  1.00  0.00    -0.352 N 
ATOM     27  C   UNL A   1      40.646  24.490  26.702  1.00  0.00     0.251 C 
ATOM     28  H   UNL A   1      39.763  23.008  25.680  1.00  0.00     0.163 HD
ATOM     29  O   UNL A   1      41.774  24.156  26.352  1.00  0.00    -0.269 OA
BRANCH  27  30
ATOM     30  C   UNL A   1      40.461  25.646  27.607  1.00  0.00     0.039 A 
ATOM     31  C   UNL A   1      39.493  25.564  28.610  1.00  0.00     0.014 A 
ATOM     32  C   UNL A   1      41.243  26.798  27.479  1.00  0.00     0.014 A 
ATOM     33  C   UNL A   1      39.371  26.596  29.545  1.00  0.00     0.010 A 
ATOM     34  C   UNL A   1      41.158  27.802  28.444  1.00  0.00     0.010 A 
ATOM     35  C   UNL A   1      40.237  27.701  29.497  1.00  0.00    -0.014 A 
BRANCH  35  36
ATOM     36  C   UNL A   1      40.244  28.717  30.582  1.00  0.00     0.031 A 
ATOM     37  C   UNL A   1      41.153  28.571  31.770  1.00  0.00     0.074 A 
ATOM     38  C   UNL A   1      39.360  29.734  30.532  1.00  0.00     0.049 A 
ATOM     39  N   UNL A   1      41.230  29.313  32.844  1.00  0.00    -0.248 NA
ATOM     40  C   UNL A   1      42.083  27.430  31.757  1.00  0.00     0.031 C 
ATOM     41  C   UNL A   1      38.390  29.959  29.457  1.00  0.00     0.029 A 
ATOM     42  N   UNL A   1      39.120  30.760  31.412  1.00  0.00    -0.354 N 
ATOM     43  C   UNL A   1      42.206  28.728  33.642  1.00  0.00     0.074 A 
ATOM     44  C   UNL A   1      42.667  27.546  32.942  1.00  0.00     0.031 C 
ATOM     45  C   UNL A   1      37.671  31.057  29.735  1.00  0.00     0.029 A 
ATOM     46  C   UNL A   1      38.099  31.594  31.022  1.00  0.00     0.049 A 
ATOM     47  H   UNL A   1      39.631  30.886  32.244  1.00  0.00     0.167 HD
ATOM     48  C   UNL A   1      42.685  29.147  34.837  1.00  0.00     0.037 A 
ATOM     49  C   UNL A   1      37.556  32.663  31.637  1.00  0.00     0.037 A 
ATOM     50  C   UNL A   1      42.237  30.333  35.521  1.00  0.00     0.049 A 
ATOM     51  C   UNL A   1      38.097  33.101  32.969  1.00  0.00     0.074 A 
ATOM     52  C   UNL A   1      42.712  30.878  36.703  1.00  0.00     0.029 A 
ATOM     53  N   UNL A   1      41.207  31.157  35.091  1.00  0.00    -0.354 N 
ATOM     54  N   UNL A   1      39.066  32.573  33.677  1.00  0.00    -0.248 NA
ATOM     55  C   UNL A   1      37.471  34.279  33.586  1.00  0.00     0.031 C 
ATOM     56  C   UNL A   1      41.945  32.007  37.007  1.00  0.00     0.029 A 
ATOM     57  C   UNL A   1      41.015  32.190  35.996  1.00  0.00     0.049 A 
ATOM     58  H   UNL A   1      40.689  31.027  34.264  1.00  0.00     0.167 HD
ATOM     59  C   UNL A   1      39.175  33.361  34.817  1.00  0.00     0.074 A 
ATOM     60  C   UNL A   1      38.185  34.411  34.697  1.00  0.00     0.031 C 
ATOM     61  C   UNL A   1      40.020  33.223  35.869  1.00  0.00     0.037 A 
BRANCH  48  62
ATOM     62  C   UNL A   1      43.757  28.317  35.487  1.00  0.00     0.058 A 
ATOM     63  C   UNL A   1      45.118  28.566  35.253  1.00  0.00     0.135 A 
ATOM     64  C   UNL A   1      43.422  27.290  36.384  1.00  0.00     0.135 A 
ATOM     65  F   UNL A   1      45.493  29.528  34.394  1.00  0.00    -0.206 F 
ATOM     66  C   UNL A   1      46.111  27.809  35.866  1.00  0.00     0.059 A 
ATOM     67  C   UNL A   1      44.399  26.535  37.026  1.00  0.00     0.059 A 
ATOM     68  F   UNL A   1      42.136  27.012  36.643  1.00  0.00    -0.206 F 
ATOM     69  C   UNL A   1      45.742  26.792  36.749  1.00  0.00     0.060 A 
BRANCH  69  70
ATOM     70  S   UNL A   1      47.041  25.817  37.537  1.00  0.00     0.124 S 
ATOM     71  O   UNL A   1      48.208  26.669  37.331  1.00  0.00    -0.237 OA
ATOM     72  O   UNL A   1      46.566  25.717  38.914  1.00  0.00    -0.237 OA
ATOM     73  O   UNL A   1      47.033  24.568  36.782  1.00  0.00    -0.744 OA
ENDBRANCH  69  70
ENDBRANCH  48  62
BRANCH  49  74
ATOM     74  C   UNL A   1      36.437  33.397  30.991  1.00  0.00     0.058 A 
ATOM     75  C   UNL A   1      36.663  34.204  29.866  1.00  0.00     0.135 A 
ATOM     76  C   UNL A   1      35.123  33.291  31.470  1.00  0.00     0.135 A 
ATOM     77  F   UNL A   1      37.904  34.341  29.378  1.00  0.00    -0.206 F 
ATOM     78  C   UNL A   1      35.625  34.888  29.243  1.00  0.00     0.059 A 
ATOM     79  C   UNL A   1      34.066  33.949  30.851  1.00  0.00     0.059 A 
ATOM     80  F   UNL A   1      34.855  32.518  32.534  1.00  0.00    -0.206 F 
ATOM     81  C   UNL A   1      34.329  34.752  29.742  1.00  0.00     0.060 A 
BRANCH  81  82
ATOM     82  S   UNL A   1      32.978  35.598  28.892  1.00  0.00     0.124 S 
ATOM     83  O   UNL A   1      32.391  34.511  28.120  1.00  0.00    -0.237 OA
ATOM     84  O   UNL A   1      32.177  36.097  30.006  1.00  0.00    -0.237 OA
ATOM     85  O   UNL A   1      33.666  36.627  28.116  1.00  0.00    -0.744 OA
ENDBRANCH  81  82
ENDBRANCH  49  74
BRANCH  61  86
ATOM     86  C   UNL A   1      39.913  34.239  36.972  1.00  0.00     0.058 A 
ATOM     87  C   UNL A   1      40.519  35.499  36.866  1.00  0.00     0.135 A 
ATOM     88  C   UNL A   1      39.162  33.964  38.125  1.00  0.00     0.135 A 
ATOM     89  F   UNL A   1      41.255  35.806  35.787  1.00  0.00    -0.206 F 
ATOM     90  C   UNL A   1      40.399  36.449  37.876  1.00  0.00     0.059 A 
ATOM     91  C   UNL A   1      39.010  34.906  39.138  1.00  0.00     0.059 A 
ATOM     92  F   UNL A   1      38.556  32.775  38.272  1.00  0.00    -0.206 F 
ATOM     93  C   UNL A   1      39.643  36.143  39.008  1.00  0.00     0.060 A 
BRANCH  93  94
ATOM     94  S   UNL A   1      39.464  37.395  40.297  1.00  0.00     0.124 S 
ATOM     95  O   UNL A   1      38.722  38.435  39.594  1.00  0.00    -0.237 OA
ATOM     96  O   UNL A   1      38.725  36.679  41.333  1.00  0.00    -0.237 OA
ATOM     97  O   UNL A   1      40.843  37.729  40.639  1.00  0.00    -0.744 OA
ENDBRANCH  93  94
ENDBRANCH  61  86
ENDBRANCH  35  36
ENDBRANCH  27  30
ENDBRANCH  25  26
ENDBRANCH  24  25
ENDBRANCH  23  24
ENDBRANCH   1  23
TORSDOF 19
ENDMDL
MODEL 2
REMARK VINA RESULT:     -10.6      2.491      9.014
REMARK SMILES CC(C)(C)OC(=O)Nc1ccc(SCC(=O)NCCCCNC(=O)c2ccc(-c3c4nc(c(-c5c(F)cc(S(=O)(=O)[O-])cc5F)c5ccc([nH]5)c(-c5c(F)cc(S(=O)(=O)[O-])cc5F)c5nc(c(-c6c(F)cc(S(=O)(=O)[O-])cc6F)c6ccc3[nH]6)C=C5)C=C4)cc2)cc1
REMARK SMILES IDX 18 1 17 2 15 3 16 4 14 6 13 7 12 8 9 9 10 10 92 11 11 12
REMARK SMILES IDX 91 13 8 14 6 15 7 16 5 18 2 19 1 20 3 21 4 22 19 23 20 24
REMARK SMILES IDX 21 25 22 26 23 27 24 29 25 30 26 31 90 32 27 33 89 34 28 35
REMARK SMILES IDX 29 36 30 37 83 38 31 39 88 40 82 41 84 42 32 43 87 44 81 45
REMARK SMILES IDX 80 46 33 48 67 49 46 50 66 51 47 52 50 53 65 54 85 55 48 56
REMARK SMILES IDX 49 57 64 59 86 60 51 61 34 62 35 63 44 64 36 65 37 66 43 67
REMARK SMILES IDX 45 68 38 69 39 70 40 71 41 72 42 73 68 74 69 75 78 76 70 77
REMARK SMILES IDX 71 78 77 79 79 80 72 81 73 82 74 83 75 84 76 85 52 86 53 87
REMARK SMILES IDX 62 88 54 89 55 90 61 91 63 92 56 93 57 94 58 95 59 96 60 97
REMARK H PARENT 17 5 8 17 22 28 84 47 50 58
REMARK Flexibility Score: inf
ROOT
ATOM      1  C   UNL A   1      44.742  21.687  25.274  1.00  0.00     0.116 C 
ENDROOT
BRANCH   1   2
ATOM      2  N   UNL A   1      43.902  20.649  25.836  1.00  0.00    -0.355 N 
ATOM      3  C   UNL A   1      42.588  20.681  26.186  1.00  0.00     0.230 C 
ATOM      4  O   UNL A   1      42.088  19.639  26.619  1.00  0.00    -0.274 OA
ATOM      5  H   UNL A   1      44.352  19.786  25.988  1.00  0.00     0.163 HD
BRANCH   3   6
ATOM      6  C   UNL A   1      41.726  21.909  25.958  1.00  0.00     0.174 C 
BRANCH   6   7
ATOM      7  S   UNL A   1      40.379  22.166  27.155  1.00  0.00    -0.116 SA
BRANCH   7   8
ATOM      8  C   UNL A   1      38.910  22.446  26.181  1.00  0.00     0.008 A 
ATOM      9  C   UNL A   1      36.677  22.705  24.466  1.00  0.00     0.044 A 
ATOM     10  C   UNL A   1      37.360  21.493  24.555  1.00  0.00     0.027 A 
ATOM     11  C   UNL A   1      37.073  23.762  25.285  1.00  0.00     0.027 A 
ATOM     12  C   UNL A   1      38.480  21.374  25.386  1.00  0.00     0.017 A 
ATOM     13  C   UNL A   1      38.165  23.624  26.153  1.00  0.00     0.017 A 
BRANCH   9  14
ATOM     14  N   UNL A   1      35.589  22.780  23.584  1.00  0.00    -0.291 N 
ATOM     15  C   UNL A   1      34.246  22.773  23.859  1.00  0.00     0.412 C 
ATOM     16  O   UNL A   1      33.428  22.686  22.952  1.00  0.00    -0.224 OA
ATOM     17  H   UNL A   1      35.824  22.848  22.630  1.00  0.00     0.173 HD
BRANCH  15  18
ATOM     18  O   UNL A   1      33.955  22.979  25.164  1.00  0.00    -0.444 OA
BRANCH  18  19
ATOM     19  C   UNL A   1      33.424  21.920  26.000  1.00  0.00     0.106 C 
ATOM     20  C   UNL A   1      31.915  22.201  26.069  1.00  0.00     0.056 C 
ATOM     21  C   UNL A   1      34.010  21.998  27.412  1.00  0.00     0.056 C 
ATOM     22  C   UNL A   1      33.631  20.539  25.366  1.00  0.00     0.056 C 
ENDBRANCH  18  19
ENDBRANCH  15  18
ENDBRANCH   9  14
ENDBRANCH   7   8
ENDBRANCH   6   7
ENDBRANCH   3   6
ENDBRANCH   1   2
BRANCH   1  23
ATOM     23  C   UNL A   1      45.255  22.647  26.347  1.00  0.00     0.023 C 
BRANCH  23  24
ATOM     24  C   UNL A   1      45.853  23.956  25.818  1.00  0.00     0.023 C 
BRANCH  24  25
ATOM     25  C   UNL A   1      45.081  25.229  26.159  1.00  0.00     0.116 C 
BRANCH  25  26
ATOM     26  N   UNL A   1      43.860  25.381  25.384  1.00  0.00    -0.352 N 
ATOM     27  C   UNL A   1      42.652  25.929  25.750  1.00  0.00     0.251 C 
ATOM     28  H   UNL A   1      43.904  25.043  24.460  1.00  0.00     0.163 HD
ATOM     29  O   UNL A   1      41.697  25.861  24.982  1.00  0.00    -0.269 OA
BRANCH  27  30
ATOM     30  C   UNL A   1      42.491  26.561  27.079  1.00  0.00     0.039 A 
ATOM     31  C   UNL A   1      43.160  27.761  27.334  1.00  0.00     0.014 A 
ATOM     32  C   UNL A   1      41.679  25.988  28.061  1.00  0.00     0.014 A 
ATOM     33  C   UNL A   1      42.942  28.435  28.539  1.00  0.00     0.010 A 
ATOM     34  C   UNL A   1      41.420  26.687  29.240  1.00  0.00     0.010 A 
ATOM     35  C   UNL A   1      42.032  27.927  29.480  1.00  0.00    -0.014 A 
BRANCH  35  36
ATOM     36  C   UNL A   1      41.651  28.716  30.682  1.00  0.00     0.031 A 
ATOM     37  C   UNL A   1      40.480  29.657  30.647  1.00  0.00     0.074 A 
ATOM     38  C   UNL A   1      42.422  28.641  31.785  1.00  0.00     0.049 A 
ATOM     39  N   UNL A   1      40.059  30.482  31.570  1.00  0.00    -0.248 NA
ATOM     40  C   UNL A   1      39.692  29.690  29.405  1.00  0.00     0.031 C 
ATOM     41  C   UNL A   1      43.615  27.802  31.927  1.00  0.00     0.029 A 
ATOM     42  N   UNL A   1      42.331  29.292  32.990  1.00  0.00    -0.354 N 
ATOM     43  C   UNL A   1      38.965  31.141  31.023  1.00  0.00     0.074 A 
ATOM     44  C   UNL A   1      38.810  30.645  29.671  1.00  0.00     0.031 C 
ATOM     45  C   UNL A   1      44.135  27.980  33.151  1.00  0.00     0.029 A 
ATOM     46  C   UNL A   1      43.340  28.971  33.868  1.00  0.00     0.049 A 
ATOM     47  H   UNL A   1      41.612  29.928  33.206  1.00  0.00     0.167 HD
ATOM     48  C   UNL A   1      38.155  32.060  31.600  1.00  0.00     0.037 A 
ATOM     49  C   UNL A   1      43.606  29.432  35.106  1.00  0.00     0.037 A 
ATOM     50  C   UNL A   1      38.301  32.537  32.951  1.00  0.00     0.049 A 
ATOM     51  C   UNL A   1      42.699  30.462  35.720  1.00  0.00     0.074 A 
ATOM     52  C   UNL A   1      37.487  33.416  33.647  1.00  0.00     0.029 A 
ATOM     53  N   UNL A   1      39.329  32.184  33.812  1.00  0.00    -0.354 N 
ATOM     54  N   UNL A   1      41.629  31.025  35.210  1.00  0.00    -0.248 NA
ATOM     55  C   UNL A   1      43.034  30.920  37.075  1.00  0.00     0.031 C 
ATOM     56  C   UNL A   1      38.044  33.623  34.913  1.00  0.00     0.029 A 
ATOM     57  C   UNL A   1      39.185  32.845  35.022  1.00  0.00     0.049 A 
ATOM     58  H   UNL A   1      40.055  31.555  33.595  1.00  0.00     0.167 HD
ATOM     59  C   UNL A   1      41.157  31.893  36.186  1.00  0.00     0.074 A 
ATOM     60  C   UNL A   1      42.046  31.770  37.322  1.00  0.00     0.031 C 
ATOM     61  C   UNL A   1      40.083  32.720  36.142  1.00  0.00     0.037 A 
BRANCH  48  62
ATOM     62  C   UNL A   1      37.029  32.613  30.771  1.00  0.00     0.058 A 
ATOM     63  C   UNL A   1      37.212  33.726  29.936  1.00  0.00     0.135 A 
ATOM     64  C   UNL A   1      35.766  32.000  30.780  1.00  0.00     0.135 A 
ATOM     65  F   UNL A   1      38.397  34.358  29.900  1.00  0.00    -0.206 F 
ATOM     66  C   UNL A   1      36.175  34.229  29.158  1.00  0.00     0.059 A 
ATOM     67  C   UNL A   1      34.720  32.472  29.992  1.00  0.00     0.059 A 
ATOM     68  F   UNL A   1      35.539  30.932  31.560  1.00  0.00    -0.206 F 
ATOM     69  C   UNL A   1      34.930  33.597  29.194  1.00  0.00     0.060 A 
BRANCH  69  70
ATOM     70  S   UNL A   1      33.593  34.260  28.179  1.00  0.00     0.124 S 
ATOM     71  O   UNL A   1      34.340  34.967  27.143  1.00  0.00    -0.237 OA
ATOM     72  O   UNL A   1      32.900  33.050  27.745  1.00  0.00    -0.237 OA
ATOM     73  O   UNL A   1      32.850  35.106  29.106  1.00  0.00    -0.744 OA
ENDBRANCH  69  70
ENDBRANCH  48  62
BRANCH  49  74
ATOM     74  C   UNL A   1      44.784  28.916  35.849  1.00  0.00     0.058 A 
ATOM     75  C   UNL A   1      46.055  29.478  35.658  1.00  0.00     0.135 A 
ATOM     76  C   UNL A   1      44.661  27.870  36.775  1.00  0.00     0.135 A 
ATOM     77  F   UNL A   1      46.222  30.475  34.777  1.00  0.00    -0.206 F 
ATOM     78  C   UNL A   1      47.166  29.013  36.354  1.00  0.00     0.059 A 
ATOM     79  C   UNL A   1      45.753  27.403  37.498  1.00  0.00     0.059 A 
ATOM     80  F   UNL A   1      43.462  27.312  37.003  1.00  0.00    -0.206 F 
ATOM     81  C   UNL A   1      47.004  27.977  37.274  1.00  0.00     0.060 A 
BRANCH  81  82
ATOM     82  S   UNL A   1      48.442  27.419  38.215  1.00  0.00     0.124 S 
ATOM     83  O   UNL A   1      48.755  26.160  37.552  1.00  0.00    -0.237 OA
ATOM     84  O   UNL A   1      49.391  28.508  38.002  1.00  0.00    -0.237 OA
ATOM     85  O   UNL A   1      47.925  27.307  39.577  1.00  0.00    -0.744 OA
ENDBRANCH  81  82
ENDBRANCH  49  74
BRANCH  61  86
ATOM     86  C   UNL A   1      39.807  33.552  37.363  1.00  0.00     0.058 A 
ATOM     87  C   UNL A   1      40.464  34.772  37.580  1.00  0.00     0.135 A 
ATOM     88  C   UNL A   1      38.845  33.145  38.301  1.00  0.00     0.135 A 
ATOM     89  F   UNL A   1      41.398  35.199  36.717  1.00  0.00    -0.206 F 
ATOM     90  C   UNL A   1      40.189  35.554  38.697  1.00  0.00     0.059 A 
ATOM     91  C   UNL A   1      38.539  33.923  39.414  1.00  0.00     0.059 A 
ATOM     92  F   UNL A   1      38.183  31.990  38.135  1.00  0.00    -0.206 F 
ATOM     93  C   UNL A   1      39.225  35.122  39.609  1.00  0.00     0.060 A 
BRANCH  93  94
ATOM     94  S   UNL A   1      38.852  36.162  41.037  1.00  0.00     0.124 S 
ATOM     95  O   UNL A   1      37.751  35.430  41.653  1.00  0.00    -0.237 OA
ATOM     96  O   UNL A   1      40.112  36.149  41.774  1.00  0.00    -0.237 OA
ATOM     97  O   UNL A   1      38.498  37.445  40.439  1.00  0.00    -0.744 OA
ENDBRANCH  93  94
ENDBRANCH  61  86
ENDBRANCH  35  36
ENDBRANCH  27  30
ENDBRANCH  25  26
ENDBRANCH  24  25
ENDBRANCH  23  24
ENDBRANCH   1  23
TORSDOF 19
ENDMDL
MODEL 3
REMARK VINA RESULT:     -10.3      6.691     11.018
REMARK SMILES CC(C)(C)OC(=O)Nc1ccc(SCC(=O)NCCCCNC(=O)c2ccc(-c3c4nc(c(-c5c(F)cc(S(=O)(=O)[O-])cc5F)c5ccc([nH]5)c(-c5c(F)cc(S(=O)(=O)[O-])cc5F)c5nc(c(-c6c(F)cc(S(=O)(=O)[O-])cc6F)c6ccc3[nH]6)C=C5)C=C4)cc2)cc1
REMARK SMILES IDX 18 1 17 2 15 3 16 4 14 6 13 7 12 8 9 9 10 10 92 11 11 12
REMARK SMILES IDX 91 13 8 14 6 15 7 16 5 18 2 19 1 20 3 21 4 22 19 23 20 24
REMARK SMILES IDX 21 25 22 26 23 27 24 29 25 30 26 31 90 32 27 33 89 34 28 35
REMARK SMILES IDX 29 36 30 37 83 38 31 39 88 40 82 41 84 42 32 43 87 44 81 45
REMARK SMILES IDX 80 46 33 48 67 49 46 50 66 51 47 52 50 53 65 54 85 55 48 56
REMARK SMILES IDX 49 57 64 59 86 60 51 61 34 62 35 63 44 64 36 65 37 66 43 67
REMARK SMILES IDX 45 68 38 69 39 70 40 71 41 72 42 73 68 74 69 75 78 76 70 77
REMARK SMILES IDX 71 78 77 79 79 80 72 81 73 82 74 83 75 84 76 85 52 86 53 87
REMARK SMILES IDX 62 88 54 89 55 90 61 91 63 92 56 93 57 94 58 95 59 96 60 97
REMARK H PARENT 17 5 8 17 22 28 84 47 50 58
REMARK Flexibility Score: inf
ROOT
ATOM      1  C   UNL A   1      37.842  23.368  26.095  1.00  0.00     0.116 C 
ENDROOT
BRANCH   1   2
ATOM      2  N   UNL A   1      37.547  23.457  24.679  1.00  0.00    -0.355 N 
ATOM      3  C   UNL A   1      36.677  22.738  23.920  1.00  0.00     0.230 C 
ATOM      4  O   UNL A   1      36.586  23.034  22.724  1.00  0.00    -0.274 OA
ATOM      5  H   UNL A   1      38.057  24.144  24.190  1.00  0.00     0.163 HD
BRANCH   3   6
ATOM      6  C   UNL A   1      35.766  21.686  24.523  1.00  0.00     0.174 C 
BRANCH   6   7
ATOM      7  S   UNL A   1      34.401  22.312  25.551  1.00  0.00    -0.116 SA
BRANCH   7   8
ATOM      8  C   UNL A   1      33.490  23.444  24.515  1.00  0.00     0.008 A 
ATOM      9  C   UNL A   1      32.156  25.436  23.018  1.00  0.00     0.044 A 
ATOM     10  C   UNL A   1      33.389  25.706  23.607  1.00  0.00     0.027 A 
ATOM     11  C   UNL A   1      31.627  24.150  23.124  1.00  0.00     0.027 A 
ATOM     12  C   UNL A   1      34.037  24.726  24.368  1.00  0.00     0.017 A 
ATOM     13  C   UNL A   1      32.301  23.156  23.846  1.00  0.00     0.017 A 
BRANCH   9  14
ATOM     14  N   UNL A   1      31.531  26.469  22.304  1.00  0.00    -0.291 N 
ATOM     15  C   UNL A   1      30.816  27.540  22.774  1.00  0.00     0.412 C 
ATOM     16  O   UNL A   1      30.200  28.263  22.000  1.00  0.00    -0.224 OA
ATOM     17  H   UNL A   1      31.617  26.418  21.324  1.00  0.00     0.173 HD
BRANCH  15  18
ATOM     18  O   UNL A   1      30.961  27.753  24.103  1.00  0.00    -0.444 OA
BRANCH  18  19
ATOM     19  C   UNL A   1      31.544  28.977  24.617  1.00  0.00     0.106 C 
ATOM     20  C   UNL A   1      31.713  28.721  26.123  1.00  0.00     0.056 C 
ATOM     21  C   UNL A   1      30.592  30.158  24.416  1.00  0.00     0.056 C 
ATOM     22  C   UNL A   1      32.929  29.243  24.013  1.00  0.00     0.056 C 
ENDBRANCH  18  19
ENDBRANCH  15  18
ENDBRANCH   9  14
ENDBRANCH   7   8
ENDBRANCH   6   7
ENDBRANCH   3   6
ENDBRANCH   1   2
BRANCH   1  23
ATOM     23  C   UNL A   1      39.240  22.806  26.351  1.00  0.00     0.023 C 
BRANCH  23  24
ATOM     24  C   UNL A   1      39.505  21.421  25.749  1.00  0.00     0.023 C 
BRANCH  24  25
ATOM     25  C   UNL A   1      39.866  20.319  26.742  1.00  0.00     0.116 C 
BRANCH  25  26
ATOM     26  N   UNL A   1      40.824  19.363  26.211  1.00  0.00    -0.352 N 
ATOM     27  C   UNL A   1      42.165  19.523  25.943  1.00  0.00     0.251 C 
ATOM     28  H   UNL A   1      40.461  18.469  26.015  1.00  0.00     0.163 HD
ATOM     29  O   UNL A   1      42.784  18.622  25.384  1.00  0.00    -0.269 OA
BRANCH  27  30
ATOM     30  C   UNL A   1      42.849  20.790  26.288  1.00  0.00     0.039 A 
ATOM     31  C   UNL A   1      43.511  21.489  25.277  1.00  0.00     0.014 A 
ATOM     32  C   UNL A   1      42.828  21.293  27.592  1.00  0.00     0.014 A 
ATOM     33  C   UNL A   1      44.073  22.740  25.550  1.00  0.00     0.010 A 
ATOM     34  C   UNL A   1      43.342  22.564  27.851  1.00  0.00     0.010 A 
ATOM     35  C   UNL A   1      43.949  23.308  26.828  1.00  0.00    -0.014 A 
BRANCH  35  36
ATOM     36  C   UNL A   1      44.379  24.707  27.091  1.00  0.00     0.031 A 
ATOM     37  C   UNL A   1      43.383  25.757  27.495  1.00  0.00     0.074 A 
ATOM     38  C   UNL A   1      45.666  25.046  26.879  1.00  0.00     0.049 A 
ATOM     39  N   UNL A   1      43.567  27.038  27.680  1.00  0.00    -0.248 NA
ATOM     40  C   UNL A   1      41.995  25.312  27.698  1.00  0.00     0.031 C 
ATOM     41  C   UNL A   1      46.721  24.129  26.437  1.00  0.00     0.029 A 
ATOM     42  N   UNL A   1      46.306  26.256  26.989  1.00  0.00    -0.354 N 
ATOM     43  C   UNL A   1      42.321  27.558  28.011  1.00  0.00     0.074 A 
ATOM     44  C   UNL A   1      41.381  26.457  27.964  1.00  0.00     0.031 C 
ATOM     45  C   UNL A   1      47.875  24.806  26.326  1.00  0.00     0.029 A 
ATOM     46  C   UNL A   1      47.638  26.208  26.651  1.00  0.00     0.049 A 
ATOM     47  H   UNL A   1      45.854  27.079  27.283  1.00  0.00     0.167 HD
ATOM     48  C   UNL A   1      41.996  28.831  28.340  1.00  0.00     0.037 A 
ATOM     49  C   UNL A   1      48.564  27.185  26.593  1.00  0.00     0.037 A 
ATOM     50  C   UNL A   1      42.937  29.919  28.404  1.00  0.00     0.049 A 
ATOM     51  C   UNL A   1      48.176  28.592  26.951  1.00  0.00     0.074 A 
ATOM     52  C   UNL A   1      42.714  31.229  28.796  1.00  0.00     0.029 A 
ATOM     53  N   UNL A   1      44.278  29.831  28.062  1.00  0.00    -0.354 N 
ATOM     54  N   UNL A   1      47.005  29.052  27.325  1.00  0.00    -0.248 NA
ATOM     55  C   UNL A   1      49.230  29.613  26.878  1.00  0.00     0.031 C 
ATOM     56  C   UNL A   1      43.910  31.941  28.654  1.00  0.00     0.029 A 
ATOM     57  C   UNL A   1      44.889  31.067  28.209  1.00  0.00     0.049 A 
ATOM     58  H   UNL A   1      44.731  29.011  27.760  1.00  0.00     0.167 HD
ATOM     59  C   UNL A   1      47.186  30.412  27.545  1.00  0.00     0.074 A 
ATOM     60  C   UNL A   1      48.580  30.698  27.277  1.00  0.00     0.031 C 
ATOM     61  C   UNL A   1      46.276  31.340  27.932  1.00  0.00     0.037 A 
BRANCH  48  62
ATOM     62  C   UNL A   1      40.556  29.119  28.662  1.00  0.00     0.058 A 
ATOM     63  C   UNL A   1      40.101  29.187  29.988  1.00  0.00     0.135 A 
ATOM     64  C   UNL A   1      39.630  29.372  27.637  1.00  0.00     0.135 A 
ATOM     65  F   UNL A   1      40.943  28.942  31.005  1.00  0.00    -0.206 F 
ATOM     66  C   UNL A   1      38.773  29.469  30.287  1.00  0.00     0.059 A 
ATOM     67  C   UNL A   1      38.301  29.678  27.914  1.00  0.00     0.059 A 
ATOM     68  F   UNL A   1      40.013  29.320  26.353  1.00  0.00    -0.206 F 
ATOM     69  C   UNL A   1      37.878  29.711  29.243  1.00  0.00     0.060 A 
BRANCH  69  70
ATOM     70  S   UNL A   1      36.157  30.076  29.646  1.00  0.00     0.124 S 
ATOM     71  O   UNL A   1      36.052  29.528  30.994  1.00  0.00    -0.237 OA
ATOM     72  O   UNL A   1      36.115  31.532  29.550  1.00  0.00    -0.237 OA
ATOM     73  O   UNL A   1      35.408  29.362  28.617  1.00  0.00    -0.744 OA
ENDBRANCH  69  70
ENDBRANCH  48  62
BRANCH  49  74
ATOM     74  C   UNL A   1      49.955  26.861  26.183  1.00  0.00     0.058 A 
ATOM     75  C   UNL A   1      50.357  26.989  24.845  1.00  0.00     0.135 A 
ATOM     76  C   UNL A   1      50.911  26.438  27.118  1.00  0.00     0.135 A 
ATOM     77  F   UNL A   1      49.475  27.384  23.915  1.00  0.00    -0.206 F 
ATOM     78  C   UNL A   1      51.658  26.701  24.446  1.00  0.00     0.059 A 
ATOM     79  C   UNL A   1      52.223  26.163  26.747  1.00  0.00     0.059 A 
ATOM     80  F   UNL A   1      50.577  26.315  28.412  1.00  0.00    -0.206 F 
ATOM     81  C   UNL A   1      52.585  26.291  25.406  1.00  0.00     0.060 A 
BRANCH  81  82
ATOM     82  S   UNL A   1      54.286  25.973  24.889  1.00  0.00     0.124 S 
ATOM     83  O   UNL A   1      54.159  25.985  23.437  1.00  0.00    -0.237 OA
ATOM     84  O   UNL A   1      55.002  27.102  25.477  1.00  0.00    -0.237 OA
ATOM     85  O   UNL A   1      54.580  24.675  25.490  1.00  0.00    -0.744 OA
ENDBRANCH  81  82
ENDBRANCH  49  74
BRANCH  61  86
ATOM     86  C   UNL A   1      46.763  32.752  28.095  1.00  0.00     0.058 A 
ATOM     87  C   UNL A   1      46.654  33.688  27.056  1.00  0.00     0.135 A 
ATOM     88  C   UNL A   1      47.304  33.184  29.317  1.00  0.00     0.135 A 
ATOM     89  F   UNL A   1      46.152  33.321  25.867  1.00  0.00    -0.206 F 
ATOM     90  C   UNL A   1      47.081  35.003  27.216  1.00  0.00     0.059 A 
ATOM     91  C   UNL A   1      47.717  34.500  29.505  1.00  0.00     0.059 A 
ATOM     92  F   UNL A   1      47.423  32.330  30.345  1.00  0.00    -0.206 F 
ATOM     93  C   UNL A   1      47.612  35.399  28.444  1.00  0.00     0.060 A 
BRANCH  93  94
ATOM     94  S   UNL A   1      48.131  37.116  28.652  1.00  0.00     0.124 S 
ATOM     95  O   UNL A   1      47.600  37.424  29.975  1.00  0.00    -0.237 OA
ATOM     96  O   UNL A   1      49.585  37.019  28.559  1.00  0.00    -0.237 OA
ATOM     97  O   UNL A   1      47.484  37.803  27.540  1.00  0.00    -0.744 OA
ENDBRANCH  93  94
ENDBRANCH  61  86
ENDBRANCH  35  36
ENDBRANCH  27  30
ENDBRANCH  25  26
ENDBRANCH  24  25
ENDBRANCH  23  24
ENDBRANCH   1  23
TORSDOF 19
ENDMDL
