MODEL 1
REMARK VINA RESULT:     -12.9      0.000      0.000
REMARK SMILES CCOC(=O)c1c(-c2cccc3ccccc23)csc1NC(=O)[C@H]1CC=CC[C@H]1C(=O)NCCCCNC(=O)c1ccc(-c2c3nc(c(-c4c(F)cc(S(=O)(=O)[O-])cc4F)c4ccc([nH]4)c(-c4c(F)cc(S(=O)(=O)[O-])cc4F)c4nc(c(-c5c(F)cc(S(=O)(=O)[O-])cc5F)c5ccc2[nH]5)C=C4)C=C3)cc1
REMARK SMILES IDX 33 1 32 2 30 3 31 4 29 6 24 7 25 8 26 9 28 10 27 11 22 12
REMARK SMILES IDX 21 13 23 15 20 16 6 17 7 18 18 19 19 20 4 21 5 22 3 23 2 24
REMARK SMILES IDX 1 25 8 26 9 27 17 28 10 29 12 30 16 31 11 32 13 33 15 34
REMARK SMILES IDX 14 35 34 36 35 37 36 38 37 39 38 40 39 42 40 43 41 44 105 45
REMARK SMILES IDX 42 46 104 47 43 48 44 49 45 50 98 51 46 52 103 53 97 54
REMARK SMILES IDX 99 55 47 56 102 57 96 58 95 59 48 61 82 62 61 63 81 64 62 65
REMARK SMILES IDX 65 66 80 67 100 68 63 69 64 70 79 72 101 73 66 74 49 75
REMARK SMILES IDX 50 76 59 77 51 78 52 79 58 80 60 81 53 82 54 83 55 84 56 85
REMARK SMILES IDX 57 86 83 87 84 88 93 89 85 90 86 91 92 92 94 93 87 94 88 95
REMARK SMILES IDX 89 96 90 97 91 98 67 99 68 100 77 101 69 102 70 103 76 104
REMARK SMILES IDX 78 105 71 106 72 107 73 108 74 109 75 110
REMARK H PARENT 32 5 21 14 37 41 99 60 65 71
REMARK Flexibility Score: inf
ROOT
ATOM      1  C   UNL A   1      38.258  21.618  25.392  1.00  0.00     0.116 C 
ENDROOT
BRANCH   1   2
ATOM      2  N   UNL A   1      37.477  22.224  24.334  1.00  0.00    -0.356 N 
ATOM      3  C   UNL A   1      36.174  22.579  24.251  1.00  0.00     0.224 C 
ATOM      4  O   UNL A   1      35.780  22.939  23.135  1.00  0.00    -0.275 OA
ATOM      5  H   UNL A   1      37.994  22.415  23.518  1.00  0.00     0.163 HD
BRANCH   3   6
ATOM      6  C   UNL A   1      35.181  22.539  25.408  1.00  0.00     0.095 C 
ATOM      7  C   UNL A   1      34.097  23.637  25.374  1.00  0.00     0.095 C 
ATOM      8  C   UNL A   1      33.432  23.741  26.764  1.00  0.00     0.041 C 
ATOM      9  C   UNL A   1      33.197  22.411  27.437  1.00  0.00    -0.030 C 
ATOM     10  C   UNL A   1      34.707  21.160  25.870  1.00  0.00     0.041 C 
ATOM     11  C   UNL A   1      33.751  21.259  27.028  1.00  0.00    -0.030 C 
BRANCH   7  12
ATOM     12  C   UNL A   1      32.983  23.422  24.358  1.00  0.00     0.229 C 
ATOM     13  N   UNL A   1      32.449  24.409  23.585  1.00  0.00    -0.317 N 
ATOM     14  H   UNL A   1      31.818  24.057  22.916  1.00  0.00     0.170 HD
ATOM     15  O   UNL A   1      32.517  22.291  24.170  1.00  0.00    -0.274 OA
BRANCH  13  16
ATOM     16  C   UNL A   1      32.579  25.782  23.512  1.00  0.00     0.110 A 
ATOM     17  C   UNL A   1      31.965  26.693  24.366  1.00  0.00     0.102 A 
ATOM     18  C   UNL A   1      32.474  28.030  24.149  1.00  0.00     0.010 A 
ATOM     19  C   UNL A   1      33.351  28.078  23.084  1.00  0.00     0.076 A 
ATOM     20  S   UNL A   1      33.638  26.534  22.426  1.00  0.00    -0.125 S 
BRANCH  17  21
ATOM     21  C   UNL A   1      30.997  26.295  25.393  1.00  0.00     0.341 C 
ATOM     22  O   UNL A   1      31.234  26.401  26.591  1.00  0.00    -0.246 OA
BRANCH  21  23
ATOM     23  O   UNL A   1      29.844  25.800  24.868  1.00  0.00    -0.462 OA
BRANCH  23  24
ATOM     24  C   UNL A   1      29.236  26.539  23.797  1.00  0.00     0.230 C 
ATOM     25  C   UNL A   1      27.743  26.730  23.992  1.00  0.00     0.049 C 
ENDBRANCH  23  24
ENDBRANCH  21  23
ENDBRANCH  17  21
BRANCH  18  26
ATOM     26  C   UNL A   1      32.256  29.214  24.982  1.00  0.00    -0.009 A 
ATOM     27  C   UNL A   1      31.097  29.976  24.773  1.00  0.00     0.009 A 
ATOM     28  C   UNL A   1      33.187  29.573  26.004  1.00  0.00    -0.010 A 
ATOM     29  C   UNL A   1      30.839  31.088  25.567  1.00  0.00     0.001 A 
ATOM     30  C   UNL A   1      32.895  30.698  26.813  1.00  0.00    -0.018 A 
ATOM     31  C   UNL A   1      34.393  28.874  26.272  1.00  0.00     0.009 A 
ATOM     32  C   UNL A   1      31.729  31.442  26.580  1.00  0.00     0.009 A 
ATOM     33  C   UNL A   1      33.770  31.063  27.852  1.00  0.00     0.009 A 
ATOM     34  C   UNL A   1      35.247  29.242  27.313  1.00  0.00     0.001 A 
ATOM     35  C   UNL A   1      34.933  30.336  28.106  1.00  0.00     0.001 A 
ENDBRANCH  18  26
ENDBRANCH  13  16
ENDBRANCH   7  12
ENDBRANCH   3   6
ENDBRANCH   1   2
BRANCH   1  36
ATOM     36  C   UNL A   1      38.847  22.688  26.306  1.00  0.00     0.023 C 
BRANCH  36  37
ATOM     37  C   UNL A   1      40.014  22.239  27.172  1.00  0.00     0.023 C 
BRANCH  37  38
ATOM     38  C   UNL A   1      41.181  23.210  27.248  1.00  0.00     0.116 C 
BRANCH  38  39
ATOM     39  N   UNL A   1      41.312  24.089  26.094  1.00  0.00    -0.352 N 
ATOM     40  C   UNL A   1      41.396  25.464  26.079  1.00  0.00     0.251 C 
ATOM     41  H   UNL A   1      41.344  23.647  25.216  1.00  0.00     0.163 HD
ATOM     42  O   UNL A   1      41.459  26.076  25.019  1.00  0.00    -0.269 OA
BRANCH  40  43
ATOM     43  C   UNL A   1      41.349  26.195  27.363  1.00  0.00     0.039 A 
ATOM     44  C   UNL A   1      42.428  27.011  27.712  1.00  0.00     0.014 A 
ATOM     45  C   UNL A   1      40.206  26.149  28.163  1.00  0.00     0.014 A 
ATOM     46  C   UNL A   1      42.318  27.857  28.816  1.00  0.00     0.010 A 
ATOM     47  C   UNL A   1      40.067  27.053  29.209  1.00  0.00     0.010 A 
ATOM     48  C   UNL A   1      41.117  27.922  29.539  1.00  0.00    -0.014 A 
BRANCH  48  49
ATOM     49  C   UNL A   1      40.924  28.901  30.637  1.00  0.00     0.031 A 
ATOM     50  C   UNL A   1      41.742  28.789  31.893  1.00  0.00     0.074 A 
ATOM     51  C   UNL A   1      39.940  29.817  30.547  1.00  0.00     0.049 A 
ATOM     52  N   UNL A   1      41.640  29.464  33.007  1.00  0.00    -0.248 NA
ATOM     53  C   UNL A   1      42.782  27.747  31.913  1.00  0.00     0.031 C 
ATOM     54  C   UNL A   1      39.021  29.970  29.417  1.00  0.00     0.029 A 
ATOM     55  N   UNL A   1      39.534  30.782  31.435  1.00  0.00    -0.354 N 
ATOM     56  C   UNL A   1      42.568  28.901  33.875  1.00  0.00     0.074 A 
ATOM     57  C   UNL A   1      43.198  27.807  33.169  1.00  0.00     0.031 C 
ATOM     58  C   UNL A   1      38.170  30.978  29.672  1.00  0.00     0.029 A 
ATOM     59  C   UNL A   1      38.465  31.525  30.992  1.00  0.00     0.049 A 
ATOM     60  H   UNL A   1      39.966  30.928  32.306  1.00  0.00     0.167 HD
ATOM     61  C   UNL A   1      42.879  29.274  35.139  1.00  0.00     0.037 A 
ATOM     62  C   UNL A   1      37.797  32.532  31.585  1.00  0.00     0.037 A 
ATOM     63  C   UNL A   1      42.297  30.404  35.810  1.00  0.00     0.049 A 
ATOM     64  C   UNL A   1      38.231  32.999  32.945  1.00  0.00     0.074 A 
ATOM     65  C   UNL A   1      42.617  30.929  37.050  1.00  0.00     0.029 A 
ATOM     66  N   UNL A   1      41.280  31.192  35.291  1.00  0.00    -0.354 N 
ATOM     67  N   UNL A   1      39.164  32.506  33.722  1.00  0.00    -0.248 NA
ATOM     68  C   UNL A   1      37.531  34.164  33.505  1.00  0.00     0.031 C 
ATOM     69  C   UNL A   1      41.781  32.027  37.287  1.00  0.00     0.029 A 
ATOM     70  C   UNL A   1      40.958  32.198  36.185  1.00  0.00     0.049 A 
ATOM     71  H   UNL A   1      40.852  31.056  34.414  1.00  0.00     0.167 HD
ATOM     72  C   UNL A   1      39.174  33.306  34.858  1.00  0.00     0.074 A 
ATOM     73  C   UNL A   1      38.163  34.325  34.662  1.00  0.00     0.031 C 
ATOM     74  C   UNL A   1      39.951  33.205  35.965  1.00  0.00     0.037 A 
BRANCH  61  75
ATOM     75  C   UNL A   1      43.904  28.450  35.864  1.00  0.00     0.058 A 
ATOM     76  C   UNL A   1      45.278  28.707  35.736  1.00  0.00     0.135 A 
ATOM     77  C   UNL A   1      43.509  27.383  36.685  1.00  0.00     0.135 A 
ATOM     78  F   UNL A   1      45.708  29.705  34.946  1.00  0.00    -0.206 F 
ATOM     79  C   UNL A   1      46.228  27.910  36.363  1.00  0.00     0.059 A 
ATOM     80  C   UNL A   1      44.442  26.586  37.342  1.00  0.00     0.059 A 
ATOM     81  F   UNL A   1      42.208  27.095  36.840  1.00  0.00    -0.206 F 
ATOM     82  C   UNL A   1      45.801  26.844  37.157  1.00  0.00     0.060 A 
BRANCH  82  83
ATOM     83  S   UNL A   1      47.039  25.796  37.948  1.00  0.00     0.124 S 
ATOM     84  O   UNL A   1      48.097  26.762  38.228  1.00  0.00    -0.237 OA
ATOM     85  O   UNL A   1      46.325  25.285  39.113  1.00  0.00    -0.237 OA
ATOM     86  O   UNL A   1      47.346  24.805  36.922  1.00  0.00    -0.744 OA
ENDBRANCH  82  83
ENDBRANCH  61  75
BRANCH  62  87
ATOM     87  C   UNL A   1      36.675  33.190  30.869  1.00  0.00     0.058 A 
ATOM     88  C   UNL A   1      35.344  32.913  31.213  1.00  0.00     0.135 A 
ATOM     89  C   UNL A   1      36.910  34.141  29.865  1.00  0.00     0.135 A 
ATOM     90  F   UNL A   1      35.073  32.008  32.166  1.00  0.00    -0.206 F 
ATOM     91  C   UNL A   1      34.282  33.554  30.585  1.00  0.00     0.059 A 
ATOM     92  C   UNL A   1      35.864  34.807  29.233  1.00  0.00     0.059 A 
ATOM     93  F   UNL A   1      38.167  34.453  29.515  1.00  0.00    -0.206 F 
ATOM     94  C   UNL A   1      34.552  34.503  29.598  1.00  0.00     0.060 A 
BRANCH  94  95
ATOM     95  S   UNL A   1      33.171  35.394  28.846  1.00  0.00     0.124 S 
ATOM     96  O   UNL A   1      33.868  36.359  28.004  1.00  0.00    -0.237 OA
ATOM     97  O   UNL A   1      32.460  34.330  28.144  1.00  0.00    -0.237 OA
ATOM     98  O   UNL A   1      32.467  35.949  29.998  1.00  0.00    -0.744 OA
ENDBRANCH  94  95
ENDBRANCH  62  87
BRANCH  74  99
ATOM     99  C   UNL A   1      39.749  34.231  37.040  1.00  0.00     0.058 A 
ATOM    100  C   UNL A   1      38.887  33.995  38.122  1.00  0.00     0.135 A 
ATOM    101  C   UNL A   1      40.466  35.437  37.017  1.00  0.00     0.135 A 
ATOM    102  F   UNL A   1      38.176  32.859  38.183  1.00  0.00    -0.206 F 
ATOM    103  C   UNL A   1      38.734  34.928  39.141  1.00  0.00     0.059 A 
ATOM    104  C   UNL A   1      40.341  36.377  38.035  1.00  0.00     0.059 A 
ATOM    105  F   UNL A   1      41.308  35.704  36.005  1.00  0.00    -0.206 F 
ATOM    106  C   UNL A   1      39.466  36.117  39.088  1.00  0.00     0.060 A 
BRANCH 106 107
ATOM    107  S   UNL A   1      39.293  37.305  40.436  1.00  0.00     0.124 S 
ATOM    108  O   UNL A   1      40.635  37.874  40.499  1.00  0.00    -0.237 OA
ATOM    109  O   UNL A   1      38.249  38.198  39.942  1.00  0.00    -0.237 OA
ATOM    110  O   UNL A   1      38.909  36.472  41.572  1.00  0.00    -0.744 OA
ENDBRANCH 106 107
ENDBRANCH  74  99
ENDBRANCH  48  49
ENDBRANCH  40  43
ENDBRANCH  38  39
ENDBRANCH  37  38
ENDBRANCH  36  37
ENDBRANCH   1  36
TORSDOF 20
ENDMDL
MODEL 2
REMARK VINA RESULT:     -10.7      4.419     11.078
REMARK SMILES CCOC(=O)c1c(-c2cccc3ccccc23)csc1NC(=O)[C@H]1CC=CC[C@H]1C(=O)NCCCCNC(=O)c1ccc(-c2c3nc(c(-c4c(F)cc(S(=O)(=O)[O-])cc4F)c4ccc([nH]4)c(-c4c(F)cc(S(=O)(=O)[O-])cc4F)c4nc(c(-c5c(F)cc(S(=O)(=O)[O-])cc5F)c5ccc2[nH]5)C=C4)C=C3)cc1
REMARK SMILES IDX 33 1 32 2 30 3 31 4 29 6 24 7 25 8 26 9 28 10 27 11 22 12
REMARK SMILES IDX 21 13 23 15 20 16 6 17 7 18 18 19 19 20 4 21 5 22 3 23 2 24
REMARK SMILES IDX 1 25 8 26 9 27 17 28 10 29 12 30 16 31 11 32 13 33 15 34
REMARK SMILES IDX 14 35 34 36 35 37 36 38 37 39 38 40 39 42 40 43 41 44 105 45
REMARK SMILES IDX 42 46 104 47 43 48 44 49 45 50 98 51 46 52 103 53 97 54
REMARK SMILES IDX 99 55 47 56 102 57 96 58 95 59 48 61 82 62 61 63 81 64 62 65
REMARK SMILES IDX 65 66 80 67 100 68 63 69 64 70 79 72 101 73 66 74 49 75
REMARK SMILES IDX 50 76 59 77 51 78 52 79 58 80 60 81 53 82 54 83 55 84 56 85
REMARK SMILES IDX 57 86 83 87 84 88 93 89 85 90 86 91 92 92 94 93 87 94 88 95
REMARK SMILES IDX 89 96 90 97 91 98 67 99 68 100 77 101 69 102 70 103 76 104
REMARK SMILES IDX 78 105 71 106 72 107 73 108 74 109 75 110
REMARK H PARENT 32 5 21 14 37 41 99 60 65 71
REMARK Flexibility Score: inf
ROOT
ATOM      1  C   UNL A   1      44.353  24.128  27.766  1.00  0.00     0.116 C 
ENDROOT
BRANCH   1   2
ATOM      2  N   UNL A   1      45.153  25.245  28.223  1.00  0.00    -0.356 N 
ATOM      3  C   UNL A   1      45.133  26.564  27.923  1.00  0.00     0.224 C 
ATOM      4  O   UNL A   1      46.065  27.238  28.379  1.00  0.00    -0.275 OA
ATOM      5  H   UNL A   1      45.844  24.997  28.879  1.00  0.00     0.163 HD
BRANCH   3   6
ATOM      6  C   UNL A   1      44.078  27.250  27.059  1.00  0.00     0.095 C 
ATOM      7  C   UNL A   1      44.021  28.786  27.198  1.00  0.00     0.095 C 
ATOM      8  C   UNL A   1      42.689  29.301  26.613  1.00  0.00     0.041 C 
ATOM      9  C   UNL A   1      42.258  28.600  25.348  1.00  0.00    -0.030 C 
ATOM     10  C   UNL A   1      43.882  26.708  25.643  1.00  0.00     0.041 C 
ATOM     11  C   UNL A   1      42.801  27.454  24.907  1.00  0.00    -0.030 C 
BRANCH   7  12
ATOM     12  C   UNL A   1      45.142  29.545  26.501  1.00  0.00     0.229 C 
ATOM     13  N   UNL A   1      45.493  30.830  26.789  1.00  0.00    -0.317 N 
ATOM     14  H   UNL A   1      46.307  31.110  26.311  1.00  0.00     0.170 HD
ATOM     15  O   UNL A   1      45.823  28.994  25.627  1.00  0.00    -0.274 OA
BRANCH  13  16
ATOM     16  C   UNL A   1      44.984  31.833  27.590  1.00  0.00     0.110 A 
ATOM     17  C   UNL A   1      44.928  33.182  27.250  1.00  0.00     0.102 A 
ATOM     18  C   UNL A   1      44.151  33.927  28.215  1.00  0.00     0.010 A 
ATOM     19  C   UNL A   1      43.760  33.139  29.279  1.00  0.00     0.076 A 
ATOM     20  S   UNL A   1      44.226  31.514  29.070  1.00  0.00    -0.125 S 
BRANCH  17  21
ATOM     21  C   UNL A   1      45.520  33.717  26.020  1.00  0.00     0.341 C 
ATOM     22  O   UNL A   1      44.838  34.058  25.060  1.00  0.00    -0.246 OA
BRANCH  21  23
ATOM     23  O   UNL A   1      46.878  33.780  26.071  1.00  0.00    -0.462 OA
BRANCH  23  24
ATOM     24  C   UNL A   1      47.510  34.911  25.450  1.00  0.00     0.230 C 
ATOM     25  C   UNL A   1      49.024  34.847  25.524  1.00  0.00     0.049 C 
ENDBRANCH  23  24
ENDBRANCH  21  23
ENDBRANCH  17  21
BRANCH  18  26
ATOM     26  C   UNL A   1      43.671  35.306  28.102  1.00  0.00    -0.009 A 
ATOM     27  C   UNL A   1      42.556  35.562  27.291  1.00  0.00     0.009 A 
ATOM     28  C   UNL A   1      44.305  36.364  28.822  1.00  0.00    -0.010 A 
ATOM     29  C   UNL A   1      42.050  36.854  27.186  1.00  0.00     0.001 A 
ATOM     30  C   UNL A   1      43.762  37.668  28.716  1.00  0.00    -0.018 A 
ATOM     31  C   UNL A   1      45.447  36.201  29.648  1.00  0.00     0.009 A 
ATOM     32  C   UNL A   1      42.647  37.895  27.895  1.00  0.00     0.009 A 
ATOM     33  C   UNL A   1      44.337  38.730  29.436  1.00  0.00     0.009 A 
ATOM     34  C   UNL A   1      46.001  37.262  30.365  1.00  0.00     0.001 A 
ATOM     35  C   UNL A   1      45.443  38.528  30.261  1.00  0.00     0.001 A 
ENDBRANCH  18  26
ENDBRANCH  13  16
ENDBRANCH   7  12
ENDBRANCH   3   6
ENDBRANCH   1   2
BRANCH   1  36
ATOM     36  C   UNL A   1      43.147  23.923  28.677  1.00  0.00     0.023 C 
BRANCH  36  37
ATOM     37  C   UNL A   1      42.045  23.038  28.115  1.00  0.00     0.023 C 
BRANCH  37  38
ATOM     38  C   UNL A   1      41.723  23.253  26.645  1.00  0.00     0.116 C 
BRANCH  38  39
ATOM     39  N   UNL A   1      40.351  22.934  26.274  1.00  0.00    -0.352 N 
ATOM     40  C   UNL A   1      39.206  23.641  26.564  1.00  0.00     0.251 C 
ATOM     41  H   UNL A   1      40.227  22.110  25.750  1.00  0.00     0.163 HD
ATOM     42  O   UNL A   1      38.106  23.222  26.220  1.00  0.00    -0.269 OA
BRANCH  40  43
ATOM     43  C   UNL A   1      39.318  24.887  27.352  1.00  0.00     0.039 A 
ATOM     44  C   UNL A   1      38.853  24.894  28.669  1.00  0.00     0.014 A 
ATOM     45  C   UNL A   1      39.969  26.004  26.823  1.00  0.00     0.014 A 
ATOM     46  C   UNL A   1      39.127  25.990  29.487  1.00  0.00     0.010 A 
ATOM     47  C   UNL A   1      40.315  27.054  27.663  1.00  0.00     0.010 A 
ATOM     48  C   UNL A   1      39.906  27.053  29.005  1.00  0.00    -0.014 A 
BRANCH  48  49
ATOM     49  C   UNL A   1      40.324  28.172  29.886  1.00  0.00     0.031 A 
ATOM     50  C   UNL A   1      39.419  29.358  30.070  1.00  0.00     0.074 A 
ATOM     51  C   UNL A   1      41.557  28.168  30.429  1.00  0.00     0.049 A 
ATOM     52  N   UNL A   1      39.650  30.483  30.693  1.00  0.00    -0.248 NA
ATOM     53  C   UNL A   1      38.097  29.287  29.425  1.00  0.00     0.031 C 
ATOM     54  C   UNL A   1      42.560  27.115  30.252  1.00  0.00     0.029 A 
ATOM     55  N   UNL A   1      42.187  29.093  31.223  1.00  0.00    -0.354 N 
ATOM     56  C   UNL A   1      38.525  31.269  30.480  1.00  0.00     0.074 A 
ATOM     57  C   UNL A   1      37.627  30.507  29.640  1.00  0.00     0.031 C 
ATOM     58  C   UNL A   1      43.672  27.446  30.931  1.00  0.00     0.029 A 
ATOM     59  C   UNL A   1      43.471  28.744  31.567  1.00  0.00     0.049 A 
ATOM     60  H   UNL A   1      41.760  29.929  31.517  1.00  0.00     0.167 HD
ATOM     61  C   UNL A   1      38.256  32.508  30.956  1.00  0.00     0.037 A 
ATOM     62  C   UNL A   1      44.384  29.396  32.311  1.00  0.00     0.037 A 
ATOM     63  C   UNL A   1      39.122  33.234  31.845  1.00  0.00     0.049 A 
ATOM     64  C   UNL A   1      44.023  30.722  32.917  1.00  0.00     0.074 A 
ATOM     65  C   UNL A   1      38.896  34.449  32.467  1.00  0.00     0.029 A 
ATOM     66  N   UNL A   1      40.378  32.803  32.248  1.00  0.00    -0.354 N 
ATOM     67  N   UNL A   1      42.922  31.419  32.770  1.00  0.00    -0.248 NA
ATOM     68  C   UNL A   1      45.019  31.346  33.799  1.00  0.00     0.031 C 
ATOM     69  C   UNL A   1      40.025  34.761  33.236  1.00  0.00     0.029 A 
ATOM     70  C   UNL A   1      40.941  33.729  33.109  1.00  0.00     0.049 A 
ATOM     71  H   UNL A   1      40.804  31.962  31.964  1.00  0.00     0.167 HD
ATOM     72  C   UNL A   1      43.086  32.557  33.550  1.00  0.00     0.074 A 
ATOM     73  C   UNL A   1      44.388  32.450  34.178  1.00  0.00     0.031 C 
ATOM     74  C   UNL A   1      42.236  33.598  33.728  1.00  0.00     0.037 A 
BRANCH  61  75
ATOM     75  C   UNL A   1      36.965  33.143  30.526  1.00  0.00     0.058 A 
ATOM     76  C   UNL A   1      36.816  33.714  29.252  1.00  0.00     0.135 A 
ATOM     77  C   UNL A   1      35.868  33.192  31.400  1.00  0.00     0.135 A 
ATOM     78  F   UNL A   1      37.842  33.709  28.385  1.00  0.00    -0.206 F 
ATOM     79  C   UNL A   1      35.639  34.350  28.873  1.00  0.00     0.059 A 
ATOM     80  C   UNL A   1      34.672  33.803  31.034  1.00  0.00     0.059 A 
ATOM     81  F   UNL A   1      35.959  32.662  32.629  1.00  0.00    -0.206 F 
ATOM     82  C   UNL A   1      34.576  34.399  29.776  1.00  0.00     0.060 A 
BRANCH  82  83
ATOM     83  S   UNL A   1      33.059  35.249  29.290  1.00  0.00     0.124 S 
ATOM     84  O   UNL A   1      33.585  36.525  28.815  1.00  0.00    -0.237 OA
ATOM     85  O   UNL A   1      32.516  34.366  28.262  1.00  0.00    -0.237 OA
ATOM     86  O   UNL A   1      32.293  35.306  30.530  1.00  0.00    -0.744 OA
ENDBRANCH  82  83
ENDBRANCH  61  75
BRANCH  62  87
ATOM     87  C   UNL A   1      45.711  28.777  32.553  1.00  0.00     0.058 A 
ATOM     88  C   UNL A   1      45.932  27.968  33.677  1.00  0.00     0.135 A 
ATOM     89  C   UNL A   1      46.767  28.941  31.644  1.00  0.00     0.135 A 
ATOM     90  F   UNL A   1      44.951  27.787  34.574  1.00  0.00    -0.206 F 
ATOM     91  C   UNL A   1      47.154  27.343  33.895  1.00  0.00     0.059 A 
ATOM     92  C   UNL A   1      47.995  28.313  31.832  1.00  0.00     0.059 A 
ATOM     93  F   UNL A   1      46.598  29.691  30.544  1.00  0.00    -0.206 F 
ATOM     94  C   UNL A   1      48.180  27.518  32.964  1.00  0.00     0.060 A 
BRANCH  94  95
ATOM     95  S   UNL A   1      49.738  26.636  33.209  1.00  0.00     0.124 S 
ATOM     96  O   UNL A   1      50.658  27.734  33.476  1.00  0.00    -0.237 OA
ATOM     97  O   UNL A   1      49.430  25.770  34.342  1.00  0.00    -0.237 OA
ATOM     98  O   UNL A   1      49.929  25.942  31.938  1.00  0.00    -0.744 OA
ENDBRANCH  94  95
ENDBRANCH  62  87
BRANCH  74  99
ATOM     99  C   UNL A   1      42.679  34.695  34.649  1.00  0.00     0.058 A 
ATOM    100  C   UNL A   1      42.474  34.611  36.035  1.00  0.00     0.135 A 
ATOM    101  C   UNL A   1      43.362  35.814  34.148  1.00  0.00     0.135 A 
ATOM    102  F   UNL A   1      41.819  33.563  36.559  1.00  0.00    -0.206 F 
ATOM    103  C   UNL A   1      42.923  35.607  36.894  1.00  0.00     0.059 A 
ATOM    104  C   UNL A   1      43.835  36.814  34.992  1.00  0.00     0.059 A 
ATOM    105  F   UNL A   1      43.586  35.935  32.830  1.00  0.00    -0.206 F 
ATOM    106  C   UNL A   1      43.603  36.706  36.362  1.00  0.00     0.060 A 
BRANCH 106 107
ATOM    107  S   UNL A   1      44.220  37.976  37.487  1.00  0.00     0.124 S 
ATOM    108  O   UNL A   1      43.159  38.022  38.487  1.00  0.00    -0.237 OA
ATOM    109  O   UNL A   1      45.490  37.414  37.936  1.00  0.00    -0.237 OA
ATOM    110  O   UNL A   1      44.332  39.155  36.634  1.00  0.00    -0.744 OA
ENDBRANCH 106 107
ENDBRANCH  74  99
ENDBRANCH  48  49
ENDBRANCH  40  43
ENDBRANCH  38  39
ENDBRANCH  37  38
ENDBRANCH  36  37
ENDBRANCH   1  36
TORSDOF 20
ENDMDL
MODEL 3
REMARK VINA RESULT:     -10.6      8.264     14.215
REMARK SMILES CCOC(=O)c1c(-c2cccc3ccccc23)csc1NC(=O)[C@H]1CC=CC[C@H]1C(=O)NCCCCNC(=O)c1ccc(-c2c3nc(c(-c4c(F)cc(S(=O)(=O)[O-])cc4F)c4ccc([nH]4)c(-c4c(F)cc(S(=O)(=O)[O-])cc4F)c4nc(c(-c5c(F)cc(S(=O)(=O)[O-])cc5F)c5ccc2[nH]5)C=C4)C=C3)cc1
REMARK SMILES IDX 33 1 32 2 30 3 31 4 29 6 24 7 25 8 26 9 28 10 27 11 22 12
REMARK SMILES IDX 21 13 23 15 20 16 6 17 7 18 18 19 19 20 4 21 5 22 3 23 2 24
REMARK SMILES IDX 1 25 8 26 9 27 17 28 10 29 12 30 16 31 11 32 13 33 15 34
REMARK SMILES IDX 14 35 34 36 35 37 36 38 37 39 38 40 39 42 40 43 41 44 105 45
REMARK SMILES IDX 42 46 104 47 43 48 44 49 45 50 98 51 46 52 103 53 97 54
REMARK SMILES IDX 99 55 47 56 102 57 96 58 95 59 48 61 82 62 61 63 81 64 62 65
REMARK SMILES IDX 65 66 80 67 100 68 63 69 64 70 79 72 101 73 66 74 49 75
REMARK SMILES IDX 50 76 59 77 51 78 52 79 58 80 60 81 53 82 54 83 55 84 56 85
REMARK SMILES IDX 57 86 83 87 84 88 93 89 85 90 86 91 92 92 94 93 87 94 88 95
REMARK SMILES IDX 89 96 90 97 91 98 67 99 68 100 77 101 69 102 70 103 76 104
REMARK SMILES IDX 78 105 71 106 72 107 73 108 74 109 75 110
REMARK H PARENT 32 5 21 14 37 41 99 60 65 71
REMARK Flexibility Score: inf
ROOT
ATOM      1  C   UNL A   1      39.153  34.589  31.879  1.00  0.00     0.116 C 
ENDROOT
BRANCH   1   2
ATOM      2  N   UNL A   1      38.621  33.766  32.945  1.00  0.00    -0.356 N 
ATOM      3  C   UNL A   1      37.402  33.706  33.529  1.00  0.00     0.224 C 
ATOM      4  O   UNL A   1      37.316  32.986  34.532  1.00  0.00    -0.275 OA
ATOM      5  H   UNL A   1      39.272  33.128  33.316  1.00  0.00     0.163 HD
BRANCH   3   6
ATOM      6  C   UNL A   1      36.167  34.467  33.058  1.00  0.00     0.095 C 
ATOM      7  C   UNL A   1      35.601  34.013  31.696  1.00  0.00     0.095 C 
ATOM      8  C   UNL A   1      34.641  35.095  31.156  1.00  0.00     0.041 C 
ATOM      9  C   UNL A   1      33.765  35.725  32.211  1.00  0.00    -0.030 C 
ATOM     10  C   UNL A   1      35.124  34.822  34.119  1.00  0.00     0.041 C 
ATOM     11  C   UNL A   1      33.971  35.589  33.531  1.00  0.00    -0.030 C 
BRANCH   7  12
ATOM     12  C   UNL A   1      34.833  32.699  31.715  1.00  0.00     0.229 C 
ATOM     13  N   UNL A   1      35.262  31.551  31.120  1.00  0.00    -0.317 N 
ATOM     14  H   UNL A   1      34.683  30.782  31.332  1.00  0.00     0.170 HD
ATOM     15  O   UNL A   1      33.755  32.612  32.316  1.00  0.00    -0.274 OA
BRANCH  13  16
ATOM     16  C   UNL A   1      36.313  31.203  30.294  1.00  0.00     0.110 A 
ATOM     17  C   UNL A   1      37.431  30.470  30.681  1.00  0.00     0.102 A 
ATOM     18  C   UNL A   1      38.231  30.102  29.534  1.00  0.00     0.010 A 
ATOM     19  C   UNL A   1      37.747  30.663  28.369  1.00  0.00     0.076 A 
ATOM     20  S   UNL A   1      36.301  31.524  28.631  1.00  0.00    -0.125 S 
BRANCH  17  21
ATOM     21  C   UNL A   1      37.679  30.071  32.070  1.00  0.00     0.341 C 
ATOM     22  O   UNL A   1      36.969  29.261  32.655  1.00  0.00    -0.246 OA
BRANCH  21  23
ATOM     23  O   UNL A   1      38.757  30.698  32.615  1.00  0.00    -0.462 OA
BRANCH  23  24
ATOM     24  C   UNL A   1      39.508  29.978  33.605  1.00  0.00     0.230 C 
ATOM     25  C   UNL A   1      40.121  28.702  33.060  1.00  0.00     0.049 C 
ENDBRANCH  23  24
ENDBRANCH  21  23
ENDBRANCH  17  21
BRANCH  18  26
ATOM     26  C   UNL A   1      39.346  29.154  29.490  1.00  0.00    -0.009 A 
ATOM     27  C   UNL A   1      39.075  27.816  29.166  1.00  0.00     0.009 A 
ATOM     28  C   UNL A   1      40.685  29.584  29.743  1.00  0.00    -0.010 A 
ATOM     29  C   UNL A   1      40.113  26.894  29.082  1.00  0.00     0.001 A 
ATOM     30  C   UNL A   1      41.728  28.633  29.632  1.00  0.00    -0.018 A 
ATOM     31  C   UNL A   1      41.048  30.910  30.096  1.00  0.00     0.009 A 
ATOM     32  C   UNL A   1      41.427  27.301  29.309  1.00  0.00     0.009 A 
ATOM     33  C   UNL A   1      43.062  29.025  29.841  1.00  0.00     0.009 A 
ATOM     34  C   UNL A   1      42.378  31.287  30.290  1.00  0.00     0.001 A 
ATOM     35  C   UNL A   1      43.386  30.344  30.159  1.00  0.00     0.001 A 
ENDBRANCH  18  26
ENDBRANCH  13  16
ENDBRANCH   7  12
ENDBRANCH   3   6
ENDBRANCH   1   2
BRANCH   1  36
ATOM     36  C   UNL A   1      39.032  33.874  30.537  1.00  0.00     0.023 C 
BRANCH  36  37
ATOM     37  C   UNL A   1      39.404  34.704  29.318  1.00  0.00     0.023 C 
BRANCH  37  38
ATOM     38  C   UNL A   1      40.885  35.010  29.165  1.00  0.00     0.116 C 
BRANCH  38  39
ATOM     39  N   UNL A   1      41.188  36.081  28.226  1.00  0.00    -0.352 N 
ATOM     40  C   UNL A   1      42.184  36.123  27.276  1.00  0.00     0.251 C 
ATOM     41  H   UNL A   1      40.608  36.875  28.277  1.00  0.00     0.163 HD
ATOM     42  O   UNL A   1      42.346  37.120  26.581  1.00  0.00    -0.269 OA
BRANCH  40  43
ATOM     43  C   UNL A   1      43.095  34.966  27.149  1.00  0.00     0.039 A 
ATOM     44  C   UNL A   1      43.541  34.598  25.877  1.00  0.00     0.014 A 
ATOM     45  C   UNL A   1      43.580  34.317  28.286  1.00  0.00     0.014 A 
ATOM     46  C   UNL A   1      44.549  33.642  25.754  1.00  0.00     0.010 A 
ATOM     47  C   UNL A   1      44.642  33.430  28.166  1.00  0.00     0.010 A 
ATOM     48  C   UNL A   1      45.143  33.091  26.901  1.00  0.00    -0.014 A 
BRANCH  48  49
ATOM     49  C   UNL A   1      46.302  32.169  26.808  1.00  0.00     0.031 A 
ATOM     50  C   UNL A   1      46.077  30.683  26.785  1.00  0.00     0.074 A 
ATOM     51  C   UNL A   1      47.554  32.665  26.857  1.00  0.00     0.049 A 
ATOM     52  N   UNL A   1      46.953  29.715  26.831  1.00  0.00    -0.248 NA
ATOM     53  C   UNL A   1      44.677  30.227  26.753  1.00  0.00     0.031 C 
ATOM     54  C   UNL A   1      47.902  34.084  26.969  1.00  0.00     0.029 A 
ATOM     55  N   UNL A   1      48.769  32.028  26.841  1.00  0.00    -0.354 N 
ATOM     56  C   UNL A   1      46.214  28.540  26.878  1.00  0.00     0.074 A 
ATOM     57  C   UNL A   1      44.818  28.918  26.892  1.00  0.00     0.031 C 
ATOM     58  C   UNL A   1      49.240  34.210  26.996  1.00  0.00     0.029 A 
ATOM     59  C   UNL A   1      49.842  32.883  26.930  1.00  0.00     0.049 A 
ATOM     60  H   UNL A   1      48.864  31.051  26.773  1.00  0.00     0.167 HD
ATOM     61  C   UNL A   1      46.659  27.261  26.891  1.00  0.00     0.037 A 
ATOM     62  C   UNL A   1      51.164  32.625  26.956  1.00  0.00     0.037 A 
ATOM     63  C   UNL A   1      48.046  26.890  26.810  1.00  0.00     0.049 A 
ATOM     64  C   UNL A   1      51.635  31.202  26.862  1.00  0.00     0.074 A 
ATOM     65  C   UNL A   1      48.595  25.624  26.712  1.00  0.00     0.029 A 
ATOM     66  N   UNL A   1      49.103  27.788  26.806  1.00  0.00    -0.354 N 
ATOM     67  N   UNL A   1      50.922  30.102  26.828  1.00  0.00    -0.248 NA
ATOM     68  C   UNL A   1      53.087  30.983  26.796  1.00  0.00     0.031 C 
ATOM     69  C   UNL A   1      49.989  25.757  26.664  1.00  0.00     0.029 A 
ATOM     70  C   UNL A   1      50.303  27.106  26.709  1.00  0.00     0.049 A 
ATOM     71  H   UNL A   1      49.012  28.767  26.863  1.00  0.00     0.167 HD
ATOM     72  C   UNL A   1      51.835  29.060  26.725  1.00  0.00     0.074 A 
ATOM     73  C   UNL A   1      53.153  29.662  26.689  1.00  0.00     0.031 C 
ATOM     74  C   UNL A   1      51.603  27.726  26.668  1.00  0.00     0.037 A 
BRANCH  61  75
ATOM     75  C   UNL A   1      45.624  26.177  26.988  1.00  0.00     0.058 A 
ATOM     76  C   UNL A   1      45.044  25.822  28.217  1.00  0.00     0.135 A 
ATOM     77  C   UNL A   1      45.218  25.476  25.843  1.00  0.00     0.135 A 
ATOM     78  F   UNL A   1      45.414  26.450  29.345  1.00  0.00    -0.206 F 
ATOM     79  C   UNL A   1      44.127  24.781  28.314  1.00  0.00     0.059 A 
ATOM     80  C   UNL A   1      44.284  24.445  25.912  1.00  0.00     0.059 A 
ATOM     81  F   UNL A   1      45.742  25.775  24.645  1.00  0.00    -0.206 F 
ATOM     82  C   UNL A   1      43.761  24.092  27.157  1.00  0.00     0.060 A 
BRANCH  82  83
ATOM     83  S   UNL A   1      42.591  22.724  27.293  1.00  0.00     0.124 S 
ATOM     84  O   UNL A   1      41.341  23.376  26.913  1.00  0.00    -0.237 OA
ATOM     85  O   UNL A   1      43.117  21.759  26.333  1.00  0.00    -0.237 OA
ATOM     86  O   UNL A   1      42.695  22.329  28.693  1.00  0.00    -0.744 OA
ENDBRANCH  82  83
ENDBRANCH  61  75
BRANCH  62  87
ATOM     87  C   UNL A   1      52.129  33.750  27.035  1.00  0.00     0.058 A 
ATOM     88  C   UNL A   1      52.573  34.398  25.873  1.00  0.00     0.135 A 
ATOM     89  C   UNL A   1      52.588  34.230  28.270  1.00  0.00     0.135 A 
ATOM     90  F   UNL A   1      52.162  33.970  24.669  1.00  0.00    -0.206 F 
ATOM     91  C   UNL A   1      53.440  35.482  25.930  1.00  0.00     0.059 A 
ATOM     92  C   UNL A   1      53.444  35.324  28.355  1.00  0.00     0.059 A 
ATOM     93  F   UNL A   1      52.176  33.654  29.410  1.00  0.00    -0.206 F 
ATOM     94  C   UNL A   1      53.868  35.941  27.178  1.00  0.00     0.060 A 
BRANCH  94  95
ATOM     95  S   UNL A   1      54.928  37.403  27.250  1.00  0.00     0.124 S 
ATOM     96  O   UNL A   1      53.978  38.470  26.957  1.00  0.00    -0.237 OA
ATOM     97  O   UNL A   1      55.432  37.355  28.619  1.00  0.00    -0.237 OA
ATOM     98  O   UNL A   1      55.926  37.141  26.218  1.00  0.00    -0.744 OA
ENDBRANCH  94  95
ENDBRANCH  62  87
BRANCH  74  99
ATOM     99  C   UNL A   1      52.797  26.827  26.543  1.00  0.00     0.058 A 
ATOM    100  C   UNL A   1      53.579  26.492  27.659  1.00  0.00     0.135 A 
ATOM    101  C   UNL A   1      53.128  26.251  25.307  1.00  0.00     0.135 A 
ATOM    102  F   UNL A   1      53.304  27.024  28.860  1.00  0.00    -0.206 F 
ATOM    103  C   UNL A   1      54.659  25.624  27.552  1.00  0.00     0.059 A 
ATOM    104  C   UNL A   1      54.194  25.367  25.180  1.00  0.00     0.059 A 
ATOM    105  F   UNL A   1      52.404  26.536  24.213  1.00  0.00    -0.206 F 
ATOM    106  C   UNL A   1      54.959  25.066  26.306  1.00  0.00     0.060 A 
BRANCH 106 107
ATOM    107  S   UNL A   1      56.337  23.907  26.181  1.00  0.00     0.124 S 
ATOM    108  O   UNL A   1      56.833  24.185  24.838  1.00  0.00    -0.237 OA
ATOM    109  O   UNL A   1      57.206  24.326  27.277  1.00  0.00    -0.237 OA
ATOM    110  O   UNL A   1      55.699  22.606  26.360  1.00  0.00    -0.744 OA
ENDBRANCH 106 107
ENDBRANCH  74  99
ENDBRANCH  48  49
ENDBRANCH  40  43
ENDBRANCH  38  39
ENDBRANCH  37  38
ENDBRANCH  36  37
ENDBRANCH   1  36
TORSDOF 20
ENDMDL
