MODEL 1
REMARK VINA RESULT:     -10.9      0.000      0.000
REMARK SMILES COc1cc(C(=O)NCCCCNC(=O)c2ccc(-c3c4nc(c(-c5c(F)cc(S(=O)(=O)[O-])cc5F)c5ccc([nH]5)c(-c5c(F)cc(S(=O)(=O)[O-])cc5F)c5nc(c(-c6c(F)cc(S(=O)(=O)[O-])cc6F)c6ccc3[nH]6)C=C5)C=C4)cc2)c([N+](=O)[O-])cc1O[C@H](C)[C@@H](C)O
REMARK SMILES IDX 10 1 9 2 8 3 6 4 7 5 5 7 3 8 4 9 87 10 86 11 82 12 2 13 1 14
REMARK SMILES IDX 88 15 89 16 90 17 91 18 92 19 93 20 83 22 84 23 85 24 11 25
REMARK SMILES IDX 12 26 13 27 14 28 15 30 16 31 17 32 81 33 18 34 80 35 19 36
REMARK SMILES IDX 20 37 21 38 74 39 22 40 79 41 73 42 75 43 23 44 78 45 72 46
REMARK SMILES IDX 71 47 24 49 58 50 37 51 57 52 38 53 41 54 56 55 76 56 39 57
REMARK SMILES IDX 40 58 55 60 77 61 42 62 25 63 26 64 35 65 27 66 28 67 34 68
REMARK SMILES IDX 36 69 29 70 30 71 31 72 32 73 33 74 59 75 60 76 69 77 61 78
REMARK SMILES IDX 62 79 68 80 70 81 63 82 64 83 65 84 66 85 67 86 43 87 44 88
REMARK SMILES IDX 53 89 45 90 46 91 52 92 54 93 47 94 48 95 49 96 50 97 51 98
REMARK H PARENT 8 6 93 21 13 29 75 48 41 59
REMARK Flexibility Score: inf
ROOT
ATOM      1  C   UNL A   1      32.935  29.482  24.919  1.00  0.00     0.023 C 
ENDROOT
BRANCH   1   2
ATOM      2  C   UNL A   1      32.861  28.920  23.506  1.00  0.00     0.116 C 
BRANCH   2   3
ATOM      3  N   UNL A   1      31.525  28.810  22.944  1.00  0.00    -0.352 N 
ATOM      4  C   UNL A   1      30.675  27.728  22.894  1.00  0.00     0.258 C 
ATOM      5  O   UNL A   1      29.571  27.832  22.367  1.00  0.00    -0.269 OA
ATOM      6  H   UNL A   1      31.175  29.635  22.534  1.00  0.00     0.163 HD
BRANCH   4   7
ATOM      7  C   UNL A   1      31.106  26.401  23.390  1.00  0.00     0.121 A 
ATOM      8  C   UNL A   1      31.135  24.805  25.234  1.00  0.00     0.162 A 
ATOM      9  C   UNL A   1      30.826  26.079  24.723  1.00  0.00     0.071 A 
ATOM     10  C   UNL A   1      31.620  23.789  24.386  1.00  0.00     0.168 A 
ATOM     11  C   UNL A   1      31.952  24.134  23.082  1.00  0.00     0.136 A 
ATOM     12  C   UNL A   1      31.769  25.449  22.625  1.00  0.00     0.286 A 
BRANCH   8  13
ATOM     13  O   UNL A   1      30.882  24.658  26.575  1.00  0.00    -0.493 OA
ATOM     14  C   UNL A   1      29.765  23.821  26.877  1.00  0.00     0.278 C 
ENDBRANCH   8  13
BRANCH  10  15
ATOM     15  O   UNL A   1      31.829  22.556  24.929  1.00  0.00    -0.484 OA
BRANCH  15  16
ATOM     16  C   UNL A   1      32.935  21.695  24.594  1.00  0.00     0.198 C 
ATOM     17  C   UNL A   1      32.571  20.533  23.671  1.00  0.00     0.056 C 
BRANCH  16  18
ATOM     18  C   UNL A   1      33.814  21.335  25.819  1.00  0.00     0.151 C 
ATOM     19  C   UNL A   1      33.869  22.434  26.877  1.00  0.00     0.042 C 
BRANCH  18  20
ATOM     20  O   UNL A   1      33.303  20.155  26.456  1.00  0.00    -0.390 OA
ATOM     21  H   UNL A   1      32.347  20.250  26.594  1.00  0.00     0.211 HD
ENDBRANCH  18  20
ENDBRANCH  16  18
ENDBRANCH  15  16
ENDBRANCH  10  15
BRANCH  12  22
ATOM     22  N   UNL A   1      32.418  25.805  21.377  1.00  0.00     0.063 N 
ATOM     23  O   UNL A   1      31.713  25.896  20.368  1.00  0.00    -0.258 OA
ATOM     24  O   UNL A   1      33.636  26.038  21.428  1.00  0.00    -0.258 OA
ENDBRANCH  12  22
ENDBRANCH   4   7
ENDBRANCH   2   3
ENDBRANCH   1   2
BRANCH   1  25
ATOM     25  C   UNL A   1      33.849  28.738  25.892  1.00  0.00     0.023 C 
BRANCH  25  26
ATOM     26  C   UNL A   1      33.511  28.855  27.378  1.00  0.00     0.116 C 
BRANCH  26  27
ATOM     27  N   UNL A   1      33.631  30.207  27.912  1.00  0.00    -0.352 N 
ATOM     28  C   UNL A   1      34.702  30.846  28.494  1.00  0.00     0.251 C 
ATOM     29  H   UNL A   1      32.813  30.750  27.846  1.00  0.00     0.163 HD
ATOM     30  O   UNL A   1      34.560  31.976  28.956  1.00  0.00    -0.269 OA
BRANCH  28  31
ATOM     31  C   UNL A   1      36.009  30.162  28.615  1.00  0.00     0.039 A 
ATOM     32  C   UNL A   1      36.874  30.165  27.518  1.00  0.00     0.014 A 
ATOM     33  C   UNL A   1      36.399  29.554  29.809  1.00  0.00     0.014 A 
ATOM     34  C   UNL A   1      38.177  29.677  27.661  1.00  0.00     0.010 A 
ATOM     35  C   UNL A   1      37.721  29.150  29.976  1.00  0.00     0.010 A 
ATOM     36  C   UNL A   1      38.632  29.232  28.912  1.00  0.00    -0.014 A 
BRANCH  36  37
ATOM     37  C   UNL A   1      40.065  28.914  29.152  1.00  0.00     0.031 A 
ATOM     38  C   UNL A   1      40.996  29.954  29.711  1.00  0.00     0.074 A 
ATOM     39  C   UNL A   1      40.550  27.716  28.765  1.00  0.00     0.049 A 
ATOM     40  N   UNL A   1      42.293  29.896  29.880  1.00  0.00    -0.248 NA
ATOM     41  C   UNL A   1      40.396  31.239  30.103  1.00  0.00     0.031 C 
ATOM     42  C   UNL A   1      39.763  26.637  28.162  1.00  0.00     0.029 A 
ATOM     43  N   UNL A   1      41.825  27.209  28.807  1.00  0.00    -0.354 N 
ATOM     44  C   UNL A   1      42.668  31.143  30.367  1.00  0.00     0.074 A 
ATOM     45  C   UNL A   1      41.466  31.948  30.432  1.00  0.00     0.031 C 
ATOM     46  C   UNL A   1      40.564  25.587  27.921  1.00  0.00     0.029 A 
ATOM     47  C   UNL A   1      41.929  25.932  28.306  1.00  0.00     0.049 A 
ATOM     48  H   UNL A   1      42.593  27.710  29.163  1.00  0.00     0.167 HD
ATOM     49  C   UNL A   1      43.898  31.571  30.741  1.00  0.00     0.037 A 
ATOM     50  C   UNL A   1      43.002  25.130  28.160  1.00  0.00     0.037 A 
ATOM     51  C   UNL A   1      45.082  30.754  30.712  1.00  0.00     0.049 A 
ATOM     52  C   UNL A   1      44.356  25.629  28.580  1.00  0.00     0.074 A 
ATOM     53  C   UNL A   1      46.353  31.066  31.161  1.00  0.00     0.029 A 
ATOM     54  N   UNL A   1      45.145  29.466  30.200  1.00  0.00    -0.354 N 
ATOM     55  N   UNL A   1      44.680  26.785  29.106  1.00  0.00    -0.248 NA
ATOM     56  C   UNL A   1      45.491  24.718  28.378  1.00  0.00     0.031 C 
ATOM     57  C   UNL A   1      47.194  29.982  30.885  1.00  0.00     0.029 A 
ATOM     58  C   UNL A   1      46.439  28.980  30.296  1.00  0.00     0.049 A 
ATOM     59  H   UNL A   1      44.383  28.971  29.824  1.00  0.00     0.167 HD
ATOM     60  C   UNL A   1      46.052  26.733  29.321  1.00  0.00     0.074 A 
ATOM     61  C   UNL A   1      46.497  25.429  28.871  1.00  0.00     0.031 C 
ATOM     62  C   UNL A   1      46.868  27.680  29.844  1.00  0.00     0.037 A 
BRANCH  49  63
ATOM     63  C   UNL A   1      44.019  32.994  31.209  1.00  0.00     0.058 A 
ATOM     64  C   UNL A   1      44.183  34.058  30.308  1.00  0.00     0.135 A 
ATOM     65  C   UNL A   1      43.964  33.299  32.579  1.00  0.00     0.135 A 
ATOM     66  F   UNL A   1      44.255  33.820  28.988  1.00  0.00    -0.206 F 
ATOM     67  C   UNL A   1      44.331  35.368  30.749  1.00  0.00     0.059 A 
ATOM     68  C   UNL A   1      44.083  34.607  33.040  1.00  0.00     0.059 A 
ATOM     69  F   UNL A   1      43.803  32.321  33.484  1.00  0.00    -0.206 F 
ATOM     70  C   UNL A   1      44.288  35.632  32.118  1.00  0.00     0.060 A 
BRANCH  70  71
ATOM     71  S   UNL A   1      44.508  37.334  32.680  1.00  0.00     0.124 S 
ATOM     72  O   UNL A   1      44.670  38.037  31.411  1.00  0.00    -0.237 OA
ATOM     73  O   UNL A   1      43.261  37.594  33.392  1.00  0.00    -0.237 OA
ATOM     74  O   UNL A   1      45.701  37.264  33.517  1.00  0.00    -0.744 OA
ENDBRANCH  70  71
ENDBRANCH  49  63
BRANCH  50  75
ATOM     75  C   UNL A   1      42.830  23.756  27.621  1.00  0.00     0.058 A 
ATOM     76  C   UNL A   1      42.734  22.658  28.490  1.00  0.00     0.135 A 
ATOM     77  C   UNL A   1      42.726  23.512  26.243  1.00  0.00     0.135 A 
ATOM     78  F   UNL A   1      42.835  22.843  29.815  1.00  0.00    -0.206 F 
ATOM     79  C   UNL A   1      42.544  21.366  28.014  1.00  0.00     0.059 A 
ATOM     80  C   UNL A   1      42.516  22.230  25.743  1.00  0.00     0.059 A 
ATOM     81  F   UNL A   1      42.797  24.531  25.373  1.00  0.00    -0.206 F 
ATOM     82  C   UNL A   1      42.431  21.163  26.637  1.00  0.00     0.060 A 
BRANCH  82  83
ATOM     83  S   UNL A   1      42.114  19.491  26.033  1.00  0.00     0.124 S 
ATOM     84  O   UNL A   1      42.974  19.435  24.856  1.00  0.00    -0.237 OA
ATOM     85  O   UNL A   1      42.531  18.670  27.166  1.00  0.00    -0.237 OA
ATOM     86  O   UNL A   1      40.678  19.497  25.769  1.00  0.00    -0.744 OA
ENDBRANCH  82  83
ENDBRANCH  50  75
BRANCH  62  87
ATOM     87  C   UNL A   1      48.324  27.337  29.983  1.00  0.00     0.058 A 
ATOM     88  C   UNL A   1      49.260  27.699  29.002  1.00  0.00     0.135 A 
ATOM     89  C   UNL A   1      48.797  26.690  31.137  1.00  0.00     0.135 A 
ATOM     90  F   UNL A   1      48.857  28.309  27.877  1.00  0.00    -0.206 F 
ATOM     91  C   UNL A   1      50.614  27.423  29.156  1.00  0.00     0.059 A 
ATOM     92  C   UNL A   1      50.149  26.423  31.320  1.00  0.00     0.059 A 
ATOM     93  F   UNL A   1      47.942  26.329  32.107  1.00  0.00    -0.206 F 
ATOM     94  C   UNL A   1      51.050  26.788  30.320  1.00  0.00     0.060 A 
BRANCH  94  95
ATOM     95  S   UNL A   1      52.816  26.477  30.530  1.00  0.00     0.124 S 
ATOM     96  O   UNL A   1      53.290  27.774  31.001  1.00  0.00    -0.237 OA
ATOM     97  O   UNL A   1      52.832  25.400  31.515  1.00  0.00    -0.237 OA
ATOM     98  O   UNL A   1      53.255  26.096  29.190  1.00  0.00    -0.744 OA
ENDBRANCH  94  95
ENDBRANCH  62  87
ENDBRANCH  36  37
ENDBRANCH  28  31
ENDBRANCH  26  27
ENDBRANCH  25  26
ENDBRANCH   1  25
TORSDOF 20
ENDMDL
MODEL 2
REMARK VINA RESULT:      -9.9      1.111      8.361
REMARK SMILES COc1cc(C(=O)NCCCCNC(=O)c2ccc(-c3c4nc(c(-c5c(F)cc(S(=O)(=O)[O-])cc5F)c5ccc([nH]5)c(-c5c(F)cc(S(=O)(=O)[O-])cc5F)c5nc(c(-c6c(F)cc(S(=O)(=O)[O-])cc6F)c6ccc3[nH]6)C=C5)C=C4)cc2)c([N+](=O)[O-])cc1O[C@H](C)[C@@H](C)O
REMARK SMILES IDX 10 1 9 2 8 3 6 4 7 5 5 7 3 8 4 9 87 10 86 11 82 12 2 13 1 14
REMARK SMILES IDX 88 15 89 16 90 17 91 18 92 19 93 20 83 22 84 23 85 24 11 25
REMARK SMILES IDX 12 26 13 27 14 28 15 30 16 31 17 32 81 33 18 34 80 35 19 36
REMARK SMILES IDX 20 37 21 38 74 39 22 40 79 41 73 42 75 43 23 44 78 45 72 46
REMARK SMILES IDX 71 47 24 49 58 50 37 51 57 52 38 53 41 54 56 55 76 56 39 57
REMARK SMILES IDX 40 58 55 60 77 61 42 62 25 63 26 64 35 65 27 66 28 67 34 68
REMARK SMILES IDX 36 69 29 70 30 71 31 72 32 73 33 74 59 75 60 76 69 77 61 78
REMARK SMILES IDX 62 79 68 80 70 81 63 82 64 83 65 84 66 85 67 86 43 87 44 88
REMARK SMILES IDX 53 89 45 90 46 91 52 92 54 93 47 94 48 95 49 96 50 97 51 98
REMARK H PARENT 8 6 93 21 13 29 75 48 41 59
REMARK Flexibility Score: inf
ROOT
ATOM      1  C   UNL A   1      31.620  28.638  26.067  1.00  0.00     0.023 C 
ENDROOT
BRANCH   1   2
ATOM      2  C   UNL A   1      31.724  28.100  24.647  1.00  0.00     0.116 C 
BRANCH   2   3
ATOM      3  N   UNL A   1      30.504  27.531  24.100  1.00  0.00    -0.352 N 
ATOM      4  C   UNL A   1      30.241  26.245  23.681  1.00  0.00     0.258 C 
ATOM      5  O   UNL A   1      29.132  25.953  23.240  1.00  0.00    -0.269 OA
ATOM      6  H   UNL A   1      29.749  28.159  24.016  1.00  0.00     0.163 HD
BRANCH   4   7
ATOM      7  C   UNL A   1      31.307  25.218  23.665  1.00  0.00     0.121 A 
ATOM      8  C   UNL A   1      32.354  23.324  24.790  1.00  0.00     0.162 A 
ATOM      9  C   UNL A   1      31.415  24.372  24.776  1.00  0.00     0.071 A 
ATOM     10  C   UNL A   1      33.119  23.028  23.644  1.00  0.00     0.168 A 
ATOM     11  C   UNL A   1      33.050  23.909  22.572  1.00  0.00     0.136 A 
ATOM     12  C   UNL A   1      32.211  25.033  22.627  1.00  0.00     0.286 A 
BRANCH   8  13
ATOM     13  O   UNL A   1      32.405  22.629  25.973  1.00  0.00    -0.493 OA
ATOM     14  C   UNL A   1      31.796  21.338  25.926  1.00  0.00     0.278 C 
ENDBRANCH   8  13
BRANCH  10  15
ATOM     15  O   UNL A   1      33.956  21.953  23.700  1.00  0.00    -0.484 OA
BRANCH  15  16
ATOM     16  C   UNL A   1      35.306  21.997  24.203  1.00  0.00     0.198 C 
ATOM     17  C   UNL A   1      35.453  21.532  25.651  1.00  0.00     0.056 C 
BRANCH  16  18
ATOM     18  C   UNL A   1      36.046  23.307  23.835  1.00  0.00     0.151 C 
ATOM     19  C   UNL A   1      37.098  23.723  24.861  1.00  0.00     0.042 C 
BRANCH  18  20
ATOM     20  O   UNL A   1      36.717  23.152  22.576  1.00  0.00    -0.390 OA
ATOM     21  H   UNL A   1      37.350  22.418  22.634  1.00  0.00     0.211 HD
ENDBRANCH  18  20
ENDBRANCH  16  18
ENDBRANCH  15  16
ENDBRANCH  10  15
BRANCH  12  22
ATOM     22  N   UNL A   1      32.423  26.058  21.621  1.00  0.00     0.063 N 
ATOM     23  O   UNL A   1      31.567  26.184  20.740  1.00  0.00    -0.258 OA
ATOM     24  O   UNL A   1      33.433  26.766  21.750  1.00  0.00    -0.258 OA
ENDBRANCH  12  22
ENDBRANCH   4   7
ENDBRANCH   2   3
ENDBRANCH   1   2
BRANCH   1  25
ATOM     25  C   UNL A   1      32.673  28.137  27.055  1.00  0.00     0.023 C 
BRANCH  25  26
ATOM     26  C   UNL A   1      34.024  28.851  27.038  1.00  0.00     0.116 C 
BRANCH  26  27
ATOM     27  N   UNL A   1      34.056  30.087  27.810  1.00  0.00    -0.352 N 
ATOM     28  C   UNL A   1      35.073  30.660  28.539  1.00  0.00     0.251 C 
ATOM     29  H   UNL A   1      33.213  30.595  27.809  1.00  0.00     0.163 HD
ATOM     30  O   UNL A   1      34.857  31.680  29.190  1.00  0.00    -0.269 OA
BRANCH  28  31
ATOM     31  C   UNL A   1      36.410  30.027  28.588  1.00  0.00     0.039 A 
ATOM     32  C   UNL A   1      37.212  30.057  27.445  1.00  0.00     0.014 A 
ATOM     33  C   UNL A   1      36.889  29.440  29.761  1.00  0.00     0.014 A 
ATOM     34  C   UNL A   1      38.537  29.619  27.515  1.00  0.00     0.010 A 
ATOM     35  C   UNL A   1      38.233  29.087  29.855  1.00  0.00     0.010 A 
ATOM     36  C   UNL A   1      39.079  29.198  28.741  1.00  0.00    -0.014 A 
BRANCH  36  37
ATOM     37  C   UNL A   1      40.534  28.936  28.901  1.00  0.00     0.031 A 
ATOM     38  C   UNL A   1      41.118  27.605  28.520  1.00  0.00     0.074 A 
ATOM     39  C   UNL A   1      41.312  29.867  29.491  1.00  0.00     0.049 A 
ATOM     40  N   UNL A   1      42.336  27.156  28.694  1.00  0.00    -0.248 NA
ATOM     41  C   UNL A   1      40.207  26.638  27.889  1.00  0.00     0.031 C 
ATOM     42  C   UNL A   1      40.859  31.181  29.954  1.00  0.00     0.029 A 
ATOM     43  N   UNL A   1      42.646  29.846  29.817  1.00  0.00    -0.354 N 
ATOM     44  C   UNL A   1      42.329  25.849  28.224  1.00  0.00     0.074 A 
ATOM     45  C   UNL A   1      40.977  25.564  27.791  1.00  0.00     0.031 C 
ATOM     46  C   UNL A   1      41.901  31.851  30.474  1.00  0.00     0.029 A 
ATOM     47  C   UNL A   1      43.085  30.999  30.426  1.00  0.00     0.049 A 
ATOM     48  H   UNL A   1      43.233  29.079  29.632  1.00  0.00     0.167 HD
ATOM     49  C   UNL A   1      43.359  24.971  28.146  1.00  0.00     0.037 A 
ATOM     50  C   UNL A   1      44.300  31.332  30.903  1.00  0.00     0.037 A 
ATOM     51  C   UNL A   1      44.710  25.272  28.541  1.00  0.00     0.049 A 
ATOM     52  C   UNL A   1      45.426  30.341  30.807  1.00  0.00     0.074 A 
ATOM     53  C   UNL A   1      45.840  24.485  28.409  1.00  0.00     0.029 A 
ATOM     54  N   UNL A   1      45.114  26.451  29.150  1.00  0.00    -0.354 N 
ATOM     55  N   UNL A   1      45.419  29.135  30.293  1.00  0.00    -0.248 NA
ATOM     56  C   UNL A   1      46.722  30.753  31.363  1.00  0.00     0.031 C 
ATOM     57  C   UNL A   1      46.921  25.171  28.975  1.00  0.00     0.029 A 
ATOM     58  C   UNL A   1      46.471  26.402  29.426  1.00  0.00     0.049 A 
ATOM     59  H   UNL A   1      44.524  27.211  29.356  1.00  0.00     0.167 HD
ATOM     60  C   UNL A   1      46.713  28.652  30.442  1.00  0.00     0.074 A 
ATOM     61  C   UNL A   1      47.479  29.697  31.090  1.00  0.00     0.031 C 
ATOM     62  C   UNL A   1      47.221  27.450  30.073  1.00  0.00     0.037 A 
BRANCH  49  63
ATOM     63  C   UNL A   1      43.056  23.599  27.615  1.00  0.00     0.058 A 
ATOM     64  C   UNL A   1      42.741  22.529  28.468  1.00  0.00     0.135 A 
ATOM     65  C   UNL A   1      43.075  23.350  26.233  1.00  0.00     0.135 A 
ATOM     66  F   UNL A   1      42.721  22.709  29.799  1.00  0.00    -0.206 F 
ATOM     67  C   UNL A   1      42.497  21.252  27.974  1.00  0.00     0.059 A 
ATOM     68  C   UNL A   1      42.808  22.086  25.715  1.00  0.00     0.059 A 
ATOM     69  F   UNL A   1      43.366  24.338  25.372  1.00  0.00    -0.206 F 
ATOM     70  C   UNL A   1      42.542  21.038  26.595  1.00  0.00     0.060 A 
BRANCH  70  71
ATOM     71  S   UNL A   1      42.249  19.370  25.968  1.00  0.00     0.124 S 
ATOM     72  O   UNL A   1      40.804  19.388  25.765  1.00  0.00    -0.237 OA
ATOM     73  O   UNL A   1      43.057  19.344  24.753  1.00  0.00    -0.237 OA
ATOM     74  O   UNL A   1      42.722  18.514  27.050  1.00  0.00    -0.744 OA
ENDBRANCH  70  71
ENDBRANCH  49  63
BRANCH  50  75
ATOM     75  C   UNL A   1      44.521  32.681  31.485  1.00  0.00     0.058 A 
ATOM     76  C   UNL A   1      44.861  33.765  30.661  1.00  0.00     0.135 A 
ATOM     77  C   UNL A   1      44.368  32.926  32.858  1.00  0.00     0.135 A 
ATOM     78  F   UNL A   1      45.025  33.576  29.343  1.00  0.00    -0.206 F 
ATOM     79  C   UNL A   1      45.044  35.043  31.176  1.00  0.00     0.059 A 
ATOM     80  C   UNL A   1      44.527  34.200  33.395  1.00  0.00     0.059 A 
ATOM     81  F   UNL A   1      44.030  31.926  33.686  1.00  0.00    -0.206 F 
ATOM     82  C   UNL A   1      44.871  35.252  32.545  1.00  0.00     0.060 A 
BRANCH  82  83
ATOM     83  S   UNL A   1      45.043  36.928  33.192  1.00  0.00     0.124 S 
ATOM     84  O   UNL A   1      45.584  36.676  34.523  1.00  0.00    -0.237 OA
ATOM     85  O   UNL A   1      45.962  37.536  32.234  1.00  0.00    -0.237 OA
ATOM     86  O   UNL A   1      43.678  37.445  33.151  1.00  0.00    -0.744 OA
ENDBRANCH  82  83
ENDBRANCH  50  75
BRANCH  62  87
ATOM     87  C   UNL A   1      48.678  27.205  30.338  1.00  0.00     0.058 A 
ATOM     88  C   UNL A   1      49.113  26.565  31.509  1.00  0.00     0.135 A 
ATOM     89  C   UNL A   1      49.646  27.563  29.386  1.00  0.00     0.135 A 
ATOM     90  F   UNL A   1      48.229  26.213  32.455  1.00  0.00    -0.206 F 
ATOM     91  C   UNL A   1      50.459  26.297  31.731  1.00  0.00     0.059 A 
ATOM     92  C   UNL A   1      50.995  27.285  29.577  1.00  0.00     0.059 A 
ATOM     93  F   UNL A   1      49.280  28.172  28.247  1.00  0.00    -0.206 F 
ATOM     94  C   UNL A   1      51.393  26.657  30.757  1.00  0.00     0.060 A 
BRANCH  94  95
ATOM     95  S   UNL A   1      53.133  26.260  31.034  1.00  0.00     0.124 S 
ATOM     96  O   UNL A   1      53.612  26.066  29.669  1.00  0.00    -0.237 OA
ATOM     97  O   UNL A   1      53.624  27.454  31.714  1.00  0.00    -0.237 OA
ATOM     98  O   UNL A   1      53.079  25.056  31.858  1.00  0.00    -0.744 OA
ENDBRANCH  94  95
ENDBRANCH  62  87
ENDBRANCH  36  37
ENDBRANCH  28  31
ENDBRANCH  26  27
ENDBRANCH  25  26
ENDBRANCH   1  25
TORSDOF 20
ENDMDL
MODEL 3
REMARK VINA RESULT:      -9.7      2.734      8.419
REMARK SMILES COc1cc(C(=O)NCCCCNC(=O)c2ccc(-c3c4nc(c(-c5c(F)cc(S(=O)(=O)[O-])cc5F)c5ccc([nH]5)c(-c5c(F)cc(S(=O)(=O)[O-])cc5F)c5nc(c(-c6c(F)cc(S(=O)(=O)[O-])cc6F)c6ccc3[nH]6)C=C5)C=C4)cc2)c([N+](=O)[O-])cc1O[C@H](C)[C@@H](C)O
REMARK SMILES IDX 10 1 9 2 8 3 6 4 7 5 5 7 3 8 4 9 87 10 86 11 82 12 2 13 1 14
REMARK SMILES IDX 88 15 89 16 90 17 91 18 92 19 93 20 83 22 84 23 85 24 11 25
REMARK SMILES IDX 12 26 13 27 14 28 15 30 16 31 17 32 81 33 18 34 80 35 19 36
REMARK SMILES IDX 20 37 21 38 74 39 22 40 79 41 73 42 75 43 23 44 78 45 72 46
REMARK SMILES IDX 71 47 24 49 58 50 37 51 57 52 38 53 41 54 56 55 76 56 39 57
REMARK SMILES IDX 40 58 55 60 77 61 42 62 25 63 26 64 35 65 27 66 28 67 34 68
REMARK SMILES IDX 36 69 29 70 30 71 31 72 32 73 33 74 59 75 60 76 69 77 61 78
REMARK SMILES IDX 62 79 68 80 70 81 63 82 64 83 65 84 66 85 67 86 43 87 44 88
REMARK SMILES IDX 53 89 45 90 46 91 52 92 54 93 47 94 48 95 49 96 50 97 51 98
REMARK H PARENT 8 6 93 21 13 29 75 48 41 59
REMARK Flexibility Score: inf
ROOT
ATOM      1  C   UNL A   1      31.489  29.090  26.359  1.00  0.00     0.023 C 
ENDROOT
BRANCH   1   2
ATOM      2  C   UNL A   1      31.795  29.334  24.888  1.00  0.00     0.116 C 
BRANCH   2   3
ATOM      3  N   UNL A   1      30.901  28.683  23.944  1.00  0.00    -0.352 N 
ATOM      4  C   UNL A   1      30.747  27.346  23.653  1.00  0.00     0.258 C 
ATOM      5  O   UNL A   1      29.929  26.986  22.811  1.00  0.00    -0.269 OA
ATOM      6  H   UNL A   1      30.317  29.291  23.434  1.00  0.00     0.163 HD
BRANCH   4   7
ATOM      7  C   UNL A   1      31.622  26.327  24.278  1.00  0.00     0.121 A 
ATOM      8  C   UNL A   1      31.860  24.568  25.950  1.00  0.00     0.162 A 
ATOM      9  C   UNL A   1      31.112  25.605  25.363  1.00  0.00     0.071 A 
ATOM     10  C   UNL A   1      33.082  24.154  25.384  1.00  0.00     0.168 A 
ATOM     11  C   UNL A   1      33.609  24.915  24.348  1.00  0.00     0.136 A 
ATOM     12  C   UNL A   1      32.915  26.035  23.864  1.00  0.00     0.286 A 
BRANCH   8  13
ATOM     13  O   UNL A   1      31.271  24.003  27.055  1.00  0.00    -0.493 OA
ATOM     14  C   UNL A   1      30.261  23.039  26.757  1.00  0.00     0.278 C 
ENDBRANCH   8  13
BRANCH  10  15
ATOM     15  O   UNL A   1      33.721  23.095  25.958  1.00  0.00    -0.484 OA
BRANCH  15  16
ATOM     16  C   UNL A   1      34.358  22.032  25.223  1.00  0.00     0.198 C 
ATOM     17  C   UNL A   1      33.391  20.995  24.650  1.00  0.00     0.056 C 
BRANCH  16  18
ATOM     18  C   UNL A   1      35.609  21.464  25.941  1.00  0.00     0.151 C 
ATOM     19  C   UNL A   1      36.517  20.642  25.030  1.00  0.00     0.042 C 
BRANCH  18  20
ATOM     20  O   UNL A   1      36.398  22.539  26.470  1.00  0.00    -0.390 OA
ATOM     21  H   UNL A   1      35.850  23.085  27.057  1.00  0.00     0.211 HD
ENDBRANCH  18  20
ENDBRANCH  16  18
ENDBRANCH  15  16
ENDBRANCH  10  15
BRANCH  12  22
ATOM     22  N   UNL A   1      33.658  26.948  23.014  1.00  0.00     0.063 N 
ATOM     23  O   UNL A   1      34.196  27.922  23.548  1.00  0.00    -0.258 OA
ATOM     24  O   UNL A   1      33.734  26.654  21.811  1.00  0.00    -0.258 OA
ENDBRANCH  12  22
ENDBRANCH   4   7
ENDBRANCH   2   3
ENDBRANCH   1   2
BRANCH   1  25
ATOM     25  C   UNL A   1      32.484  28.212  27.116  1.00  0.00     0.023 C 
BRANCH  25  26
ATOM     26  C   UNL A   1      33.865  28.809  27.380  1.00  0.00     0.116 C 
BRANCH  26  27
ATOM     27  N   UNL A   1      33.841  30.201  27.815  1.00  0.00    -0.352 N 
ATOM     28  C   UNL A   1      34.788  30.947  28.479  1.00  0.00     0.251 C 
ATOM     29  H   UNL A   1      33.011  30.685  27.600  1.00  0.00     0.163 HD
ATOM     30  O   UNL A   1      34.525  32.096  28.827  1.00  0.00    -0.269 OA
BRANCH  28  31
ATOM     31  C   UNL A   1      36.100  30.358  28.824  1.00  0.00     0.039 A 
ATOM     32  C   UNL A   1      37.204  30.655  28.020  1.00  0.00     0.014 A 
ATOM     33  C   UNL A   1      36.257  29.549  29.951  1.00  0.00     0.014 A 
ATOM     34  C   UNL A   1      38.482  30.252  28.420  1.00  0.00     0.010 A 
ATOM     35  C   UNL A   1      37.536  29.224  30.394  1.00  0.00     0.010 A 
ATOM     36  C   UNL A   1      38.665  29.595  29.647  1.00  0.00    -0.014 A 
BRANCH  36  37
ATOM     37  C   UNL A   1      40.021  29.348  30.205  1.00  0.00     0.031 A 
ATOM     38  C   UNL A   1      40.894  28.262  29.641  1.00  0.00     0.074 A 
ATOM     39  C   UNL A   1      40.424  30.037  31.292  1.00  0.00     0.049 A 
ATOM     40  N   UNL A   1      42.052  27.827  30.068  1.00  0.00    -0.248 NA
ATOM     41  C   UNL A   1      40.384  27.549  28.459  1.00  0.00     0.031 C 
ATOM     42  C   UNL A   1      39.652  31.082  31.969  1.00  0.00     0.029 A 
ATOM     43  N   UNL A   1      41.579  29.951  32.032  1.00  0.00    -0.354 N 
ATOM     44  C   UNL A   1      42.395  26.773  29.230  1.00  0.00     0.074 A 
ATOM     45  C   UNL A   1      41.305  26.610  28.292  1.00  0.00     0.031 C 
ATOM     46  C   UNL A   1      40.365  31.562  33.001  1.00  0.00     0.029 A 
ATOM     47  C   UNL A   1      41.623  30.828  33.091  1.00  0.00     0.049 A 
ATOM     48  H   UNL A   1      42.306  29.323  31.823  1.00  0.00     0.167 HD
ATOM     49  C   UNL A   1      43.521  26.020  29.233  1.00  0.00     0.037 A 
ATOM     50  C   UNL A   1      42.563  31.015  34.038  1.00  0.00     0.037 A 
ATOM     51  C   UNL A   1      44.620  26.212  30.143  1.00  0.00     0.049 A 
ATOM     52  C   UNL A   1      43.803  30.166  34.021  1.00  0.00     0.074 A 
ATOM     53  C   UNL A   1      45.844  25.566  30.162  1.00  0.00     0.029 A 
ATOM     54  N   UNL A   1      44.628  27.111  31.198  1.00  0.00    -0.354 N 
ATOM     55  N   UNL A   1      44.143  29.222  33.176  1.00  0.00    -0.248 NA
ATOM     56  C   UNL A   1      44.784  30.401  35.090  1.00  0.00     0.031 C 
ATOM     57  C   UNL A   1      46.576  26.046  31.253  1.00  0.00     0.029 A 
ATOM     58  C   UNL A   1      45.823  27.018  31.893  1.00  0.00     0.049 A 
ATOM     59  H   UNL A   1      43.892  27.726  31.422  1.00  0.00     0.167 HD
ATOM     60  C   UNL A   1      45.387  28.767  33.597  1.00  0.00     0.074 A 
ATOM     61  C   UNL A   1      45.742  29.541  34.769  1.00  0.00     0.031 C 
ATOM     62  C   UNL A   1      46.164  27.795  33.059  1.00  0.00     0.037 A 
BRANCH  49  63
ATOM     63  C   UNL A   1      43.615  24.916  28.218  1.00  0.00     0.058 A 
ATOM     64  C   UNL A   1      43.221  23.602  28.517  1.00  0.00     0.135 A 
ATOM     65  C   UNL A   1      44.099  25.175  26.926  1.00  0.00     0.135 A 
ATOM     66  F   UNL A   1      42.762  23.297  29.742  1.00  0.00    -0.206 F 
ATOM     67  C   UNL A   1      43.343  22.576  27.586  1.00  0.00     0.059 A 
ATOM     68  C   UNL A   1      44.206  24.169  25.970  1.00  0.00     0.059 A 
ATOM     69  F   UNL A   1      44.486  26.415  26.585  1.00  0.00    -0.206 F 
ATOM     70  C   UNL A   1      43.845  22.868  26.317  1.00  0.00     0.060 A 
BRANCH  70  71
ATOM     71  S   UNL A   1      44.024  21.523  25.126  1.00  0.00     0.124 S 
ATOM     72  O   UNL A   1      43.944  22.245  23.861  1.00  0.00    -0.237 OA
ATOM     73  O   UNL A   1      45.335  20.977  25.461  1.00  0.00    -0.237 OA
ATOM     74  O   UNL A   1      42.891  20.653  25.426  1.00  0.00    -0.744 OA
ENDBRANCH  70  71
ENDBRANCH  49  63
BRANCH  50  75
ATOM     75  C   UNL A   1      42.382  32.076  35.062  1.00  0.00     0.058 A 
ATOM     76  C   UNL A   1      42.902  33.363  34.853  1.00  0.00     0.135 A 
ATOM     77  C   UNL A   1      41.663  31.843  36.244  1.00  0.00     0.135 A 
ATOM     78  F   UNL A   1      43.602  33.629  33.740  1.00  0.00    -0.206 F 
ATOM     79  C   UNL A   1      42.720  34.382  35.781  1.00  0.00     0.059 A 
ATOM     80  C   UNL A   1      41.452  32.853  37.179  1.00  0.00     0.059 A 
ATOM     81  F   UNL A   1      41.134  30.634  36.483  1.00  0.00    -0.206 F 
ATOM     82  C   UNL A   1      41.989  34.118  36.941  1.00  0.00     0.060 A 
BRANCH  82  83
ATOM     83  S   UNL A   1      41.700  35.466  38.106  1.00  0.00     0.124 S 
ATOM     84  O   UNL A   1      40.633  36.205  37.442  1.00  0.00    -0.237 OA
ATOM     85  O   UNL A   1      41.319  34.749  39.319  1.00  0.00    -0.237 OA
ATOM     86  O   UNL A   1      42.994  36.140  38.167  1.00  0.00    -0.744 OA
ENDBRANCH  82  83
ENDBRANCH  50  75
BRANCH  62  87
ATOM     87  C   UNL A   1      47.487  27.526  33.715  1.00  0.00     0.058 A 
ATOM     88  C   UNL A   1      47.632  26.533  34.696  1.00  0.00     0.135 A 
ATOM     89  C   UNL A   1      48.636  28.231  33.319  1.00  0.00     0.135 A 
ATOM     90  F   UNL A   1      46.563  25.840  35.118  1.00  0.00    -0.206 F 
ATOM     91  C   UNL A   1      48.868  26.254  35.268  1.00  0.00     0.059 A 
ATOM     92  C   UNL A   1      49.886  27.954  33.862  1.00  0.00     0.059 A 
ATOM     93  F   UNL A   1      48.551  29.186  32.380  1.00  0.00    -0.206 F 
ATOM     94  C   UNL A   1      49.991  26.967  34.842  1.00  0.00     0.060 A 
BRANCH  94  95
ATOM     95  S   UNL A   1      51.599  26.563  35.557  1.00  0.00     0.124 S 
ATOM     96  O   UNL A   1      52.247  27.870  35.581  1.00  0.00    -0.237 OA
ATOM     97  O   UNL A   1      51.235  26.011  36.858  1.00  0.00    -0.237 OA
ATOM     98  O   UNL A   1      52.158  25.601  34.611  1.00  0.00    -0.744 OA
ENDBRANCH  94  95
ENDBRANCH  62  87
ENDBRANCH  36  37
ENDBRANCH  28  31
ENDBRANCH  26  27
ENDBRANCH  25  26
ENDBRANCH   1  25
TORSDOF 20
ENDMDL
