MODEL 1
REMARK VINA RESULT:      -9.5      0.000      0.000
REMARK SMILES CN1C(=O)C(=Cc2ccc(OCc3cccc(C(=O)NCCCCNC(=O)c4ccc(-c5c6nc(c(-c7c(F)cc(S(=O)(=O)[O-])cc7F)c7ccc([nH]7)c(-c7c(F)cc(S(=O)(=O)[O-])cc7F)c7nc(c(-c8c(F)cc(S(=O)(=O)[O-])cc8F)c8ccc5[nH]8)C=C7)C=C6)cc4)c3)c(Cl)c2)C(=O)N(C)C1=S
REMARK SMILES IDX 22 1 21 2 20 3 18 4 19 5 17 7 13 8 14 9 94 10 15 11 16 12
REMARK SMILES IDX 12 13 11 14 10 15 7 16 8 17 97 18 9 19 95 20 96 21 6 22 1 23
REMARK SMILES IDX 2 24 3 25 102 26 4 27 5 28 100 29 103 30 98 31 101 32 99 33
REMARK SMILES IDX 23 34 24 35 25 36 26 37 27 39 28 40 29 41 93 42 30 43 92 44
REMARK SMILES IDX 31 45 32 46 33 47 86 48 34 49 91 50 85 51 87 52 35 53 90 54
REMARK SMILES IDX 84 55 83 56 36 58 70 59 49 60 69 61 50 62 53 63 68 64 88 65
REMARK SMILES IDX 51 66 52 67 67 69 89 70 54 71 37 72 38 73 47 74 39 75 40 76
REMARK SMILES IDX 46 77 48 78 41 79 42 80 43 81 44 82 45 83 71 84 72 85 81 86
REMARK SMILES IDX 73 87 74 88 80 89 82 90 75 91 76 92 77 93 78 94 79 95 55 96
REMARK SMILES IDX 56 97 65 98 57 99 58 100 64 101 66 102 59 103 60 104 61 105
REMARK SMILES IDX 62 106 63 107
REMARK H PARENT 20 6 25 38 87 57 53 68
REMARK Flexibility Score: inf
ROOT
ATOM      1  C   UNL A   1      37.183  33.467  29.235  1.00  0.00     0.023 C 
ENDROOT
BRANCH   1   2
ATOM      2  C   UNL A   1      38.137  34.245  30.133  1.00  0.00     0.116 C 
BRANCH   2   3
ATOM      3  N   UNL A   1      37.517  34.820  31.311  1.00  0.00    -0.352 N 
ATOM      4  C   UNL A   1      37.345  34.324  32.579  1.00  0.00     0.251 C 
ATOM      5  O   UNL A   1      36.773  35.032  33.408  1.00  0.00    -0.269 OA
ATOM      6  H   UNL A   1      37.155  35.726  31.176  1.00  0.00     0.163 HD
BRANCH   4   7
ATOM      7  C   UNL A   1      37.778  32.957  32.981  1.00  0.00     0.040 A 
ATOM      8  C   UNL A   1      39.381  31.353  33.878  1.00  0.00    -0.010 A 
ATOM      9  C   UNL A   1      38.469  30.320  33.625  1.00  0.00     0.007 A 
ATOM     10  C   UNL A   1      38.997  32.676  33.609  1.00  0.00     0.021 A 
ATOM     11  C   UNL A   1      37.225  30.593  33.063  1.00  0.00     0.001 A 
ATOM     12  C   UNL A   1      36.887  31.904  32.729  1.00  0.00     0.014 A 
BRANCH   8  13
ATOM     13  C   UNL A   1      40.774  31.052  34.392  1.00  0.00     0.265 C 
BRANCH  13  14
ATOM     14  O   UNL A   1      41.780  30.933  33.370  1.00  0.00    -0.487 OA
BRANCH  14  15
ATOM     15  C   UNL A   1      42.409  29.720  33.256  1.00  0.00     0.138 A 
ATOM     16  C   UNL A   1      43.436  27.119  32.969  1.00  0.00    -0.023 A 
ATOM     17  C   UNL A   1      42.155  27.422  32.503  1.00  0.00     0.012 A 
ATOM     18  C   UNL A   1      44.221  28.130  33.527  1.00  0.00     0.032 A 
ATOM     19  C   UNL A   1      41.646  28.718  32.645  1.00  0.00     0.048 A 
ATOM     20  C   UNL A   1      43.726  29.436  33.638  1.00  0.00     0.083 A 
ATOM     21  Cl  UNL A   1      44.830  30.638  34.201  1.00  0.00    -0.080 Cl
BRANCH  16  22
ATOM     22  C   UNL A   1      43.964  25.758  32.848  1.00  0.00     0.027 C 
ATOM     23  C   UNL A   1      44.002  24.906  37.564  1.00  0.00     0.156 C 
ATOM     24  N   UNL A   1      44.278  24.430  36.204  1.00  0.00    -0.288 N 
ATOM     25  C   UNL A   1      43.574  25.102  35.209  1.00  0.00     0.265 C 
ATOM     26  C   UNL A   1      45.155  23.344  35.988  1.00  0.00     0.185 C 
ATOM     27  O   UNL A   1      42.603  25.823  35.424  1.00  0.00    -0.268 OA
ATOM     28  C   UNL A   1      44.058  24.855  33.845  1.00  0.00     0.106 C 
ATOM     29  N   UNL A   1      45.309  22.945  34.642  1.00  0.00    -0.288 N 
ATOM     30  S   UNL A   1      45.941  22.559  37.272  1.00  0.00    -0.040 S 
ATOM     31  C   UNL A   1      44.734  23.586  33.545  1.00  0.00     0.265 C 
ATOM     32  C   UNL A   1      46.109  21.777  34.254  1.00  0.00     0.156 C 
ATOM     33  O   UNL A   1      44.795  23.155  32.393  1.00  0.00    -0.268 OA
ENDBRANCH  16  22
ENDBRANCH  14  15
ENDBRANCH  13  14
ENDBRANCH   8  13
ENDBRANCH   4   7
ENDBRANCH   2   3
ENDBRANCH   1   2
BRANCH   1  34
ATOM     34  C   UNL A   1      35.704  33.822  29.330  1.00  0.00     0.023 C 
BRANCH  34  35
ATOM     35  C   UNL A   1      34.798  32.783  29.981  1.00  0.00     0.116 C 
BRANCH  35  36
ATOM     36  N   UNL A   1      34.023  31.999  29.031  1.00  0.00    -0.352 N 
ATOM     37  C   UNL A   1      34.384  30.885  28.308  1.00  0.00     0.251 C 
ATOM     38  H   UNL A   1      33.101  32.311  28.885  1.00  0.00     0.163 HD
ATOM     39  O   UNL A   1      33.595  30.401  27.500  1.00  0.00    -0.269 OA
BRANCH  37  40
ATOM     40  C   UNL A   1      35.736  30.305  28.464  1.00  0.00     0.039 A 
ATOM     41  C   UNL A   1      36.623  30.373  27.387  1.00  0.00     0.014 A 
ATOM     42  C   UNL A   1      36.143  29.737  29.673  1.00  0.00     0.014 A 
ATOM     43  C   UNL A   1      37.948  29.964  27.554  1.00  0.00     0.010 A 
ATOM     44  C   UNL A   1      37.481  29.399  29.861  1.00  0.00     0.010 A 
ATOM     45  C   UNL A   1      38.400  29.524  28.809  1.00  0.00    -0.014 A 
BRANCH  45  46
ATOM     46  C   UNL A   1      39.833  29.211  29.050  1.00  0.00     0.031 A 
ATOM     47  C   UNL A   1      40.765  30.281  29.549  1.00  0.00     0.074 A 
ATOM     48  C   UNL A   1      40.311  27.989  28.739  1.00  0.00     0.049 A 
ATOM     49  N   UNL A   1      42.062  30.236  29.711  1.00  0.00    -0.248 NA
ATOM     50  C   UNL A   1      40.163  31.582  29.883  1.00  0.00     0.031 C 
ATOM     51  C   UNL A   1      39.521  26.881  28.194  1.00  0.00     0.029 A 
ATOM     52  N   UNL A   1      41.582  27.475  28.823  1.00  0.00    -0.354 N 
ATOM     53  C   UNL A   1      42.434  31.503  30.144  1.00  0.00     0.074 A 
ATOM     54  C   UNL A   1      41.232  32.308  30.179  1.00  0.00     0.031 C 
ATOM     55  C   UNL A   1      40.320  25.818  28.008  1.00  0.00     0.029 A 
ATOM     56  C   UNL A   1      41.683  26.175  28.386  1.00  0.00     0.049 A 
ATOM     57  H   UNL A   1      42.348  27.990  29.163  1.00  0.00     0.167 HD
ATOM     58  C   UNL A   1      43.662  31.950  30.500  1.00  0.00     0.037 A 
ATOM     59  C   UNL A   1      42.755  25.363  28.295  1.00  0.00     0.037 A 
ATOM     60  C   UNL A   1      44.850  31.137  30.501  1.00  0.00     0.049 A 
ATOM     61  C   UNL A   1      44.101  25.875  28.728  1.00  0.00     0.074 A 
ATOM     62  C   UNL A   1      46.131  31.485  30.892  1.00  0.00     0.029 A 
ATOM     63  N   UNL A   1      44.899  29.809  30.104  1.00  0.00    -0.354 N 
ATOM     64  N   UNL A   1      44.425  27.063  29.177  1.00  0.00    -0.248 NA
ATOM     65  C   UNL A   1      45.228  24.933  28.650  1.00  0.00     0.031 C 
ATOM     66  C   UNL A   1      46.961  30.372  30.713  1.00  0.00     0.029 A 
ATOM     67  C   UNL A   1      46.189  29.324  30.239  1.00  0.00     0.049 A 
ATOM     68  H   UNL A   1      44.132  29.288  29.774  1.00  0.00     0.167 HD
ATOM     69  C   UNL A   1      45.785  27.006  29.456  1.00  0.00     0.074 A 
ATOM     70  C   UNL A   1      46.222  25.662  29.138  1.00  0.00     0.031 C 
ATOM     71  C   UNL A   1      46.600  27.977  29.933  1.00  0.00     0.037 A 
BRANCH  58  72
ATOM     72  C   UNL A   1      43.779  33.381  30.940  1.00  0.00     0.058 A 
ATOM     73  C   UNL A   1      43.627  33.745  32.287  1.00  0.00     0.135 A 
ATOM     74  C   UNL A   1      44.085  34.393  30.016  1.00  0.00     0.135 A 
ATOM     75  F   UNL A   1      43.317  32.818  33.207  1.00  0.00    -0.206 F 
ATOM     76  C   UNL A   1      43.752  35.066  32.702  1.00  0.00     0.059 A 
ATOM     77  C   UNL A   1      44.238  35.720  30.412  1.00  0.00     0.059 A 
ATOM     78  F   UNL A   1      44.239  34.099  28.717  1.00  0.00    -0.206 F 
ATOM     79  C   UNL A   1      44.056  36.047  31.756  1.00  0.00     0.060 A 
BRANCH  79  80
ATOM     80  S   UNL A   1      44.230  37.757  32.311  1.00  0.00     0.124 S 
ATOM     81  O   UNL A   1      43.882  38.491  31.098  1.00  0.00    -0.237 OA
ATOM     82  O   UNL A   1      43.259  37.835  33.397  1.00  0.00    -0.237 OA
ATOM     83  O   UNL A   1      45.628  37.841  32.717  1.00  0.00    -0.744 OA
ENDBRANCH  79  80
ENDBRANCH  58  72
BRANCH  59  84
ATOM     84  C   UNL A   1      42.601  23.973  27.789  1.00  0.00     0.058 A 
ATOM     85  C   UNL A   1      42.490  22.894  28.678  1.00  0.00     0.135 A 
ATOM     86  C   UNL A   1      42.570  23.696  26.414  1.00  0.00     0.135 A 
ATOM     87  F   UNL A   1      42.519  23.111  30.002  1.00  0.00    -0.206 F 
ATOM     88  C   UNL A   1      42.380  21.585  28.224  1.00  0.00     0.059 A 
ATOM     89  C   UNL A   1      42.438  22.397  25.935  1.00  0.00     0.059 A 
ATOM     90  F   UNL A   1      42.654  24.698  25.525  1.00  0.00    -0.206 F 
ATOM     91  C   UNL A   1      42.358  21.346  26.849  1.00  0.00     0.060 A 
BRANCH  91  92
ATOM     92  S   UNL A   1      42.182  19.646  26.263  1.00  0.00     0.124 S 
ATOM     93  O   UNL A   1      42.550  18.887  27.452  1.00  0.00    -0.237 OA
ATOM     94  O   UNL A   1      40.773  19.593  25.881  1.00  0.00    -0.237 OA
ATOM     95  O   UNL A   1      43.126  19.578  25.151  1.00  0.00    -0.744 OA
ENDBRANCH  91  92
ENDBRANCH  59  84
BRANCH  71  96
ATOM     96  C   UNL A   1      48.037  27.616  30.175  1.00  0.00     0.058 A 
ATOM     97  C   UNL A   1      48.427  26.868  31.296  1.00  0.00     0.135 A 
ATOM     98  C   UNL A   1      49.026  27.979  29.248  1.00  0.00     0.135 A 
ATOM     99  F   UNL A   1      47.518  26.504  32.214  1.00  0.00    -0.206 F 
ATOM    100  C   UNL A   1      49.754  26.506  31.499  1.00  0.00     0.059 A 
ATOM    101  C   UNL A   1      50.356  27.609  29.420  1.00  0.00     0.059 A 
ATOM    102  F   UNL A   1      48.701  28.688  28.154  1.00  0.00    -0.206 F 
ATOM    103  C   UNL A   1      50.712  26.882  30.554  1.00  0.00     0.060 A 
BRANCH 103 104
ATOM    104  S   UNL A   1      52.426  26.374  30.806  1.00  0.00     0.124 S 
ATOM    105  O   UNL A   1      52.825  26.011  29.450  1.00  0.00    -0.237 OA
ATOM    106  O   UNL A   1      53.039  27.585  31.344  1.00  0.00    -0.237 OA
ATOM    107  O   UNL A   1      52.315  25.264  31.748  1.00  0.00    -0.744 OA
ENDBRANCH 103 104
ENDBRANCH  71  96
ENDBRANCH  45  46
ENDBRANCH  37  40
ENDBRANCH  35  36
ENDBRANCH  34  35
ENDBRANCH   1  34
TORSDOF 18
ENDMDL
MODEL 2
REMARK VINA RESULT:      -9.3      6.111     10.628
REMARK SMILES CN1C(=O)C(=Cc2ccc(OCc3cccc(C(=O)NCCCCNC(=O)c4ccc(-c5c6nc(c(-c7c(F)cc(S(=O)(=O)[O-])cc7F)c7ccc([nH]7)c(-c7c(F)cc(S(=O)(=O)[O-])cc7F)c7nc(c(-c8c(F)cc(S(=O)(=O)[O-])cc8F)c8ccc5[nH]8)C=C7)C=C6)cc4)c3)c(Cl)c2)C(=O)N(C)C1=S
REMARK SMILES IDX 22 1 21 2 20 3 18 4 19 5 17 7 13 8 14 9 94 10 15 11 16 12
REMARK SMILES IDX 12 13 11 14 10 15 7 16 8 17 97 18 9 19 95 20 96 21 6 22 1 23
REMARK SMILES IDX 2 24 3 25 102 26 4 27 5 28 100 29 103 30 98 31 101 32 99 33
REMARK SMILES IDX 23 34 24 35 25 36 26 37 27 39 28 40 29 41 93 42 30 43 92 44
REMARK SMILES IDX 31 45 32 46 33 47 86 48 34 49 91 50 85 51 87 52 35 53 90 54
REMARK SMILES IDX 84 55 83 56 36 58 70 59 49 60 69 61 50 62 53 63 68 64 88 65
REMARK SMILES IDX 51 66 52 67 67 69 89 70 54 71 37 72 38 73 47 74 39 75 40 76
REMARK SMILES IDX 46 77 48 78 41 79 42 80 43 81 44 82 45 83 71 84 72 85 81 86
REMARK SMILES IDX 73 87 74 88 80 89 82 90 75 91 76 92 77 93 78 94 79 95 55 96
REMARK SMILES IDX 56 97 65 98 57 99 58 100 64 101 66 102 59 103 60 104 61 105
REMARK SMILES IDX 62 106 63 107
REMARK H PARENT 20 6 25 38 87 57 53 68
REMARK Flexibility Score: inf
ROOT
ATOM      1  C   UNL A   1      40.292  34.443  29.842  1.00  0.00     0.023 C 
ENDROOT
BRANCH   1   2
ATOM      2  C   UNL A   1      40.716  35.594  28.938  1.00  0.00     0.116 C 
BRANCH   2   3
ATOM      3  N   UNL A   1      41.590  35.208  27.847  1.00  0.00    -0.352 N 
ATOM      4  C   UNL A   1      42.751  35.768  27.374  1.00  0.00     0.251 C 
ATOM      5  O   UNL A   1      43.306  35.233  26.415  1.00  0.00    -0.269 OA
ATOM      6  H   UNL A   1      41.299  34.403  27.361  1.00  0.00     0.163 HD
BRANCH   4   7
ATOM      7  C   UNL A   1      43.339  37.015  27.938  1.00  0.00     0.040 A 
ATOM      8  C   UNL A   1      44.246  39.272  27.761  1.00  0.00    -0.010 A 
ATOM      9  C   UNL A   1      44.498  39.264  29.140  1.00  0.00     0.007 A 
ATOM     10  C   UNL A   1      43.607  38.163  27.184  1.00  0.00     0.021 A 
ATOM     11  C   UNL A   1      44.173  38.155  29.915  1.00  0.00     0.001 A 
ATOM     12  C   UNL A   1      43.609  37.029  29.314  1.00  0.00     0.014 A 
BRANCH   8  13
ATOM     13  C   UNL A   1      44.692  40.433  26.895  1.00  0.00     0.265 C 
BRANCH  13  14
ATOM     14  O   UNL A   1      43.787  41.551  26.876  1.00  0.00    -0.487 OA
BRANCH  14  15
ATOM     15  C   UNL A   1      43.215  41.868  25.671  1.00  0.00     0.138 A 
ATOM     16  C   UNL A   1      42.222  42.746  23.191  1.00  0.00    -0.023 A 
ATOM     17  C   UNL A   1      43.440  43.235  23.672  1.00  0.00     0.012 A 
ATOM     18  C   UNL A   1      41.533  41.779  23.926  1.00  0.00     0.032 A 
ATOM     19  C   UNL A   1      43.933  42.795  24.906  1.00  0.00     0.048 A 
ATOM     20  C   UNL A   1      42.042  41.312  25.144  1.00  0.00     0.083 A 
ATOM     21  Cl  UNL A   1      41.191  40.011  25.893  1.00  0.00    -0.080 Cl
BRANCH  16  22
ATOM     22  C   UNL A   1      41.687  43.223  21.914  1.00  0.00     0.027 C 
ATOM     23  C   UNL A   1      45.953  43.471  19.743  1.00  0.00     0.156 C 
ATOM     24  N   UNL A   1      44.500  43.662  19.673  1.00  0.00    -0.288 N 
ATOM     25  C   UNL A   1      43.780  42.932  20.614  1.00  0.00     0.265 C 
ATOM     26  C   UNL A   1      43.931  44.492  18.680  1.00  0.00     0.185 C 
ATOM     27  O   UNL A   1      44.249  41.996  21.259  1.00  0.00    -0.268 OA
ATOM     28  C   UNL A   1      42.377  43.337  20.762  1.00  0.00     0.106 C 
ATOM     29  N   UNL A   1      42.522  44.564  18.683  1.00  0.00    -0.288 N 
ATOM     30  S   UNL A   1      44.890  45.316  17.546  1.00  0.00    -0.040 S 
ATOM     31  C   UNL A   1      41.688  43.956  19.621  1.00  0.00     0.265 C 
ATOM     32  C   UNL A   1      41.770  45.305  17.662  1.00  0.00     0.156 C 
ATOM     33  O   UNL A   1      40.460  43.944  19.538  1.00  0.00    -0.268 OA
ENDBRANCH  16  22
ENDBRANCH  14  15
ENDBRANCH  13  14
ENDBRANCH   8  13
ENDBRANCH   4   7
ENDBRANCH   2   3
ENDBRANCH   1   2
BRANCH   1  34
ATOM     34  C   UNL A   1      38.880  34.500  30.413  1.00  0.00     0.023 C 
BRANCH  34  35
ATOM     35  C   UNL A   1      37.761  34.010  29.502  1.00  0.00     0.116 C 
BRANCH  35  36
ATOM     36  N   UNL A   1      36.811  33.123  30.158  1.00  0.00    -0.352 N 
ATOM     37  C   UNL A   1      36.919  31.785  30.459  1.00  0.00     0.251 C 
ATOM     38  H   UNL A   1      35.963  33.545  30.429  1.00  0.00     0.163 HD
ATOM     39  O   UNL A   1      35.968  31.195  30.964  1.00  0.00    -0.269 OA
BRANCH  37  40
ATOM     40  C   UNL A   1      38.158  31.048  30.127  1.00  0.00     0.039 A 
ATOM     41  C   UNL A   1      38.338  30.594  28.817  1.00  0.00     0.014 A 
ATOM     42  C   UNL A   1      39.154  30.841  31.085  1.00  0.00     0.014 A 
ATOM     43  C   UNL A   1      39.558  30.024  28.444  1.00  0.00     0.010 A 
ATOM     44  C   UNL A   1      40.393  30.341  30.693  1.00  0.00     0.010 A 
ATOM     45  C   UNL A   1      40.613  29.942  29.366  1.00  0.00    -0.014 A 
BRANCH  45  46
ATOM     46  C   UNL A   1      41.961  29.465  28.960  1.00  0.00     0.031 A 
ATOM     47  C   UNL A   1      43.107  30.435  28.867  1.00  0.00     0.074 A 
ATOM     48  C   UNL A   1      42.132  28.179  28.596  1.00  0.00     0.049 A 
ATOM     49  N   UNL A   1      44.322  30.236  28.424  1.00  0.00    -0.248 NA
ATOM     50  C   UNL A   1      42.845  31.816  29.300  1.00  0.00     0.031 C 
ATOM     51  C   UNL A   1      41.086  27.151  28.589  1.00  0.00     0.029 A 
ATOM     52  N   UNL A   1      43.246  27.514  28.145  1.00  0.00    -0.354 N 
ATOM     53  C   UNL A   1      44.961  31.467  28.505  1.00  0.00     0.074 A 
ATOM     54  C   UNL A   1      43.988  32.417  28.999  1.00  0.00     0.031 C 
ATOM     55  C   UNL A   1      41.612  25.988  28.172  1.00  0.00     0.029 A 
ATOM     56  C   UNL A   1      43.020  26.191  27.849  1.00  0.00     0.049 A 
ATOM     57  H   UNL A   1      44.124  27.946  28.044  1.00  0.00     0.167 HD
ATOM     58  C   UNL A   1      46.247  31.774  28.215  1.00  0.00     0.037 A 
ATOM     59  C   UNL A   1      43.852  25.247  27.365  1.00  0.00     0.037 A 
ATOM     60  C   UNL A   1      47.225  30.821  27.761  1.00  0.00     0.049 A 
ATOM     61  C   UNL A   1      45.285  25.608  27.082  1.00  0.00     0.074 A 
ATOM     62  C   UNL A   1      48.566  31.025  27.488  1.00  0.00     0.029 A 
ATOM     63  N   UNL A   1      46.969  29.478  27.526  1.00  0.00    -0.354 N 
ATOM     64  N   UNL A   1      45.882  26.768  27.208  1.00  0.00    -0.248 NA
ATOM     65  C   UNL A   1      46.160  24.530  26.599  1.00  0.00     0.031 C 
ATOM     66  C   UNL A   1      49.117  29.809  27.068  1.00  0.00     0.029 A 
ATOM     67  C   UNL A   1      48.126  28.842  27.109  1.00  0.00     0.049 A 
ATOM     68  H   UNL A   1      46.094  29.041  27.637  1.00  0.00     0.167 HD
ATOM     69  C   UNL A   1      47.206  26.555  26.843  1.00  0.00     0.074 A 
ATOM     70  C   UNL A   1      47.326  25.153  26.502  1.00  0.00     0.031 C 
ATOM     71  C   UNL A   1      48.230  27.441  26.792  1.00  0.00     0.037 A 
BRANCH  58  72
ATOM     72  C   UNL A   1      46.680  33.201  28.401  1.00  0.00     0.058 A 
ATOM     73  C   UNL A   1      47.271  33.634  29.599  1.00  0.00     0.135 A 
ATOM     74  C   UNL A   1      46.539  34.135  27.363  1.00  0.00     0.135 A 
ATOM     75  F   UNL A   1      47.412  32.784  30.629  1.00  0.00    -0.206 F 
ATOM     76  C   UNL A   1      47.688  34.949  29.770  1.00  0.00     0.059 A 
ATOM     77  C   UNL A   1      46.971  35.452  27.503  1.00  0.00     0.059 A 
ATOM     78  F   UNL A   1      45.979  33.774  26.199  1.00  0.00    -0.206 F 
ATOM     79  C   UNL A   1      47.533  35.851  28.716  1.00  0.00     0.060 A 
BRANCH  79  80
ATOM     80  S   UNL A   1      48.092  37.552  28.947  1.00  0.00     0.124 S 
ATOM     81  O   UNL A   1      47.509  37.876  30.245  1.00  0.00    -0.237 OA
ATOM     82  O   UNL A   1      49.545  37.411  28.924  1.00  0.00    -0.237 OA
ATOM     83  O   UNL A   1      47.517  38.256  27.806  1.00  0.00    -0.744 OA
ENDBRANCH  79  80
ENDBRANCH  58  72
BRANCH  59  84
ATOM     84  C   UNL A   1      43.361  23.863  27.133  1.00  0.00     0.058 A 
ATOM     85  C   UNL A   1      43.072  23.411  25.838  1.00  0.00     0.135 A 
ATOM     86  C   UNL A   1      43.165  22.970  28.198  1.00  0.00     0.135 A 
ATOM     87  F   UNL A   1      43.241  24.232  24.789  1.00  0.00    -0.206 F 
ATOM     88  C   UNL A   1      42.581  22.132  25.605  1.00  0.00     0.059 A 
ATOM     89  C   UNL A   1      42.694  21.678  27.988  1.00  0.00     0.059 A 
ATOM     90  F   UNL A   1      43.445  23.351  29.454  1.00  0.00    -0.206 F 
ATOM     91  C   UNL A   1      42.392  21.272  26.688  1.00  0.00     0.060 A 
BRANCH  91  92
ATOM     92  S   UNL A   1      41.784  19.600  26.378  1.00  0.00     0.124 S 
ATOM     93  O   UNL A   1      42.264  18.891  27.558  1.00  0.00    -0.237 OA
ATOM     94  O   UNL A   1      40.340  19.804  26.299  1.00  0.00    -0.237 OA
ATOM     95  O   UNL A   1      42.427  19.241  25.117  1.00  0.00    -0.744 OA
ENDBRANCH  91  92
ENDBRANCH  59  84
BRANCH  71  96
ATOM     96  C   UNL A   1      49.577  26.916  26.390  1.00  0.00     0.058 A 
ATOM     97  C   UNL A   1      50.400  26.233  27.299  1.00  0.00     0.135 A 
ATOM     98  C   UNL A   1      50.027  27.052  25.068  1.00  0.00     0.135 A 
ATOM     99  F   UNL A   1      50.016  26.084  28.576  1.00  0.00    -0.206 F 
ATOM    100  C   UNL A   1      51.633  25.719  26.914  1.00  0.00     0.059 A 
ATOM    101  C   UNL A   1      51.247  26.526  24.655  1.00  0.00     0.059 A 
ATOM    102  F   UNL A   1      49.271  27.690  24.159  1.00  0.00    -0.206 F 
ATOM    103  C   UNL A   1      52.048  25.870  25.589  1.00  0.00     0.060 A 
BRANCH 103 104
ATOM    104  S   UNL A   1      53.632  25.163  25.088  1.00  0.00     0.124 S 
ATOM    105  O   UNL A   1      53.647  25.463  23.661  1.00  0.00    -0.237 OA
ATOM    106  O   UNL A   1      54.584  25.912  25.903  1.00  0.00    -0.237 OA
ATOM    107  O   UNL A   1      53.497  23.751  25.434  1.00  0.00    -0.744 OA
ENDBRANCH 103 104
ENDBRANCH  71  96
ENDBRANCH  45  46
ENDBRANCH  37  40
ENDBRANCH  35  36
ENDBRANCH  34  35
ENDBRANCH   1  34
TORSDOF 18
ENDMDL
MODEL 3
REMARK VINA RESULT:      -8.9      2.225      8.330
REMARK SMILES CN1C(=O)C(=Cc2ccc(OCc3cccc(C(=O)NCCCCNC(=O)c4ccc(-c5c6nc(c(-c7c(F)cc(S(=O)(=O)[O-])cc7F)c7ccc([nH]7)c(-c7c(F)cc(S(=O)(=O)[O-])cc7F)c7nc(c(-c8c(F)cc(S(=O)(=O)[O-])cc8F)c8ccc5[nH]8)C=C7)C=C6)cc4)c3)c(Cl)c2)C(=O)N(C)C1=S
REMARK SMILES IDX 22 1 21 2 20 3 18 4 19 5 17 7 13 8 14 9 94 10 15 11 16 12
REMARK SMILES IDX 12 13 11 14 10 15 7 16 8 17 97 18 9 19 95 20 96 21 6 22 1 23
REMARK SMILES IDX 2 24 3 25 102 26 4 27 5 28 100 29 103 30 98 31 101 32 99 33
REMARK SMILES IDX 23 34 24 35 25 36 26 37 27 39 28 40 29 41 93 42 30 43 92 44
REMARK SMILES IDX 31 45 32 46 33 47 86 48 34 49 91 50 85 51 87 52 35 53 90 54
REMARK SMILES IDX 84 55 83 56 36 58 70 59 49 60 69 61 50 62 53 63 68 64 88 65
REMARK SMILES IDX 51 66 52 67 67 69 89 70 54 71 37 72 38 73 47 74 39 75 40 76
REMARK SMILES IDX 46 77 48 78 41 79 42 80 43 81 44 82 45 83 71 84 72 85 81 86
REMARK SMILES IDX 73 87 74 88 80 89 82 90 75 91 76 92 77 93 78 94 79 95 55 96
REMARK SMILES IDX 56 97 65 98 57 99 58 100 64 101 66 102 59 103 60 104 61 105
REMARK SMILES IDX 62 106 63 107
REMARK H PARENT 20 6 25 38 87 57 53 68
REMARK Flexibility Score: inf
ROOT
ATOM      1  C   UNL A   1      34.637  34.456  28.242  1.00  0.00     0.023 C 
ENDROOT
BRANCH   1   2
ATOM      2  C   UNL A   1      33.261  34.571  28.886  1.00  0.00     0.116 C 
BRANCH   2   3
ATOM      3  N   UNL A   1      33.013  35.836  29.549  1.00  0.00    -0.352 N 
ATOM      4  C   UNL A   1      33.278  36.256  30.829  1.00  0.00     0.251 C 
ATOM      5  O   UNL A   1      32.958  37.403  31.142  1.00  0.00    -0.269 OA
ATOM      6  H   UNL A   1      32.578  36.513  28.981  1.00  0.00     0.163 HD
BRANCH   4   7
ATOM      7  C   UNL A   1      33.889  35.374  31.862  1.00  0.00     0.040 A 
ATOM      8  C   UNL A   1      35.752  34.565  33.213  1.00  0.00    -0.010 A 
ATOM      9  C   UNL A   1      34.905  33.601  33.778  1.00  0.00     0.007 A 
ATOM     10  C   UNL A   1      35.213  35.488  32.302  1.00  0.00     0.021 A 
ATOM     11  C   UNL A   1      33.568  33.521  33.399  1.00  0.00     0.001 A 
ATOM     12  C   UNL A   1      33.066  34.395  32.435  1.00  0.00     0.014 A 
BRANCH   8  13
ATOM     13  C   UNL A   1      37.230  34.591  33.542  1.00  0.00     0.265 C 
BRANCH  13  14
ATOM     14  O   UNL A   1      38.083  34.039  32.523  1.00  0.00    -0.487 OA
BRANCH  14  15
ATOM     15  C   UNL A   1      38.908  33.009  32.895  1.00  0.00     0.138 A 
ATOM     16  C   UNL A   1      40.821  31.085  33.632  1.00  0.00    -0.023 A 
ATOM     17  C   UNL A   1      41.148  32.443  33.655  1.00  0.00     0.012 A 
ATOM     18  C   UNL A   1      39.523  30.696  33.294  1.00  0.00     0.032 A 
ATOM     19  C   UNL A   1      40.194  33.399  33.290  1.00  0.00     0.048 A 
ATOM     20  C   UNL A   1      38.557  31.655  32.961  1.00  0.00     0.083 A 
ATOM     21  Cl  UNL A   1      36.949  31.080  32.709  1.00  0.00    -0.080 Cl
BRANCH  16  22
ATOM     22  C   UNL A   1      41.823  30.077  33.987  1.00  0.00     0.027 C 
ATOM     23  C   UNL A   1      42.745  31.914  38.316  1.00  0.00     0.156 C 
ATOM     24  N   UNL A   1      43.024  30.886  37.307  1.00  0.00    -0.288 N 
ATOM     25  C   UNL A   1      42.002  30.700  36.381  1.00  0.00     0.265 C 
ATOM     26  C   UNL A   1      44.226  30.144  37.352  1.00  0.00     0.185 C 
ATOM     27  O   UNL A   1      40.858  31.123  36.530  1.00  0.00    -0.268 OA
ATOM     28  C   UNL A   1      42.379  29.910  35.203  1.00  0.00     0.106 C 
ATOM     29  N   UNL A   1      44.364  29.152  36.358  1.00  0.00    -0.288 N 
ATOM     30  S   UNL A   1      45.401  30.416  38.547  1.00  0.00    -0.040 S 
ATOM     31  C   UNL A   1      43.460  28.921  35.321  1.00  0.00     0.265 C 
ATOM     32  C   UNL A   1      45.508  28.231  36.319  1.00  0.00     0.156 C 
ATOM     33  O   UNL A   1      43.550  27.981  34.532  1.00  0.00    -0.268 OA
ENDBRANCH  16  22
ENDBRANCH  14  15
ENDBRANCH  13  14
ENDBRANCH   8  13
ENDBRANCH   4   7
ENDBRANCH   2   3
ENDBRANCH   1   2
BRANCH   1  34
ATOM     34  C   UNL A   1      35.705  33.704  29.028  1.00  0.00     0.023 C 
BRANCH  34  35
ATOM     35  C   UNL A   1      35.244  32.463  29.782  1.00  0.00     0.116 C 
BRANCH  35  36
ATOM     36  N   UNL A   1      34.436  31.553  28.984  1.00  0.00    -0.352 N 
ATOM     37  C   UNL A   1      34.796  30.392  28.339  1.00  0.00     0.251 C 
ATOM     38  H   UNL A   1      33.489  31.807  28.891  1.00  0.00     0.163 HD
ATOM     39  O   UNL A   1      33.970  29.795  27.654  1.00  0.00    -0.269 OA
BRANCH  37  40
ATOM     40  C   UNL A   1      36.186  29.894  28.428  1.00  0.00     0.039 A 
ATOM     41  C   UNL A   1      37.020  30.030  27.315  1.00  0.00     0.014 A 
ATOM     42  C   UNL A   1      36.679  29.337  29.611  1.00  0.00     0.014 A 
ATOM     43  C   UNL A   1      38.373  29.700  27.420  1.00  0.00     0.010 A 
ATOM     44  C   UNL A   1      38.042  29.079  29.736  1.00  0.00     0.010 A 
ATOM     45  C   UNL A   1      38.905  29.273  28.647  1.00  0.00    -0.014 A 
BRANCH  45  46
ATOM     46  C   UNL A   1      40.363  29.046  28.822  1.00  0.00     0.031 A 
ATOM     47  C   UNL A   1      40.963  27.705  28.493  1.00  0.00     0.074 A 
ATOM     48  C   UNL A   1      41.131  30.018  29.354  1.00  0.00     0.049 A 
ATOM     49  N   UNL A   1      42.185  27.279  28.685  1.00  0.00    -0.248 NA
ATOM     50  C   UNL A   1      40.063  26.704  27.899  1.00  0.00     0.031 C 
ATOM     51  C   UNL A   1      40.659  31.343  29.767  1.00  0.00     0.029 A 
ATOM     52  N   UNL A   1      42.471  30.039  29.655  1.00  0.00    -0.354 N 
ATOM     53  C   UNL A   1      42.196  25.958  28.255  1.00  0.00     0.074 A 
ATOM     54  C   UNL A   1      40.849  25.638  27.833  1.00  0.00     0.031 C 
ATOM     55  C   UNL A   1      41.693  32.050  30.251  1.00  0.00     0.029 A 
ATOM     56  C   UNL A   1      42.894  31.222  30.216  1.00  0.00     0.049 A 
ATOM     57  H   UNL A   1      43.072  29.279  29.485  1.00  0.00     0.167 HD
ATOM     58  C   UNL A   1      43.238  25.095  28.198  1.00  0.00     0.037 A 
ATOM     59  C   UNL A   1      44.110  31.595  30.658  1.00  0.00     0.037 A 
ATOM     60  C   UNL A   1      44.585  25.425  28.582  1.00  0.00     0.049 A 
ATOM     61  C   UNL A   1      45.258  30.628  30.553  1.00  0.00     0.074 A 
ATOM     62  C   UNL A   1      45.719  24.635  28.514  1.00  0.00     0.029 A 
ATOM     63  N   UNL A   1      44.982  26.651  29.094  1.00  0.00    -0.354 N 
ATOM     64  N   UNL A   1      45.258  29.396  30.102  1.00  0.00    -0.248 NA
ATOM     65  C   UNL A   1      46.573  31.102  31.008  1.00  0.00     0.031 C 
ATOM     66  C   UNL A   1      46.800  25.377  29.004  1.00  0.00     0.029 A 
ATOM     67  C   UNL A   1      46.343  26.639  29.348  1.00  0.00     0.049 A 
ATOM     68  H   UNL A   1      44.385  27.418  29.254  1.00  0.00     0.167 HD
ATOM     69  C   UNL A   1      46.573  28.957  30.198  1.00  0.00     0.074 A 
ATOM     70  C   UNL A   1      47.344  30.058  30.738  1.00  0.00     0.031 C 
ATOM     71  C   UNL A   1      47.096  27.751  29.869  1.00  0.00     0.037 A 
BRANCH  58  72
ATOM     72  C   UNL A   1      42.966  23.711  27.680  1.00  0.00     0.058 A 
ATOM     73  C   UNL A   1      42.611  22.665  28.546  1.00  0.00     0.135 A 
ATOM     74  C   UNL A   1      43.022  23.435  26.305  1.00  0.00     0.135 A 
ATOM     75  F   UNL A   1      42.560  22.872  29.872  1.00  0.00    -0.206 F 
ATOM     76  C   UNL A   1      42.342  21.386  28.070  1.00  0.00     0.059 A 
ATOM     77  C   UNL A   1      42.734  22.168  25.803  1.00  0.00     0.059 A 
ATOM     78  F   UNL A   1      43.359  24.399  25.435  1.00  0.00    -0.206 F 
ATOM     79  C   UNL A   1      42.407  21.147  26.696  1.00  0.00     0.060 A 
BRANCH  79  80
ATOM     80  S   UNL A   1      42.041  19.487  26.090  1.00  0.00     0.124 S 
ATOM     81  O   UNL A   1      40.610  19.587  25.817  1.00  0.00    -0.237 OA
ATOM     82  O   UNL A   1      42.903  19.383  24.917  1.00  0.00    -0.237 OA
ATOM     83  O   UNL A   1      42.408  18.628  27.211  1.00  0.00    -0.744 OA
ENDBRANCH  79  80
ENDBRANCH  58  72
BRANCH  59  84
ATOM     84  C   UNL A   1      44.317  32.953  31.226  1.00  0.00     0.058 A 
ATOM     85  C   UNL A   1      44.402  33.147  32.612  1.00  0.00     0.135 A 
ATOM     86  C   UNL A   1      44.427  34.081  30.398  1.00  0.00     0.135 A 
ATOM     87  F   UNL A   1      44.298  32.098  33.443  1.00  0.00    -0.206 F 
ATOM     88  C   UNL A   1      44.561  34.414  33.162  1.00  0.00     0.059 A 
ATOM     89  C   UNL A   1      44.609  35.356  30.924  1.00  0.00     0.059 A 
ATOM     90  F   UNL A   1      44.372  33.944  29.065  1.00  0.00    -0.206 F 
ATOM     91  C   UNL A   1      44.661  35.514  32.309  1.00  0.00     0.060 A 
BRANCH  91  92
ATOM     92  S   UNL A   1      44.900  37.155  33.026  1.00  0.00     0.124 S 
ATOM     93  O   UNL A   1      44.145  37.043  34.268  1.00  0.00    -0.237 OA
ATOM     94  O   UNL A   1      46.352  37.224  33.165  1.00  0.00    -0.237 OA
ATOM     95  O   UNL A   1      44.332  38.045  32.017  1.00  0.00    -0.744 OA
ENDBRANCH  91  92
ENDBRANCH  59  84
BRANCH  71  96
ATOM     96  C   UNL A   1      48.575  27.568  30.048  1.00  0.00     0.058 A 
ATOM     97  C   UNL A   1      49.113  27.056  31.238  1.00  0.00     0.135 A 
ATOM     98  C   UNL A   1      49.458  27.861  28.998  1.00  0.00     0.135 A 
ATOM     99  F   UNL A   1      48.309  26.768  32.273  1.00  0.00    -0.206 F 
ATOM    100  C   UNL A   1      50.481  26.856  31.387  1.00  0.00     0.059 A 
ATOM    101  C   UNL A   1      50.828  27.649  29.117  1.00  0.00     0.059 A 
ATOM    102  F   UNL A   1      48.990  28.345  27.835  1.00  0.00    -0.206 F 
ATOM    103  C   UNL A   1      51.331  27.156  30.321  1.00  0.00     0.060 A 
BRANCH 103 104
ATOM    104  S   UNL A   1      53.101  26.856  30.509  1.00  0.00     0.124 S 
ATOM    105  O   UNL A   1      53.536  26.790  29.119  1.00  0.00    -0.237 OA
ATOM    106  O   UNL A   1      53.542  28.029  31.257  1.00  0.00    -0.237 OA
ATOM    107  O   UNL A   1      53.154  25.596  31.245  1.00  0.00    -0.744 OA
ENDBRANCH 103 104
ENDBRANCH  71  96
ENDBRANCH  45  46
ENDBRANCH  37  40
ENDBRANCH  35  36
ENDBRANCH  34  35
ENDBRANCH   1  34
TORSDOF 18
ENDMDL
