MODEL 1
REMARK VINA RESULT:     -11.9      0.000      0.000
REMARK SMILES CCN(Cc1ccccn1)c1nc(C)cc(C)c1C(=O)NCCCCNC(=O)c1ccc(-c2c3nc(c(-c4c(F)cc(S(=O)(=O)[O-])cc4F)c4ccc([nH]4)c(-c4c(F)cc(S(=O)(=O)[O-])cc4F)c4nc(c(-c5c(F)cc(S(=O)(=O)[O-])cc5F)c5ccc2[nH]5)C=C4)C=C3)cc1
REMARK SMILES IDX 23 1 22 2 21 3 19 4 20 5 18 7 11 8 12 9 13 10 16 11 14 12
REMARK SMILES IDX 15 13 17 14 3 15 2 16 1 17 4 18 5 19 6 20 10 21 7 22 9 23
REMARK SMILES IDX 8 24 24 25 25 26 26 27 27 28 28 30 29 31 30 32 94 33 31 34
REMARK SMILES IDX 93 35 32 36 33 37 34 38 87 39 35 40 92 41 86 42 88 43 36 44
REMARK SMILES IDX 91 45 85 46 84 47 37 49 71 50 50 51 70 52 51 53 54 54 69 55
REMARK SMILES IDX 89 56 52 57 53 58 68 60 90 61 55 62 38 63 39 64 48 65 40 66
REMARK SMILES IDX 41 67 47 68 49 69 42 70 43 71 44 72 45 73 46 74 72 75 73 76
REMARK SMILES IDX 82 77 74 78 75 79 81 80 83 81 76 82 77 83 78 84 79 85 80 86
REMARK SMILES IDX 56 87 57 88 66 89 58 90 59 91 65 92 67 93 60 94 61 95 62 96
REMARK SMILES IDX 63 97 64 98
REMARK H PARENT 21 6 26 29 88 48 54 59
REMARK Flexibility Score: inf
ROOT
ATOM      1  C   UNL A   1      32.822  29.450  26.507  1.00  0.00     0.023 C 
ENDROOT
BRANCH   1   2
ATOM      2  C   UNL A   1      32.595  28.082  27.140  1.00  0.00     0.116 C 
BRANCH   2   3
ATOM      3  N   UNL A   1      31.376  27.394  26.772  1.00  0.00    -0.352 N 
ATOM      4  C   UNL A   1      31.211  26.143  26.202  1.00  0.00     0.255 C 
ATOM      5  O   UNL A   1      30.093  25.631  26.235  1.00  0.00    -0.269 OA
ATOM      6  H   UNL A   1      30.542  27.886  26.953  1.00  0.00     0.163 HD
BRANCH   4   7
ATOM      7  C   UNL A   1      32.343  25.411  25.569  1.00  0.00     0.085 A 
ATOM      8  C   UNL A   1      32.908  25.915  24.378  1.00  0.00     0.142 A 
ATOM      9  N   UNL A   1      33.908  25.245  23.753  1.00  0.00    -0.235 NA
ATOM     10  C   UNL A   1      34.367  24.080  24.238  1.00  0.00     0.040 A 
ATOM     11  C   UNL A   1      32.775  24.147  26.035  1.00  0.00    -0.033 A 
ATOM     12  C   UNL A   1      35.412  23.389  23.419  1.00  0.00     0.067 C 
ATOM     13  C   UNL A   1      33.829  23.502  25.370  1.00  0.00     0.028 A 
ATOM     14  C   UNL A   1      32.164  23.404  27.187  1.00  0.00     0.045 C 
BRANCH   8  15
ATOM     15  N   UNL A   1      32.476  27.069  23.734  1.00  0.00    -0.350 N 
BRANCH  15  16
ATOM     16  C   UNL A   1      33.441  28.149  23.566  1.00  0.00     0.115 C 
ATOM     17  C   UNL A   1      33.855  28.277  22.107  1.00  0.00     0.027 C 
ENDBRANCH  15  16
BRANCH  15  18
ATOM     18  C   UNL A   1      31.494  26.880  22.649  1.00  0.00     0.174 C 
BRANCH  18  19
ATOM     19  C   UNL A   1      30.253  27.780  22.687  1.00  0.00     0.060 A 
ATOM     20  C   UNL A   1      29.118  27.343  23.379  1.00  0.00     0.026 A 
ATOM     21  N   UNL A   1      30.281  28.979  22.043  1.00  0.00    -0.259 NA
ATOM     22  C   UNL A   1      27.960  28.116  23.347  1.00  0.00     0.004 A 
ATOM     23  C   UNL A   1      29.129  29.685  21.997  1.00  0.00     0.111 A 
ATOM     24  C   UNL A   1      27.956  29.300  22.624  1.00  0.00     0.020 A 
ENDBRANCH  18  19
ENDBRANCH  15  18
ENDBRANCH   8  15
ENDBRANCH   4   7
ENDBRANCH   2   3
ENDBRANCH   1   2
BRANCH   1  25
ATOM     25  C   UNL A   1      34.059  30.240  26.933  1.00  0.00     0.023 C 
BRANCH  25  26
ATOM     26  C   UNL A   1      34.917  29.678  28.063  1.00  0.00     0.116 C 
BRANCH  26  27
ATOM     27  N   UNL A   1      35.174  30.603  29.157  1.00  0.00    -0.352 N 
ATOM     28  C   UNL A   1      36.343  30.857  29.846  1.00  0.00     0.251 C 
ATOM     29  H   UNL A   1      34.394  31.129  29.451  1.00  0.00     0.163 HD
ATOM     30  O   UNL A   1      36.354  31.679  30.751  1.00  0.00    -0.269 OA
BRANCH  28  31
ATOM     31  C   UNL A   1      37.567  30.085  29.529  1.00  0.00     0.039 A 
ATOM     32  C   UNL A   1      38.014  30.047  28.205  1.00  0.00     0.014 A 
ATOM     33  C   UNL A   1      38.307  29.464  30.536  1.00  0.00     0.014 A 
ATOM     34  C   UNL A   1      39.268  29.503  27.911  1.00  0.00     0.010 A 
ATOM     35  C   UNL A   1      39.589  28.999  30.254  1.00  0.00     0.010 A 
ATOM     36  C   UNL A   1      40.096  29.037  28.945  1.00  0.00    -0.014 A 
BRANCH  36  37
ATOM     37  C   UNL A   1      41.505  28.623  28.703  1.00  0.00     0.031 A 
ATOM     38  C   UNL A   1      42.601  29.655  28.714  1.00  0.00     0.074 A 
ATOM     39  C   UNL A   1      41.782  27.349  28.354  1.00  0.00     0.049 A 
ATOM     40  N   UNL A   1      43.851  29.535  28.351  1.00  0.00    -0.248 NA
ATOM     41  C   UNL A   1      42.231  31.009  29.155  1.00  0.00     0.031 C 
ATOM     42  C   UNL A   1      40.805  26.260  28.258  1.00  0.00     0.029 A 
ATOM     43  N   UNL A   1      42.967  26.755  27.989  1.00  0.00    -0.354 N 
ATOM     44  C   UNL A   1      44.405  30.805  28.476  1.00  0.00     0.074 A 
ATOM     45  C   UNL A   1      43.347  31.685  28.922  1.00  0.00     0.031 C 
ATOM     46  C   UNL A   1      41.431  25.134  27.875  1.00  0.00     0.029 A 
ATOM     47  C   UNL A   1      42.843  25.426  27.652  1.00  0.00     0.049 A 
ATOM     48  H   UNL A   1      43.826  27.236  27.971  1.00  0.00     0.167 HD
ATOM     49  C   UNL A   1      45.681  31.196  28.252  1.00  0.00     0.037 A 
ATOM     50  C   UNL A   1      43.758  24.547  27.196  1.00  0.00     0.037 A 
ATOM     51  C   UNL A   1      46.744  30.304  27.874  1.00  0.00     0.049 A 
ATOM     52  C   UNL A   1      45.177  25.004  26.986  1.00  0.00     0.074 A 
ATOM     53  C   UNL A   1      48.090  30.589  27.723  1.00  0.00     0.029 A 
ATOM     54  N   UNL A   1      46.586  28.956  27.595  1.00  0.00    -0.354 N 
ATOM     55  N   UNL A   1      45.696  26.193  27.178  1.00  0.00    -0.248 NA
ATOM     56  C   UNL A   1      46.136  24.002  26.495  1.00  0.00     0.031 C 
ATOM     57  C   UNL A   1      48.742  29.419  27.321  1.00  0.00     0.029 A 
ATOM     58  C   UNL A   1      47.807  28.399  27.258  1.00  0.00     0.049 A 
ATOM     59  H   UNL A   1      45.733  28.467  27.632  1.00  0.00     0.167 HD
ATOM     60  C   UNL A   1      47.046  26.072  26.868  1.00  0.00     0.074 A 
ATOM     61  C   UNL A   1      47.266  24.696  26.477  1.00  0.00     0.031 C 
ATOM     62  C   UNL A   1      48.017  27.017  26.905  1.00  0.00     0.037 A 
BRANCH  49  63
ATOM     63  C   UNL A   1      46.011  32.652  28.420  1.00  0.00     0.058 A 
ATOM     64  C   UNL A   1      46.439  33.174  29.650  1.00  0.00     0.135 A 
ATOM     65  C   UNL A   1      45.957  33.523  27.319  1.00  0.00     0.135 A 
ATOM     66  F   UNL A   1      46.493  32.388  30.736  1.00  0.00    -0.206 F 
ATOM     67  C   UNL A   1      46.787  34.514  29.787  1.00  0.00     0.059 A 
ATOM     68  C   UNL A   1      46.324  34.861  27.428  1.00  0.00     0.059 A 
ATOM     69  F   UNL A   1      45.552  33.073  26.120  1.00  0.00    -0.206 F 
ATOM     70  C   UNL A   1      46.729  35.349  28.669  1.00  0.00     0.060 A 
BRANCH  70  71
ATOM     71  S   UNL A   1      47.213  37.077  28.859  1.00  0.00     0.124 S 
ATOM     72  O   UNL A   1      46.276  37.742  27.960  1.00  0.00    -0.237 OA
ATOM     73  O   UNL A   1      46.997  37.309  30.284  1.00  0.00    -0.237 OA
ATOM     74  O   UNL A   1      48.609  37.088  28.431  1.00  0.00    -0.744 OA
ENDBRANCH  70  71
ENDBRANCH  49  63
BRANCH  50  75
ATOM     75  C   UNL A   1      43.376  23.136  26.911  1.00  0.00     0.058 A 
ATOM     76  C   UNL A   1      43.131  22.235  27.959  1.00  0.00     0.135 A 
ATOM     77  C   UNL A   1      43.277  22.652  25.598  1.00  0.00     0.135 A 
ATOM     78  F   UNL A   1      43.220  22.649  29.233  1.00  0.00    -0.206 F 
ATOM     79  C   UNL A   1      42.835  20.898  27.718  1.00  0.00     0.059 A 
ATOM     80  C   UNL A   1      42.957  21.324  25.331  1.00  0.00     0.059 A 
ATOM     81  F   UNL A   1      43.483  23.476  24.559  1.00  0.00    -0.206 F 
ATOM     82  C   UNL A   1      42.756  20.450  26.399  1.00  0.00     0.060 A 
BRANCH  82  83
ATOM     83  S   UNL A   1      42.359  18.714  26.094  1.00  0.00     0.124 S 
ATOM     84  O   UNL A   1      40.956  18.800  25.703  1.00  0.00    -0.237 OA
ATOM     85  O   UNL A   1      43.298  18.363  25.034  1.00  0.00    -0.237 OA
ATOM     86  O   UNL A   1      42.617  18.082  27.385  1.00  0.00    -0.744 OA
ENDBRANCH  82  83
ENDBRANCH  50  75
BRANCH  62  87
ATOM     87  C   UNL A   1      49.418  26.594  26.573  1.00  0.00     0.058 A 
ATOM     88  C   UNL A   1      50.244  25.973  27.520  1.00  0.00     0.135 A 
ATOM     89  C   UNL A   1      49.908  26.739  25.264  1.00  0.00     0.135 A 
ATOM     90  F   UNL A   1      49.825  25.820  28.786  1.00  0.00    -0.206 F 
ATOM     91  C   UNL A   1      51.513  25.512  27.184  1.00  0.00     0.059 A 
ATOM     92  C   UNL A   1      51.163  26.265  24.900  1.00  0.00     0.059 A 
ATOM     93  F   UNL A   1      49.152  27.319  24.320  1.00  0.00    -0.206 F 
ATOM     94  C   UNL A   1      51.961  25.657  25.869  1.00  0.00     0.060 A 
BRANCH  94  95
ATOM     95  S   UNL A   1      53.583  24.995  25.427  1.00  0.00     0.124 S 
ATOM     96  O   UNL A   1      53.885  25.746  24.212  1.00  0.00    -0.237 OA
ATOM     97  O   UNL A   1      54.387  25.331  26.597  1.00  0.00    -0.237 OA
ATOM     98  O   UNL A   1      53.328  23.570  25.238  1.00  0.00    -0.744 OA
ENDBRANCH  94  95
ENDBRANCH  62  87
ENDBRANCH  36  37
ENDBRANCH  28  31
ENDBRANCH  26  27
ENDBRANCH  25  26
ENDBRANCH   1  25
TORSDOF 18
ENDMDL
MODEL 2
REMARK VINA RESULT:     -11.8      1.157      3.170
REMARK SMILES CCN(Cc1ccccn1)c1nc(C)cc(C)c1C(=O)NCCCCNC(=O)c1ccc(-c2c3nc(c(-c4c(F)cc(S(=O)(=O)[O-])cc4F)c4ccc([nH]4)c(-c4c(F)cc(S(=O)(=O)[O-])cc4F)c4nc(c(-c5c(F)cc(S(=O)(=O)[O-])cc5F)c5ccc2[nH]5)C=C4)C=C3)cc1
REMARK SMILES IDX 23 1 22 2 21 3 19 4 20 5 18 7 11 8 12 9 13 10 16 11 14 12
REMARK SMILES IDX 15 13 17 14 3 15 2 16 1 17 4 18 5 19 6 20 10 21 7 22 9 23
REMARK SMILES IDX 8 24 24 25 25 26 26 27 27 28 28 30 29 31 30 32 94 33 31 34
REMARK SMILES IDX 93 35 32 36 33 37 34 38 87 39 35 40 92 41 86 42 88 43 36 44
REMARK SMILES IDX 91 45 85 46 84 47 37 49 71 50 50 51 70 52 51 53 54 54 69 55
REMARK SMILES IDX 89 56 52 57 53 58 68 60 90 61 55 62 38 63 39 64 48 65 40 66
REMARK SMILES IDX 41 67 47 68 49 69 42 70 43 71 44 72 45 73 46 74 72 75 73 76
REMARK SMILES IDX 82 77 74 78 75 79 81 80 83 81 76 82 77 83 78 84 79 85 80 86
REMARK SMILES IDX 56 87 57 88 66 89 58 90 59 91 65 92 67 93 60 94 61 95 62 96
REMARK SMILES IDX 63 97 64 98
REMARK H PARENT 21 6 26 29 88 48 54 59
REMARK Flexibility Score: inf
ROOT
ATOM      1  C   UNL A   1      34.633  29.180  27.242  1.00  0.00     0.023 C 
ENDROOT
BRANCH   1   2
ATOM      2  C   UNL A   1      33.780  28.370  26.274  1.00  0.00     0.116 C 
BRANCH   2   3
ATOM      3  N   UNL A   1      32.483  27.942  26.756  1.00  0.00    -0.352 N 
ATOM      4  C   UNL A   1      31.566  27.086  26.170  1.00  0.00     0.255 C 
ATOM      5  O   UNL A   1      30.663  26.633  26.870  1.00  0.00    -0.269 OA
ATOM      6  H   UNL A   1      32.214  28.313  27.628  1.00  0.00     0.163 HD
BRANCH   4   7
ATOM      7  C   UNL A   1      31.655  26.701  24.734  1.00  0.00     0.085 A 
ATOM      8  C   UNL A   1      32.352  25.527  24.378  1.00  0.00     0.142 A 
ATOM      9  N   UNL A   1      32.490  25.177  23.075  1.00  0.00    -0.235 NA
ATOM     10  C   UNL A   1      31.989  25.946  22.095  1.00  0.00     0.040 A 
ATOM     11  C   UNL A   1      31.195  27.549  23.699  1.00  0.00    -0.033 A 
ATOM     12  C   UNL A   1      32.276  25.505  20.695  1.00  0.00     0.067 C 
ATOM     13  C   UNL A   1      31.338  27.133  22.367  1.00  0.00     0.028 A 
ATOM     14  C   UNL A   1      30.582  28.903  23.910  1.00  0.00     0.045 C 
BRANCH   8  15
ATOM     15  N   UNL A   1      32.981  24.684  25.287  1.00  0.00    -0.350 N 
BRANCH  15  16
ATOM     16  C   UNL A   1      32.534  23.296  25.341  1.00  0.00     0.115 C 
ATOM     17  C   UNL A   1      31.024  23.225  25.519  1.00  0.00     0.027 C 
ENDBRANCH  15  16
BRANCH  15  18
ATOM     18  C   UNL A   1      34.418  24.929  25.518  1.00  0.00     0.174 C 
BRANCH  18  19
ATOM     19  C   UNL A   1      35.375  23.801  25.114  1.00  0.00     0.060 A 
ATOM     20  C   UNL A   1      35.753  23.678  23.773  1.00  0.00     0.026 A 
ATOM     21  N   UNL A   1      35.830  22.942  26.068  1.00  0.00    -0.259 NA
ATOM     22  C   UNL A   1      36.554  22.606  23.386  1.00  0.00     0.004 A 
ATOM     23  C   UNL A   1      36.571  21.891  25.653  1.00  0.00     0.111 A 
ATOM     24  C   UNL A   1      36.954  21.681  24.339  1.00  0.00     0.020 A 
ENDBRANCH  18  19
ENDBRANCH  15  18
ENDBRANCH   8  15
ENDBRANCH   4   7
ENDBRANCH   2   3
ENDBRANCH   1   2
BRANCH   1  25
ATOM     25  C   UNL A   1      34.196  30.610  27.559  1.00  0.00     0.023 C 
BRANCH  25  26
ATOM     26  C   UNL A   1      35.214  31.546  28.201  1.00  0.00     0.116 C 
BRANCH  26  27
ATOM     27  N   UNL A   1      35.166  31.602  29.655  1.00  0.00    -0.352 N 
ATOM     28  C   UNL A   1      36.063  31.124  30.590  1.00  0.00     0.251 C 
ATOM     29  H   UNL A   1      34.373  32.050  30.030  1.00  0.00     0.163 HD
ATOM     30  O   UNL A   1      35.839  31.267  31.783  1.00  0.00    -0.269 OA
BRANCH  28  31
ATOM     31  C   UNL A   1      37.265  30.382  30.144  1.00  0.00     0.039 A 
ATOM     32  C   UNL A   1      37.702  30.540  28.825  1.00  0.00     0.014 A 
ATOM     33  C   UNL A   1      37.997  29.595  31.035  1.00  0.00     0.014 A 
ATOM     34  C   UNL A   1      38.941  30.018  28.438  1.00  0.00     0.010 A 
ATOM     35  C   UNL A   1      39.265  29.150  30.671  1.00  0.00     0.010 A 
ATOM     36  C   UNL A   1      39.764  29.378  29.378  1.00  0.00    -0.014 A 
BRANCH  36  37
ATOM     37  C   UNL A   1      41.160  28.974  29.059  1.00  0.00     0.031 A 
ATOM     38  C   UNL A   1      42.255  30.008  29.048  1.00  0.00     0.074 A 
ATOM     39  C   UNL A   1      41.422  27.711  28.664  1.00  0.00     0.049 A 
ATOM     40  N   UNL A   1      43.487  29.901  28.626  1.00  0.00    -0.248 NA
ATOM     41  C   UNL A   1      41.904  31.349  29.544  1.00  0.00     0.031 C 
ATOM     42  C   UNL A   1      40.443  26.623  28.583  1.00  0.00     0.029 A 
ATOM     43  N   UNL A   1      42.590  27.129  28.228  1.00  0.00    -0.354 N 
ATOM     44  C   UNL A   1      44.045  31.168  28.759  1.00  0.00     0.074 A 
ATOM     45  C   UNL A   1      43.008  32.033  29.278  1.00  0.00     0.031 C 
ATOM     46  C   UNL A   1      41.051  25.510  28.141  1.00  0.00     0.029 A 
ATOM     47  C   UNL A   1      42.451  25.810  27.861  1.00  0.00     0.049 A 
ATOM     48  H   UNL A   1      43.446  27.613  28.183  1.00  0.00     0.167 HD
ATOM     49  C   UNL A   1      45.309  31.567  28.488  1.00  0.00     0.037 A 
ATOM     50  C   UNL A   1      43.345  24.946  27.339  1.00  0.00     0.037 A 
ATOM     51  C   UNL A   1      46.354  30.688  28.037  1.00  0.00     0.049 A 
ATOM     52  C   UNL A   1      44.753  25.412  27.076  1.00  0.00     0.074 A 
ATOM     53  C   UNL A   1      47.692  30.980  27.832  1.00  0.00     0.029 A 
ATOM     54  N   UNL A   1      46.185  29.348  27.729  1.00  0.00    -0.354 N 
ATOM     55  N   UNL A   1      45.278  26.596  27.276  1.00  0.00    -0.248 NA
ATOM     56  C   UNL A   1      45.688  24.426  26.514  1.00  0.00     0.031 C 
ATOM     57  C   UNL A   1      48.326  29.823  27.368  1.00  0.00     0.029 A 
ATOM     58  C   UNL A   1      47.390  28.803  27.320  1.00  0.00     0.049 A 
ATOM     59  H   UNL A   1      45.334  28.856  27.791  1.00  0.00     0.167 HD
ATOM     60  C   UNL A   1      46.613  26.486  26.902  1.00  0.00     0.074 A 
ATOM     61  C   UNL A   1      46.816  25.122  26.463  1.00  0.00     0.031 C 
ATOM     62  C   UNL A   1      47.583  27.432  26.919  1.00  0.00     0.037 A 
BRANCH  49  63
ATOM     63  C   UNL A   1      45.645  33.019  28.680  1.00  0.00     0.058 A 
ATOM     64  C   UNL A   1      45.493  33.955  27.646  1.00  0.00     0.135 A 
ATOM     65  C   UNL A   1      46.065  33.489  29.936  1.00  0.00     0.135 A 
ATOM     66  F   UNL A   1      45.110  33.555  26.424  1.00  0.00    -0.206 F 
ATOM     67  C   UNL A   1      45.761  35.305  27.845  1.00  0.00     0.059 A 
ATOM     68  C   UNL A   1      46.315  34.840  30.163  1.00  0.00     0.059 A 
ATOM     69  F   UNL A   1      46.228  32.634  30.958  1.00  0.00    -0.206 F 
ATOM     70  C   UNL A   1      46.170  35.738  29.108  1.00  0.00     0.060 A 
BRANCH  70  71
ATOM     71  S   UNL A   1      46.485  37.498  29.355  1.00  0.00     0.124 S 
ATOM     72  O   UNL A   1      45.328  37.890  30.153  1.00  0.00    -0.237 OA
ATOM     73  O   UNL A   1      47.765  37.492  30.055  1.00  0.00    -0.237 OA
ATOM     74  O   UNL A   1      46.520  38.031  27.996  1.00  0.00    -0.744 OA
ENDBRANCH  70  71
ENDBRANCH  49  63
BRANCH  50  75
ATOM     75  C   UNL A   1      42.951  23.543  27.033  1.00  0.00     0.058 A 
ATOM     76  C   UNL A   1      42.797  22.602  28.063  1.00  0.00     0.135 A 
ATOM     77  C   UNL A   1      42.751  23.106  25.715  1.00  0.00     0.135 A 
ATOM     78  F   UNL A   1      42.984  22.970  29.340  1.00  0.00    -0.206 F 
ATOM     79  C   UNL A   1      42.491  21.271  27.797  1.00  0.00     0.059 A 
ATOM     80  C   UNL A   1      42.420  21.785  25.425  1.00  0.00     0.059 A 
ATOM     81  F   UNL A   1      42.869  23.969  24.694  1.00  0.00    -0.206 F 
ATOM     82  C   UNL A   1      42.311  20.871  26.473  1.00  0.00     0.060 A 
BRANCH  82  83
ATOM     83  S   UNL A   1      41.903  19.144  26.136  1.00  0.00     0.124 S 
ATOM     84  O   UNL A   1      42.296  18.502  27.385  1.00  0.00    -0.237 OA
ATOM     85  O   UNL A   1      40.468  19.210  25.875  1.00  0.00    -0.237 OA
ATOM     86  O   UNL A   1      42.729  18.826  24.975  1.00  0.00    -0.744 OA
ENDBRANCH  82  83
ENDBRANCH  50  75
BRANCH  62  87
ATOM     87  C   UNL A   1      48.968  27.021  26.512  1.00  0.00     0.058 A 
ATOM     88  C   UNL A   1      49.840  26.380  27.404  1.00  0.00     0.135 A 
ATOM     89  C   UNL A   1      49.395  27.198  25.185  1.00  0.00     0.135 A 
ATOM     90  F   UNL A   1      49.481  26.197  28.684  1.00  0.00    -0.206 F 
ATOM     91  C   UNL A   1      51.092  25.932  26.997  1.00  0.00     0.059 A 
ATOM     92  C   UNL A   1      50.633  26.737  24.751  1.00  0.00     0.059 A 
ATOM     93  F   UNL A   1      48.594  27.798  24.292  1.00  0.00    -0.206 F 
ATOM     94  C   UNL A   1      51.476  26.108  25.666  1.00  0.00     0.060 A 
BRANCH  94  95
ATOM     95  S   UNL A   1      53.077  25.463  25.132  1.00  0.00     0.124 S 
ATOM     96  O   UNL A   1      53.009  25.666  23.689  1.00  0.00    -0.237 OA
ATOM     97  O   UNL A   1      54.015  26.319  25.850  1.00  0.00    -0.237 OA
ATOM     98  O   UNL A   1      53.045  24.071  25.573  1.00  0.00    -0.744 OA
ENDBRANCH  94  95
ENDBRANCH  62  87
ENDBRANCH  36  37
ENDBRANCH  28  31
ENDBRANCH  26  27
ENDBRANCH  25  26
ENDBRANCH   1  25
TORSDOF 18
ENDMDL
MODEL 3
REMARK VINA RESULT:     -11.5      2.813      4.378
REMARK SMILES CCN(Cc1ccccn1)c1nc(C)cc(C)c1C(=O)NCCCCNC(=O)c1ccc(-c2c3nc(c(-c4c(F)cc(S(=O)(=O)[O-])cc4F)c4ccc([nH]4)c(-c4c(F)cc(S(=O)(=O)[O-])cc4F)c4nc(c(-c5c(F)cc(S(=O)(=O)[O-])cc5F)c5ccc2[nH]5)C=C4)C=C3)cc1
REMARK SMILES IDX 23 1 22 2 21 3 19 4 20 5 18 7 11 8 12 9 13 10 16 11 14 12
REMARK SMILES IDX 15 13 17 14 3 15 2 16 1 17 4 18 5 19 6 20 10 21 7 22 9 23
REMARK SMILES IDX 8 24 24 25 25 26 26 27 27 28 28 30 29 31 30 32 94 33 31 34
REMARK SMILES IDX 93 35 32 36 33 37 34 38 87 39 35 40 92 41 86 42 88 43 36 44
REMARK SMILES IDX 91 45 85 46 84 47 37 49 71 50 50 51 70 52 51 53 54 54 69 55
REMARK SMILES IDX 89 56 52 57 53 58 68 60 90 61 55 62 38 63 39 64 48 65 40 66
REMARK SMILES IDX 41 67 47 68 49 69 42 70 43 71 44 72 45 73 46 74 72 75 73 76
REMARK SMILES IDX 82 77 74 78 75 79 81 80 83 81 76 82 77 83 78 84 79 85 80 86
REMARK SMILES IDX 56 87 57 88 66 89 58 90 59 91 65 92 67 93 60 94 61 95 62 96
REMARK SMILES IDX 63 97 64 98
REMARK H PARENT 21 6 26 29 88 48 54 59
REMARK Flexibility Score: inf
ROOT
ATOM      1  C   UNL A   1      31.259  27.138  26.564  1.00  0.00     0.023 C 
ENDROOT
BRANCH   1   2
ATOM      2  C   UNL A   1      31.818  25.798  26.101  1.00  0.00     0.116 C 
BRANCH   2   3
ATOM      3  N   UNL A   1      31.101  25.132  25.034  1.00  0.00    -0.352 N 
ATOM      4  C   UNL A   1      31.520  24.113  24.196  1.00  0.00     0.255 C 
ATOM      5  O   UNL A   1      30.669  23.499  23.554  1.00  0.00    -0.269 OA
ATOM      6  H   UNL A   1      30.181  25.450  24.881  1.00  0.00     0.163 HD
BRANCH   4   7
ATOM      7  C   UNL A   1      32.957  23.743  24.064  1.00  0.00     0.085 A 
ATOM      8  C   UNL A   1      33.451  22.633  24.781  1.00  0.00     0.142 A 
ATOM      9  N   UNL A   1      34.765  22.301  24.718  1.00  0.00    -0.235 NA
ATOM     10  C   UNL A   1      35.627  23.031  23.993  1.00  0.00     0.040 A 
ATOM     11  C   UNL A   1      33.881  24.554  23.363  1.00  0.00    -0.033 A 
ATOM     12  C   UNL A   1      37.064  22.620  24.067  1.00  0.00     0.067 C 
ATOM     13  C   UNL A   1      35.225  24.158  23.306  1.00  0.00     0.028 A 
ATOM     14  C   UNL A   1      33.541  25.852  22.689  1.00  0.00     0.045 C 
BRANCH   8  15
ATOM     15  N   UNL A   1      32.680  21.841  25.625  1.00  0.00    -0.350 N 
BRANCH  15  16
ATOM     16  C   UNL A   1      32.214  22.439  26.872  1.00  0.00     0.115 C 
ATOM     17  C   UNL A   1      33.356  22.557  27.870  1.00  0.00     0.027 C 
ENDBRANCH  15  16
BRANCH  15  18
ATOM     18  C   UNL A   1      31.771  20.881  24.968  1.00  0.00     0.174 C 
BRANCH  18  19
ATOM     19  C   UNL A   1      32.339  19.485  24.689  1.00  0.00     0.060 A 
ATOM     20  C   UNL A   1      32.555  19.092  23.364  1.00  0.00     0.026 A 
ATOM     21  N   UNL A   1      32.616  18.658  25.735  1.00  0.00    -0.259 NA
ATOM     22  C   UNL A   1      32.990  17.796  23.099  1.00  0.00     0.004 A 
ATOM     23  C   UNL A   1      32.997  17.395  25.443  1.00  0.00     0.111 A 
ATOM     24  C   UNL A   1      33.195  16.921  24.156  1.00  0.00     0.020 A 
ENDBRANCH  18  19
ENDBRANCH  15  18
ENDBRANCH   8  15
ENDBRANCH   4   7
ENDBRANCH   2   3
ENDBRANCH   1   2
BRANCH   1  25
ATOM     25  C   UNL A   1      32.090  28.392  26.294  1.00  0.00     0.023 C 
BRANCH  25  26
ATOM     26  C   UNL A   1      33.275  28.678  27.211  1.00  0.00     0.116 C 
BRANCH  26  27
ATOM     27  N   UNL A   1      33.339  30.038  27.726  1.00  0.00    -0.352 N 
ATOM     28  C   UNL A   1      34.404  30.733  28.264  1.00  0.00     0.251 C 
ATOM     29  H   UNL A   1      32.493  30.541  27.683  1.00  0.00     0.163 HD
ATOM     30  O   UNL A   1      34.253  31.883  28.651  1.00  0.00    -0.269 OA
BRANCH  28  31
ATOM     31  C   UNL A   1      35.713  30.059  28.431  1.00  0.00     0.039 A 
ATOM     32  C   UNL A   1      36.577  29.988  27.334  1.00  0.00     0.014 A 
ATOM     33  C   UNL A   1      36.117  29.567  29.673  1.00  0.00     0.014 A 
ATOM     34  C   UNL A   1      37.892  29.545  27.513  1.00  0.00     0.010 A 
ATOM     35  C   UNL A   1      37.448  29.207  29.866  1.00  0.00     0.010 A 
ATOM     36  C   UNL A   1      38.358  29.216  28.796  1.00  0.00    -0.014 A 
BRANCH  36  37
ATOM     37  C   UNL A   1      39.792  28.920  29.064  1.00  0.00     0.031 A 
ATOM     38  C   UNL A   1      40.689  29.998  29.611  1.00  0.00     0.074 A 
ATOM     39  C   UNL A   1      40.312  27.728  28.703  1.00  0.00     0.049 A 
ATOM     40  N   UNL A   1      41.990  30.002  29.742  1.00  0.00    -0.248 NA
ATOM     41  C   UNL A   1      40.040  31.251  30.030  1.00  0.00     0.031 C 
ATOM     42  C   UNL A   1      39.562  26.614  28.117  1.00  0.00     0.029 A 
ATOM     43  N   UNL A   1      41.604  27.260  28.753  1.00  0.00    -0.354 N 
ATOM     44  C   UNL A   1      42.320  31.268  30.213  1.00  0.00     0.074 A 
ATOM     45  C   UNL A   1      41.085  32.014  30.320  1.00  0.00     0.031 C 
ATOM     46  C   UNL A   1      40.400  25.592  27.876  1.00  0.00     0.029 A 
ATOM     47  C   UNL A   1      41.755  25.990  28.243  1.00  0.00     0.049 A 
ATOM     48  H   UNL A   1      42.352  27.786  29.118  1.00  0.00     0.167 HD
ATOM     49  C   UNL A   1      43.539  31.757  30.539  1.00  0.00     0.037 A 
ATOM     50  C   UNL A   1      42.862  25.239  28.073  1.00  0.00     0.037 A 
ATOM     51  C   UNL A   1      44.754  30.990  30.496  1.00  0.00     0.049 A 
ATOM     52  C   UNL A   1      44.201  25.800  28.474  1.00  0.00     0.074 A 
ATOM     53  C   UNL A   1      46.022  31.367  30.903  1.00  0.00     0.029 A 
ATOM     54  N   UNL A   1      44.855  29.690  30.025  1.00  0.00    -0.354 N 
ATOM     55  N   UNL A   1      44.482  26.974  28.985  1.00  0.00    -0.248 NA
ATOM     56  C   UNL A   1      45.374  24.935  28.274  1.00  0.00     0.031 C 
ATOM     57  C   UNL A   1      46.897  30.307  30.649  1.00  0.00     0.029 A 
ATOM     58  C   UNL A   1      46.166  29.257  30.117  1.00  0.00     0.049 A 
ATOM     59  H   UNL A   1      44.106  29.155  29.677  1.00  0.00     0.167 HD
ATOM     60  C   UNL A   1      45.855  26.974  29.202  1.00  0.00     0.074 A 
ATOM     61  C   UNL A   1      46.349  25.685  28.769  1.00  0.00     0.031 C 
ATOM     62  C   UNL A   1      46.637  27.955  29.714  1.00  0.00     0.037 A 
BRANCH  49  63
ATOM     63  C   UNL A   1      43.626  33.189  30.987  1.00  0.00     0.058 A 
ATOM     64  C   UNL A   1      43.548  33.544  32.342  1.00  0.00     0.135 A 
ATOM     65  C   UNL A   1      43.853  34.211  30.050  1.00  0.00     0.135 A 
ATOM     66  F   UNL A   1      43.317  32.607  33.274  1.00  0.00    -0.206 F 
ATOM     67  C   UNL A   1      43.677  34.867  32.753  1.00  0.00     0.059 A 
ATOM     68  C   UNL A   1      44.009  35.538  30.443  1.00  0.00     0.059 A 
ATOM     69  F   UNL A   1      43.933  33.924  28.742  1.00  0.00    -0.206 F 
ATOM     70  C   UNL A   1      43.909  35.856  31.796  1.00  0.00     0.060 A 
BRANCH  70  71
ATOM     71  S   UNL A   1      44.103  37.563  32.350  1.00  0.00     0.124 S 
ATOM     72  O   UNL A   1      43.797  38.301  31.129  1.00  0.00    -0.237 OA
ATOM     73  O   UNL A   1      43.109  37.661  33.415  1.00  0.00    -0.237 OA
ATOM     74  O   UNL A   1      45.494  37.622  32.788  1.00  0.00    -0.744 OA
ENDBRANCH  70  71
ENDBRANCH  49  63
BRANCH  50  75
ATOM     75  C   UNL A   1      42.764  23.867  27.504  1.00  0.00     0.058 A 
ATOM     76  C   UNL A   1      42.554  22.759  28.339  1.00  0.00     0.135 A 
ATOM     77  C   UNL A   1      42.909  23.629  26.128  1.00  0.00     0.135 A 
ATOM     78  F   UNL A   1      42.417  22.934  29.662  1.00  0.00    -0.206 F 
ATOM     79  C   UNL A   1      42.523  21.462  27.837  1.00  0.00     0.059 A 
ATOM     80  C   UNL A   1      42.856  22.342  25.600  1.00  0.00     0.059 A 
ATOM     81  F   UNL A   1      43.094  24.655  25.283  1.00  0.00    -0.206 F 
ATOM     82  C   UNL A   1      42.681  21.263  26.465  1.00  0.00     0.060 A 
BRANCH  82  83
ATOM     83  S   UNL A   1      42.627  19.577  25.820  1.00  0.00     0.124 S 
ATOM     84  O   UNL A   1      43.598  19.649  24.734  1.00  0.00    -0.237 OA
ATOM     85  O   UNL A   1      43.025  18.788  26.982  1.00  0.00    -0.237 OA
ATOM     86  O   UNL A   1      41.234  19.420  25.413  1.00  0.00    -0.744 OA
ENDBRANCH  82  83
ENDBRANCH  50  75
BRANCH  62  87
ATOM     87  C   UNL A   1      48.098  27.663  29.896  1.00  0.00     0.058 A 
ATOM     88  C   UNL A   1      48.574  26.946  31.003  1.00  0.00     0.135 A 
ATOM     89  C   UNL A   1      49.021  28.035  28.904  1.00  0.00     0.135 A 
ATOM     90  F   UNL A   1      47.733  26.577  31.982  1.00  0.00    -0.206 F 
ATOM     91  C   UNL A   1      49.919  26.611  31.125  1.00  0.00     0.059 A 
ATOM     92  C   UNL A   1      50.365  27.690  28.994  1.00  0.00     0.059 A 
ATOM     93  F   UNL A   1      48.612  28.715  27.821  1.00  0.00    -0.206 F 
ATOM     94  C   UNL A   1      50.805  26.981  30.111  1.00  0.00     0.060 A 
BRANCH  94  95
ATOM     95  S   UNL A   1      52.536  26.483  30.247  1.00  0.00     0.124 S 
ATOM     96  O   UNL A   1      52.456  25.404  31.226  1.00  0.00    -0.237 OA
ATOM     97  O   UNL A   1      52.854  26.078  28.881  1.00  0.00    -0.237 OA
ATOM     98  O   UNL A   1      53.204  27.698  30.704  1.00  0.00    -0.744 OA
ENDBRANCH  94  95
ENDBRANCH  62  87
ENDBRANCH  36  37
ENDBRANCH  28  31
ENDBRANCH  26  27
ENDBRANCH  25  26
ENDBRANCH   1  25
TORSDOF 18
ENDMDL
