MODEL 1
REMARK VINA RESULT:     -12.0      0.000      0.000
REMARK SMILES N#Cc1ccccc1Cn1cccc1C(=O)NCCCCNC(=O)c1ccc(-c2c3nc(c(-c4c(F)cc(S(=O)(=O)[O-])cc4F)c4ccc([nH]4)c(-c4c(F)cc(S(=O)(=O)[O-])cc4F)c4nc(c(-c5c(F)cc(S(=O)(=O)[O-])cc5F)c5ccc2[nH]5)C=C4)C=C3)cc1
REMARK SMILES IDX 19 1 18 2 17 3 15 4 16 5 14 7 10 8 11 9 12 10 13 11 9 12
REMARK SMILES IDX 8 13 3 14 4 15 5 16 7 17 6 18 2 19 1 20 20 21 21 22 22 23
REMARK SMILES IDX 23 24 24 26 25 27 26 28 90 29 27 30 89 31 28 32 29 33 30 34
REMARK SMILES IDX 83 35 31 36 88 37 82 38 84 39 32 40 87 41 81 42 80 43 33 45
REMARK SMILES IDX 67 46 46 47 66 48 47 49 50 50 65 51 85 52 48 53 49 54 64 56
REMARK SMILES IDX 86 57 51 58 34 59 35 60 44 61 36 62 37 63 43 64 45 65 38 66
REMARK SMILES IDX 39 67 40 68 41 69 42 70 68 71 69 72 78 73 70 74 71 75 77 76
REMARK SMILES IDX 79 77 72 78 73 79 74 80 75 81 76 82 52 83 53 84 62 85 54 86
REMARK SMILES IDX 55 87 61 88 63 89 56 90 57 91 58 92 59 93 60 94
REMARK H PARENT 17 6 22 25 84 44 50 55
REMARK Flexibility Score: inf
ROOT
ATOM      1  C   UNL A   1      33.025  28.003  25.694  1.00  0.00     0.023 C 
ENDROOT
BRANCH   1   2
ATOM      2  C   UNL A   1      33.511  26.559  25.535  1.00  0.00     0.116 C 
BRANCH   2   3
ATOM      3  N   UNL A   1      32.723  25.686  26.386  1.00  0.00    -0.351 N 
ATOM      4  C   UNL A   1      32.172  24.435  26.279  1.00  0.00     0.267 C 
ATOM      5  O   UNL A   1      31.480  24.118  27.252  1.00  0.00    -0.268 OA
ATOM      6  H   UNL A   1      32.538  26.095  27.261  1.00  0.00     0.163 HD
BRANCH   4   7
ATOM      7  C   UNL A   1      32.419  23.460  25.214  1.00  0.00     0.107 A 
ATOM      8  N   UNL A   1      31.816  23.166  23.990  1.00  0.00    -0.339 N 
ATOM      9  C   UNL A   1      32.561  22.209  23.333  1.00  0.00     0.086 A 
ATOM     10  C   UNL A   1      33.491  21.701  24.202  1.00  0.00     0.020 A 
ATOM     11  C   UNL A   1      33.388  22.463  25.377  1.00  0.00     0.033 A 
BRANCH   8  12
ATOM     12  C   UNL A   1      30.656  23.822  23.389  1.00  0.00     0.159 C 
BRANCH  12  13
ATOM     13  C   UNL A   1      30.612  25.340  23.320  1.00  0.00    -0.010 A 
ATOM     14  C   UNL A   1      31.358  26.092  22.379  1.00  0.00     0.057 A 
ATOM     15  C   UNL A   1      31.110  27.463  22.201  1.00  0.00     0.020 A 
ATOM     16  C   UNL A   1      30.164  28.122  22.975  1.00  0.00     0.001 A 
ATOM     17  C   UNL A   1      29.661  26.035  24.090  1.00  0.00     0.007 A 
ATOM     18  C   UNL A   1      29.455  27.410  23.934  1.00  0.00     0.000 A 
BRANCH  14  19
ATOM     19  C   UNL A   1      32.384  25.554  21.519  1.00  0.00     0.099 C 
ATOM     20  N   UNL A   1      33.187  25.211  20.773  1.00  0.00    -0.192 NA
ENDBRANCH  14  19
ENDBRANCH  12  13
ENDBRANCH   8  12
ENDBRANCH   4   7
ENDBRANCH   2   3
ENDBRANCH   1   2
BRANCH   1  21
ATOM     21  C   UNL A   1      33.306  28.748  26.994  1.00  0.00     0.023 C 
BRANCH  21  22
ATOM     22  C   UNL A   1      34.776  28.862  27.332  1.00  0.00     0.116 C 
BRANCH  22  23
ATOM     23  N   UNL A   1      35.167  30.238  27.616  1.00  0.00    -0.352 N 
ATOM     24  C   UNL A   1      36.278  30.657  28.309  1.00  0.00     0.251 C 
ATOM     25  H   UNL A   1      34.570  30.943  27.276  1.00  0.00     0.163 HD
ATOM     26  O   UNL A   1      36.310  31.773  28.817  1.00  0.00    -0.269 OA
BRANCH  24  27
ATOM     27  C   UNL A   1      37.422  29.737  28.446  1.00  0.00     0.039 A 
ATOM     28  C   UNL A   1      38.416  29.738  27.468  1.00  0.00     0.014 A 
ATOM     29  C   UNL A   1      37.507  28.890  29.559  1.00  0.00     0.014 A 
ATOM     30  C   UNL A   1      39.539  28.937  27.650  1.00  0.00     0.010 A 
ATOM     31  C   UNL A   1      38.650  28.132  29.769  1.00  0.00     0.010 A 
ATOM     32  C   UNL A   1      39.670  28.161  28.819  1.00  0.00    -0.014 A 
BRANCH  32  33
ATOM     33  C   UNL A   1      40.998  27.576  29.121  1.00  0.00     0.031 A 
ATOM     34  C   UNL A   1      41.178  26.288  28.271  1.00  0.00     0.074 A 
ATOM     35  C   UNL A   1      41.752  28.187  30.096  1.00  0.00     0.049 A 
ATOM     36  N   UNL A   1      41.555  25.101  28.623  1.00  0.00    -0.248 NA
ATOM     37  C   UNL A   1      40.696  26.276  26.855  1.00  0.00     0.031 C 
ATOM     38  C   UNL A   1      41.464  29.517  30.688  1.00  0.00     0.029 A 
ATOM     39  N   UNL A   1      42.905  27.855  30.789  1.00  0.00    -0.354 N 
ATOM     40  C   UNL A   1      41.609  24.292  27.457  1.00  0.00     0.074 A 
ATOM     41  C   UNL A   1      40.894  25.015  26.452  1.00  0.00     0.031 C 
ATOM     42  C   UNL A   1      42.325  29.815  31.690  1.00  0.00     0.029 A 
ATOM     43  C   UNL A   1      43.254  28.720  31.877  1.00  0.00     0.049 A 
ATOM     44  H   UNL A   1      43.452  27.074  30.547  1.00  0.00     0.167 HD
ATOM     45  C   UNL A   1      42.412  23.184  27.369  1.00  0.00     0.037 A 
ATOM     46  C   UNL A   1      44.172  28.523  32.888  1.00  0.00     0.037 A 
ATOM     47  C   UNL A   1      43.124  23.055  28.597  1.00  0.00     0.049 A 
ATOM     48  C   UNL A   1      44.820  27.259  32.526  1.00  0.00     0.074 A 
ATOM     49  C   UNL A   1      42.728  22.745  29.871  1.00  0.00     0.029 A 
ATOM     50  N   UNL A   1      44.341  23.694  28.632  1.00  0.00    -0.354 N 
ATOM     51  N   UNL A   1      45.683  27.112  31.568  1.00  0.00    -0.248 NA
ATOM     52  C   UNL A   1      44.357  26.036  33.196  1.00  0.00     0.031 C 
ATOM     53  C   UNL A   1      43.436  23.691  30.638  1.00  0.00     0.029 A 
ATOM     54  C   UNL A   1      44.455  24.266  29.868  1.00  0.00     0.049 A 
ATOM     55  H   UNL A   1      45.004  23.733  27.905  1.00  0.00     0.167 HD
ATOM     56  C   UNL A   1      45.584  25.770  31.306  1.00  0.00     0.074 A 
ATOM     57  C   UNL A   1      45.049  25.143  32.498  1.00  0.00     0.031 C 
ATOM     58  C   UNL A   1      45.385  25.351  30.032  1.00  0.00     0.037 A 
BRANCH  45  59
ATOM     59  C   UNL A   1      42.948  22.348  26.224  1.00  0.00     0.058 A 
ATOM     60  C   UNL A   1      42.636  20.959  26.233  1.00  0.00     0.135 A 
ATOM     61  C   UNL A   1      44.008  22.725  25.389  1.00  0.00     0.135 A 
ATOM     62  F   UNL A   1      41.585  20.491  26.930  1.00  0.00    -0.206 F 
ATOM     63  C   UNL A   1      43.430  20.000  25.615  1.00  0.00     0.059 A 
ATOM     64  C   UNL A   1      44.787  21.778  24.711  1.00  0.00     0.059 A 
ATOM     65  F   UNL A   1      44.362  24.009  25.260  1.00  0.00    -0.206 F 
ATOM     66  C   UNL A   1      44.526  20.419  24.879  1.00  0.00     0.060 A 
BRANCH  66  67
ATOM     67  S   UNL A   1      45.590  19.152  24.155  1.00  0.00     0.124 S 
ATOM     68  O   UNL A   1      45.428  18.051  25.096  1.00  0.00    -0.237 OA
ATOM     69  O   UNL A   1      44.977  18.954  22.843  1.00  0.00    -0.237 OA
ATOM     70  O   UNL A   1      46.901  19.789  24.134  1.00  0.00    -0.744 OA
ENDBRANCH  66  67
ENDBRANCH  45  59
BRANCH  46  71
ATOM     71  C   UNL A   1      44.565  29.088  34.256  1.00  0.00     0.058 A 
ATOM     72  C   UNL A   1      45.694  29.855  34.565  1.00  0.00     0.135 A 
ATOM     73  C   UNL A   1      43.673  28.929  35.365  1.00  0.00     0.135 A 
ATOM     74  F   UNL A   1      46.710  29.952  33.697  1.00  0.00    -0.206 F 
ATOM     75  C   UNL A   1      45.824  30.556  35.791  1.00  0.00     0.059 A 
ATOM     76  C   UNL A   1      43.742  29.655  36.552  1.00  0.00     0.059 A 
ATOM     77  F   UNL A   1      42.654  28.059  35.339  1.00  0.00    -0.206 F 
ATOM     78  C   UNL A   1      44.805  30.506  36.747  1.00  0.00     0.060 A 
BRANCH  78  79
ATOM     79  S   UNL A   1      44.773  31.633  38.165  1.00  0.00     0.124 S 
ATOM     80  O   UNL A   1      43.859  30.960  39.077  1.00  0.00    -0.237 OA
ATOM     81  O   UNL A   1      46.175  31.663  38.571  1.00  0.00    -0.237 OA
ATOM     82  O   UNL A   1      44.279  32.883  37.589  1.00  0.00    -0.744 OA
ENDBRANCH  78  79
ENDBRANCH  46  71
BRANCH  58  83
ATOM     83  C   UNL A   1      45.920  26.260  28.943  1.00  0.00     0.058 A 
ATOM     84  C   UNL A   1      47.305  26.468  28.853  1.00  0.00     0.135 A 
ATOM     85  C   UNL A   1      45.129  26.968  28.018  1.00  0.00     0.135 A 
ATOM     86  F   UNL A   1      48.130  25.832  29.699  1.00  0.00    -0.206 F 
ATOM     87  C   UNL A   1      47.877  27.310  27.896  1.00  0.00     0.059 A 
ATOM     88  C   UNL A   1      45.677  27.819  27.046  1.00  0.00     0.059 A 
ATOM     89  F   UNL A   1      43.797  26.853  28.033  1.00  0.00    -0.206 F 
ATOM     90  C   UNL A   1      47.057  27.976  26.987  1.00  0.00     0.060 A 
BRANCH  90  91
ATOM     91  S   UNL A   1      47.831  29.010  25.719  1.00  0.00     0.124 S 
ATOM     92  O   UNL A   1      48.553  28.031  24.914  1.00  0.00    -0.237 OA
ATOM     93  O   UNL A   1      46.673  29.622  25.076  1.00  0.00    -0.237 OA
ATOM     94  O   UNL A   1      48.674  29.924  26.486  1.00  0.00    -0.744 OA
ENDBRANCH  90  91
ENDBRANCH  58  83
ENDBRANCH  32  33
ENDBRANCH  24  27
ENDBRANCH  22  23
ENDBRANCH  21  22
ENDBRANCH   1  21
TORSDOF 17
ENDMDL
MODEL 2
REMARK VINA RESULT:     -11.9      2.980      9.001
REMARK SMILES N#Cc1ccccc1Cn1cccc1C(=O)NCCCCNC(=O)c1ccc(-c2c3nc(c(-c4c(F)cc(S(=O)(=O)[O-])cc4F)c4ccc([nH]4)c(-c4c(F)cc(S(=O)(=O)[O-])cc4F)c4nc(c(-c5c(F)cc(S(=O)(=O)[O-])cc5F)c5ccc2[nH]5)C=C4)C=C3)cc1
REMARK SMILES IDX 19 1 18 2 17 3 15 4 16 5 14 7 10 8 11 9 12 10 13 11 9 12
REMARK SMILES IDX 8 13 3 14 4 15 5 16 7 17 6 18 2 19 1 20 20 21 21 22 22 23
REMARK SMILES IDX 23 24 24 26 25 27 26 28 90 29 27 30 89 31 28 32 29 33 30 34
REMARK SMILES IDX 83 35 31 36 88 37 82 38 84 39 32 40 87 41 81 42 80 43 33 45
REMARK SMILES IDX 67 46 46 47 66 48 47 49 50 50 65 51 85 52 48 53 49 54 64 56
REMARK SMILES IDX 86 57 51 58 34 59 35 60 44 61 36 62 37 63 43 64 45 65 38 66
REMARK SMILES IDX 39 67 40 68 41 69 42 70 68 71 69 72 78 73 70 74 71 75 77 76
REMARK SMILES IDX 79 77 72 78 73 79 74 80 75 81 76 82 52 83 53 84 62 85 54 86
REMARK SMILES IDX 55 87 61 88 63 89 56 90 57 91 58 92 59 93 60 94
REMARK H PARENT 17 6 22 25 84 44 50 55
REMARK Flexibility Score: inf
ROOT
ATOM      1  C   UNL A   1      31.565  27.724  26.577  1.00  0.00     0.023 C 
ENDROOT
BRANCH   1   2
ATOM      2  C   UNL A   1      32.253  26.388  26.278  1.00  0.00     0.116 C 
BRANCH   2   3
ATOM      3  N   UNL A   1      31.470  25.304  26.840  1.00  0.00    -0.351 N 
ATOM      4  C   UNL A   1      31.190  24.005  26.499  1.00  0.00     0.267 C 
ATOM      5  O   UNL A   1      30.372  23.465  27.251  1.00  0.00    -0.268 OA
ATOM      6  H   UNL A   1      31.029  25.566  27.680  1.00  0.00     0.163 HD
BRANCH   4   7
ATOM      7  C   UNL A   1      31.834  23.222  25.442  1.00  0.00     0.107 A 
ATOM      8  N   UNL A   1      31.647  23.087  24.065  1.00  0.00    -0.339 N 
ATOM      9  C   UNL A   1      32.644  22.287  23.546  1.00  0.00     0.086 A 
ATOM     10  C   UNL A   1      33.325  21.704  24.583  1.00  0.00     0.020 A 
ATOM     11  C   UNL A   1      32.807  22.268  25.760  1.00  0.00     0.033 A 
BRANCH   8  12
ATOM     12  C   UNL A   1      30.654  23.762  23.232  1.00  0.00     0.159 C 
BRANCH  12  13
ATOM     13  C   UNL A   1      30.518  25.274  23.310  1.00  0.00    -0.010 A 
ATOM     14  C   UNL A   1      31.421  26.164  22.676  1.00  0.00     0.057 A 
ATOM     15  C   UNL A   1      31.126  27.534  22.582  1.00  0.00     0.020 A 
ATOM     16  C   UNL A   1      29.972  28.054  23.150  1.00  0.00     0.001 A 
ATOM     17  C   UNL A   1      29.356  25.831  23.876  1.00  0.00     0.007 A 
ATOM     18  C   UNL A   1      29.098  27.204  23.814  1.00  0.00     0.000 A 
BRANCH  14  19
ATOM     19  C   UNL A   1      32.666  25.776  22.059  1.00  0.00     0.099 C 
ATOM     20  N   UNL A   1      33.652  25.379  21.624  1.00  0.00    -0.192 NA
ENDBRANCH  14  19
ENDBRANCH  12  13
ENDBRANCH   8  12
ENDBRANCH   4   7
ENDBRANCH   2   3
ENDBRANCH   1   2
BRANCH   1  21
ATOM     21  C   UNL A   1      32.172  28.662  27.613  1.00  0.00     0.023 C 
BRANCH  21  22
ATOM     22  C   UNL A   1      33.557  29.159  27.258  1.00  0.00     0.116 C 
BRANCH  22  23
ATOM     23  N   UNL A   1      33.757  30.549  27.649  1.00  0.00    -0.352 N 
ATOM     24  C   UNL A   1      34.782  31.056  28.412  1.00  0.00     0.251 C 
ATOM     25  H   UNL A   1      33.083  31.195  27.333  1.00  0.00     0.163 HD
ATOM     26  O   UNL A   1      34.653  32.128  28.993  1.00  0.00    -0.269 OA
BRANCH  24  27
ATOM     27  C   UNL A   1      36.031  30.283  28.532  1.00  0.00     0.039 A 
ATOM     28  C   UNL A   1      36.935  30.283  27.469  1.00  0.00     0.014 A 
ATOM     29  C   UNL A   1      36.304  29.574  29.710  1.00  0.00     0.014 A 
ATOM     30  C   UNL A   1      38.154  29.629  27.624  1.00  0.00     0.010 A 
ATOM     31  C   UNL A   1      37.539  28.968  29.886  1.00  0.00     0.010 A 
ATOM     32  C   UNL A   1      38.468  29.002  28.847  1.00  0.00    -0.014 A 
BRANCH  32  33
ATOM     33  C   UNL A   1      39.874  28.597  29.080  1.00  0.00     0.031 A 
ATOM     34  C   UNL A   1      40.668  29.832  29.591  1.00  0.00     0.074 A 
ATOM     35  C   UNL A   1      40.227  27.310  28.746  1.00  0.00     0.049 A 
ATOM     36  N   UNL A   1      41.800  30.320  29.194  1.00  0.00    -0.248 NA
ATOM     37  C   UNL A   1      40.020  30.763  30.565  1.00  0.00     0.031 C 
ATOM     38  C   UNL A   1      39.271  26.224  28.414  1.00  0.00     0.029 A 
ATOM     39  N   UNL A   1      41.426  26.628  28.623  1.00  0.00    -0.354 N 
ATOM     40  C   UNL A   1      42.117  31.427  30.025  1.00  0.00     0.074 A 
ATOM     41  C   UNL A   1      40.907  31.755  30.711  1.00  0.00     0.031 C 
ATOM     42  C   UNL A   1      39.913  25.093  28.036  1.00  0.00     0.029 A 
ATOM     43  C   UNL A   1      41.344  25.312  28.061  1.00  0.00     0.049 A 
ATOM     44  H   UNL A   1      42.282  27.022  28.906  1.00  0.00     0.167 HD
ATOM     45  C   UNL A   1      43.406  31.851  30.222  1.00  0.00     0.037 A 
ATOM     46  C   UNL A   1      42.355  24.501  27.588  1.00  0.00     0.037 A 
ATOM     47  C   UNL A   1      44.272  30.993  29.482  1.00  0.00     0.049 A 
ATOM     48  C   UNL A   1      43.576  25.246  27.909  1.00  0.00     0.074 A 
ATOM     49  C   UNL A   1      44.471  30.809  28.140  1.00  0.00     0.029 A 
ATOM     50  N   UNL A   1      44.733  29.897  30.174  1.00  0.00    -0.354 N 
ATOM     51  N   UNL A   1      44.084  25.367  29.097  1.00  0.00    -0.248 NA
ATOM     52  C   UNL A   1      44.197  26.037  26.838  1.00  0.00     0.031 C 
ATOM     53  C   UNL A   1      44.523  29.405  28.039  1.00  0.00     0.029 A 
ATOM     54  C   UNL A   1      44.707  28.841  29.307  1.00  0.00     0.049 A 
ATOM     55  H   UNL A   1      45.024  29.877  31.114  1.00  0.00     0.167 HD
ATOM     56  C   UNL A   1      44.841  26.502  28.963  1.00  0.00     0.074 A 
ATOM     57  C   UNL A   1      45.131  26.655  27.552  1.00  0.00     0.031 C 
ATOM     58  C   UNL A   1      44.696  27.511  29.857  1.00  0.00     0.037 A 
BRANCH  45  59
ATOM     59  C   UNL A   1      44.093  32.721  31.256  1.00  0.00     0.058 A 
ATOM     60  C   UNL A   1      43.909  32.373  32.624  1.00  0.00     0.135 A 
ATOM     61  C   UNL A   1      44.563  34.019  31.018  1.00  0.00     0.135 A 
ATOM     62  F   UNL A   1      43.544  31.128  32.977  1.00  0.00    -0.206 F 
ATOM     63  C   UNL A   1      43.999  33.296  33.658  1.00  0.00     0.059 A 
ATOM     64  C   UNL A   1      44.716  34.950  32.055  1.00  0.00     0.059 A 
ATOM     65  F   UNL A   1      44.821  34.445  29.776  1.00  0.00    -0.206 F 
ATOM     66  C   UNL A   1      44.375  34.596  33.359  1.00  0.00     0.060 A 
BRANCH  66  67
ATOM     67  S   UNL A   1      44.405  35.797  34.707  1.00  0.00     0.124 S 
ATOM     68  O   UNL A   1      45.383  36.765  34.225  1.00  0.00    -0.237 OA
ATOM     69  O   UNL A   1      43.019  36.261  34.732  1.00  0.00    -0.237 OA
ATOM     70  O   UNL A   1      44.809  34.998  35.858  1.00  0.00    -0.744 OA
ENDBRANCH  66  67
ENDBRANCH  45  59
BRANCH  46  71
ATOM     71  C   UNL A   1      42.564  23.243  26.739  1.00  0.00     0.058 A 
ATOM     72  C   UNL A   1      43.158  23.163  25.475  1.00  0.00     0.135 A 
ATOM     73  C   UNL A   1      42.223  21.963  27.283  1.00  0.00     0.135 A 
ATOM     74  F   UNL A   1      43.376  24.270  24.752  1.00  0.00    -0.206 F 
ATOM     75  C   UNL A   1      43.551  21.928  24.897  1.00  0.00     0.059 A 
ATOM     76  C   UNL A   1      42.653  20.741  26.771  1.00  0.00     0.059 A 
ATOM     77  F   UNL A   1      41.457  21.835  28.375  1.00  0.00    -0.206 F 
ATOM     78  C   UNL A   1      43.359  20.729  25.590  1.00  0.00     0.060 A 
BRANCH  78  79
ATOM     79  S   UNL A   1      44.134  19.183  25.051  1.00  0.00     0.124 S 
ATOM     80  O   UNL A   1      44.173  19.342  23.603  1.00  0.00    -0.237 OA
ATOM     81  O   UNL A   1      45.423  19.227  25.734  1.00  0.00    -0.237 OA
ATOM     82  O   UNL A   1      43.217  18.157  25.545  1.00  0.00    -0.744 OA
ENDBRANCH  78  79
ENDBRANCH  46  71
BRANCH  58  83
ATOM     83  C   UNL A   1      44.242  27.108  31.246  1.00  0.00     0.058 A 
ATOM     84  C   UNL A   1      45.045  26.231  31.994  1.00  0.00     0.135 A 
ATOM     85  C   UNL A   1      43.036  27.506  31.852  1.00  0.00     0.135 A 
ATOM     86  F   UNL A   1      46.212  25.802  31.487  1.00  0.00    -0.206 F 
ATOM     87  C   UNL A   1      44.688  25.791  33.270  1.00  0.00     0.059 A 
ATOM     88  C   UNL A   1      42.652  27.079  33.133  1.00  0.00     0.059 A 
ATOM     89  F   UNL A   1      42.192  28.324  31.214  1.00  0.00    -0.206 F 
ATOM     90  C   UNL A   1      43.492  26.227  33.839  1.00  0.00     0.060 A 
BRANCH  90  91
ATOM     91  S   UNL A   1      43.087  25.689  35.519  1.00  0.00     0.124 S 
ATOM     92  O   UNL A   1      44.405  25.463  36.103  1.00  0.00    -0.237 OA
ATOM     93  O   UNL A   1      42.356  26.839  36.040  1.00  0.00    -0.237 OA
ATOM     94  O   UNL A   1      42.288  24.483  35.313  1.00  0.00    -0.744 OA
ENDBRANCH  90  91
ENDBRANCH  58  83
ENDBRANCH  32  33
ENDBRANCH  24  27
ENDBRANCH  22  23
ENDBRANCH  21  22
ENDBRANCH   1  21
TORSDOF 17
ENDMDL
MODEL 3
REMARK VINA RESULT:     -11.9      2.929      9.618
REMARK SMILES N#Cc1ccccc1Cn1cccc1C(=O)NCCCCNC(=O)c1ccc(-c2c3nc(c(-c4c(F)cc(S(=O)(=O)[O-])cc4F)c4ccc([nH]4)c(-c4c(F)cc(S(=O)(=O)[O-])cc4F)c4nc(c(-c5c(F)cc(S(=O)(=O)[O-])cc5F)c5ccc2[nH]5)C=C4)C=C3)cc1
REMARK SMILES IDX 19 1 18 2 17 3 15 4 16 5 14 7 10 8 11 9 12 10 13 11 9 12
REMARK SMILES IDX 8 13 3 14 4 15 5 16 7 17 6 18 2 19 1 20 20 21 21 22 22 23
REMARK SMILES IDX 23 24 24 26 25 27 26 28 90 29 27 30 89 31 28 32 29 33 30 34
REMARK SMILES IDX 83 35 31 36 88 37 82 38 84 39 32 40 87 41 81 42 80 43 33 45
REMARK SMILES IDX 67 46 46 47 66 48 47 49 50 50 65 51 85 52 48 53 49 54 64 56
REMARK SMILES IDX 86 57 51 58 34 59 35 60 44 61 36 62 37 63 43 64 45 65 38 66
REMARK SMILES IDX 39 67 40 68 41 69 42 70 68 71 69 72 78 73 70 74 71 75 77 76
REMARK SMILES IDX 79 77 72 78 73 79 74 80 75 81 76 82 52 83 53 84 62 85 54 86
REMARK SMILES IDX 55 87 61 88 63 89 56 90 57 91 58 92 59 93 60 94
REMARK H PARENT 17 6 22 25 84 44 50 55
REMARK Flexibility Score: inf
ROOT
ATOM      1  C   UNL A   1      31.726  28.597  27.488  1.00  0.00     0.023 C 
ENDROOT
BRANCH   1   2
ATOM      2  C   UNL A   1      31.405  27.381  26.612  1.00  0.00     0.116 C 
BRANCH   2   3
ATOM      3  N   UNL A   1      32.603  26.582  26.434  1.00  0.00    -0.351 N 
ATOM      4  C   UNL A   1      33.207  25.924  25.394  1.00  0.00     0.267 C 
ATOM      5  O   UNL A   1      34.202  25.274  25.735  1.00  0.00    -0.268 OA
ATOM      6  H   UNL A   1      33.111  26.490  27.272  1.00  0.00     0.163 HD
BRANCH   4   7
ATOM      7  C   UNL A   1      32.851  26.018  23.977  1.00  0.00     0.107 A 
ATOM      8  N   UNL A   1      31.965  25.340  23.138  1.00  0.00    -0.339 N 
ATOM      9  C   UNL A   1      31.957  25.946  21.898  1.00  0.00     0.086 A 
ATOM     10  C   UNL A   1      32.992  26.843  21.840  1.00  0.00     0.020 A 
ATOM     11  C   UNL A   1      33.561  26.871  23.123  1.00  0.00     0.033 A 
BRANCH   8  12
ATOM     12  C   UNL A   1      31.068  24.242  23.492  1.00  0.00     0.159 C 
BRANCH  12  13
ATOM     13  C   UNL A   1      31.652  22.874  23.805  1.00  0.00    -0.010 A 
ATOM     14  C   UNL A   1      31.686  22.330  25.113  1.00  0.00     0.057 A 
ATOM     15  C   UNL A   1      32.019  20.981  25.318  1.00  0.00     0.020 A 
ATOM     16  C   UNL A   1      32.369  20.164  24.252  1.00  0.00     0.001 A 
ATOM     17  C   UNL A   1      32.011  22.021  22.745  1.00  0.00     0.007 A 
ATOM     18  C   UNL A   1      32.384  20.692  22.968  1.00  0.00     0.000 A 
BRANCH  14  19
ATOM     19  C   UNL A   1      31.369  23.057  26.319  1.00  0.00     0.099 C 
ATOM     20  N   UNL A   1      31.131  23.725  27.222  1.00  0.00    -0.192 NA
ENDBRANCH  14  19
ENDBRANCH  12  13
ENDBRANCH   8  12
ENDBRANCH   4   7
ENDBRANCH   2   3
ENDBRANCH   1   2
BRANCH   1  21
ATOM     21  C   UNL A   1      32.016  29.939  26.827  1.00  0.00     0.023 C 
BRANCH  21  22
ATOM     22  C   UNL A   1      33.443  30.413  26.996  1.00  0.00     0.116 C 
BRANCH  22  23
ATOM     23  N   UNL A   1      33.514  31.711  27.657  1.00  0.00    -0.352 N 
ATOM     24  C   UNL A   1      34.365  32.078  28.672  1.00  0.00     0.251 C 
ATOM     25  H   UNL A   1      32.882  32.398  27.343  1.00  0.00     0.163 HD
ATOM     26  O   UNL A   1      34.092  33.025  29.401  1.00  0.00    -0.269 OA
BRANCH  24  27
ATOM     27  C   UNL A   1      35.604  31.305  28.879  1.00  0.00     0.039 A 
ATOM     28  C   UNL A   1      36.667  31.475  27.993  1.00  0.00     0.014 A 
ATOM     29  C   UNL A   1      35.704  30.425  29.966  1.00  0.00     0.014 A 
ATOM     30  C   UNL A   1      37.865  30.815  28.247  1.00  0.00     0.010 A 
ATOM     31  C   UNL A   1      36.914  29.809  30.250  1.00  0.00     0.010 A 
ATOM     32  C   UNL A   1      37.997  30.010  29.396  1.00  0.00    -0.014 A 
BRANCH  32  33
ATOM     33  C   UNL A   1      39.360  29.584  29.795  1.00  0.00     0.031 A 
ATOM     34  C   UNL A   1      40.054  30.766  30.529  1.00  0.00     0.074 A 
ATOM     35  C   UNL A   1      39.775  28.334  29.399  1.00  0.00     0.049 A 
ATOM     36  N   UNL A   1      41.225  31.288  30.349  1.00  0.00    -0.248 NA
ATOM     37  C   UNL A   1      39.258  31.601  31.479  1.00  0.00     0.031 C 
ATOM     38  C   UNL A   1      38.892  27.283  28.832  1.00  0.00     0.029 A 
ATOM     39  N   UNL A   1      40.988  27.665  29.391  1.00  0.00    -0.354 N 
ATOM     40  C   UNL A   1      41.402  32.312  31.316  1.00  0.00     0.074 A 
ATOM     41  C   UNL A   1      40.100  32.576  31.845  1.00  0.00     0.031 C 
ATOM     42  C   UNL A   1      39.598  26.192  28.449  1.00  0.00     0.029 A 
ATOM     43  C   UNL A   1      41.007  26.408  28.704  1.00  0.00     0.049 A 
ATOM     44  H   UNL A   1      41.788  28.031  29.832  1.00  0.00     0.167 HD
ATOM     45  C   UNL A   1      42.643  32.715  31.739  1.00  0.00     0.037 A 
ATOM     46  C   UNL A   1      42.087  25.644  28.312  1.00  0.00     0.037 A 
ATOM     47  C   UNL A   1      43.619  31.931  31.059  1.00  0.00     0.049 A 
ATOM     48  C   UNL A   1      43.238  26.355  28.876  1.00  0.00     0.074 A 
ATOM     49  C   UNL A   1      44.014  31.873  29.748  1.00  0.00     0.029 A 
ATOM     50  N   UNL A   1      43.988  30.775  31.706  1.00  0.00    -0.354 N 
ATOM     51  N   UNL A   1      43.564  26.365  30.132  1.00  0.00    -0.248 NA
ATOM     52  C   UNL A   1      43.998  27.243  27.985  1.00  0.00     0.031 C 
ATOM     53  C   UNL A   1      44.100  30.484  29.527  1.00  0.00     0.029 A 
ATOM     54  C   UNL A   1      44.104  29.804  30.751  1.00  0.00     0.049 A 
ATOM     55  H   UNL A   1      44.140  30.667  32.673  1.00  0.00     0.167 HD
ATOM     56  C   UNL A   1      44.318  27.507  30.216  1.00  0.00     0.074 A 
ATOM     57  C   UNL A   1      44.809  27.791  28.883  1.00  0.00     0.031 C 
ATOM     58  C   UNL A   1      44.030  28.429  31.168  1.00  0.00     0.037 A 
BRANCH  45  59
ATOM     59  C   UNL A   1      43.160  33.485  32.938  1.00  0.00     0.058 A 
ATOM     60  C   UNL A   1      42.796  33.001  34.227  1.00  0.00     0.135 A 
ATOM     61  C   UNL A   1      43.627  34.805  32.896  1.00  0.00     0.135 A 
ATOM     62  F   UNL A   1      42.415  31.724  34.403  1.00  0.00    -0.206 F 
ATOM     63  C   UNL A   1      42.721  33.817  35.349  1.00  0.00     0.059 A 
ATOM     64  C   UNL A   1      43.613  35.630  34.029  1.00  0.00     0.059 A 
ATOM     65  F   UNL A   1      44.044  35.356  31.749  1.00  0.00    -0.206 F 
ATOM     66  C   UNL A   1      43.103  35.144  35.233  1.00  0.00     0.060 A 
BRANCH  66  67
ATOM     67  S   UNL A   1      42.918  36.205  36.682  1.00  0.00     0.124 S 
ATOM     68  O   UNL A   1      43.654  35.459  37.696  1.00  0.00    -0.237 OA
ATOM     69  O   UNL A   1      43.546  37.446  36.234  1.00  0.00    -0.237 OA
ATOM     70  O   UNL A   1      41.472  36.275  36.862  1.00  0.00    -0.744 OA
ENDBRANCH  66  67
ENDBRANCH  45  59
BRANCH  46  71
ATOM     71  C   UNL A   1      42.435  24.471  27.390  1.00  0.00     0.058 A 
ATOM     72  C   UNL A   1      42.419  24.458  25.991  1.00  0.00     0.135 A 
ATOM     73  C   UNL A   1      42.930  23.253  27.959  1.00  0.00     0.135 A 
ATOM     74  F   UNL A   1      41.823  25.444  25.307  1.00  0.00    -0.206 F 
ATOM     75  C   UNL A   1      43.018  23.418  25.234  1.00  0.00     0.059 A 
ATOM     76  C   UNL A   1      43.582  22.250  27.245  1.00  0.00     0.059 A 
ATOM     77  F   UNL A   1      42.825  22.985  29.267  1.00  0.00    -0.206 F 
ATOM     78  C   UNL A   1      43.662  22.355  25.875  1.00  0.00     0.060 A 
BRANCH  78  79
ATOM     79  S   UNL A   1      44.716  21.194  24.970  1.00  0.00     0.124 S 
ATOM     80  O   UNL A   1      44.060  19.918  25.220  1.00  0.00    -0.237 OA
ATOM     81  O   UNL A   1      44.632  21.699  23.603  1.00  0.00    -0.237 OA
ATOM     82  O   UNL A   1      46.023  21.364  25.603  1.00  0.00    -0.744 OA
ENDBRANCH  78  79
ENDBRANCH  46  71
BRANCH  58  83
ATOM     83  C   UNL A   1      43.384  27.897  32.433  1.00  0.00     0.058 A 
ATOM     84  C   UNL A   1      44.099  26.989  33.230  1.00  0.00     0.135 A 
ATOM     85  C   UNL A   1      42.080  28.204  32.866  1.00  0.00     0.135 A 
ATOM     86  F   UNL A   1      45.349  26.642  32.885  1.00  0.00    -0.206 F 
ATOM     87  C   UNL A   1      43.567  26.434  34.396  1.00  0.00     0.059 A 
ATOM     88  C   UNL A   1      41.521  27.661  34.033  1.00  0.00     0.059 A 
ATOM     89  F   UNL A   1      41.310  29.044  32.166  1.00  0.00    -0.206 F 
ATOM     90  C   UNL A   1      42.278  26.782  34.798  1.00  0.00     0.060 A 
BRANCH  90  91
ATOM     91  S   UNL A   1      41.639  26.094  36.346  1.00  0.00     0.124 S 
ATOM     92  O   UNL A   1      42.804  25.399  36.884  1.00  0.00    -0.237 OA
ATOM     93  O   UNL A   1      41.234  27.295  37.068  1.00  0.00    -0.237 OA
ATOM     94  O   UNL A   1      40.546  25.227  35.914  1.00  0.00    -0.744 OA
ENDBRANCH  90  91
ENDBRANCH  58  83
ENDBRANCH  32  33
ENDBRANCH  24  27
ENDBRANCH  22  23
ENDBRANCH  21  22
ENDBRANCH   1  21
TORSDOF 17
ENDMDL
