MODEL 1
REMARK VINA RESULT:     -11.3      0.000      0.000
REMARK SMILES CSc1ncc(Cl)c(C(=O)Nc2ccsc2C(=O)NCCCCNC(=O)c2ccc(-c3c4nc(c(-c5c(F)cc(S(=O)(=O)[O-])cc5F)c5ccc([nH]5)c(-c5c(F)cc(S(=O)(=O)[O-])cc5F)c5nc(c(-c6c(F)cc(S(=O)(=O)[O-])cc6F)c6ccc3[nH]6)C=C5)C=C4)cc2)n1
REMARK SMILES IDX 21 1 20 2 19 3 17 4 18 5 16 7 12 8 13 9 14 10 15 11 11 12
REMARK SMILES IDX 9 13 10 14 8 16 3 17 4 18 93 19 5 20 6 21 7 22 2 23 1 24
REMARK SMILES IDX 22 25 23 26 24 27 25 28 26 30 27 31 28 32 92 33 29 34 91 35
REMARK SMILES IDX 30 36 31 37 32 38 85 39 33 40 90 41 84 42 86 43 34 44 89 45
REMARK SMILES IDX 83 46 82 47 35 49 69 50 48 51 68 52 49 53 52 54 67 55 87 56
REMARK SMILES IDX 50 57 51 58 66 60 88 61 53 62 36 63 37 64 46 65 38 66 39 67
REMARK SMILES IDX 45 68 47 69 40 70 41 71 42 72 43 73 44 74 70 75 71 76 80 77
REMARK SMILES IDX 72 78 73 79 79 80 81 81 74 82 75 83 76 84 77 85 78 86 54 87
REMARK SMILES IDX 55 88 64 89 56 90 57 91 63 92 65 93 58 94 59 95 60 96 61 97
REMARK SMILES IDX 62 98
REMARK H PARENT 19 6 11 15 24 29 86 48 52 59
REMARK Flexibility Score: inf
ROOT
ATOM      1  C   UNL A   1      33.359  29.056  24.920  1.00  0.00     0.023 C 
ENDROOT
BRANCH   1   2
ATOM      2  C   UNL A   1      31.892  29.264  24.574  1.00  0.00     0.116 C 
BRANCH   2   3
ATOM      3  N   UNL A   1      31.420  28.779  23.300  1.00  0.00    -0.351 N 
ATOM      4  C   UNL A   1      30.963  27.533  22.901  1.00  0.00     0.263 C 
ATOM      5  O   UNL A   1      30.566  27.513  21.730  1.00  0.00    -0.268 OA
ATOM      6  H   UNL A   1      31.421  29.456  22.585  1.00  0.00     0.163 HD
BRANCH   4   7
ATOM      7  C   UNL A   1      30.986  26.314  23.739  1.00  0.00     0.115 A 
ATOM      8  C   UNL A   1      31.403  24.992  23.588  1.00  0.00     0.065 A 
ATOM      9  C   UNL A   1      31.057  24.154  24.694  1.00  0.00     0.038 A 
ATOM     10  C   UNL A   1      30.405  24.841  25.686  1.00  0.00     0.068 A 
ATOM     11  S   UNL A   1      30.221  26.486  25.299  1.00  0.00    -0.137 S 
BRANCH   8  12
ATOM     12  N   UNL A   1      32.108  24.520  22.507  1.00  0.00    -0.319 N 
ATOM     13  C   UNL A   1      33.144  23.608  22.452  1.00  0.00     0.276 C 
ATOM     14  O   UNL A   1      33.554  23.335  21.317  1.00  0.00    -0.267 OA
ATOM     15  H   UNL A   1      31.831  24.888  21.637  1.00  0.00     0.170 HD
BRANCH  13  16
ATOM     16  C   UNL A   1      33.746  22.879  23.624  1.00  0.00     0.151 A 
ATOM     17  C   UNL A   1      35.541  22.990  25.079  1.00  0.00     0.188 A 
ATOM     18  N   UNL A   1      35.185  21.875  25.726  1.00  0.00    -0.230 NA
ATOM     19  N   UNL A   1      34.821  23.561  24.111  1.00  0.00    -0.216 NA
ATOM     20  C   UNL A   1      34.128  21.215  25.213  1.00  0.00     0.137 A 
ATOM     21  C   UNL A   1      33.422  21.619  24.098  1.00  0.00     0.090 A 
ATOM     22  Cl  UNL A   1      32.434  20.424  23.366  1.00  0.00    -0.080 Cl
BRANCH  17  23
ATOM     23  S   UNL A   1      37.202  23.562  25.292  1.00  0.00    -0.090 SA
ATOM     24  C   UNL A   1      38.020  21.979  25.518  1.00  0.00     0.094 C 
ENDBRANCH  17  23
ENDBRANCH  13  16
ENDBRANCH   8  12
ENDBRANCH   4   7
ENDBRANCH   2   3
ENDBRANCH   1   2
BRANCH   1  25
ATOM     25  C   UNL A   1      33.682  28.086  26.046  1.00  0.00     0.023 C 
BRANCH  25  26
ATOM     26  C   UNL A   1      33.265  28.502  27.450  1.00  0.00     0.116 C 
BRANCH  26  27
ATOM     27  N   UNL A   1      33.356  29.933  27.710  1.00  0.00    -0.352 N 
ATOM     28  C   UNL A   1      34.433  30.702  28.096  1.00  0.00     0.251 C 
ATOM     29  H   UNL A   1      32.515  30.429  27.589  1.00  0.00     0.163 HD
ATOM     30  O   UNL A   1      34.281  31.903  28.302  1.00  0.00    -0.269 OA
BRANCH  28  31
ATOM     31  C   UNL A   1      35.760  30.085  28.320  1.00  0.00     0.039 A 
ATOM     32  C   UNL A   1      36.687  30.082  27.273  1.00  0.00     0.014 A 
ATOM     33  C   UNL A   1      36.109  29.542  29.557  1.00  0.00     0.014 A 
ATOM     34  C   UNL A   1      37.994  29.644  27.502  1.00  0.00     0.010 A 
ATOM     35  C   UNL A   1      37.435  29.200  29.811  1.00  0.00     0.010 A 
ATOM     36  C   UNL A   1      38.396  29.255  28.791  1.00  0.00    -0.014 A 
BRANCH  36  37
ATOM     37  C   UNL A   1      39.814  28.924  29.097  1.00  0.00     0.031 A 
ATOM     38  C   UNL A   1      40.722  29.964  29.697  1.00  0.00     0.074 A 
ATOM     39  C   UNL A   1      40.308  27.715  28.756  1.00  0.00     0.049 A 
ATOM     40  N   UNL A   1      42.007  29.900  29.939  1.00  0.00    -0.248 NA
ATOM     41  C   UNL A   1      40.113  31.260  30.039  1.00  0.00     0.031 C 
ATOM     42  C   UNL A   1      39.550  26.638  28.114  1.00  0.00     0.029 A 
ATOM     43  N   UNL A   1      41.572  27.192  28.887  1.00  0.00    -0.354 N 
ATOM     44  C   UNL A   1      42.360  31.147  30.439  1.00  0.00     0.074 A 
ATOM     45  C   UNL A   1      41.169  31.967  30.414  1.00  0.00     0.031 C 
ATOM     46  C   UNL A   1      40.354  25.578  27.933  1.00  0.00     0.029 A 
ATOM     47  C   UNL A   1      41.694  25.910  28.405  1.00  0.00     0.049 A 
ATOM     48  H   UNL A   1      42.321  27.689  29.291  1.00  0.00     0.167 HD
ATOM     49  C   UNL A   1      43.563  31.566  30.903  1.00  0.00     0.037 A 
ATOM     50  C   UNL A   1      42.765  25.095  28.340  1.00  0.00     0.037 A 
ATOM     51  C   UNL A   1      44.738  30.737  30.961  1.00  0.00     0.049 A 
ATOM     52  C   UNL A   1      44.088  25.576  28.874  1.00  0.00     0.074 A 
ATOM     53  C   UNL A   1      45.986  31.047  31.474  1.00  0.00     0.029 A 
ATOM     54  N   UNL A   1      44.811  29.432  30.494  1.00  0.00    -0.354 N 
ATOM     55  N   UNL A   1      44.388  26.740  29.402  1.00  0.00    -0.248 NA
ATOM     56  C   UNL A   1      45.215  24.636  28.810  1.00  0.00     0.031 C 
ATOM     57  C   UNL A   1      46.825  29.945  31.281  1.00  0.00     0.029 A 
ATOM     58  C   UNL A   1      46.087  28.930  30.690  1.00  0.00     0.049 A 
ATOM     59  H   UNL A   1      44.066  28.937  30.083  1.00  0.00     0.167 HD
ATOM     60  C   UNL A   1      45.730  26.660  29.757  1.00  0.00     0.074 A 
ATOM     61  C   UNL A   1      46.181  25.331  29.394  1.00  0.00     0.031 C 
ATOM     62  C   UNL A   1      46.518  27.602  30.333  1.00  0.00     0.037 A 
BRANCH  49  63
ATOM     63  C   UNL A   1      43.664  32.984  31.396  1.00  0.00     0.058 A 
ATOM     64  C   UNL A   1      43.259  33.344  32.692  1.00  0.00     0.135 A 
ATOM     65  C   UNL A   1      44.196  33.991  30.574  1.00  0.00     0.135 A 
ATOM     66  F   UNL A   1      42.728  32.425  33.514  1.00  0.00    -0.206 F 
ATOM     67  C   UNL A   1      43.347  34.656  33.144  1.00  0.00     0.059 A 
ATOM     68  C   UNL A   1      44.322  35.305  31.017  1.00  0.00     0.059 A 
ATOM     69  F   UNL A   1      44.599  33.703  29.327  1.00  0.00    -0.206 F 
ATOM     70  C   UNL A   1      43.878  35.631  32.299  1.00  0.00     0.060 A 
BRANCH  70  71
ATOM     71  S   UNL A   1      43.987  37.328  32.901  1.00  0.00     0.124 S 
ATOM     72  O   UNL A   1      43.709  38.086  31.685  1.00  0.00    -0.237 OA
ATOM     73  O   UNL A   1      42.944  37.366  33.922  1.00  0.00    -0.237 OA
ATOM     74  O   UNL A   1      45.354  37.425  33.402  1.00  0.00    -0.744 OA
ENDBRANCH  70  71
ENDBRANCH  49  63
BRANCH  50  75
ATOM     75  C   UNL A   1      42.627  23.727  27.771  1.00  0.00     0.058 A 
ATOM     76  C   UNL A   1      42.450  22.613  28.607  1.00  0.00     0.135 A 
ATOM     77  C   UNL A   1      42.658  23.503  26.386  1.00  0.00     0.135 A 
ATOM     78  F   UNL A   1      42.422  22.773  29.939  1.00  0.00    -0.206 F 
ATOM     79  C   UNL A   1      42.327  21.326  28.092  1.00  0.00     0.059 A 
ATOM     80  C   UNL A   1      42.511  22.230  25.846  1.00  0.00     0.059 A 
ATOM     81  F   UNL A   1      42.809  24.537  25.542  1.00  0.00    -0.206 F 
ATOM     82  C   UNL A   1      42.356  21.145  26.708  1.00  0.00     0.060 A 
BRANCH  82  83
ATOM     83  S   UNL A   1      42.145  19.477  26.048  1.00  0.00     0.124 S 
ATOM     84  O   UNL A   1      40.700  19.414  25.865  1.00  0.00    -0.237 OA
ATOM     85  O   UNL A   1      42.944  19.527  24.827  1.00  0.00    -0.237 OA
ATOM     86  O   UNL A   1      42.686  18.629  27.106  1.00  0.00    -0.744 OA
ENDBRANCH  82  83
ENDBRANCH  50  75
BRANCH  62  87
ATOM     87  C   UNL A   1      47.940  27.222  30.642  1.00  0.00     0.058 A 
ATOM     88  C   UNL A   1      48.290  26.589  31.844  1.00  0.00     0.135 A 
ATOM     89  C   UNL A   1      48.954  27.444  29.696  1.00  0.00     0.135 A 
ATOM     90  F   UNL A   1      47.359  26.360  32.783  1.00  0.00    -0.206 F 
ATOM     91  C   UNL A   1      49.602  26.207  32.106  1.00  0.00     0.059 A 
ATOM     92  C   UNL A   1      50.267  27.046  29.927  1.00  0.00     0.059 A 
ATOM     93  F   UNL A   1      48.670  28.036  28.525  1.00  0.00    -0.206 F 
ATOM     94  C   UNL A   1      50.583  26.437  31.141  1.00  0.00     0.060 A 
BRANCH  94  95
ATOM     95  S   UNL A   1      52.274  25.903  31.479  1.00  0.00     0.124 S 
ATOM     96  O   UNL A   1      52.894  26.038  30.165  1.00  0.00    -0.237 OA
ATOM     97  O   UNL A   1      52.710  26.863  32.488  1.00  0.00    -0.237 OA
ATOM     98  O   UNL A   1      52.108  24.534  31.958  1.00  0.00    -0.744 OA
ENDBRANCH  94  95
ENDBRANCH  62  87
ENDBRANCH  36  37
ENDBRANCH  28  31
ENDBRANCH  26  27
ENDBRANCH  25  26
ENDBRANCH   1  25
TORSDOF 17
ENDMDL
MODEL 2
REMARK VINA RESULT:     -11.3      3.020      9.135
REMARK SMILES CSc1ncc(Cl)c(C(=O)Nc2ccsc2C(=O)NCCCCNC(=O)c2ccc(-c3c4nc(c(-c5c(F)cc(S(=O)(=O)[O-])cc5F)c5ccc([nH]5)c(-c5c(F)cc(S(=O)(=O)[O-])cc5F)c5nc(c(-c6c(F)cc(S(=O)(=O)[O-])cc6F)c6ccc3[nH]6)C=C5)C=C4)cc2)n1
REMARK SMILES IDX 21 1 20 2 19 3 17 4 18 5 16 7 12 8 13 9 14 10 15 11 11 12
REMARK SMILES IDX 9 13 10 14 8 16 3 17 4 18 93 19 5 20 6 21 7 22 2 23 1 24
REMARK SMILES IDX 22 25 23 26 24 27 25 28 26 30 27 31 28 32 92 33 29 34 91 35
REMARK SMILES IDX 30 36 31 37 32 38 85 39 33 40 90 41 84 42 86 43 34 44 89 45
REMARK SMILES IDX 83 46 82 47 35 49 69 50 48 51 68 52 49 53 52 54 67 55 87 56
REMARK SMILES IDX 50 57 51 58 66 60 88 61 53 62 36 63 37 64 46 65 38 66 39 67
REMARK SMILES IDX 45 68 47 69 40 70 41 71 42 72 43 73 44 74 70 75 71 76 80 77
REMARK SMILES IDX 72 78 73 79 79 80 81 81 74 82 75 83 76 84 77 85 78 86 54 87
REMARK SMILES IDX 55 88 64 89 56 90 57 91 63 92 65 93 58 94 59 95 60 96 61 97
REMARK SMILES IDX 62 98
REMARK H PARENT 19 6 11 15 24 29 86 48 52 59
REMARK Flexibility Score: inf
ROOT
ATOM      1  C   UNL A   1      34.727  23.944  26.216  1.00  0.00     0.023 C 
ENDROOT
BRANCH   1   2
ATOM      2  C   UNL A   1      33.897  25.110  25.699  1.00  0.00     0.116 C 
BRANCH   2   3
ATOM      3  N   UNL A   1      32.527  25.215  26.138  1.00  0.00    -0.351 N 
ATOM      4  C   UNL A   1      31.679  26.304  26.254  1.00  0.00     0.263 C 
ATOM      5  O   UNL A   1      30.532  25.993  26.600  1.00  0.00    -0.268 OA
ATOM      6  H   UNL A   1      32.122  24.358  26.402  1.00  0.00     0.163 HD
BRANCH   4   7
ATOM      7  C   UNL A   1      32.077  27.714  26.053  1.00  0.00     0.115 A 
ATOM      8  C   UNL A   1      31.782  28.728  25.141  1.00  0.00     0.065 A 
ATOM      9  C   UNL A   1      32.575  29.905  25.319  1.00  0.00     0.038 A 
ATOM     10  C   UNL A   1      33.447  29.793  26.372  1.00  0.00     0.068 A 
ATOM     11  S   UNL A   1      33.305  28.290  27.153  1.00  0.00    -0.137 S 
BRANCH   8  12
ATOM     12  N   UNL A   1      30.807  28.644  24.177  1.00  0.00    -0.319 N 
ATOM     13  C   UNL A   1      30.717  27.816  23.075  1.00  0.00     0.276 C 
ATOM     14  O   UNL A   1      29.685  27.933  22.403  1.00  0.00    -0.267 OA
ATOM     15  H   UNL A   1      30.056  29.270  24.289  1.00  0.00     0.170 HD
BRANCH  13  16
ATOM     16  C   UNL A   1      31.711  26.755  22.680  1.00  0.00     0.151 A 
ATOM     17  C   UNL A   1      32.010  24.462  22.742  1.00  0.00     0.188 A 
ATOM     18  N   UNL A   1      33.215  24.526  22.166  1.00  0.00    -0.230 NA
ATOM     19  N   UNL A   1      31.208  25.513  22.927  1.00  0.00    -0.216 NA
ATOM     20  C   UNL A   1      33.692  25.767  21.947  1.00  0.00     0.137 A 
ATOM     21  C   UNL A   1      33.022  26.929  22.273  1.00  0.00     0.090 A 
ATOM     22  Cl  UNL A   1      33.979  28.350  22.331  1.00  0.00    -0.080 Cl
BRANCH  17  23
ATOM     23  S   UNL A   1      31.588  22.967  23.588  1.00  0.00    -0.090 SA
ATOM     24  C   UNL A   1      32.291  21.781  22.438  1.00  0.00     0.094 C 
ENDBRANCH  17  23
ENDBRANCH  13  16
ENDBRANCH   8  12
ENDBRANCH   4   7
ENDBRANCH   2   3
ENDBRANCH   1   2
BRANCH   1  25
ATOM     25  C   UNL A   1      35.548  23.163  25.201  1.00  0.00     0.023 C 
BRANCH  25  26
ATOM     26  C   UNL A   1      36.943  23.692  24.895  1.00  0.00     0.116 C 
BRANCH  26  27
ATOM     27  N   UNL A   1      38.026  22.793  25.270  1.00  0.00    -0.352 N 
ATOM     28  C   UNL A   1      39.108  22.999  26.099  1.00  0.00     0.251 C 
ATOM     29  H   UNL A   1      37.978  21.896  24.867  1.00  0.00     0.163 HD
ATOM     30  O   UNL A   1      39.939  22.106  26.249  1.00  0.00    -0.269 OA
BRANCH  28  31
ATOM     31  C   UNL A   1      39.310  24.304  26.767  1.00  0.00     0.039 A 
ATOM     32  C   UNL A   1      38.781  24.494  28.048  1.00  0.00     0.014 A 
ATOM     33  C   UNL A   1      40.042  25.326  26.161  1.00  0.00     0.014 A 
ATOM     34  C   UNL A   1      39.083  25.658  28.760  1.00  0.00     0.010 A 
ATOM     35  C   UNL A   1      40.425  26.437  26.908  1.00  0.00     0.010 A 
ATOM     36  C   UNL A   1      39.959  26.613  28.219  1.00  0.00    -0.014 A 
BRANCH  36  37
ATOM     37  C   UNL A   1      40.415  27.788  29.010  1.00  0.00     0.031 A 
ATOM     38  C   UNL A   1      41.747  27.759  29.710  1.00  0.00     0.074 A 
ATOM     39  C   UNL A   1      39.593  28.847  29.171  1.00  0.00     0.049 A 
ATOM     40  N   UNL A   1      42.273  28.638  30.524  1.00  0.00    -0.248 NA
ATOM     41  C   UNL A   1      42.587  26.569  29.490  1.00  0.00     0.031 C 
ATOM     42  C   UNL A   1      38.252  28.976  28.597  1.00  0.00     0.029 A 
ATOM     43  N   UNL A   1      39.759  30.012  29.879  1.00  0.00    -0.354 N 
ATOM     44  C   UNL A   1      43.488  28.099  30.929  1.00  0.00     0.074 A 
ATOM     45  C   UNL A   1      43.598  26.795  30.316  1.00  0.00     0.031 C 
ATOM     46  C   UNL A   1      37.729  30.161  28.952  1.00  0.00     0.029 A 
ATOM     47  C   UNL A   1      38.677  30.860  29.813  1.00  0.00     0.049 A 
ATOM     48  H   UNL A   1      40.577  30.223  30.386  1.00  0.00     0.167 HD
ATOM     49  C   UNL A   1      44.440  28.651  31.720  1.00  0.00     0.037 A 
ATOM     50  C   UNL A   1      38.466  32.060  30.388  1.00  0.00     0.037 A 
ATOM     51  C   UNL A   1      44.344  29.965  32.299  1.00  0.00     0.049 A 
ATOM     52  C   UNL A   1      39.543  32.660  31.251  1.00  0.00     0.074 A 
ATOM     53  C   UNL A   1      45.283  30.641  33.061  1.00  0.00     0.029 A 
ATOM     54  N   UNL A   1      43.247  30.806  32.181  1.00  0.00    -0.354 N 
ATOM     55  N   UNL A   1      40.715  32.162  31.572  1.00  0.00    -0.248 NA
ATOM     56  C   UNL A   1      39.276  33.986  31.826  1.00  0.00     0.031 C 
ATOM     57  C   UNL A   1      44.737  31.873  33.436  1.00  0.00     0.029 A 
ATOM     58  C   UNL A   1      43.477  31.986  32.869  1.00  0.00     0.049 A 
ATOM     59  H   UNL A   1      42.425  30.594  31.682  1.00  0.00     0.167 HD
ATOM     60  C   UNL A   1      41.333  33.125  32.362  1.00  0.00     0.074 A 
ATOM     61  C   UNL A   1      40.411  34.239  32.462  1.00  0.00     0.031 C 
ATOM     62  C   UNL A   1      42.554  33.090  32.951  1.00  0.00     0.037 A 
BRANCH  49  63
ATOM     63  C   UNL A   1      45.676  27.838  31.995  1.00  0.00     0.058 A 
ATOM     64  C   UNL A   1      45.747  26.948  33.079  1.00  0.00     0.135 A 
ATOM     65  C   UNL A   1      46.793  27.927  31.149  1.00  0.00     0.135 A 
ATOM     66  F   UNL A   1      44.713  26.835  33.930  1.00  0.00    -0.206 F 
ATOM     67  C   UNL A   1      46.891  26.201  33.336  1.00  0.00     0.059 A 
ATOM     68  C   UNL A   1      47.938  27.166  31.369  1.00  0.00     0.059 A 
ATOM     69  F   UNL A   1      46.780  28.760  30.097  1.00  0.00    -0.206 F 
ATOM     70  C   UNL A   1      47.984  26.319  32.475  1.00  0.00     0.060 A 
BRANCH  70  71
ATOM     71  S   UNL A   1      49.461  25.342  32.820  1.00  0.00     0.124 S 
ATOM     72  O   UNL A   1      48.929  24.314  33.708  1.00  0.00    -0.237 OA
ATOM     73  O   UNL A   1      49.853  24.886  31.489  1.00  0.00    -0.237 OA
ATOM     74  O   UNL A   1      50.368  26.301  33.442  1.00  0.00    -0.744 OA
ENDBRANCH  70  71
ENDBRANCH  49  63
BRANCH  50  75
ATOM     75  C   UNL A   1      37.192  32.789  30.145  1.00  0.00     0.058 A 
ATOM     76  C   UNL A   1      37.101  33.767  29.142  1.00  0.00     0.135 A 
ATOM     77  C   UNL A   1      36.039  32.520  30.898  1.00  0.00     0.135 A 
ATOM     78  F   UNL A   1      38.178  34.067  28.400  1.00  0.00    -0.206 F 
ATOM     79  C   UNL A   1      35.920  34.463  28.906  1.00  0.00     0.059 A 
ATOM     80  C   UNL A   1      34.840  33.184  30.664  1.00  0.00     0.059 A 
ATOM     81  F   UNL A   1      36.068  31.582  31.859  1.00  0.00    -0.206 F 
ATOM     82  C   UNL A   1      34.792  34.162  29.671  1.00  0.00     0.060 A 
BRANCH  82  83
ATOM     83  S   UNL A   1      33.250  35.037  29.324  1.00  0.00     0.124 S 
ATOM     84  O   UNL A   1      32.604  34.130  28.383  1.00  0.00    -0.237 OA
ATOM     85  O   UNL A   1      32.642  35.124  30.648  1.00  0.00    -0.237 OA
ATOM     86  O   UNL A   1      33.705  36.307  28.767  1.00  0.00    -0.744 OA
ENDBRANCH  82  83
ENDBRANCH  50  75
BRANCH  62  87
ATOM     87  C   UNL A   1      42.984  34.304  33.727  1.00  0.00     0.058 A 
ATOM     88  C   UNL A   1      42.751  34.420  35.106  1.00  0.00     0.135 A 
ATOM     89  C   UNL A   1      43.689  35.339  33.091  1.00  0.00     0.135 A 
ATOM     90  F   UNL A   1      42.076  33.461  35.759  1.00  0.00    -0.206 F 
ATOM     91  C   UNL A   1      43.184  35.530  35.823  1.00  0.00     0.059 A 
ATOM     92  C   UNL A   1      44.155  36.445  33.794  1.00  0.00     0.059 A 
ATOM     93  F   UNL A   1      43.948  35.272  31.775  1.00  0.00    -0.206 F 
ATOM     94  C   UNL A   1      43.888  36.537  35.160  1.00  0.00     0.060 A 
BRANCH  94  95
ATOM     95  S   UNL A   1      44.477  37.954  36.110  1.00  0.00     0.124 S 
ATOM     96  O   UNL A   1      45.906  37.675  36.199  1.00  0.00    -0.237 OA
ATOM     97  O   UNL A   1      44.102  39.079  35.261  1.00  0.00    -0.237 OA
ATOM     98  O   UNL A   1      43.738  37.851  37.365  1.00  0.00    -0.744 OA
ENDBRANCH  94  95
ENDBRANCH  62  87
ENDBRANCH  36  37
ENDBRANCH  28  31
ENDBRANCH  26  27
ENDBRANCH  25  26
ENDBRANCH   1  25
TORSDOF 17
ENDMDL
MODEL 3
REMARK VINA RESULT:     -11.2      3.025      9.556
REMARK SMILES CSc1ncc(Cl)c(C(=O)Nc2ccsc2C(=O)NCCCCNC(=O)c2ccc(-c3c4nc(c(-c5c(F)cc(S(=O)(=O)[O-])cc5F)c5ccc([nH]5)c(-c5c(F)cc(S(=O)(=O)[O-])cc5F)c5nc(c(-c6c(F)cc(S(=O)(=O)[O-])cc6F)c6ccc3[nH]6)C=C5)C=C4)cc2)n1
REMARK SMILES IDX 21 1 20 2 19 3 17 4 18 5 16 7 12 8 13 9 14 10 15 11 11 12
REMARK SMILES IDX 9 13 10 14 8 16 3 17 4 18 93 19 5 20 6 21 7 22 2 23 1 24
REMARK SMILES IDX 22 25 23 26 24 27 25 28 26 30 27 31 28 32 92 33 29 34 91 35
REMARK SMILES IDX 30 36 31 37 32 38 85 39 33 40 90 41 84 42 86 43 34 44 89 45
REMARK SMILES IDX 83 46 82 47 35 49 69 50 48 51 68 52 49 53 52 54 67 55 87 56
REMARK SMILES IDX 50 57 51 58 66 60 88 61 53 62 36 63 37 64 46 65 38 66 39 67
REMARK SMILES IDX 45 68 47 69 40 70 41 71 42 72 43 73 44 74 70 75 71 76 80 77
REMARK SMILES IDX 72 78 73 79 79 80 81 81 74 82 75 83 76 84 77 85 78 86 54 87
REMARK SMILES IDX 55 88 64 89 56 90 57 91 63 92 65 93 58 94 59 95 60 96 61 97
REMARK SMILES IDX 62 98
REMARK H PARENT 19 6 11 15 24 29 86 48 52 59
REMARK Flexibility Score: inf
ROOT
ATOM      1  C   UNL A   1      34.435  23.343  25.662  1.00  0.00     0.023 C 
ENDROOT
BRANCH   1   2
ATOM      2  C   UNL A   1      33.664  24.637  25.445  1.00  0.00     0.116 C 
BRANCH   2   3
ATOM      3  N   UNL A   1      32.371  24.769  26.069  1.00  0.00    -0.351 N 
ATOM      4  C   UNL A   1      31.510  25.849  26.183  1.00  0.00     0.263 C 
ATOM      5  O   UNL A   1      30.439  25.562  26.732  1.00  0.00    -0.268 OA
ATOM      6  H   UNL A   1      32.040  23.943  26.489  1.00  0.00     0.163 HD
BRANCH   4   7
ATOM      7  C   UNL A   1      31.824  27.232  25.761  1.00  0.00     0.115 A 
ATOM      8  C   UNL A   1      32.097  27.884  24.558  1.00  0.00     0.065 A 
ATOM      9  C   UNL A   1      32.488  29.249  24.726  1.00  0.00     0.038 A 
ATOM     10  C   UNL A   1      32.487  29.636  26.042  1.00  0.00     0.068 A 
ATOM     11  S   UNL A   1      32.006  28.371  27.071  1.00  0.00    -0.137 S 
BRANCH   8  12
ATOM     12  N   UNL A   1      31.980  27.305  23.318  1.00  0.00    -0.319 N 
ATOM     13  C   UNL A   1      30.920  27.310  22.432  1.00  0.00     0.276 C 
ATOM     14  O   UNL A   1      31.124  26.739  21.354  1.00  0.00    -0.267 OA
ATOM     15  H   UNL A   1      32.774  26.810  23.013  1.00  0.00     0.170 HD
BRANCH  13  16
ATOM     16  C   UNL A   1      29.600  28.006  22.634  1.00  0.00     0.151 A 
ATOM     17  C   UNL A   1      28.595  30.071  22.352  1.00  0.00     0.188 A 
ATOM     18  N   UNL A   1      27.425  29.656  22.850  1.00  0.00    -0.230 NA
ATOM     19  N   UNL A   1      29.649  29.278  22.147  1.00  0.00    -0.216 NA
ATOM     20  C   UNL A   1      27.411  28.400  23.337  1.00  0.00     0.137 A 
ATOM     21  C   UNL A   1      28.501  27.554  23.345  1.00  0.00     0.090 A 
ATOM     22  Cl  UNL A   1      28.393  26.206  24.399  1.00  0.00    -0.080 Cl
BRANCH  17  23
ATOM     23  S   UNL A   1      28.870  31.816  22.259  1.00  0.00    -0.090 SA
ATOM     24  C   UNL A   1      28.156  32.129  20.641  1.00  0.00     0.094 C 
ENDBRANCH  17  23
ENDBRANCH  13  16
ENDBRANCH   8  12
ENDBRANCH   4   7
ENDBRANCH   2   3
ENDBRANCH   1   2
BRANCH   1  25
ATOM     25  C   UNL A   1      35.575  23.037  24.702  1.00  0.00     0.023 C 
BRANCH  25  26
ATOM     26  C   UNL A   1      36.902  23.732  24.971  1.00  0.00     0.116 C 
BRANCH  26  27
ATOM     27  N   UNL A   1      37.998  22.834  25.313  1.00  0.00    -0.352 N 
ATOM     28  C   UNL A   1      39.102  23.040  26.113  1.00  0.00     0.251 C 
ATOM     29  H   UNL A   1      37.940  21.938  24.911  1.00  0.00     0.163 HD
ATOM     30  O   UNL A   1      39.938  22.149  26.237  1.00  0.00    -0.269 OA
BRANCH  28  31
ATOM     31  C   UNL A   1      39.320  24.344  26.777  1.00  0.00     0.039 A 
ATOM     32  C   UNL A   1      38.819  24.534  28.069  1.00  0.00     0.014 A 
ATOM     33  C   UNL A   1      40.040  25.365  26.156  1.00  0.00     0.014 A 
ATOM     34  C   UNL A   1      39.139  25.696  28.776  1.00  0.00     0.010 A 
ATOM     35  C   UNL A   1      40.441  26.476  26.896  1.00  0.00     0.010 A 
ATOM     36  C   UNL A   1      40.004  26.651  28.217  1.00  0.00    -0.014 A 
BRANCH  36  37
ATOM     37  C   UNL A   1      40.479  27.825  28.999  1.00  0.00     0.031 A 
ATOM     38  C   UNL A   1      41.831  27.796  29.661  1.00  0.00     0.074 A 
ATOM     39  C   UNL A   1      39.660  28.880  29.186  1.00  0.00     0.049 A 
ATOM     40  N   UNL A   1      42.377  28.674  30.464  1.00  0.00    -0.248 NA
ATOM     41  C   UNL A   1      42.667  26.609  29.414  1.00  0.00     0.031 C 
ATOM     42  C   UNL A   1      38.303  29.008  28.650  1.00  0.00     0.029 A 
ATOM     43  N   UNL A   1      39.842  30.044  29.893  1.00  0.00    -0.354 N 
ATOM     44  C   UNL A   1      43.604  28.137  30.834  1.00  0.00     0.074 A 
ATOM     45  C   UNL A   1      43.700  26.834  30.213  1.00  0.00     0.031 C 
ATOM     46  C   UNL A   1      37.788  30.191  29.024  1.00  0.00     0.029 A 
ATOM     47  C   UNL A   1      38.757  30.889  29.861  1.00  0.00     0.049 A 
ATOM     48  H   UNL A   1      40.674  30.255  30.378  1.00  0.00     0.167 HD
ATOM     49  C   UNL A   1      44.576  28.688  31.600  1.00  0.00     0.037 A 
ATOM     50  C   UNL A   1      38.560  32.087  30.445  1.00  0.00     0.037 A 
ATOM     51  C   UNL A   1      44.493  30.000  32.186  1.00  0.00     0.049 A 
ATOM     52  C   UNL A   1      39.659  32.687  31.280  1.00  0.00     0.074 A 
ATOM     53  C   UNL A   1      45.451  30.675  32.923  1.00  0.00     0.029 A 
ATOM     54  N   UNL A   1      43.391  30.839  32.100  1.00  0.00    -0.354 N 
ATOM     55  N   UNL A   1      40.840  32.191  31.566  1.00  0.00    -0.248 NA
ATOM     56  C   UNL A   1      39.404  34.010  31.866  1.00  0.00     0.031 C 
ATOM     57  C   UNL A   1      44.913  31.905  33.317  1.00  0.00     0.029 A 
ATOM     58  C   UNL A   1      43.638  32.017  32.786  1.00  0.00     0.049 A 
ATOM     59  H   UNL A   1      42.556  30.627  31.623  1.00  0.00     0.167 HD
ATOM     60  C   UNL A   1      41.478  33.153  32.343  1.00  0.00     0.074 A 
ATOM     61  C   UNL A   1      40.556  34.264  32.472  1.00  0.00     0.031 C 
ATOM     62  C   UNL A   1      42.714  33.118  32.897  1.00  0.00     0.037 A 
BRANCH  49  63
ATOM     63  C   UNL A   1      45.821  27.877  31.837  1.00  0.00     0.058 A 
ATOM     64  C   UNL A   1      46.885  27.875  30.920  1.00  0.00     0.135 A 
ATOM     65  C   UNL A   1      45.964  27.113  33.006  1.00  0.00     0.135 A 
ATOM     66  F   UNL A   1      46.795  28.575  29.778  1.00  0.00    -0.206 F 
ATOM     67  C   UNL A   1      48.032  27.120  31.138  1.00  0.00     0.059 A 
ATOM     68  C   UNL A   1      47.117  26.373  33.259  1.00  0.00     0.059 A 
ATOM     69  F   UNL A   1      44.979  27.078  33.917  1.00  0.00    -0.206 F 
ATOM     70  C   UNL A   1      48.138  26.370  32.310  1.00  0.00     0.060 A 
BRANCH  70  71
ATOM     71  S   UNL A   1      49.634  25.397  32.578  1.00  0.00     0.124 S 
ATOM     72  O   UNL A   1      49.109  24.257  33.324  1.00  0.00    -0.237 OA
ATOM     73  O   UNL A   1      50.072  25.113  31.214  1.00  0.00    -0.237 OA
ATOM     74  O   UNL A   1      50.497  26.298  33.334  1.00  0.00    -0.744 OA
ENDBRANCH  70  71
ENDBRANCH  49  63
BRANCH  50  75
ATOM     75  C   UNL A   1      37.277  32.814  30.240  1.00  0.00     0.058 A 
ATOM     76  C   UNL A   1      37.098  33.662  29.136  1.00  0.00     0.135 A 
ATOM     77  C   UNL A   1      36.203  32.669  31.131  1.00  0.00     0.135 A 
ATOM     78  F   UNL A   1      38.099  33.840  28.259  1.00  0.00    -0.206 F 
ATOM     79  C   UNL A   1      35.909  34.355  28.933  1.00  0.00     0.059 A 
ATOM     80  C   UNL A   1      34.995  33.331  30.935  1.00  0.00     0.059 A 
ATOM     81  F   UNL A   1      36.317  31.857  32.194  1.00  0.00    -0.206 F 
ATOM     82  C   UNL A   1      34.861  34.180  29.838  1.00  0.00     0.060 A 
BRANCH  82  83
ATOM     83  S   UNL A   1      33.304  35.045  29.538  1.00  0.00     0.124 S 
ATOM     84  O   UNL A   1      32.705  34.220  28.495  1.00  0.00    -0.237 OA
ATOM     85  O   UNL A   1      32.662  34.985  30.848  1.00  0.00    -0.237 OA
ATOM     86  O   UNL A   1      33.736  36.376  29.121  1.00  0.00    -0.744 OA
ENDBRANCH  82  83
ENDBRANCH  50  75
BRANCH  62  87
ATOM     87  C   UNL A   1      43.163  34.331  33.665  1.00  0.00     0.058 A 
ATOM     88  C   UNL A   1      43.746  35.436  33.026  1.00  0.00     0.135 A 
ATOM     89  C   UNL A   1      42.954  34.409  35.052  1.00  0.00     0.135 A 
ATOM     90  F   UNL A   1      43.973  35.408  31.704  1.00  0.00    -0.206 F 
ATOM     91  C   UNL A   1      44.124  36.568  33.739  1.00  0.00     0.059 A 
ATOM     92  C   UNL A   1      43.300  35.543  35.779  1.00  0.00     0.059 A 
ATOM     93  F   UNL A   1      42.390  33.383  35.710  1.00  0.00    -0.206 F 
ATOM     94  C   UNL A   1      43.895  36.614  35.115  1.00  0.00     0.060 A 
BRANCH  94  95
ATOM     95  S   UNL A   1      44.358  38.106  36.022  1.00  0.00     0.124 S 
ATOM     96  O   UNL A   1      45.799  37.928  36.164  1.00  0.00    -0.237 OA
ATOM     97  O   UNL A   1      43.936  39.167  35.114  1.00  0.00    -0.237 OA
ATOM     98  O   UNL A   1      43.587  38.004  37.257  1.00  0.00    -0.744 OA
ENDBRANCH  94  95
ENDBRANCH  62  87
ENDBRANCH  36  37
ENDBRANCH  28  31
ENDBRANCH  26  27
ENDBRANCH  25  26
ENDBRANCH   1  25
TORSDOF 17
ENDMDL
