MODEL 1
REMARK VINA RESULT:     -10.1      0.000      0.000
REMARK SMILES C=CC[N@@H+](CC(=O)NCCCCNC(=O)c1ccc(-c2c3nc(c(-c4c(F)cc(S(=O)(=O)[O-])cc4F)c4ccc([nH]4)c(-c4c(F)cc(S(=O)(=O)[O-])cc4F)c4nc(c(-c5c(F)cc(S(=O)(=O)[O-])cc5F)c5ccc2[nH]5)C=C4)C=C3)cc1)Cc1ccc([N+](=O)[O-])o1
REMARK SMILES IDX 10 1 9 2 8 3 6 4 7 5 5 7 4 8 3 10 2 11 1 12 82 13 83 14
REMARK SMILES IDX 84 15 90 16 85 17 86 18 87 19 88 20 89 21 11 22 12 23 13 24
REMARK SMILES IDX 14 25 15 27 16 28 17 29 81 30 18 31 80 32 19 33 20 34 21 35
REMARK SMILES IDX 74 36 22 37 79 38 73 39 75 40 23 41 78 42 72 43 71 44 24 46
REMARK SMILES IDX 58 47 37 48 57 49 38 50 41 51 56 52 76 53 39 54 40 55 55 57
REMARK SMILES IDX 77 58 42 59 25 60 26 61 35 62 27 63 28 64 34 65 36 66 29 67
REMARK SMILES IDX 30 68 31 69 32 70 33 71 59 72 60 73 69 74 61 75 62 76 68 77
REMARK SMILES IDX 70 78 63 79 64 80 65 81 66 82 67 83 43 84 44 85 53 86 45 87
REMARK SMILES IDX 46 88 52 89 54 90 47 91 48 92 49 93 50 94 51 95
REMARK H PARENT 8 6 4 9 13 26 75 45 41 56
REMARK Flexibility Score: inf
ROOT
ATOM      1  C   UNL A   1      34.628  22.607  26.882  1.00  0.00     0.023 C 
ENDROOT
BRANCH   1   2
ATOM      2  C   UNL A   1      33.333  21.856  26.532  1.00  0.00     0.116 C 
BRANCH   2   3
ATOM      3  N   UNL A   1      32.138  22.385  27.165  1.00  0.00    -0.351 N 
ATOM      4  C   UNL A   1      31.092  23.117  26.682  1.00  0.00     0.275 C 
ATOM      5  O   UNL A   1      30.114  23.241  27.428  1.00  0.00    -0.269 OA
ATOM      6  H   UNL A   1      32.069  22.175  28.125  1.00  0.00     0.163 HD
BRANCH   4   7
ATOM      7  C   UNL A   1      31.082  23.746  25.280  1.00  0.00     0.364 C 
BRANCH   7   8
ATOM      8  N   UNL A   1      31.189  25.227  25.203  1.00  0.00    -0.318 N 
ATOM      9  H   UNL A   1      31.775  25.427  24.391  1.00  0.00     0.349 HD
BRANCH   8  10
ATOM     10  C   UNL A   1      31.908  25.772  26.333  1.00  0.00     0.291 C 
BRANCH  10  11
ATOM     11  C   UNL A   1      33.119  26.614  26.087  1.00  0.00     0.025 C 
ATOM     12  C   UNL A   1      33.089  27.956  26.084  1.00  0.00     0.010 C 
ENDBRANCH  10  11
ENDBRANCH   8  10
BRANCH   8  13
ATOM     13  C   UNL A   1      29.954  25.935  24.818  1.00  0.00     0.339 C 
BRANCH  13  14
ATOM     14  C   UNL A   1      30.025  27.036  23.802  1.00  0.00     0.165 A 
ATOM     15  C   UNL A   1      31.006  27.591  22.998  1.00  0.00     0.059 A 
ATOM     16  O   UNL A   1      28.836  27.681  23.565  1.00  0.00    -0.400 OA
ATOM     17  C   UNL A   1      30.426  28.694  22.320  1.00  0.00     0.134 A 
ATOM     18  C   UNL A   1      29.103  28.678  22.682  1.00  0.00     0.433 A 
BRANCH  18  19
ATOM     19  N   UNL A   1      28.003  29.501  22.296  1.00  0.00     0.102 N 
ATOM     20  O   UNL A   1      28.067  30.011  21.169  1.00  0.00    -0.256 OA
ATOM     21  O   UNL A   1      27.060  29.617  23.091  1.00  0.00    -0.256 OA
ENDBRANCH  18  19
ENDBRANCH  13  14
ENDBRANCH   8  13
ENDBRANCH   7   8
ENDBRANCH   4   7
ENDBRANCH   2   3
ENDBRANCH   1   2
BRANCH   1  22
ATOM     22  C   UNL A   1      35.117  23.608  25.847  1.00  0.00     0.023 C 
BRANCH  22  23
ATOM     23  C   UNL A   1      36.576  23.962  26.016  1.00  0.00     0.116 C 
BRANCH  23  24
ATOM     24  N   UNL A   1      37.410  22.769  26.116  1.00  0.00    -0.352 N 
ATOM     25  C   UNL A   1      38.765  22.672  26.320  1.00  0.00     0.251 C 
ATOM     26  H   UNL A   1      36.934  21.913  26.026  1.00  0.00     0.163 HD
ATOM     27  O   UNL A   1      39.340  21.608  26.138  1.00  0.00    -0.269 OA
BRANCH  25  28
ATOM     28  C   UNL A   1      39.500  23.875  26.745  1.00  0.00     0.039 A 
ATOM     29  C   UNL A   1      39.878  24.823  25.795  1.00  0.00     0.014 A 
ATOM     30  C   UNL A   1      39.774  24.073  28.101  1.00  0.00     0.014 A 
ATOM     31  C   UNL A   1      40.488  26.002  26.220  1.00  0.00     0.010 A 
ATOM     32  C   UNL A   1      40.255  25.295  28.529  1.00  0.00     0.010 A 
ATOM     33  C   UNL A   1      40.647  26.259  27.592  1.00  0.00    -0.014 A 
BRANCH  33  34
ATOM     34  C   UNL A   1      41.268  27.509  28.079  1.00  0.00     0.031 A 
ATOM     35  C   UNL A   1      42.767  27.645  28.053  1.00  0.00     0.074 A 
ATOM     36  C   UNL A   1      40.492  28.475  28.606  1.00  0.00     0.049 A 
ATOM     37  N   UNL A   1      43.514  28.618  28.504  1.00  0.00    -0.248 NA
ATOM     38  C   UNL A   1      43.532  26.522  27.483  1.00  0.00     0.031 C 
ATOM     39  C   UNL A   1      39.034  28.411  28.743  1.00  0.00     0.029 A 
ATOM     40  N   UNL A   1      40.821  29.695  29.136  1.00  0.00    -0.354 N 
ATOM     41  C   UNL A   1      44.827  28.212  28.292  1.00  0.00     0.074 A 
ATOM     42  C   UNL A   1      44.780  26.879  27.741  1.00  0.00     0.031 C 
ATOM     43  C   UNL A   1      38.593  29.556  29.288  1.00  0.00     0.029 A 
ATOM     44  C   UNL A   1      39.736  30.415  29.579  1.00  0.00     0.049 A 
ATOM     45  H   UNL A   1      41.746  30.026  29.193  1.00  0.00     0.167 HD
ATOM     46  C   UNL A   1      45.968  28.906  28.507  1.00  0.00     0.037 A 
ATOM     47  C   UNL A   1      39.677  31.627  30.159  1.00  0.00     0.037 A 
ATOM     48  C   UNL A   1      45.993  30.250  29.018  1.00  0.00     0.049 A 
ATOM     49  C   UNL A   1      40.959  32.389  30.370  1.00  0.00     0.074 A 
ATOM     50  C   UNL A   1      47.083  31.078  29.207  1.00  0.00     0.029 A 
ATOM     51  N   UNL A   1      44.872  30.962  29.423  1.00  0.00    -0.354 N 
ATOM     52  N   UNL A   1      42.189  32.025  30.089  1.00  0.00    -0.248 NA
ATOM     53  C   UNL A   1      40.847  33.725  30.965  1.00  0.00     0.031 C 
ATOM     54  C   UNL A   1      46.628  32.271  29.775  1.00  0.00     0.029 A 
ATOM     55  C   UNL A   1      45.247  32.211  29.883  1.00  0.00     0.049 A 
ATOM     56  H   UNL A   1      43.946  30.628  29.386  1.00  0.00     0.167 HD
ATOM     57  C   UNL A   1      42.994  33.099  30.449  1.00  0.00     0.074 A 
ATOM     58  C   UNL A   1      42.109  34.131  30.952  1.00  0.00     0.031 C 
ATOM     59  C   UNL A   1      44.343  33.223  30.371  1.00  0.00     0.037 A 
BRANCH  46  60
ATOM     60  C   UNL A   1      47.272  28.232  28.182  1.00  0.00     0.058 A 
ATOM     61  C   UNL A   1      47.853  28.317  26.907  1.00  0.00     0.135 A 
ATOM     62  C   UNL A   1      47.966  27.513  29.169  1.00  0.00     0.135 A 
ATOM     63  F   UNL A   1      47.224  28.972  25.918  1.00  0.00    -0.206 F 
ATOM     64  C   UNL A   1      49.061  27.693  26.613  1.00  0.00     0.059 A 
ATOM     65  C   UNL A   1      49.193  26.908  28.907  1.00  0.00     0.059 A 
ATOM     66  F   UNL A   1      47.454  27.391  30.403  1.00  0.00    -0.206 F 
ATOM     67  C   UNL A   1      49.725  26.994  27.621  1.00  0.00     0.060 A 
BRANCH  67  68
ATOM     68  S   UNL A   1      51.300  26.206  27.227  1.00  0.00     0.124 S 
ATOM     69  O   UNL A   1      50.909  24.804  27.131  1.00  0.00    -0.237 OA
ATOM     70  O   UNL A   1      51.663  26.851  25.969  1.00  0.00    -0.237 OA
ATOM     71  O   UNL A   1      52.146  26.544  28.368  1.00  0.00    -0.744 OA
ENDBRANCH  67  68
ENDBRANCH  46  60
BRANCH  47  72
ATOM     72  C   UNL A   1      38.363  32.202  30.555  1.00  0.00     0.058 A 
ATOM     73  C   UNL A   1      37.761  31.858  31.774  1.00  0.00     0.135 A 
ATOM     74  C   UNL A   1      37.692  33.120  29.732  1.00  0.00     0.135 A 
ATOM     75  F   UNL A   1      38.361  30.985  32.597  1.00  0.00    -0.206 F 
ATOM     76  C   UNL A   1      36.530  32.385  32.154  1.00  0.00     0.059 A 
ATOM     77  C   UNL A   1      36.475  33.682  30.102  1.00  0.00     0.059 A 
ATOM     78  F   UNL A   1      38.237  33.501  28.565  1.00  0.00    -0.206 F 
ATOM     79  C   UNL A   1      35.896  33.300  31.311  1.00  0.00     0.060 A 
BRANCH  79  80
ATOM     80  S   UNL A   1      34.320  34.009  31.835  1.00  0.00     0.124 S 
ATOM     81  O   UNL A   1      34.760  35.179  32.586  1.00  0.00    -0.237 OA
ATOM     82  O   UNL A   1      33.666  34.277  30.558  1.00  0.00    -0.237 OA
ATOM     83  O   UNL A   1      33.718  32.939  32.626  1.00  0.00    -0.744 OA
ENDBRANCH  79  80
ENDBRANCH  47  72
BRANCH  59  84
ATOM     84  C   UNL A   1      44.941  34.532  30.804  1.00  0.00     0.058 A 
ATOM     85  C   UNL A   1      45.380  34.746  32.119  1.00  0.00     0.135 A 
ATOM     86  C   UNL A   1      45.132  35.565  29.871  1.00  0.00     0.135 A 
ATOM     87  F   UNL A   1      45.216  33.792  33.050  1.00  0.00    -0.206 F 
ATOM     88  C   UNL A   1      45.965  35.947  32.502  1.00  0.00     0.059 A 
ATOM     89  C   UNL A   1      45.744  36.762  30.223  1.00  0.00     0.059 A 
ATOM     90  F   UNL A   1      44.742  35.406  28.595  1.00  0.00    -0.206 F 
ATOM     91  C   UNL A   1      46.146  36.949  31.545  1.00  0.00     0.060 A 
BRANCH  91  92
ATOM     92  S   UNL A   1      46.938  38.490  32.047  1.00  0.00     0.124 S 
ATOM     93  O   UNL A   1      48.331  38.074  32.178  1.00  0.00    -0.237 OA
ATOM     94  O   UNL A   1      46.643  39.372  30.922  1.00  0.00    -0.237 OA
ATOM     95  O   UNL A   1      46.264  38.829  33.297  1.00  0.00    -0.744 OA
ENDBRANCH  91  92
ENDBRANCH  59  84
ENDBRANCH  33  34
ENDBRANCH  25  28
ENDBRANCH  23  24
ENDBRANCH  22  23
ENDBRANCH   1  22
TORSDOF 20
ENDMDL
MODEL 2
REMARK VINA RESULT:      -9.9      1.176      2.274
REMARK SMILES C=CC[N@@H+](CC(=O)NCCCCNC(=O)c1ccc(-c2c3nc(c(-c4c(F)cc(S(=O)(=O)[O-])cc4F)c4ccc([nH]4)c(-c4c(F)cc(S(=O)(=O)[O-])cc4F)c4nc(c(-c5c(F)cc(S(=O)(=O)[O-])cc5F)c5ccc2[nH]5)C=C4)C=C3)cc1)Cc1ccc([N+](=O)[O-])o1
REMARK SMILES IDX 10 1 9 2 8 3 6 4 7 5 5 7 4 8 3 10 2 11 1 12 82 13 83 14
REMARK SMILES IDX 84 15 90 16 85 17 86 18 87 19 88 20 89 21 11 22 12 23 13 24
REMARK SMILES IDX 14 25 15 27 16 28 17 29 81 30 18 31 80 32 19 33 20 34 21 35
REMARK SMILES IDX 74 36 22 37 79 38 73 39 75 40 23 41 78 42 72 43 71 44 24 46
REMARK SMILES IDX 58 47 37 48 57 49 38 50 41 51 56 52 76 53 39 54 40 55 55 57
REMARK SMILES IDX 77 58 42 59 25 60 26 61 35 62 27 63 28 64 34 65 36 66 29 67
REMARK SMILES IDX 30 68 31 69 32 70 33 71 59 72 60 73 69 74 61 75 62 76 68 77
REMARK SMILES IDX 70 78 63 79 64 80 65 81 66 82 67 83 43 84 44 85 53 86 45 87
REMARK SMILES IDX 46 88 52 89 54 90 47 91 48 92 49 93 50 94 51 95
REMARK H PARENT 8 6 4 9 13 26 75 45 41 56
REMARK Flexibility Score: inf
ROOT
ATOM      1  C   UNL A   1      34.578  25.069  25.102  1.00  0.00     0.023 C 
ENDROOT
BRANCH   1   2
ATOM      2  C   UNL A   1      33.103  24.638  25.077  1.00  0.00     0.116 C 
BRANCH   2   3
ATOM      3  N   UNL A   1      32.246  25.362  26.000  1.00  0.00    -0.351 N 
ATOM      4  C   UNL A   1      31.616  26.570  25.909  1.00  0.00     0.275 C 
ATOM      5  O   UNL A   1      30.781  26.824  26.785  1.00  0.00    -0.269 OA
ATOM      6  H   UNL A   1      32.090  24.893  26.851  1.00  0.00     0.163 HD
BRANCH   4   7
ATOM      7  C   UNL A   1      31.882  27.575  24.777  1.00  0.00     0.364 C 
BRANCH   7   8
ATOM      8  N   UNL A   1      30.898  27.615  23.664  1.00  0.00    -0.318 N 
ATOM      9  H   UNL A   1      29.976  27.619  24.101  1.00  0.00     0.349 HD
BRANCH   8  10
ATOM     10  C   UNL A   1      30.938  26.408  22.870  1.00  0.00     0.291 C 
BRANCH  10  11
ATOM     11  C   UNL A   1      31.844  26.349  21.682  1.00  0.00     0.025 C 
ATOM     12  C   UNL A   1      32.736  25.364  21.490  1.00  0.00     0.010 C 
ENDBRANCH  10  11
ENDBRANCH   8  10
BRANCH   8  13
ATOM     13  C   UNL A   1      30.839  28.883  22.913  1.00  0.00     0.339 C 
BRANCH  13  14
ATOM     14  C   UNL A   1      29.537  29.622  22.820  1.00  0.00     0.165 A 
ATOM     15  C   UNL A   1      28.197  29.306  22.968  1.00  0.00     0.059 A 
ATOM     16  O   UNL A   1      29.652  30.960  22.530  1.00  0.00    -0.400 OA
ATOM     17  C   UNL A   1      27.449  30.468  22.646  1.00  0.00     0.134 A 
ATOM     18  C   UNL A   1      28.387  31.443  22.420  1.00  0.00     0.433 A 
BRANCH  18  19
ATOM     19  N   UNL A   1      28.258  32.829  22.103  1.00  0.00     0.102 N 
ATOM     20  O   UNL A   1      28.733  33.626  22.923  1.00  0.00    -0.256 OA
ATOM     21  O   UNL A   1      27.718  33.129  21.029  1.00  0.00    -0.256 OA
ENDBRANCH  18  19
ENDBRANCH  13  14
ENDBRANCH   8  13
ENDBRANCH   7   8
ENDBRANCH   4   7
ENDBRANCH   2   3
ENDBRANCH   1   2
BRANCH   1  22
ATOM     22  C   UNL A   1      35.601  23.949  24.992  1.00  0.00     0.023 C 
BRANCH  22  23
ATOM     23  C   UNL A   1      36.174  23.544  26.329  1.00  0.00     0.116 C 
BRANCH  23  24
ATOM     24  N   UNL A   1      37.239  22.559  26.181  1.00  0.00    -0.352 N 
ATOM     25  C   UNL A   1      38.600  22.740  26.211  1.00  0.00     0.251 C 
ATOM     26  H   UNL A   1      36.940  21.632  26.039  1.00  0.00     0.163 HD
ATOM     27  O   UNL A   1      39.349  21.851  25.831  1.00  0.00    -0.269 OA
BRANCH  25  28
ATOM     28  C   UNL A   1      39.127  24.027  26.696  1.00  0.00     0.039 A 
ATOM     29  C   UNL A   1      39.101  24.312  28.061  1.00  0.00     0.014 A 
ATOM     30  C   UNL A   1      39.683  24.931  25.788  1.00  0.00     0.014 A 
ATOM     31  C   UNL A   1      39.688  25.489  28.519  1.00  0.00     0.010 A 
ATOM     32  C   UNL A   1      40.380  26.029  26.257  1.00  0.00     0.010 A 
ATOM     33  C   UNL A   1      40.362  26.336  27.623  1.00  0.00    -0.014 A 
BRANCH  33  34
ATOM     34  C   UNL A   1      41.016  27.582  28.077  1.00  0.00     0.031 A 
ATOM     35  C   UNL A   1      42.513  27.706  27.975  1.00  0.00     0.074 A 
ATOM     36  C   UNL A   1      40.275  28.553  28.643  1.00  0.00     0.049 A 
ATOM     37  N   UNL A   1      43.289  28.673  28.387  1.00  0.00    -0.248 NA
ATOM     38  C   UNL A   1      43.239  26.576  27.368  1.00  0.00     0.031 C 
ATOM     39  C   UNL A   1      38.826  28.501  28.853  1.00  0.00     0.029 A 
ATOM     40  N   UNL A   1      40.640  29.772  29.154  1.00  0.00    -0.354 N 
ATOM     41  C   UNL A   1      44.587  28.257  28.109  1.00  0.00     0.074 A 
ATOM     42  C   UNL A   1      44.502  26.925  27.562  1.00  0.00     0.031 C 
ATOM     43  C   UNL A   1      38.422  29.650  29.419  1.00  0.00     0.029 A 
ATOM     44  C   UNL A   1      39.585  30.500  29.650  1.00  0.00     0.049 A 
ATOM     45  H   UNL A   1      41.570  30.095  29.164  1.00  0.00     0.167 HD
ATOM     46  C   UNL A   1      45.742  28.943  28.266  1.00  0.00     0.037 A 
ATOM     47  C   UNL A   1      39.564  31.713  30.232  1.00  0.00     0.037 A 
ATOM     48  C   UNL A   1      45.803  30.286  28.773  1.00  0.00     0.049 A 
ATOM     49  C   UNL A   1      40.861  32.465  30.377  1.00  0.00     0.074 A 
ATOM     50  C   UNL A   1      46.909  31.106  28.906  1.00  0.00     0.029 A 
ATOM     51  N   UNL A   1      44.710  31.007  29.234  1.00  0.00    -0.354 N 
ATOM     52  N   UNL A   1      42.073  32.091  30.034  1.00  0.00    -0.248 NA
ATOM     53  C   UNL A   1      40.790  33.803  30.976  1.00  0.00     0.031 C 
ATOM     54  C   UNL A   1      46.492  32.303  29.495  1.00  0.00     0.029 A 
ATOM     55  C   UNL A   1      45.117  32.254  29.673  1.00  0.00     0.049 A 
ATOM     56  H   UNL A   1      43.781  30.680  29.244  1.00  0.00     0.167 HD
ATOM     57  C   UNL A   1      42.903  33.159  30.351  1.00  0.00     0.074 A 
ATOM     58  C   UNL A   1      42.053  34.198  30.898  1.00  0.00     0.031 C 
ATOM     59  C   UNL A   1      44.247  33.273  30.205  1.00  0.00     0.037 A 
BRANCH  46  60
ATOM     60  C   UNL A   1      47.023  28.258  27.875  1.00  0.00     0.058 A 
ATOM     61  C   UNL A   1      47.725  27.434  28.769  1.00  0.00     0.135 A 
ATOM     62  C   UNL A   1      47.541  28.404  26.578  1.00  0.00     0.135 A 
ATOM     63  F   UNL A   1      47.290  27.274  30.029  1.00  0.00    -0.206 F 
ATOM     64  C   UNL A   1      48.908  26.801  28.402  1.00  0.00     0.059 A 
ATOM     65  C   UNL A   1      48.705  27.753  26.178  1.00  0.00     0.059 A 
ATOM     66  F   UNL A   1      46.916  29.186  25.684  1.00  0.00    -0.206 F 
ATOM     67  C   UNL A   1      49.388  26.964  27.102  1.00  0.00     0.060 A 
BRANCH  67  68
ATOM     68  S   UNL A   1      50.913  26.119  26.636  1.00  0.00     0.124 S 
ATOM     69  O   UNL A   1      51.923  27.030  27.166  1.00  0.00    -0.237 OA
ATOM     70  O   UNL A   1      50.784  24.842  27.330  1.00  0.00    -0.237 OA
ATOM     71  O   UNL A   1      50.835  26.050  25.180  1.00  0.00    -0.744 OA
ENDBRANCH  67  68
ENDBRANCH  46  60
BRANCH  47  72
ATOM     72  C   UNL A   1      38.277  32.298  30.694  1.00  0.00     0.058 A 
ATOM     73  C   UNL A   1      37.874  32.194  32.033  1.00  0.00     0.135 A 
ATOM     74  C   UNL A   1      37.433  32.988  29.810  1.00  0.00     0.135 A 
ATOM     75  F   UNL A   1      38.645  31.545  32.918  1.00  0.00    -0.206 F 
ATOM     76  C   UNL A   1      36.670  32.733  32.476  1.00  0.00     0.059 A 
ATOM     77  C   UNL A   1      36.237  33.560  30.235  1.00  0.00     0.059 A 
ATOM     78  F   UNL A   1      37.783  33.137  28.522  1.00  0.00    -0.206 F 
ATOM     79  C   UNL A   1      35.859  33.417  31.568  1.00  0.00     0.060 A 
BRANCH  79  80
ATOM     80  S   UNL A   1      34.320  34.149  32.165  1.00  0.00     0.124 S 
ATOM     81  O   UNL A   1      34.816  35.175  33.075  1.00  0.00    -0.237 OA
ATOM     82  O   UNL A   1      33.711  34.629  30.929  1.00  0.00    -0.237 OA
ATOM     83  O   UNL A   1      33.636  33.022  32.795  1.00  0.00    -0.744 OA
ENDBRANCH  79  80
ENDBRANCH  47  72
BRANCH  59  84
ATOM     84  C   UNL A   1      44.876  34.578  30.606  1.00  0.00     0.058 A 
ATOM     85  C   UNL A   1      44.967  35.659  29.716  1.00  0.00     0.135 A 
ATOM     86  C   UNL A   1      45.338  34.766  31.919  1.00  0.00     0.135 A 
ATOM     87  F   UNL A   1      44.544  35.528  28.448  1.00  0.00    -0.206 F 
ATOM     88  C   UNL A   1      45.518  36.874  30.106  1.00  0.00     0.059 A 
ATOM     89  C   UNL A   1      45.863  35.983  32.340  1.00  0.00     0.059 A 
ATOM     90  F   UNL A   1      45.262  33.767  32.814  1.00  0.00    -0.206 F 
ATOM     91  C   UNL A   1      45.961  37.028  31.422  1.00  0.00     0.060 A 
BRANCH  91  92
ATOM     92  S   UNL A   1      46.641  38.620  31.924  1.00  0.00     0.124 S 
ATOM     93  O   UNL A   1      45.858  38.909  33.122  1.00  0.00    -0.237 OA
ATOM     94  O   UNL A   1      48.047  38.302  32.148  1.00  0.00    -0.237 OA
ATOM     95  O   UNL A   1      46.374  39.483  30.777  1.00  0.00    -0.744 OA
ENDBRANCH  91  92
ENDBRANCH  59  84
ENDBRANCH  33  34
ENDBRANCH  25  28
ENDBRANCH  23  24
ENDBRANCH  22  23
ENDBRANCH   1  22
TORSDOF 20
ENDMDL
MODEL 3
REMARK VINA RESULT:      -9.9      2.826      3.620
REMARK SMILES C=CC[N@@H+](CC(=O)NCCCCNC(=O)c1ccc(-c2c3nc(c(-c4c(F)cc(S(=O)(=O)[O-])cc4F)c4ccc([nH]4)c(-c4c(F)cc(S(=O)(=O)[O-])cc4F)c4nc(c(-c5c(F)cc(S(=O)(=O)[O-])cc5F)c5ccc2[nH]5)C=C4)C=C3)cc1)Cc1ccc([N+](=O)[O-])o1
REMARK SMILES IDX 10 1 9 2 8 3 6 4 7 5 5 7 4 8 3 10 2 11 1 12 82 13 83 14
REMARK SMILES IDX 84 15 90 16 85 17 86 18 87 19 88 20 89 21 11 22 12 23 13 24
REMARK SMILES IDX 14 25 15 27 16 28 17 29 81 30 18 31 80 32 19 33 20 34 21 35
REMARK SMILES IDX 74 36 22 37 79 38 73 39 75 40 23 41 78 42 72 43 71 44 24 46
REMARK SMILES IDX 58 47 37 48 57 49 38 50 41 51 56 52 76 53 39 54 40 55 55 57
REMARK SMILES IDX 77 58 42 59 25 60 26 61 35 62 27 63 28 64 34 65 36 66 29 67
REMARK SMILES IDX 30 68 31 69 32 70 33 71 59 72 60 73 69 74 61 75 62 76 68 77
REMARK SMILES IDX 70 78 63 79 64 80 65 81 66 82 67 83 43 84 44 85 53 86 45 87
REMARK SMILES IDX 46 88 52 89 54 90 47 91 48 92 49 93 50 94 51 95
REMARK H PARENT 8 6 4 9 13 26 75 45 41 56
REMARK Flexibility Score: inf
ROOT
ATOM      1  C   UNL A   1      35.137  23.657  23.778  1.00  0.00     0.023 C 
ENDROOT
BRANCH   1   2
ATOM      2  C   UNL A   1      33.716  24.191  23.530  1.00  0.00     0.116 C 
BRANCH   2   3
ATOM      3  N   UNL A   1      33.652  25.356  22.665  1.00  0.00    -0.351 N 
ATOM      4  C   UNL A   1      33.502  26.687  22.930  1.00  0.00     0.275 C 
ATOM      5  O   UNL A   1      33.695  27.463  21.987  1.00  0.00    -0.269 OA
ATOM      6  H   UNL A   1      33.733  25.146  21.707  1.00  0.00     0.163 HD
BRANCH   4   7
ATOM      7  C   UNL A   1      33.141  27.232  24.321  1.00  0.00     0.364 C 
BRANCH   7   8
ATOM      8  N   UNL A   1      32.422  28.532  24.372  1.00  0.00    -0.318 N 
ATOM      9  H   UNL A   1      32.633  29.006  23.493  1.00  0.00     0.349 HD
BRANCH   8  10
ATOM     10  C   UNL A   1      32.950  29.395  25.405  1.00  0.00     0.291 C 
BRANCH  10  11
ATOM     11  C   UNL A   1      32.209  29.515  26.699  1.00  0.00     0.025 C 
ATOM     12  C   UNL A   1      31.955  28.466  27.497  1.00  0.00     0.010 C 
ENDBRANCH  10  11
ENDBRANCH   8  10
BRANCH   8  13
ATOM     13  C   UNL A   1      30.953  28.450  24.283  1.00  0.00     0.339 C 
BRANCH  13  14
ATOM     14  C   UNL A   1      30.230  29.298  23.279  1.00  0.00     0.165 A 
ATOM     15  C   UNL A   1      30.176  29.384  21.898  1.00  0.00     0.059 A 
ATOM     16  O   UNL A   1      29.382  30.235  23.818  1.00  0.00    -0.400 OA
ATOM     17  C   UNL A   1      29.349  30.490  21.572  1.00  0.00     0.134 A 
ATOM     18  C   UNL A   1      28.875  30.945  22.776  1.00  0.00     0.433 A 
BRANCH  18  19
ATOM     19  N   UNL A   1      27.968  31.998  23.103  1.00  0.00     0.102 N 
ATOM     20  O   UNL A   1      27.006  31.691  23.820  1.00  0.00    -0.256 OA
ATOM     21  O   UNL A   1      28.223  33.133  22.678  1.00  0.00    -0.256 OA
ENDBRANCH  18  19
ENDBRANCH  13  14
ENDBRANCH   8  13
ENDBRANCH   7   8
ENDBRANCH   4   7
ENDBRANCH   2   3
ENDBRANCH   1   2
BRANCH   1  22
ATOM     22  C   UNL A   1      35.507  23.401  25.231  1.00  0.00     0.023 C 
BRANCH  22  23
ATOM     23  C   UNL A   1      36.793  24.079  25.638  1.00  0.00     0.116 C 
BRANCH  23  24
ATOM     24  N   UNL A   1      37.887  23.124  25.769  1.00  0.00    -0.352 N 
ATOM     25  C   UNL A   1      39.152  23.315  26.268  1.00  0.00     0.251 C 
ATOM     26  H   UNL A   1      37.691  22.212  25.455  1.00  0.00     0.163 HD
ATOM     27  O   UNL A   1      40.020  22.473  26.084  1.00  0.00    -0.269 OA
BRANCH  25  28
ATOM     28  C   UNL A   1      39.434  24.554  27.012  1.00  0.00     0.039 A 
ATOM     29  C   UNL A   1      38.967  24.695  28.318  1.00  0.00     0.014 A 
ATOM     30  C   UNL A   1      40.201  25.558  26.415  1.00  0.00     0.014 A 
ATOM     31  C   UNL A   1      39.321  25.829  29.045  1.00  0.00     0.010 A 
ATOM     32  C   UNL A   1      40.659  26.614  27.180  1.00  0.00     0.010 A 
ATOM     33  C   UNL A   1      40.197  26.777  28.492  1.00  0.00    -0.014 A 
BRANCH  33  34
ATOM     34  C   UNL A   1      40.613  27.981  29.244  1.00  0.00     0.031 A 
ATOM     35  C   UNL A   1      41.957  27.999  29.921  1.00  0.00     0.074 A 
ATOM     36  C   UNL A   1      39.756  29.011  29.373  1.00  0.00     0.049 A 
ATOM     37  N   UNL A   1      42.479  28.915  30.691  1.00  0.00    -0.248 NA
ATOM     38  C   UNL A   1      42.812  26.811  29.744  1.00  0.00     0.031 C 
ATOM     39  C   UNL A   1      38.402  29.064  28.815  1.00  0.00     0.029 A 
ATOM     40  N   UNL A   1      39.892  30.209  30.025  1.00  0.00    -0.354 N 
ATOM     41  C   UNL A   1      43.705  28.405  31.104  1.00  0.00     0.074 A 
ATOM     42  C   UNL A   1      43.819  27.073  30.561  1.00  0.00     0.031 C 
ATOM     43  C   UNL A   1      37.846  30.247  29.121  1.00  0.00     0.029 A 
ATOM     44  C   UNL A   1      38.783  31.017  29.931  1.00  0.00     0.049 A 
ATOM     45  H   UNL A   1      40.706  30.467  30.515  1.00  0.00     0.167 HD
ATOM     46  C   UNL A   1      44.663  29.010  31.843  1.00  0.00     0.037 A 
ATOM     47  C   UNL A   1      38.552  32.238  30.448  1.00  0.00     0.037 A 
ATOM     48  C   UNL A   1      44.548  30.354  32.340  1.00  0.00     0.049 A 
ATOM     49  C   UNL A   1      39.642  32.899  31.249  1.00  0.00     0.074 A 
ATOM     50  C   UNL A   1      45.485  31.097  33.036  1.00  0.00     0.029 A 
ATOM     51  N   UNL A   1      43.426  31.157  32.195  1.00  0.00    -0.354 N 
ATOM     52  N   UNL A   1      40.830  32.436  31.564  1.00  0.00    -0.248 NA
ATOM     53  C   UNL A   1      39.367  34.248  31.758  1.00  0.00     0.031 C 
ATOM     54  C   UNL A   1      44.909  32.329  33.356  1.00  0.00     0.029 A 
ATOM     55  C   UNL A   1      43.636  32.379  32.808  1.00  0.00     0.049 A 
ATOM     56  H   UNL A   1      42.601  30.896  31.724  1.00  0.00     0.167 HD
ATOM     57  C   UNL A   1      41.454  33.448  32.283  1.00  0.00     0.074 A 
ATOM     58  C   UNL A   1      40.518  34.553  32.342  1.00  0.00     0.031 C 
ATOM     59  C   UNL A   1      42.689  33.465  32.844  1.00  0.00     0.037 A 
BRANCH  46  60
ATOM     60  C   UNL A   1      45.913  28.231  32.145  1.00  0.00     0.058 A 
ATOM     61  C   UNL A   1      46.047  27.468  33.316  1.00  0.00     0.135 A 
ATOM     62  C   UNL A   1      46.983  28.222  31.235  1.00  0.00     0.135 A 
ATOM     63  F   UNL A   1      45.066  27.455  34.233  1.00  0.00    -0.206 F 
ATOM     64  C   UNL A   1      47.205  26.747  33.588  1.00  0.00     0.059 A 
ATOM     65  C   UNL A   1      48.139  27.482  31.471  1.00  0.00     0.059 A 
ATOM     66  F   UNL A   1      46.914  28.939  30.103  1.00  0.00    -0.206 F 
ATOM     67  C   UNL A   1      48.244  26.757  32.657  1.00  0.00     0.060 A 
BRANCH  67  68
ATOM     68  S   UNL A   1      49.731  25.801  33.019  1.00  0.00     0.124 S 
ATOM     69  O   UNL A   1      49.216  24.436  32.977  1.00  0.00    -0.237 OA
ATOM     70  O   UNL A   1      50.616  26.178  31.922  1.00  0.00    -0.237 OA
ATOM     71  O   UNL A   1      50.132  26.279  34.338  1.00  0.00    -0.744 OA
ENDBRANCH  67  68
ENDBRANCH  46  60
BRANCH  47  72
ATOM     72  C   UNL A   1      37.253  32.919  30.201  1.00  0.00     0.058 A 
ATOM     73  C   UNL A   1      37.067  33.739  29.079  1.00  0.00     0.135 A 
ATOM     74  C   UNL A   1      36.165  32.748  31.072  1.00  0.00     0.135 A 
ATOM     75  F   UNL A   1      38.075  33.933  28.215  1.00  0.00    -0.206 F 
ATOM     76  C   UNL A   1      35.858  34.384  28.839  1.00  0.00     0.059 A 
ATOM     77  C   UNL A   1      34.937  33.361  30.839  1.00  0.00     0.059 A 
ATOM     78  F   UNL A   1      36.283  31.956  32.149  1.00  0.00    -0.206 F 
ATOM     79  C   UNL A   1      34.797  34.186  29.725  1.00  0.00     0.060 A 
BRANCH  79  80
ATOM     80  S   UNL A   1      33.220  34.995  29.380  1.00  0.00     0.124 S 
ATOM     81  O   UNL A   1      32.594  34.992  30.697  1.00  0.00    -0.237 OA
ATOM     82  O   UNL A   1      33.648  36.297  28.878  1.00  0.00    -0.237 OA
ATOM     83  O   UNL A   1      32.605  34.120  28.385  1.00  0.00    -0.744 OA
ENDBRANCH  79  80
ENDBRANCH  47  72
BRANCH  59  84
ATOM     84  C   UNL A   1      43.113  34.729  33.538  1.00  0.00     0.058 A 
ATOM     85  C   UNL A   1      42.868  34.941  34.903  1.00  0.00     0.135 A 
ATOM     86  C   UNL A   1      43.831  35.713  32.838  1.00  0.00     0.135 A 
ATOM     87  F   UNL A   1      42.182  34.033  35.616  1.00  0.00    -0.206 F 
ATOM     88  C   UNL A   1      43.296  36.098  35.545  1.00  0.00     0.059 A 
ATOM     89  C   UNL A   1      44.298  36.861  33.467  1.00  0.00     0.059 A 
ATOM     90  F   UNL A   1      44.104  35.551  31.533  1.00  0.00    -0.206 F 
ATOM     91  C   UNL A   1      44.013  37.051  34.819  1.00  0.00     0.060 A 
BRANCH  91  92
ATOM     92  S   UNL A   1      44.594  38.530  35.672  1.00  0.00     0.124 S 
ATOM     93  O   UNL A   1      43.955  39.587  34.895  1.00  0.00    -0.237 OA
ATOM     94  O   UNL A   1      44.076  38.334  37.023  1.00  0.00    -0.237 OA
ATOM     95  O   UNL A   1      46.046  38.449  35.546  1.00  0.00    -0.744 OA
ENDBRANCH  91  92
ENDBRANCH  59  84
ENDBRANCH  33  34
ENDBRANCH  25  28
ENDBRANCH  23  24
ENDBRANCH  22  23
ENDBRANCH   1  22
TORSDOF 20
ENDMDL
