MODEL 1
REMARK VINA RESULT:     -11.7      0.000      0.000
REMARK SMILES COc1ccc(F)c(Nc2ccc(C(=O)NCCCCNC(=O)c3ccc(-c4c5nc(c(-c6c(F)cc(S(=O)(=O)[O-])cc6F)c6ccc([nH]6)c(-c6c(F)cc(S(=O)(=O)[O-])cc6F)c6nc(c(-c7c(F)cc(S(=O)(=O)[O-])cc7F)c7ccc4[nH]7)C=C6)C=C5)cc3)cc2)c1
REMARK SMILES IDX 18 1 17 2 16 3 14 4 15 5 13 7 10 8 11 9 91 10 12 11 90 12
REMARK SMILES IDX 9 13 8 15 3 16 4 17 92 18 5 19 6 20 7 21 2 22 1 23 19 24
REMARK SMILES IDX 20 25 21 26 22 27 23 29 24 30 25 31 89 32 26 33 88 34 27 35
REMARK SMILES IDX 28 36 29 37 82 38 30 39 87 40 81 41 83 42 31 43 86 44 80 45
REMARK SMILES IDX 79 46 32 48 66 49 45 50 65 51 46 52 49 53 64 54 84 55 47 56
REMARK SMILES IDX 48 57 63 59 85 60 50 61 33 62 34 63 43 64 35 65 36 66 42 67
REMARK SMILES IDX 44 68 37 69 38 70 39 71 40 72 41 73 67 74 68 75 77 76 69 77
REMARK SMILES IDX 70 78 76 79 78 80 71 81 72 82 73 83 74 84 75 85 51 86 52 87
REMARK SMILES IDX 61 88 53 89 54 90 60 91 62 92 55 93 56 94 57 95 58 96 59 97
REMARK H PARENT 16 6 9 14 21 28 83 47 49 58
REMARK Flexibility Score: inf
ROOT
ATOM      1  C   UNL A   1      32.936  29.508  24.997  1.00  0.00     0.023 C 
ENDROOT
BRANCH   1   2
ATOM      2  C   UNL A   1      31.409  29.435  25.055  1.00  0.00     0.116 C 
BRANCH   2   3
ATOM      3  N   UNL A   1      30.834  29.658  23.741  1.00  0.00    -0.352 N 
ATOM      4  C   UNL A   1      30.745  28.859  22.630  1.00  0.00     0.251 C 
ATOM      5  O   UNL A   1      30.156  29.305  21.645  1.00  0.00    -0.269 OA
ATOM      6  H   UNL A   1      30.435  30.550  23.626  1.00  0.00     0.163 HD
BRANCH   4   7
ATOM      7  C   UNL A   1      31.268  27.464  22.582  1.00  0.00     0.039 A 
ATOM      8  C   UNL A   1      32.362  24.880  22.286  1.00  0.00     0.038 A 
ATOM      9  C   UNL A   1      33.110  26.003  21.936  1.00  0.00     0.027 A 
ATOM     10  C   UNL A   1      31.096  25.061  22.849  1.00  0.00     0.027 A 
ATOM     11  C   UNL A   1      32.562  27.284  22.069  1.00  0.00     0.016 A 
ATOM     12  C   UNL A   1      30.570  26.343  23.030  1.00  0.00     0.016 A 
BRANCH   8  13
ATOM     13  N   UNL A   1      32.843  23.594  22.019  1.00  0.00    -0.353 N 
ATOM     14  H   UNL A   1      32.971  23.365  21.070  1.00  0.00     0.167 HD
BRANCH  13  15
ATOM     15  C   UNL A   1      33.167  22.585  22.948  1.00  0.00     0.078 A 
ATOM     16  C   UNL A   1      34.617  21.652  24.681  1.00  0.00     0.121 A 
ATOM     17  C   UNL A   1      33.825  20.505  24.739  1.00  0.00     0.049 A 
ATOM     18  C   UNL A   1      34.285  22.677  23.788  1.00  0.00     0.075 A 
ATOM     19  C   UNL A   1      32.713  20.388  23.901  1.00  0.00     0.045 A 
ATOM     20  C   UNL A   1      32.396  21.419  23.019  1.00  0.00     0.146 A 
ATOM     21  F   UNL A   1      31.323  21.283  22.225  1.00  0.00    -0.205 F 
BRANCH  16  22
ATOM     22  O   UNL A   1      35.706  21.906  25.467  1.00  0.00    -0.497 OA
ATOM     23  C   UNL A   1      36.870  21.135  25.201  1.00  0.00     0.278 C 
ENDBRANCH  16  22
ENDBRANCH  13  15
ENDBRANCH   8  13
ENDBRANCH   4   7
ENDBRANCH   2   3
ENDBRANCH   1   2
BRANCH   1  24
ATOM     24  C   UNL A   1      33.647  28.305  25.626  1.00  0.00     0.023 C 
BRANCH  24  25
ATOM     25  C   UNL A   1      33.884  28.409  27.130  1.00  0.00     0.116 C 
BRANCH  25  26
ATOM     26  N   UNL A   1      33.752  29.767  27.636  1.00  0.00    -0.352 N 
ATOM     27  C   UNL A   1      34.690  30.533  28.289  1.00  0.00     0.251 C 
ATOM     28  H   UNL A   1      32.876  30.192  27.494  1.00  0.00     0.163 HD
ATOM     29  O   UNL A   1      34.379  31.625  28.747  1.00  0.00    -0.269 OA
BRANCH  27  30
ATOM     30  C   UNL A   1      36.060  30.008  28.467  1.00  0.00     0.039 A 
ATOM     31  C   UNL A   1      36.953  30.088  27.396  1.00  0.00     0.014 A 
ATOM     32  C   UNL A   1      36.469  29.466  29.689  1.00  0.00     0.014 A 
ATOM     33  C   UNL A   1      38.279  29.687  27.571  1.00  0.00     0.010 A 
ATOM     34  C   UNL A   1      37.804  29.122  29.879  1.00  0.00     0.010 A 
ATOM     35  C   UNL A   1      38.724  29.236  28.825  1.00  0.00    -0.014 A 
BRANCH  35  36
ATOM     36  C   UNL A   1      40.151  28.898  29.058  1.00  0.00     0.031 A 
ATOM     37  C   UNL A   1      41.097  29.940  29.587  1.00  0.00     0.074 A 
ATOM     38  C   UNL A   1      40.605  27.671  28.729  1.00  0.00     0.049 A 
ATOM     39  N   UNL A   1      42.389  29.860  29.771  1.00  0.00    -0.248 NA
ATOM     40  C   UNL A   1      40.523  31.251  29.935  1.00  0.00     0.031 C 
ATOM     41  C   UNL A   1      39.793  26.593  28.158  1.00  0.00     0.029 A 
ATOM     42  N   UNL A   1      41.863  27.128  28.811  1.00  0.00    -0.354 N 
ATOM     43  C   UNL A   1      42.785  31.106  30.239  1.00  0.00     0.074 A 
ATOM     44  C   UNL A   1      41.604  31.940  30.275  1.00  0.00     0.031 C 
ATOM     45  C   UNL A   1      40.570  25.516  27.954  1.00  0.00     0.029 A 
ATOM     46  C   UNL A   1      41.939  25.835  28.346  1.00  0.00     0.049 A 
ATOM     47  H   UNL A   1      42.639  27.617  29.170  1.00  0.00     0.167 HD
ATOM     48  C   UNL A   1      44.018  31.510  30.621  1.00  0.00     0.037 A 
ATOM     49  C   UNL A   1      42.994  25.004  28.236  1.00  0.00     0.037 A 
ATOM     50  C   UNL A   1      45.180  30.662  30.627  1.00  0.00     0.049 A 
ATOM     51  C   UNL A   1      44.350  25.474  28.690  1.00  0.00     0.074 A 
ATOM     52  C   UNL A   1      46.458  30.963  31.068  1.00  0.00     0.029 A 
ATOM     53  N   UNL A   1      45.209  29.349  30.183  1.00  0.00    -0.354 N 
ATOM     54  N   UNL A   1      44.692  26.639  29.185  1.00  0.00    -0.248 NA
ATOM     55  C   UNL A   1      45.461  24.519  28.577  1.00  0.00     0.031 C 
ATOM     56  C   UNL A   1      47.268  29.844  30.858  1.00  0.00     0.029 A 
ATOM     57  C   UNL A   1      46.485  28.832  30.325  1.00  0.00     0.049 A 
ATOM     58  H   UNL A   1      44.437  28.858  29.821  1.00  0.00     0.167 HD
ATOM     59  C   UNL A   1      46.052  26.550  29.460  1.00  0.00     0.074 A 
ATOM     60  C   UNL A   1      46.468  25.214  29.091  1.00  0.00     0.031 C 
ATOM     61  C   UNL A   1      46.881  27.494  29.968  1.00  0.00     0.037 A 
BRANCH  48  62
ATOM     62  C   UNL A   1      44.188  32.921  31.105  1.00  0.00     0.058 A 
ATOM     63  C   UNL A   1      44.015  33.235  32.463  1.00  0.00     0.135 A 
ATOM     64  C   UNL A   1      44.403  33.979  30.208  1.00  0.00     0.135 A 
ATOM     65  F   UNL A   1      43.818  32.259  33.363  1.00  0.00    -0.206 F 
ATOM     66  C   UNL A   1      44.015  34.552  32.908  1.00  0.00     0.059 A 
ATOM     67  C   UNL A   1      44.426  35.302  30.634  1.00  0.00     0.059 A 
ATOM     68  F   UNL A   1      44.596  33.728  28.903  1.00  0.00    -0.206 F 
ATOM     69  C   UNL A   1      44.208  35.581  31.984  1.00  0.00     0.060 A 
BRANCH  69  70
ATOM     70  S   UNL A   1      44.176  37.286  32.573  1.00  0.00     0.124 S 
ATOM     71  O   UNL A   1      43.930  38.026  31.340  1.00  0.00    -0.237 OA
ATOM     72  O   UNL A   1      43.075  37.259  33.531  1.00  0.00    -0.237 OA
ATOM     73  O   UNL A   1      45.501  37.466  33.160  1.00  0.00    -0.744 OA
ENDBRANCH  69  70
ENDBRANCH  48  62
BRANCH  49  74
ATOM     74  C   UNL A   1      42.812  23.637  27.678  1.00  0.00     0.058 A 
ATOM     75  C   UNL A   1      42.999  23.379  26.312  1.00  0.00     0.135 A 
ATOM     76  C   UNL A   1      42.447  22.563  28.503  1.00  0.00     0.135 A 
ATOM     77  F   UNL A   1      43.337  24.374  25.478  1.00  0.00    -0.206 F 
ATOM     78  C   UNL A   1      42.823  22.106  25.781  1.00  0.00     0.059 A 
ATOM     79  C   UNL A   1      42.288  21.275  28.000  1.00  0.00     0.059 A 
ATOM     80  F   UNL A   1      42.267  22.760  29.818  1.00  0.00    -0.206 F 
ATOM     81  C   UNL A   1      42.467  21.060  26.633  1.00  0.00     0.060 A 
BRANCH  81  82
ATOM     82  S   UNL A   1      42.268  19.408  25.932  1.00  0.00     0.124 S 
ATOM     83  O   UNL A   1      42.828  18.574  26.990  1.00  0.00    -0.237 OA
ATOM     84  O   UNL A   1      40.822  19.321  25.752  1.00  0.00    -0.237 OA
ATOM     85  O   UNL A   1      43.048  19.470  24.700  1.00  0.00    -0.744 OA
ENDBRANCH  81  82
ENDBRANCH  49  74
BRANCH  61  86
ATOM     86  C   UNL A   1      48.319  27.120  30.182  1.00  0.00     0.058 A 
ATOM     87  C   UNL A   1      48.728  26.531  31.389  1.00  0.00     0.135 A 
ATOM     88  C   UNL A   1      49.305  27.427  29.233  1.00  0.00     0.135 A 
ATOM     89  F   UNL A   1      47.824  26.220  32.331  1.00  0.00    -0.206 F 
ATOM     90  C   UNL A   1      50.068  26.279  31.656  1.00  0.00     0.059 A 
ATOM     91  C   UNL A   1      50.650  27.163  29.469  1.00  0.00     0.059 A 
ATOM     92  F   UNL A   1      48.961  27.982  28.059  1.00  0.00    -0.206 F 
ATOM     93  C   UNL A   1      51.024  26.606  30.692  1.00  0.00     0.060 A 
BRANCH  93  94
ATOM     94  S   UNL A   1      52.761  26.273  31.054  1.00  0.00     0.124 S 
ATOM     95  O   UNL A   1      53.149  27.473  31.786  1.00  0.00    -0.237 OA
ATOM     96  O   UNL A   1      52.684  25.046  31.841  1.00  0.00    -0.237 OA
ATOM     97  O   UNL A   1      53.359  26.123  29.730  1.00  0.00    -0.744 OA
ENDBRANCH  93  94
ENDBRANCH  61  86
ENDBRANCH  35  36
ENDBRANCH  27  30
ENDBRANCH  25  26
ENDBRANCH  24  25
ENDBRANCH   1  24
TORSDOF 17
ENDMDL
MODEL 2
REMARK VINA RESULT:     -11.2      3.383      8.501
REMARK SMILES COc1ccc(F)c(Nc2ccc(C(=O)NCCCCNC(=O)c3ccc(-c4c5nc(c(-c6c(F)cc(S(=O)(=O)[O-])cc6F)c6ccc([nH]6)c(-c6c(F)cc(S(=O)(=O)[O-])cc6F)c6nc(c(-c7c(F)cc(S(=O)(=O)[O-])cc7F)c7ccc4[nH]7)C=C6)C=C5)cc3)cc2)c1
REMARK SMILES IDX 18 1 17 2 16 3 14 4 15 5 13 7 10 8 11 9 91 10 12 11 90 12
REMARK SMILES IDX 9 13 8 15 3 16 4 17 92 18 5 19 6 20 7 21 2 22 1 23 19 24
REMARK SMILES IDX 20 25 21 26 22 27 23 29 24 30 25 31 89 32 26 33 88 34 27 35
REMARK SMILES IDX 28 36 29 37 82 38 30 39 87 40 81 41 83 42 31 43 86 44 80 45
REMARK SMILES IDX 79 46 32 48 66 49 45 50 65 51 46 52 49 53 64 54 84 55 47 56
REMARK SMILES IDX 48 57 63 59 85 60 50 61 33 62 34 63 43 64 35 65 36 66 42 67
REMARK SMILES IDX 44 68 37 69 38 70 39 71 40 72 41 73 67 74 68 75 77 76 69 77
REMARK SMILES IDX 70 78 76 79 78 80 71 81 72 82 73 83 74 84 75 85 51 86 52 87
REMARK SMILES IDX 61 88 53 89 54 90 60 91 62 92 55 93 56 94 57 95 58 96 59 97
REMARK H PARENT 16 6 9 14 21 28 83 47 49 58
REMARK Flexibility Score: inf
ROOT
ATOM      1  C   UNL A   1      37.323  21.192  24.679  1.00  0.00     0.023 C 
ENDROOT
BRANCH   1   2
ATOM      2  C   UNL A   1      36.005  21.227  25.454  1.00  0.00     0.116 C 
BRANCH   2   3
ATOM      3  N   UNL A   1      35.125  20.158  25.017  1.00  0.00    -0.352 N 
ATOM      4  C   UNL A   1      33.810  20.154  24.625  1.00  0.00     0.251 C 
ATOM      5  O   UNL A   1      33.321  19.085  24.261  1.00  0.00    -0.269 OA
ATOM      6  H   UNL A   1      35.550  19.272  25.000  1.00  0.00     0.163 HD
BRANCH   4   7
ATOM      7  C   UNL A   1      32.973  21.385  24.558  1.00  0.00     0.039 A 
ATOM      8  C   UNL A   1      31.244  23.615  24.592  1.00  0.00     0.038 A 
ATOM      9  C   UNL A   1      31.548  22.944  25.776  1.00  0.00     0.027 A 
ATOM     10  C   UNL A   1      31.865  23.208  23.408  1.00  0.00     0.027 A 
ATOM     11  C   UNL A   1      32.394  21.830  25.756  1.00  0.00     0.016 A 
ATOM     12  C   UNL A   1      32.750  22.127  23.398  1.00  0.00     0.016 A 
BRANCH   8  13
ATOM     13  N   UNL A   1      30.287  24.636  24.578  1.00  0.00    -0.353 N 
ATOM     14  H   UNL A   1      29.349  24.354  24.681  1.00  0.00     0.167 HD
BRANCH  13  15
ATOM     15  C   UNL A   1      30.506  26.020  24.433  1.00  0.00     0.078 A 
ATOM     16  C   UNL A   1      30.435  28.074  23.109  1.00  0.00     0.121 A 
ATOM     17  C   UNL A   1      31.035  28.778  24.152  1.00  0.00     0.049 A 
ATOM     18  C   UNL A   1      30.178  26.705  23.254  1.00  0.00     0.075 A 
ATOM     19  C   UNL A   1      31.382  28.110  25.329  1.00  0.00     0.045 A 
ATOM     20  C   UNL A   1      31.119  26.748  25.459  1.00  0.00     0.146 A 
ATOM     21  F   UNL A   1      31.460  26.129  26.599  1.00  0.00    -0.205 F 
BRANCH  16  22
ATOM     22  O   UNL A   1      30.015  28.612  21.924  1.00  0.00    -0.497 OA
ATOM     23  C   UNL A   1      29.513  29.941  21.979  1.00  0.00     0.278 C 
ENDBRANCH  16  22
ENDBRANCH  13  15
ENDBRANCH   8  13
ENDBRANCH   4   7
ENDBRANCH   2   3
ENDBRANCH   1   2
BRANCH   1  24
ATOM     24  C   UNL A   1      38.213  19.989  25.004  1.00  0.00     0.023 C 
BRANCH  24  25
ATOM     25  C   UNL A   1      39.477  20.316  25.794  1.00  0.00     0.116 C 
BRANCH  25  26
ATOM     26  N   UNL A   1      40.398  19.193  25.889  1.00  0.00    -0.352 N 
ATOM     27  C   UNL A   1      41.751  19.213  26.135  1.00  0.00     0.251 C 
ATOM     28  H   UNL A   1      40.000  18.303  25.758  1.00  0.00     0.163 HD
ATOM     29  O   UNL A   1      42.401  18.177  26.074  1.00  0.00    -0.269 OA
BRANCH  27  30
ATOM     30  C   UNL A   1      42.417  20.499  26.432  1.00  0.00     0.039 A 
ATOM     31  C   UNL A   1      43.001  21.210  25.381  1.00  0.00     0.014 A 
ATOM     32  C   UNL A   1      42.441  21.013  27.732  1.00  0.00     0.014 A 
ATOM     33  C   UNL A   1      43.550  22.471  25.622  1.00  0.00     0.010 A 
ATOM     34  C   UNL A   1      42.936  22.293  27.960  1.00  0.00     0.010 A 
ATOM     35  C   UNL A   1      43.488  23.038  26.906  1.00  0.00    -0.014 A 
BRANCH  35  36
ATOM     36  C   UNL A   1      43.978  24.416  27.161  1.00  0.00     0.031 A 
ATOM     37  C   UNL A   1      43.018  25.492  27.587  1.00  0.00     0.074 A 
ATOM     38  C   UNL A   1      45.276  24.710  26.944  1.00  0.00     0.049 A 
ATOM     39  N   UNL A   1      43.240  26.768  27.770  1.00  0.00    -0.248 NA
ATOM     40  C   UNL A   1      41.619  25.090  27.815  1.00  0.00     0.031 C 
ATOM     41  C   UNL A   1      46.293  23.763  26.479  1.00  0.00     0.029 A 
ATOM     42  N   UNL A   1      45.962  25.893  27.069  1.00  0.00    -0.354 N 
ATOM     43  C   UNL A   1      42.016  27.322  28.119  1.00  0.00     0.074 A 
ATOM     44  C   UNL A   1      41.042  26.253  28.085  1.00  0.00     0.031 C 
ATOM     45  C   UNL A   1      47.471  24.397  26.371  1.00  0.00     0.029 A 
ATOM     46  C   UNL A   1      47.291  25.802  26.724  1.00  0.00     0.049 A 
ATOM     47  H   UNL A   1      45.542  26.729  27.377  1.00  0.00     0.167 HD
ATOM     48  C   UNL A   1      41.735  28.601  28.456  1.00  0.00     0.037 A 
ATOM     49  C   UNL A   1      48.253  26.745  26.685  1.00  0.00     0.037 A 
ATOM     50  C   UNL A   1      42.717  29.651  28.533  1.00  0.00     0.049 A 
ATOM     51  C   UNL A   1      47.916  28.156  27.086  1.00  0.00     0.074 A 
ATOM     52  C   UNL A   1      42.537  30.963  28.937  1.00  0.00     0.029 A 
ATOM     53  N   UNL A   1      44.058  29.510  28.212  1.00  0.00    -0.354 N 
ATOM     54  N   UNL A   1      46.761  28.646  27.471  1.00  0.00    -0.248 NA
ATOM     55  C   UNL A   1      49.007  29.139  27.056  1.00  0.00     0.031 C 
ATOM     56  C   UNL A   1      43.763  31.625  28.826  1.00  0.00     0.029 A 
ATOM     57  C   UNL A   1      44.714  30.715  28.394  1.00  0.00     0.049 A 
ATOM     58  H   UNL A   1      44.480  28.677  27.901  1.00  0.00     0.167 HD
ATOM     59  C   UNL A   1      46.993  29.990  27.745  1.00  0.00     0.074 A 
ATOM     60  C   UNL A   1      48.399  30.232  27.498  1.00  0.00     0.031 C 
ATOM     61  C   UNL A   1      46.117  30.937  28.159  1.00  0.00     0.037 A 
BRANCH  48  62
ATOM     62  C   UNL A   1      40.318  28.952  28.807  1.00  0.00     0.058 A 
ATOM     63  C   UNL A   1      39.412  29.345  27.807  1.00  0.00     0.135 A 
ATOM     64  C   UNL A   1      39.892  29.016  30.142  1.00  0.00     0.135 A 
ATOM     65  F   UNL A   1      39.768  29.292  26.514  1.00  0.00    -0.206 F 
ATOM     66  C   UNL A   1      38.145  29.822  28.124  1.00  0.00     0.059 A 
ATOM     67  C   UNL A   1      38.621  29.471  30.480  1.00  0.00     0.059 A 
ATOM     68  F   UNL A   1      40.713  28.630  31.132  1.00  0.00    -0.206 F 
ATOM     69  C   UNL A   1      37.763  29.893  29.465  1.00  0.00     0.060 A 
BRANCH  69  70
ATOM     70  S   UNL A   1      36.126  30.542  29.861  1.00  0.00     0.124 S 
ATOM     71  O   UNL A   1      35.823  29.851  31.110  1.00  0.00    -0.237 OA
ATOM     72  O   UNL A   1      36.382  31.974  29.970  1.00  0.00    -0.237 OA
ATOM     73  O   UNL A   1      35.318  30.145  28.711  1.00  0.00    -0.744 OA
ENDBRANCH  69  70
ENDBRANCH  48  62
BRANCH  49  74
ATOM     74  C   UNL A   1      49.631  26.386  26.256  1.00  0.00     0.058 A 
ATOM     75  C   UNL A   1      50.544  25.810  27.152  1.00  0.00     0.135 A 
ATOM     76  C   UNL A   1      50.061  26.614  24.941  1.00  0.00     0.135 A 
ATOM     77  F   UNL A   1      50.186  25.582  28.425  1.00  0.00    -0.206 F 
ATOM     78  C   UNL A   1      51.837  25.479  26.762  1.00  0.00     0.059 A 
ATOM     79  C   UNL A   1      51.343  26.269  24.519  1.00  0.00     0.059 A 
ATOM     80  F   UNL A   1      49.220  27.154  24.045  1.00  0.00    -0.206 F 
ATOM     81  C   UNL A   1      52.227  25.712  25.443  1.00  0.00     0.060 A 
BRANCH  81  82
ATOM     82  S   UNL A   1      53.901  25.252  24.946  1.00  0.00     0.124 S 
ATOM     83  O   UNL A   1      53.811  23.796  24.941  1.00  0.00    -0.237 OA
ATOM     84  O   UNL A   1      54.020  25.886  23.637  1.00  0.00    -0.237 OA
ATOM     85  O   UNL A   1      54.734  25.828  25.997  1.00  0.00    -0.744 OA
ENDBRANCH  81  82
ENDBRANCH  49  74
BRANCH  61  86
ATOM     86  C   UNL A   1      46.647  32.322  28.398  1.00  0.00     0.058 A 
ATOM     87  C   UNL A   1      46.682  33.259  27.354  1.00  0.00     0.135 A 
ATOM     88  C   UNL A   1      47.202  32.690  29.632  1.00  0.00     0.135 A 
ATOM     89  F   UNL A   1      46.167  32.955  26.152  1.00  0.00    -0.206 F 
ATOM     90  C   UNL A   1      47.271  34.508  27.519  1.00  0.00     0.059 A 
ATOM     91  C   UNL A   1      47.776  33.942  29.828  1.00  0.00     0.059 A 
ATOM     92  F   UNL A   1      47.183  31.831  30.664  1.00  0.00    -0.206 F 
ATOM     93  C   UNL A   1      47.822  34.837  28.758  1.00  0.00     0.060 A 
BRANCH  93  94
ATOM     94  S   UNL A   1      48.583  36.463  28.957  1.00  0.00     0.124 S 
ATOM     95  O   UNL A   1      48.052  37.184  27.807  1.00  0.00    -0.237 OA
ATOM     96  O   UNL A   1      48.077  36.884  30.260  1.00  0.00    -0.237 OA
ATOM     97  O   UNL A   1      50.014  36.173  28.913  1.00  0.00    -0.744 OA
ENDBRANCH  93  94
ENDBRANCH  61  86
ENDBRANCH  35  36
ENDBRANCH  27  30
ENDBRANCH  25  26
ENDBRANCH  24  25
ENDBRANCH   1  24
TORSDOF 17
ENDMDL
MODEL 3
REMARK VINA RESULT:     -11.2      0.944      8.329
REMARK SMILES COc1ccc(F)c(Nc2ccc(C(=O)NCCCCNC(=O)c3ccc(-c4c5nc(c(-c6c(F)cc(S(=O)(=O)[O-])cc6F)c6ccc([nH]6)c(-c6c(F)cc(S(=O)(=O)[O-])cc6F)c6nc(c(-c7c(F)cc(S(=O)(=O)[O-])cc7F)c7ccc4[nH]7)C=C6)C=C5)cc3)cc2)c1
REMARK SMILES IDX 18 1 17 2 16 3 14 4 15 5 13 7 10 8 11 9 91 10 12 11 90 12
REMARK SMILES IDX 9 13 8 15 3 16 4 17 92 18 5 19 6 20 7 21 2 22 1 23 19 24
REMARK SMILES IDX 20 25 21 26 22 27 23 29 24 30 25 31 89 32 26 33 88 34 27 35
REMARK SMILES IDX 28 36 29 37 82 38 30 39 87 40 81 41 83 42 31 43 86 44 80 45
REMARK SMILES IDX 79 46 32 48 66 49 45 50 65 51 46 52 49 53 64 54 84 55 47 56
REMARK SMILES IDX 48 57 63 59 85 60 50 61 33 62 34 63 43 64 35 65 36 66 42 67
REMARK SMILES IDX 44 68 37 69 38 70 39 71 40 72 41 73 67 74 68 75 77 76 69 77
REMARK SMILES IDX 70 78 76 79 78 80 71 81 72 82 73 83 74 84 75 85 51 86 52 87
REMARK SMILES IDX 61 88 53 89 54 90 60 91 62 92 55 93 56 94 57 95 58 96 59 97
REMARK H PARENT 16 6 9 14 21 28 83 47 49 58
REMARK Flexibility Score: inf
ROOT
ATOM      1  C   UNL A   1      32.865  29.331  24.789  1.00  0.00     0.023 C 
ENDROOT
BRANCH   1   2
ATOM      2  C   UNL A   1      31.361  29.568  24.938  1.00  0.00     0.116 C 
BRANCH   2   3
ATOM      3  N   UNL A   1      30.722  29.646  23.638  1.00  0.00    -0.352 N 
ATOM      4  C   UNL A   1      30.507  28.705  22.662  1.00  0.00     0.251 C 
ATOM      5  O   UNL A   1      29.890  29.052  21.655  1.00  0.00    -0.269 OA
ATOM      6  H   UNL A   1      30.380  30.541  23.413  1.00  0.00     0.163 HD
BRANCH   4   7
ATOM      7  C   UNL A   1      30.926  27.282  22.793  1.00  0.00     0.039 A 
ATOM      8  C   UNL A   1      31.780  24.592  22.811  1.00  0.00     0.038 A 
ATOM      9  C   UNL A   1      32.495  25.551  22.094  1.00  0.00     0.027 A 
ATOM     10  C   UNL A   1      30.682  25.000  23.572  1.00  0.00     0.027 A 
ATOM     11  C   UNL A   1      32.063  26.881  22.073  1.00  0.00     0.016 A 
ATOM     12  C   UNL A   1      30.282  26.339  23.593  1.00  0.00     0.016 A 
BRANCH   8  13
ATOM     13  N   UNL A   1      32.117  23.237  22.718  1.00  0.00    -0.353 N 
ATOM     14  H   UNL A   1      31.963  22.810  21.845  1.00  0.00     0.167 HD
BRANCH  13  15
ATOM     15  C   UNL A   1      32.649  22.411  23.728  1.00  0.00     0.078 A 
ATOM     16  C   UNL A   1      32.670  20.324  25.001  1.00  0.00     0.121 A 
ATOM     17  C   UNL A   1      33.690  20.819  25.812  1.00  0.00     0.049 A 
ATOM     18  C   UNL A   1      32.157  21.121  23.970  1.00  0.00     0.075 A 
ATOM     19  C   UNL A   1      34.185  22.107  25.595  1.00  0.00     0.045 A 
ATOM     20  C   UNL A   1      33.664  22.887  24.565  1.00  0.00     0.146 A 
ATOM     21  F   UNL A   1      34.157  24.121  24.375  1.00  0.00    -0.205 F 
BRANCH  16  22
ATOM     22  O   UNL A   1      32.124  19.074  25.083  1.00  0.00    -0.497 OA
ATOM     23  C   UNL A   1      32.478  18.161  24.052  1.00  0.00     0.278 C 
ENDBRANCH  16  22
ENDBRANCH  13  15
ENDBRANCH   8  13
ENDBRANCH   4   7
ENDBRANCH   2   3
ENDBRANCH   1   2
BRANCH   1  24
ATOM     24  C   UNL A   1      33.375  28.069  25.492  1.00  0.00     0.023 C 
BRANCH  24  25
ATOM     25  C   UNL A   1      33.787  28.264  26.949  1.00  0.00     0.116 C 
BRANCH  25  26
ATOM     26  N   UNL A   1      33.605  29.629  27.415  1.00  0.00    -0.352 N 
ATOM     27  C   UNL A   1      34.511  30.445  28.052  1.00  0.00     0.251 C 
ATOM     28  H   UNL A   1      32.716  30.020  27.256  1.00  0.00     0.163 HD
ATOM     29  O   UNL A   1      34.159  31.538  28.478  1.00  0.00    -0.269 OA
BRANCH  27  30
ATOM     30  C   UNL A   1      35.898  29.973  28.254  1.00  0.00     0.039 A 
ATOM     31  C   UNL A   1      36.814  30.120  27.210  1.00  0.00     0.014 A 
ATOM     32  C   UNL A   1      36.297  29.415  29.472  1.00  0.00     0.014 A 
ATOM     33  C   UNL A   1      38.150  29.770  27.411  1.00  0.00     0.010 A 
ATOM     34  C   UNL A   1      37.640  29.121  29.689  1.00  0.00     0.010 A 
ATOM     35  C   UNL A   1      38.581  29.303  28.664  1.00  0.00    -0.014 A 
BRANCH  35  36
ATOM     36  C   UNL A   1      40.015  29.019  28.927  1.00  0.00     0.031 A 
ATOM     37  C   UNL A   1      40.598  27.681  28.563  1.00  0.00     0.074 A 
ATOM     38  C   UNL A   1      40.771  29.943  29.552  1.00  0.00     0.049 A 
ATOM     39  N   UNL A   1      41.799  27.218  28.794  1.00  0.00    -0.248 NA
ATOM     40  C   UNL A   1      39.712  26.729  27.872  1.00  0.00     0.031 C 
ATOM     41  C   UNL A   1      40.302  31.258  30.001  1.00  0.00     0.029 A 
ATOM     42  N   UNL A   1      42.089  29.916  29.936  1.00  0.00    -0.354 N 
ATOM     43  C   UNL A   1      41.811  25.923  28.293  1.00  0.00     0.074 A 
ATOM     44  C   UNL A   1      40.486  25.656  27.778  1.00  0.00     0.031 C 
ATOM     45  C   UNL A   1      41.319  31.913  30.585  1.00  0.00     0.029 A 
ATOM     46  C   UNL A   1      42.501  31.056  30.585  1.00  0.00     0.049 A 
ATOM     47  H   UNL A   1      42.684  29.151  29.762  1.00  0.00     0.167 HD
ATOM     48  C   UNL A   1      42.840  25.046  28.247  1.00  0.00     0.037 A 
ATOM     49  C   UNL A   1      43.692  31.373  31.130  1.00  0.00     0.037 A 
ATOM     50  C   UNL A   1      44.169  25.335  28.718  1.00  0.00     0.049 A 
ATOM     51  C   UNL A   1      44.825  30.386  31.045  1.00  0.00     0.074 A 
ATOM     52  C   UNL A   1      45.295  24.533  28.647  1.00  0.00     0.029 A 
ATOM     53  N   UNL A   1      44.555  26.514  29.336  1.00  0.00    -0.354 N 
ATOM     54  N   UNL A   1      44.831  29.187  30.512  1.00  0.00    -0.248 NA
ATOM     55  C   UNL A   1      46.112  30.792  31.627  1.00  0.00     0.031 C 
ATOM     56  C   UNL A   1      46.355  25.213  29.253  1.00  0.00     0.029 A 
ATOM     57  C   UNL A   1      45.899  26.455  29.664  1.00  0.00     0.049 A 
ATOM     58  H   UNL A   1      43.963  27.279  29.513  1.00  0.00     0.167 HD
ATOM     59  C   UNL A   1      46.124  28.705  30.679  1.00  0.00     0.074 A 
ATOM     60  C   UNL A   1      46.877  29.745  31.347  1.00  0.00     0.031 C 
ATOM     61  C   UNL A   1      46.638  27.505  30.315  1.00  0.00     0.037 A 
BRANCH  48  62
ATOM     62  C   UNL A   1      42.599  23.695  27.638  1.00  0.00     0.058 A 
ATOM     63  C   UNL A   1      42.345  22.580  28.454  1.00  0.00     0.135 A 
ATOM     64  C   UNL A   1      42.740  23.482  26.258  1.00  0.00     0.135 A 
ATOM     65  F   UNL A   1      42.191  22.733  29.779  1.00  0.00    -0.206 F 
ATOM     66  C   UNL A   1      42.274  21.296  27.926  1.00  0.00     0.059 A 
ATOM     67  C   UNL A   1      42.652  22.208  25.706  1.00  0.00     0.059 A 
ATOM     68  F   UNL A   1      42.961  24.519  25.435  1.00  0.00    -0.206 F 
ATOM     69  C   UNL A   1      42.441  21.119  26.551  1.00  0.00     0.060 A 
BRANCH  69  70
ATOM     70  S   UNL A   1      42.374  19.443  25.884  1.00  0.00     0.124 S 
ATOM     71  O   UNL A   1      42.895  18.656  26.997  1.00  0.00    -0.237 OA
ATOM     72  O   UNL A   1      40.952  19.283  25.600  1.00  0.00    -0.237 OA
ATOM     73  O   UNL A   1      43.235  19.513  24.706  1.00  0.00    -0.744 OA
ENDBRANCH  69  70
ENDBRANCH  48  62
BRANCH  49  74
ATOM     74  C   UNL A   1      43.880  32.689  31.798  1.00  0.00     0.058 A 
ATOM     75  C   UNL A   1      43.715  32.830  33.184  1.00  0.00     0.135 A 
ATOM     76  C   UNL A   1      44.229  33.830  31.062  1.00  0.00     0.135 A 
ATOM     77  F   UNL A   1      43.370  31.771  33.933  1.00  0.00    -0.206 F 
ATOM     78  C   UNL A   1      43.881  34.057  33.816  1.00  0.00     0.059 A 
ATOM     79  C   UNL A   1      44.425  35.065  31.674  1.00  0.00     0.059 A 
ATOM     80  F   UNL A   1      44.409  33.742  29.735  1.00  0.00    -0.206 F 
ATOM     81  C   UNL A   1      44.237  35.170  33.052  1.00  0.00     0.060 A 
BRANCH  81  82
ATOM     82  S   UNL A   1      44.474  36.750  33.893  1.00  0.00     0.124 S 
ATOM     83  O   UNL A   1      43.397  36.720  34.876  1.00  0.00    -0.237 OA
ATOM     84  O   UNL A   1      45.826  36.616  34.426  1.00  0.00    -0.237 OA
ATOM     85  O   UNL A   1      44.320  37.727  32.820  1.00  0.00    -0.744 OA
ENDBRANCH  81  82
ENDBRANCH  49  74
BRANCH  61  86
ATOM     86  C   UNL A   1      48.090  27.250  30.604  1.00  0.00     0.058 A 
ATOM     87  C   UNL A   1      49.077  27.649  29.690  1.00  0.00     0.135 A 
ATOM     88  C   UNL A   1      48.494  26.530  31.738  1.00  0.00     0.135 A 
ATOM     89  F   UNL A   1      48.741  28.336  28.587  1.00  0.00    -0.206 F 
ATOM     90  C   UNL A   1      50.415  27.324  29.879  1.00  0.00     0.059 A 
ATOM     91  C   UNL A   1      49.831  26.214  31.961  1.00  0.00     0.059 A 
ATOM     92  F   UNL A   1      47.587  26.136  32.646  1.00  0.00    -0.206 F 
ATOM     93  C   UNL A   1      50.782  26.600  31.015  1.00  0.00     0.060 A 
BRANCH  93  94
ATOM     94  S   UNL A   1      52.524  26.185  31.247  1.00  0.00     0.124 S 
ATOM     95  O   UNL A   1      52.997  26.103  29.870  1.00  0.00    -0.237 OA
ATOM     96  O   UNL A   1      53.012  27.323  32.020  1.00  0.00    -0.237 OA
ATOM     97  O   UNL A   1      52.476  24.919  31.972  1.00  0.00    -0.744 OA
ENDBRANCH  93  94
ENDBRANCH  61  86
ENDBRANCH  35  36
ENDBRANCH  27  30
ENDBRANCH  25  26
ENDBRANCH  24  25
ENDBRANCH   1  24
TORSDOF 17
ENDMDL
