MODEL 1
REMARK VINA RESULT:     -10.2      0.000      0.000
REMARK SMILES CC(C)[C@H](NC(=O)[C@H](C)NC(=O)C[NH3+])C(=O)NCCCCNC(=O)c1ccc(-c2c3nc(c(-c4c(F)cc(S(=O)(=O)[O-])cc4F)c4ccc([nH]4)c(-c4c(F)cc(S(=O)(=O)[O-])cc4F)c4nc(c(-c5c(F)cc(S(=O)(=O)[O-])cc5F)c5ccc2[nH]5)C=C4)C=C3)cc1
REMARK SMILES IDX 18 1 17 2 15 3 16 4 4 6 2 7 1 8 3 9 5 10 6 11 7 13 8 14 9 15
REMARK SMILES IDX 10 16 11 17 12 19 13 20 14 21 19 25 20 26 21 27 22 28 23 29
REMARK SMILES IDX 24 31 25 32 26 33 90 34 27 35 89 36 28 37 29 38 30 39 83 40
REMARK SMILES IDX 31 41 88 42 82 43 84 44 32 45 87 46 81 47 80 48 33 50 67 51
REMARK SMILES IDX 46 52 66 53 47 54 50 55 65 56 85 57 48 58 49 59 64 61 86 62
REMARK SMILES IDX 51 63 34 64 35 65 44 66 36 67 37 68 43 69 45 70 38 71 39 72
REMARK SMILES IDX 40 73 41 74 42 75 68 76 69 77 78 78 70 79 71 80 77 81 79 82
REMARK SMILES IDX 72 83 73 84 74 85 75 86 76 87 52 88 53 89 62 90 54 91 55 92
REMARK SMILES IDX 61 93 63 94 56 95 57 96 58 97 59 98 60 99
REMARK H PARENT 17 5 5 12 10 18 14 22 14 23 14 24 22 30 84 49 50 60
REMARK Flexibility Score: inf
ROOT
ATOM      1  C   UNL A   1      35.951  22.202  25.334  1.00  0.00     0.116 C 
ENDROOT
BRANCH   1   2
ATOM      2  N   UNL A   1      35.030  22.265  24.216  1.00  0.00    -0.354 N 
ATOM      3  C   UNL A   1      33.792  21.736  24.020  1.00  0.00     0.242 C 
ATOM      4  O   UNL A   1      33.131  22.205  23.088  1.00  0.00    -0.273 OA
ATOM      5  H   UNL A   1      35.365  22.790  23.453  1.00  0.00     0.163 HD
BRANCH   3   6
ATOM      6  C   UNL A   1      33.150  20.684  24.957  1.00  0.00     0.173 C 
BRANCH   6   7
ATOM      7  C   UNL A   1      33.251  19.219  24.453  1.00  0.00     0.015 C 
ATOM      8  C   UNL A   1      32.881  18.133  25.462  1.00  0.00     0.010 C 
ATOM      9  C   UNL A   1      32.409  19.019  23.186  1.00  0.00     0.010 C 
ENDBRANCH   6   7
BRANCH   6  10
ATOM     10  N   UNL A   1      31.801  21.054  25.397  1.00  0.00    -0.342 N 
ATOM     11  C   UNL A   1      31.343  22.106  26.128  1.00  0.00     0.242 C 
ATOM     12  H   UNL A   1      31.098  20.425  25.113  1.00  0.00     0.164 HD
ATOM     13  O   UNL A   1      30.114  22.220  26.206  1.00  0.00    -0.273 OA
BRANCH  11  14
ATOM     14  C   UNL A   1      32.258  23.221  26.679  1.00  0.00     0.168 C 
ATOM     15  C   UNL A   1      33.062  22.707  27.868  1.00  0.00     0.041 C 
BRANCH  14  16
ATOM     16  N   UNL A   1      31.559  24.455  27.022  1.00  0.00    -0.340 N 
ATOM     17  C   UNL A   1      31.626  25.664  26.397  1.00  0.00     0.275 C 
ATOM     18  H   UNL A   1      30.963  24.408  27.804  1.00  0.00     0.164 HD
ATOM     19  O   UNL A   1      30.872  26.566  26.769  1.00  0.00    -0.268 OA
BRANCH  17  20
ATOM     20  C   UNL A   1      32.662  25.894  25.296  1.00  0.00     0.360 C 
BRANCH  20  21
ATOM     21  N   UNL A   1      33.751  26.742  25.806  1.00  0.00    -0.350 N 
ATOM     22  H   UNL A   1      34.637  26.434  25.407  1.00  0.00     0.344 HD
ATOM     23  H   UNL A   1      33.792  26.669  26.822  1.00  0.00     0.344 HD
ATOM     24  H   UNL A   1      33.578  27.713  25.541  1.00  0.00     0.344 HD
ENDBRANCH  20  21
ENDBRANCH  17  20
ENDBRANCH  14  16
ENDBRANCH  11  14
ENDBRANCH   6  10
ENDBRANCH   3   6
ENDBRANCH   1   2
BRANCH   1  25
ATOM     25  C   UNL A   1      36.704  20.879  25.399  1.00  0.00     0.023 C 
BRANCH  25  26
ATOM     26  C   UNL A   1      38.173  20.954  24.983  1.00  0.00     0.023 C 
BRANCH  26  27
ATOM     27  C   UNL A   1      39.181  20.954  26.128  1.00  0.00     0.116 C 
BRANCH  27  28
ATOM     28  N   UNL A   1      40.081  19.811  26.100  1.00  0.00    -0.352 N 
ATOM     29  C   UNL A   1      41.454  19.788  26.194  1.00  0.00     0.251 C 
ATOM     30  H   UNL A   1      39.649  18.933  26.002  1.00  0.00     0.163 HD
ATOM     31  O   UNL A   1      42.066  18.740  26.047  1.00  0.00    -0.269 OA
BRANCH  29  32
ATOM     32  C   UNL A   1      42.177  21.054  26.433  1.00  0.00     0.039 A 
ATOM     33  C   UNL A   1      42.549  21.834  25.337  1.00  0.00     0.014 A 
ATOM     34  C   UNL A   1      42.433  21.492  27.735  1.00  0.00     0.014 A 
ATOM     35  C   UNL A   1      43.108  23.096  25.549  1.00  0.00     0.010 A 
ATOM     36  C   UNL A   1      42.923  22.776  27.944  1.00  0.00     0.010 A 
ATOM     37  C   UNL A   1      43.259  23.593  26.854  1.00  0.00    -0.014 A 
BRANCH  37  38
ATOM     38  C   UNL A   1      43.755  24.971  27.100  1.00  0.00     0.031 A 
ATOM     39  C   UNL A   1      45.207  25.299  26.883  1.00  0.00     0.074 A 
ATOM     40  C   UNL A   1      42.915  25.904  27.592  1.00  0.00     0.049 A 
ATOM     41  N   UNL A   1      45.844  26.416  27.119  1.00  0.00    -0.248 NA
ATOM     42  C   UNL A   1      46.059  24.219  26.361  1.00  0.00     0.031 C 
ATOM     43  C   UNL A   1      41.499  25.691  27.901  1.00  0.00     0.029 A 
ATOM     44  N   UNL A   1      43.133  27.216  27.932  1.00  0.00    -0.354 N 
ATOM     45  C   UNL A   1      47.173  26.168  26.795  1.00  0.00     0.074 A 
ATOM     46  C   UNL A   1      47.258  24.781  26.392  1.00  0.00     0.031 C 
ATOM     47  C   UNL A   1      40.972  26.836  28.367  1.00  0.00     0.029 A 
ATOM     48  C   UNL A   1      42.017  27.854  28.421  1.00  0.00     0.049 A 
ATOM     49  H   UNL A   1      44.006  27.659  27.835  1.00  0.00     0.167 HD
ATOM     50  C   UNL A   1      48.222  27.025  26.810  1.00  0.00     0.037 A 
ATOM     51  C   UNL A   1      41.855  29.114  28.868  1.00  0.00     0.037 A 
ATOM     52  C   UNL A   1      48.123  28.412  27.176  1.00  0.00     0.049 A 
ATOM     53  C   UNL A   1      43.029  30.055  28.848  1.00  0.00     0.074 A 
ATOM     54  C   UNL A   1      49.112  29.380  27.157  1.00  0.00     0.029 A 
ATOM     55  N   UNL A   1      46.967  29.033  27.627  1.00  0.00    -0.354 N 
ATOM     56  N   UNL A   1      44.264  29.822  28.474  1.00  0.00    -0.248 NA
ATOM     57  C   UNL A   1      42.787  31.431  29.304  1.00  0.00     0.031 C 
ATOM     58  C   UNL A   1      48.562  30.577  27.628  1.00  0.00     0.029 A 
ATOM     59  C   UNL A   1      47.220  30.365  27.902  1.00  0.00     0.049 A 
ATOM     60  H   UNL A   1      46.094  28.589  27.735  1.00  0.00     0.167 HD
ATOM     61  C   UNL A   1      44.941  31.028  28.626  1.00  0.00     0.074 A 
ATOM     62  C   UNL A   1      43.975  31.989  29.115  1.00  0.00     0.031 C 
ATOM     63  C   UNL A   1      46.244  31.312  28.381  1.00  0.00     0.037 A 
BRANCH  50  64
ATOM     64  C   UNL A   1      49.565  26.485  26.406  1.00  0.00     0.058 A 
ATOM     65  C   UNL A   1      50.063  26.647  25.104  1.00  0.00     0.135 A 
ATOM     66  C   UNL A   1      50.376  25.818  27.339  1.00  0.00     0.135 A 
ATOM     67  F   UNL A   1      49.320  27.262  24.168  1.00  0.00    -0.206 F 
ATOM     68  C   UNL A   1      51.303  26.143  24.730  1.00  0.00     0.059 A 
ATOM     69  C   UNL A   1      51.634  25.328  26.993  1.00  0.00     0.059 A 
ATOM     70  F   UNL A   1      49.949  25.634  28.597  1.00  0.00    -0.206 F 
ATOM     71  C   UNL A   1      52.081  25.483  25.682  1.00  0.00     0.060 A 
BRANCH  71  72
ATOM     72  S   UNL A   1      53.690  24.835  25.183  1.00  0.00     0.124 S 
ATOM     73  O   UNL A   1      54.518  25.200  26.328  1.00  0.00    -0.237 OA
ATOM     74  O   UNL A   1      53.420  23.409  25.026  1.00  0.00    -0.237 OA
ATOM     75  O   UNL A   1      53.977  25.554  23.945  1.00  0.00    -0.744 OA
ENDBRANCH  71  72
ENDBRANCH  50  64
BRANCH  51  76
ATOM     76  C   UNL A   1      40.522  29.567  29.346  1.00  0.00     0.058 A 
ATOM     77  C   UNL A   1      39.476  29.802  28.442  1.00  0.00     0.135 A 
ATOM     78  C   UNL A   1      40.264  29.761  30.711  1.00  0.00     0.135 A 
ATOM     79  F   UNL A   1      39.676  29.635  27.126  1.00  0.00    -0.206 F 
ATOM     80  C   UNL A   1      38.223  30.226  28.872  1.00  0.00     0.059 A 
ATOM     81  C   UNL A   1      39.013  30.163  31.168  1.00  0.00     0.059 A 
ATOM     82  F   UNL A   1      41.227  29.533  31.617  1.00  0.00    -0.206 F 
ATOM     83  C   UNL A   1      38.001  30.403  30.238  1.00  0.00     0.060 A 
BRANCH  83  84
ATOM     84  S   UNL A   1      36.356  30.905  30.792  1.00  0.00     0.124 S 
ATOM     85  O   UNL A   1      35.654  31.058  29.522  1.00  0.00    -0.237 OA
ATOM     86  O   UNL A   1      35.948  29.771  31.616  1.00  0.00    -0.237 OA
ATOM     87  O   UNL A   1      36.613  32.141  31.525  1.00  0.00    -0.744 OA
ENDBRANCH  83  84
ENDBRANCH  51  76
BRANCH  63  88
ATOM     88  C   UNL A   1      46.696  32.726  28.608  1.00  0.00     0.058 A 
ATOM     89  C   UNL A   1      47.227  33.141  29.839  1.00  0.00     0.135 A 
ATOM     90  C   UNL A   1      46.648  33.663  27.563  1.00  0.00     0.135 A 
ATOM     91  F   UNL A   1      47.288  32.284  30.871  1.00  0.00    -0.206 F 
ATOM     92  C   UNL A   1      47.676  34.443  30.032  1.00  0.00     0.059 A 
ATOM     93  C   UNL A   1      47.114  34.963  27.727  1.00  0.00     0.059 A 
ATOM     94  F   UNL A   1      46.158  33.313  26.363  1.00  0.00    -0.206 F 
ATOM     95  C   UNL A   1      47.616  35.347  28.970  1.00  0.00     0.060 A 
BRANCH  95  96
ATOM     96  S   UNL A   1      48.236  37.023  29.222  1.00  0.00     0.124 S 
ATOM     97  O   UNL A   1      47.246  37.814  28.500  1.00  0.00    -0.237 OA
ATOM     98  O   UNL A   1      48.213  37.152  30.677  1.00  0.00    -0.237 OA
ATOM     99  O   UNL A   1      49.568  36.985  28.625  1.00  0.00    -0.744 OA
ENDBRANCH  95  96
ENDBRANCH  63  88
ENDBRANCH  37  38
ENDBRANCH  29  32
ENDBRANCH  27  28
ENDBRANCH  26  27
ENDBRANCH  25  26
ENDBRANCH   1  25
TORSDOF 20
ENDMDL
MODEL 2
REMARK VINA RESULT:     -10.1      6.240     11.992
REMARK SMILES CC(C)[C@H](NC(=O)[C@H](C)NC(=O)C[NH3+])C(=O)NCCCCNC(=O)c1ccc(-c2c3nc(c(-c4c(F)cc(S(=O)(=O)[O-])cc4F)c4ccc([nH]4)c(-c4c(F)cc(S(=O)(=O)[O-])cc4F)c4nc(c(-c5c(F)cc(S(=O)(=O)[O-])cc5F)c5ccc2[nH]5)C=C4)C=C3)cc1
REMARK SMILES IDX 18 1 17 2 15 3 16 4 4 6 2 7 1 8 3 9 5 10 6 11 7 13 8 14 9 15
REMARK SMILES IDX 10 16 11 17 12 19 13 20 14 21 19 25 20 26 21 27 22 28 23 29
REMARK SMILES IDX 24 31 25 32 26 33 90 34 27 35 89 36 28 37 29 38 30 39 83 40
REMARK SMILES IDX 31 41 88 42 82 43 84 44 32 45 87 46 81 47 80 48 33 50 67 51
REMARK SMILES IDX 46 52 66 53 47 54 50 55 65 56 85 57 48 58 49 59 64 61 86 62
REMARK SMILES IDX 51 63 34 64 35 65 44 66 36 67 37 68 43 69 45 70 38 71 39 72
REMARK SMILES IDX 40 73 41 74 42 75 68 76 69 77 78 78 70 79 71 80 77 81 79 82
REMARK SMILES IDX 72 83 73 84 74 85 75 86 76 87 52 88 53 89 62 90 54 91 55 92
REMARK SMILES IDX 61 93 63 94 56 95 57 96 58 97 59 98 60 99
REMARK H PARENT 17 5 5 12 10 18 14 22 14 23 14 24 22 30 84 49 50 60
REMARK Flexibility Score: inf
ROOT
ATOM      1  C   UNL A   1      34.451  29.350  27.277  1.00  0.00     0.116 C 
ENDROOT
BRANCH   1   2
ATOM      2  N   UNL A   1      33.142  28.888  27.696  1.00  0.00    -0.354 N 
ATOM      3  C   UNL A   1      32.270  27.998  27.151  1.00  0.00     0.242 C 
ATOM      4  O   UNL A   1      31.366  27.588  27.887  1.00  0.00    -0.273 OA
ATOM      5  H   UNL A   1      32.826  29.295  28.535  1.00  0.00     0.163 HD
BRANCH   3   6
ATOM      6  C   UNL A   1      32.423  27.408  25.729  1.00  0.00     0.173 C 
BRANCH   6   7
ATOM      7  C   UNL A   1      32.099  28.398  24.577  1.00  0.00     0.015 C 
ATOM      8  C   UNL A   1      33.213  28.634  23.558  1.00  0.00     0.010 C 
ATOM      9  C   UNL A   1      30.831  27.967  23.827  1.00  0.00     0.010 C 
ENDBRANCH   6   7
BRANCH   6  10
ATOM     10  N   UNL A   1      31.767  26.105  25.573  1.00  0.00    -0.342 N 
ATOM     11  C   UNL A   1      32.258  24.876  25.258  1.00  0.00     0.242 C 
ATOM     12  H   UNL A   1      30.794  26.123  25.722  1.00  0.00     0.164 HD
ATOM     13  O   UNL A   1      31.465  23.933  25.352  1.00  0.00    -0.273 OA
BRANCH  11  14
ATOM     14  C   UNL A   1      33.754  24.602  24.984  1.00  0.00     0.168 C 
ATOM     15  C   UNL A   1      34.100  24.953  23.541  1.00  0.00     0.041 C 
BRANCH  14  16
ATOM     16  N   UNL A   1      34.183  23.245  25.304  1.00  0.00    -0.340 N 
ATOM     17  C   UNL A   1      35.370  22.840  25.839  1.00  0.00     0.275 C 
ATOM     18  H   UNL A   1      33.533  22.532  25.110  1.00  0.00     0.164 HD
ATOM     19  O   UNL A   1      35.508  21.653  26.143  1.00  0.00    -0.268 OA
BRANCH  17  20
ATOM     20  C   UNL A   1      36.513  23.842  25.998  1.00  0.00     0.360 C 
BRANCH  20  21
ATOM     21  N   UNL A   1      37.449  23.713  24.870  1.00  0.00    -0.350 N 
ATOM     22  H   UNL A   1      38.091  22.941  25.046  1.00  0.00     0.344 HD
ATOM     23  H   UNL A   1      37.980  24.579  24.768  1.00  0.00     0.344 HD
ATOM     24  H   UNL A   1      36.925  23.532  24.013  1.00  0.00     0.344 HD
ENDBRANCH  20  21
ENDBRANCH  17  20
ENDBRANCH  14  16
ENDBRANCH  11  14
ENDBRANCH   6  10
ENDBRANCH   3   6
ENDBRANCH   1   2
BRANCH   1  25
ATOM     25  C   UNL A   1      34.843  30.669  27.930  1.00  0.00     0.023 C 
BRANCH  25  26
ATOM     26  C   UNL A   1      34.253  31.915  27.268  1.00  0.00     0.023 C 
BRANCH  26  27
ATOM     27  C   UNL A   1      32.936  32.411  27.857  1.00  0.00     0.116 C 
BRANCH  27  28
ATOM     28  N   UNL A   1      32.830  33.862  27.883  1.00  0.00    -0.352 N 
ATOM     29  C   UNL A   1      33.541  34.769  28.635  1.00  0.00     0.251 C 
ATOM     30  H   UNL A   1      32.157  34.249  27.278  1.00  0.00     0.163 HD
ATOM     31  O   UNL A   1      33.250  35.956  28.610  1.00  0.00    -0.269 OA
BRANCH  29  32
ATOM     32  C   UNL A   1      34.632  34.280  29.503  1.00  0.00     0.039 A 
ATOM     33  C   UNL A   1      34.306  33.535  30.638  1.00  0.00     0.014 A 
ATOM     34  C   UNL A   1      35.968  34.509  29.164  1.00  0.00     0.014 A 
ATOM     35  C   UNL A   1      35.326  32.949  31.391  1.00  0.00     0.010 A 
ATOM     36  C   UNL A   1      36.977  33.867  29.873  1.00  0.00     0.010 A 
ATOM     37  C   UNL A   1      36.666  33.075  30.989  1.00  0.00    -0.014 A 
BRANCH  37  38
ATOM     38  C   UNL A   1      37.757  32.376  31.715  1.00  0.00     0.031 A 
ATOM     39  C   UNL A   1      38.219  32.887  33.052  1.00  0.00     0.074 A 
ATOM     40  C   UNL A   1      38.381  31.332  31.135  1.00  0.00     0.049 A 
ATOM     41  N   UNL A   1      39.205  32.466  33.800  1.00  0.00    -0.248 NA
ATOM     42  C   UNL A   1      37.495  34.042  33.607  1.00  0.00     0.031 C 
ATOM     43  C   UNL A   1      38.064  30.782  29.814  1.00  0.00     0.029 A 
ATOM     44  N   UNL A   1      39.423  30.554  31.575  1.00  0.00    -0.354 N 
ATOM     45  C   UNL A   1      39.235  33.314  34.899  1.00  0.00     0.074 A 
ATOM     46  C   UNL A   1      38.198  34.304  34.698  1.00  0.00     0.031 C 
ATOM     47  C   UNL A   1      38.881  29.745  29.561  1.00  0.00     0.029 A 
ATOM     48  C   UNL A   1      39.799  29.577  30.683  1.00  0.00     0.049 A 
ATOM     49  H   UNL A   1      39.859  30.683  32.447  1.00  0.00     0.167 HD
ATOM     50  C   UNL A   1      40.037  33.260  35.990  1.00  0.00     0.037 A 
ATOM     51  C   UNL A   1      40.778  28.654  30.757  1.00  0.00     0.037 A 
ATOM     52  C   UNL A   1      41.041  32.252  36.201  1.00  0.00     0.049 A 
ATOM     53  C   UNL A   1      41.637  28.597  31.991  1.00  0.00     0.074 A 
ATOM     54  C   UNL A   1      41.857  32.068  37.303  1.00  0.00     0.029 A 
ATOM     55  N   UNL A   1      41.365  31.254  35.293  1.00  0.00    -0.354 N 
ATOM     56  N   UNL A   1      41.606  29.365  33.053  1.00  0.00    -0.248 NA
ATOM     57  C   UNL A   1      42.660  27.542  32.040  1.00  0.00     0.031 C 
ATOM     58  C   UNL A   1      42.699  30.980  37.048  1.00  0.00     0.029 A 
ATOM     59  C   UNL A   1      42.379  30.460  35.803  1.00  0.00     0.049 A 
ATOM     60  H   UNL A   1      40.937  31.129  34.415  1.00  0.00     0.167 HD
ATOM     61  C   UNL A   1      42.587  28.873  33.907  1.00  0.00     0.074 A 
ATOM     62  C   UNL A   1      43.186  27.734  33.243  1.00  0.00     0.031 C 
ATOM     63  C   UNL A   1      42.957  29.324  35.131  1.00  0.00     0.037 A 
BRANCH  50  64
ATOM     64  C   UNL A   1      39.850  34.317  37.042  1.00  0.00     0.058 A 
ATOM     65  C   UNL A   1      39.117  34.069  38.213  1.00  0.00     0.135 A 
ATOM     66  C   UNL A   1      40.434  35.586  36.891  1.00  0.00     0.135 A 
ATOM     67  F   UNL A   1      38.524  32.878  38.399  1.00  0.00    -0.206 F 
ATOM     68  C   UNL A   1      38.942  35.049  39.183  1.00  0.00     0.059 A 
ATOM     69  C   UNL A   1      40.294  36.573  37.862  1.00  0.00     0.059 A 
ATOM     70  F   UNL A   1      41.144  35.877  35.790  1.00  0.00    -0.206 F 
ATOM     71  C   UNL A   1      39.532  36.300  38.998  1.00  0.00     0.060 A 
BRANCH  71  72
ATOM     72  S   UNL A   1      39.297  37.562  40.267  1.00  0.00     0.124 S 
ATOM     73  O   UNL A   1      40.673  37.975  40.523  1.00  0.00    -0.237 OA
ATOM     74  O   UNL A   1      38.458  38.541  39.584  1.00  0.00    -0.237 OA
ATOM     75  O   UNL A   1      38.648  36.834  41.353  1.00  0.00    -0.744 OA
ENDBRANCH  71  72
ENDBRANCH  50  64
BRANCH  51  76
ATOM     76  C   UNL A   1      40.978  27.692  29.642  1.00  0.00     0.058 A 
ATOM     77  C   UNL A   1      42.086  27.799  28.790  1.00  0.00     0.135 A 
ATOM     78  C   UNL A   1      40.077  26.641  29.416  1.00  0.00     0.135 A 
ATOM     79  F   UNL A   1      42.973  28.791  28.963  1.00  0.00    -0.206 F 
ATOM     80  C   UNL A   1      42.288  26.907  27.742  1.00  0.00     0.059 A 
ATOM     81  C   UNL A   1      40.269  25.722  28.389  1.00  0.00     0.059 A 
ATOM     82  F   UNL A   1      39.010  26.484  30.215  1.00  0.00    -0.206 F 
ATOM     83  C   UNL A   1      41.374  25.870  27.550  1.00  0.00     0.060 A 
BRANCH  83  84
ATOM     84  S   UNL A   1      41.672  24.686  26.218  1.00  0.00     0.124 S 
ATOM     85  O   UNL A   1      40.425  23.929  26.215  1.00  0.00    -0.237 OA
ATOM     86  O   UNL A   1      41.893  25.561  25.071  1.00  0.00    -0.237 OA
ATOM     87  O   UNL A   1      42.852  23.959  26.676  1.00  0.00    -0.744 OA
ENDBRANCH  83  84
ENDBRANCH  51  76
BRANCH  63  88
ATOM     88  C   UNL A   1      44.039  28.567  35.847  1.00  0.00     0.058 A 
ATOM     89  C   UNL A   1      45.393  28.909  35.709  1.00  0.00     0.135 A 
ATOM     90  C   UNL A   1      43.712  27.521  36.725  1.00  0.00     0.135 A 
ATOM     91  F   UNL A   1      45.757  29.898  34.876  1.00  0.00    -0.206 F 
ATOM     92  C   UNL A   1      46.387  28.227  36.401  1.00  0.00     0.059 A 
ATOM     93  C   UNL A   1      44.688  26.841  37.446  1.00  0.00     0.059 A 
ATOM     94  F   UNL A   1      42.431  27.161  36.900  1.00  0.00    -0.206 F 
ATOM     95  C   UNL A   1      46.025  27.194  37.268  1.00  0.00     0.060 A 
BRANCH  95  96
ATOM     96  S   UNL A   1      47.322  26.340  38.189  1.00  0.00     0.124 S 
ATOM     97  O   UNL A   1      47.407  25.074  37.470  1.00  0.00    -0.237 OA
ATOM     98  O   UNL A   1      48.462  27.238  38.032  1.00  0.00    -0.237 OA
ATOM     99  O   UNL A   1      46.778  26.259  39.542  1.00  0.00    -0.744 OA
ENDBRANCH  95  96
ENDBRANCH  63  88
ENDBRANCH  37  38
ENDBRANCH  29  32
ENDBRANCH  27  28
ENDBRANCH  26  27
ENDBRANCH  25  26
ENDBRANCH   1  25
TORSDOF 20
ENDMDL
MODEL 3
REMARK VINA RESULT:     -10.0      6.117      8.518
REMARK SMILES CC(C)[C@H](NC(=O)[C@H](C)NC(=O)C[NH3+])C(=O)NCCCCNC(=O)c1ccc(-c2c3nc(c(-c4c(F)cc(S(=O)(=O)[O-])cc4F)c4ccc([nH]4)c(-c4c(F)cc(S(=O)(=O)[O-])cc4F)c4nc(c(-c5c(F)cc(S(=O)(=O)[O-])cc5F)c5ccc2[nH]5)C=C4)C=C3)cc1
REMARK SMILES IDX 18 1 17 2 15 3 16 4 4 6 2 7 1 8 3 9 5 10 6 11 7 13 8 14 9 15
REMARK SMILES IDX 10 16 11 17 12 19 13 20 14 21 19 25 20 26 21 27 22 28 23 29
REMARK SMILES IDX 24 31 25 32 26 33 90 34 27 35 89 36 28 37 29 38 30 39 83 40
REMARK SMILES IDX 31 41 88 42 82 43 84 44 32 45 87 46 81 47 80 48 33 50 67 51
REMARK SMILES IDX 46 52 66 53 47 54 50 55 65 56 85 57 48 58 49 59 64 61 86 62
REMARK SMILES IDX 51 63 34 64 35 65 44 66 36 67 37 68 43 69 45 70 38 71 39 72
REMARK SMILES IDX 40 73 41 74 42 75 68 76 69 77 78 78 70 79 71 80 77 81 79 82
REMARK SMILES IDX 72 83 73 84 74 85 75 86 76 87 52 88 53 89 62 90 54 91 55 92
REMARK SMILES IDX 61 93 63 94 56 95 57 96 58 97 59 98 60 99
REMARK H PARENT 17 5 5 12 10 18 14 22 14 23 14 24 22 30 84 49 50 60
REMARK Flexibility Score: inf
ROOT
ATOM      1  C   UNL A   1      37.159  23.141  25.947  1.00  0.00     0.116 C 
ENDROOT
BRANCH   1   2
ATOM      2  N   UNL A   1      36.389  23.997  25.065  1.00  0.00    -0.354 N 
ATOM      3  C   UNL A   1      35.050  24.148  24.879  1.00  0.00     0.242 C 
ATOM      4  O   UNL A   1      34.687  25.162  24.272  1.00  0.00    -0.273 OA
ATOM      5  H   UNL A   1      36.940  24.578  24.491  1.00  0.00     0.163 HD
BRANCH   3   6
ATOM      6  C   UNL A   1      33.987  23.195  25.476  1.00  0.00     0.173 C 
BRANCH   6   7
ATOM      7  C   UNL A   1      34.567  21.955  26.210  1.00  0.00     0.015 C 
ATOM      8  C   UNL A   1      34.000  21.669  27.600  1.00  0.00     0.010 C 
ATOM      9  C   UNL A   1      34.418  20.693  25.350  1.00  0.00     0.010 C 
ENDBRANCH   6   7
BRANCH   6  10
ATOM     10  N   UNL A   1      32.919  22.859  24.529  1.00  0.00    -0.342 N 
ATOM     11  C   UNL A   1      31.598  23.185  24.500  1.00  0.00     0.242 C 
ATOM     12  H   UNL A   1      33.210  22.294  23.777  1.00  0.00     0.164 HD
ATOM     13  O   UNL A   1      30.982  22.869  23.476  1.00  0.00    -0.273 OA
BRANCH  11  14
ATOM     14  C   UNL A   1      30.916  24.065  25.571  1.00  0.00     0.168 C 
ATOM     15  C   UNL A   1      30.381  23.198  26.705  1.00  0.00     0.041 C 
BRANCH  14  16
ATOM     16  N   UNL A   1      29.871  24.939  25.051  1.00  0.00    -0.340 N 
ATOM     17  C   UNL A   1      30.008  26.159  24.458  1.00  0.00     0.275 C 
ATOM     18  H   UNL A   1      28.948  24.606  25.139  1.00  0.00     0.164 HD
ATOM     19  O   UNL A   1      29.010  26.701  23.980  1.00  0.00    -0.268 OA
BRANCH  17  20
ATOM     20  C   UNL A   1      31.373  26.848  24.447  1.00  0.00     0.360 C 
BRANCH  20  21
ATOM     21  N   UNL A   1      32.097  26.499  23.214  1.00  0.00    -0.350 N 
ATOM     22  H   UNL A   1      31.464  26.024  22.570  1.00  0.00     0.344 HD
ATOM     23  H   UNL A   1      32.876  25.881  23.441  1.00  0.00     0.344 HD
ATOM     24  H   UNL A   1      32.453  27.349  22.777  1.00  0.00     0.344 HD
ENDBRANCH  20  21
ENDBRANCH  17  20
ENDBRANCH  14  16
ENDBRANCH  11  14
ENDBRANCH   6  10
ENDBRANCH   3   6
ENDBRANCH   1   2
BRANCH   1  25
ATOM     25  C   UNL A   1      38.476  23.776  26.375  1.00  0.00     0.023 C 
BRANCH  25  26
ATOM     26  C   UNL A   1      39.547  22.787  26.837  1.00  0.00     0.023 C 
BRANCH  26  27
ATOM     27  C   UNL A   1      40.930  23.382  27.080  1.00  0.00     0.116 C 
BRANCH  27  28
ATOM     28  N   UNL A   1      41.396  24.219  25.985  1.00  0.00    -0.352 N 
ATOM     29  C   UNL A   1      41.676  25.566  25.983  1.00  0.00     0.251 C 
ATOM     30  H   UNL A   1      41.532  23.757  25.126  1.00  0.00     0.163 HD
ATOM     31  O   UNL A   1      41.959  26.137  24.940  1.00  0.00    -0.269 OA
BRANCH  29  32
ATOM     32  C   UNL A   1      41.585  26.318  27.252  1.00  0.00     0.039 A 
ATOM     33  C   UNL A   1      42.568  27.266  27.544  1.00  0.00     0.014 A 
ATOM     34  C   UNL A   1      40.505  26.126  28.117  1.00  0.00     0.014 A 
ATOM     35  C   UNL A   1      42.423  28.081  28.668  1.00  0.00     0.010 A 
ATOM     36  C   UNL A   1      40.327  26.986  29.195  1.00  0.00     0.010 A 
ATOM     37  C   UNL A   1      41.280  27.976  29.478  1.00  0.00    -0.014 A 
BRANCH  37  38
ATOM     38  C   UNL A   1      41.056  28.901  30.618  1.00  0.00     0.031 A 
ATOM     39  C   UNL A   1      41.889  28.776  31.863  1.00  0.00     0.074 A 
ATOM     40  C   UNL A   1      40.053  29.799  30.560  1.00  0.00     0.049 A 
ATOM     41  N   UNL A   1      41.792  29.431  32.990  1.00  0.00    -0.248 NA
ATOM     42  C   UNL A   1      42.952  27.757  31.851  1.00  0.00     0.031 C 
ATOM     43  C   UNL A   1      39.137  29.976  29.430  1.00  0.00     0.029 A 
ATOM     44  N   UNL A   1      39.625  30.725  31.479  1.00  0.00    -0.354 N 
ATOM     45  C   UNL A   1      42.763  28.893  33.826  1.00  0.00     0.074 A 
ATOM     46  C   UNL A   1      43.407  27.824  33.093  1.00  0.00     0.031 C 
ATOM     47  C   UNL A   1      38.270  30.961  29.715  1.00  0.00     0.029 A 
ATOM     48  C   UNL A   1      38.544  31.464  31.058  1.00  0.00     0.049 A 
ATOM     49  H   UNL A   1      40.052  30.848  32.357  1.00  0.00     0.167 HD
ATOM     50  C   UNL A   1      43.103  29.271  35.082  1.00  0.00     0.037 A 
ATOM     51  C   UNL A   1      37.849  32.432  31.685  1.00  0.00     0.037 A 
ATOM     52  C   UNL A   1      42.485  30.359  35.791  1.00  0.00     0.049 A 
ATOM     53  C   UNL A   1      38.265  32.853  33.068  1.00  0.00     0.074 A 
ATOM     54  C   UNL A   1      42.804  30.865  37.038  1.00  0.00     0.029 A 
ATOM     55  N   UNL A   1      41.420  31.111  35.316  1.00  0.00    -0.354 N 
ATOM     56  N   UNL A   1      39.231  32.379  33.818  1.00  0.00    -0.248 NA
ATOM     57  C   UNL A   1      37.501  33.946  33.689  1.00  0.00     0.031 C 
ATOM     58  C   UNL A   1      41.911  31.901  37.332  1.00  0.00     0.029 A 
ATOM     59  C   UNL A   1      41.061  32.067  36.249  1.00  0.00     0.049 A 
ATOM     60  H   UNL A   1      40.984  30.983  34.442  1.00  0.00     0.167 HD
ATOM     61  C   UNL A   1      39.207  33.130  34.988  1.00  0.00     0.074 A 
ATOM     62  C   UNL A   1      38.139  34.097  34.842  1.00  0.00     0.031 C 
ATOM     63  C   UNL A   1      40.000  33.028  36.084  1.00  0.00     0.037 A 
BRANCH  50  64
ATOM     64  C   UNL A   1      44.204  28.507  35.761  1.00  0.00     0.058 A 
ATOM     65  C   UNL A   1      43.935  27.398  36.578  1.00  0.00     0.135 A 
ATOM     66  C   UNL A   1      45.548  28.870  35.573  1.00  0.00     0.135 A 
ATOM     67  F   UNL A   1      42.667  27.018  36.806  1.00  0.00    -0.206 F 
ATOM     68  C   UNL A   1      44.954  26.694  37.210  1.00  0.00     0.059 A 
ATOM     69  C   UNL A   1      46.586  28.163  36.174  1.00  0.00     0.059 A 
ATOM     70  F   UNL A   1      45.862  29.923  34.803  1.00  0.00    -0.206 F 
ATOM     71  C   UNL A   1      46.278  27.086  37.003  1.00  0.00     0.060 A 
BRANCH  71  72
ATOM     72  S   UNL A   1      47.590  26.161  37.828  1.00  0.00     0.124 S 
ATOM     73  O   UNL A   1      48.757  26.985  37.529  1.00  0.00    -0.237 OA
ATOM     74  O   UNL A   1      47.151  26.167  39.220  1.00  0.00    -0.237 OA
ATOM     75  O   UNL A   1      47.554  24.859  37.169  1.00  0.00    -0.744 OA
ENDBRANCH  71  72
ENDBRANCH  50  64
BRANCH  51  76
ATOM     76  C   UNL A   1      36.707  33.090  30.998  1.00  0.00     0.058 A 
ATOM     77  C   UNL A   1      35.392  32.900  31.446  1.00  0.00     0.135 A 
ATOM     78  C   UNL A   1      36.907  33.931  29.893  1.00  0.00     0.135 A 
ATOM     79  F   UNL A   1      35.150  32.101  32.497  1.00  0.00    -0.206 F 
ATOM     80  C   UNL A   1      34.312  33.509  30.816  1.00  0.00     0.059 A 
ATOM     81  C   UNL A   1      35.845  34.569  29.258  1.00  0.00     0.059 A 
ATOM     82  F   UNL A   1      38.148  34.159  29.436  1.00  0.00    -0.206 F 
ATOM     83  C   UNL A   1      34.549  34.343  29.722  1.00  0.00     0.060 A 
BRANCH  83  84
ATOM     84  S   UNL A   1      33.145  35.169  28.941  1.00  0.00     0.124 S 
ATOM     85  O   UNL A   1      33.770  36.378  28.419  1.00  0.00    -0.237 OA
ATOM     86  O   UNL A   1      32.723  34.187  27.946  1.00  0.00    -0.237 OA
ATOM     87  O   UNL A   1      32.214  35.365  30.048  1.00  0.00    -0.744 OA
ENDBRANCH  83  84
ENDBRANCH  51  76
BRANCH  63  88
ATOM     88  C   UNL A   1      39.764  34.007  37.199  1.00  0.00     0.058 A 
ATOM     89  C   UNL A   1      38.943  33.692  38.293  1.00  0.00     0.135 A 
ATOM     90  C   UNL A   1      40.411  35.253  37.199  1.00  0.00     0.135 A 
ATOM     91  F   UNL A   1      38.297  32.516  38.336  1.00  0.00    -0.206 F 
ATOM     92  C   UNL A   1      38.756  34.588  39.340  1.00  0.00     0.059 A 
ATOM     93  C   UNL A   1      40.258  36.155  38.247  1.00  0.00     0.059 A 
ATOM     94  F   UNL A   1      41.214  35.597  36.180  1.00  0.00    -0.206 F 
ATOM     95  C   UNL A   1      39.418  35.817  39.309  1.00  0.00     0.060 A 
BRANCH  95  96
ATOM     96  S   UNL A   1      39.197  36.957  40.690  1.00  0.00     0.124 S 
ATOM     97  O   UNL A   1      38.352  37.984  40.091  1.00  0.00    -0.237 OA
ATOM     98  O   UNL A   1      38.555  36.113  41.694  1.00  0.00    -0.237 OA
ATOM     99  O   UNL A   1      40.560  37.372  41.009  1.00  0.00    -0.744 OA
ENDBRANCH  95  96
ENDBRANCH  63  88
ENDBRANCH  37  38
ENDBRANCH  29  32
ENDBRANCH  27  28
ENDBRANCH  26  27
ENDBRANCH  25  26
ENDBRANCH   1  25
TORSDOF 20
ENDMDL
