MODEL 1
REMARK VINA RESULT:     -12.0      0.000      0.000
REMARK SMILES Cc1cc(Br)cc2c1O[C@H](C(F)(F)F)C(C(=O)NCCCCNC(=O)c1ccc(-c3c4nc(c(-c5c(F)cc(S(=O)(=O)[O-])cc5F)c5ccc([nH]5)c(-c5c(F)cc(S(=O)(=O)[O-])cc5F)c5nc(c(-c6c(F)cc(S(=O)(=O)[O-])cc6F)c6ccc3[nH]6)C=C5)C=C4)cc1)=C2
REMARK SMILES IDX 21 1 20 2 19 3 18 4 16 5 17 6 15 8 1 9 2 10 3 11 8 12 4 13
REMARK SMILES IDX 7 14 9 15 5 16 6 17 92 18 10 19 11 20 12 21 13 22 14 23
REMARK SMILES IDX 22 24 23 25 24 26 25 28 26 29 27 30 91 31 28 32 90 33 29 34
REMARK SMILES IDX 30 35 31 36 84 37 32 38 89 39 83 40 85 41 33 42 88 43 82 44
REMARK SMILES IDX 81 45 34 47 68 48 47 49 67 50 48 51 51 52 66 53 86 54 49 55
REMARK SMILES IDX 50 56 65 58 87 59 52 60 35 61 36 62 45 63 37 64 38 65 44 66
REMARK SMILES IDX 46 67 39 68 40 69 41 70 42 71 43 72 69 73 70 74 79 75 71 76
REMARK SMILES IDX 72 77 78 78 80 79 73 80 74 81 75 82 76 83 77 84 53 85 54 86
REMARK SMILES IDX 63 87 55 88 56 89 62 90 64 91 57 92 58 93 59 94 60 95 61 96
REMARK H PARENT 18 7 23 27 85 46 51 57
REMARK Flexibility Score: inf
ROOT
ATOM      1  C   UNL A   1      34.012  28.458  25.763  1.00  0.00     0.023 C 
ENDROOT
BRANCH   1   2
ATOM      2  C   UNL A   1      32.886  28.805  24.785  1.00  0.00     0.023 C 
BRANCH   2   3
ATOM      3  C   UNL A   1      32.132  27.594  24.243  1.00  0.00     0.116 C 
BRANCH   3   4
ATOM      4  N   UNL A   1      31.246  27.014  25.237  1.00  0.00    -0.352 N 
ATOM      5  C   UNL A   1      31.095  25.815  25.846  1.00  0.00     0.251 C 
ATOM      6  O   UNL A   1      30.169  25.752  26.663  1.00  0.00    -0.270 OA
ATOM      7  H   UNL A   1      30.576  27.665  25.549  1.00  0.00     0.163 HD
BRANCH   5   8
ATOM      8  C   UNL A   1      31.943  24.610  25.605  1.00  0.00     0.067 C 
ATOM      9  C   UNL A   1      33.863  19.904  24.854  1.00  0.00     0.048 C 
ATOM     10  C   UNL A   1      34.440  21.245  25.206  1.00  0.00    -0.007 A 
ATOM     11  C   UNL A   1      35.824  21.405  25.360  1.00  0.00     0.023 A 
ATOM     12  C   UNL A   1      33.607  22.357  25.395  1.00  0.00     0.130 A 
ATOM     13  C   UNL A   1      36.352  22.651  25.698  1.00  0.00     0.019 A 
ATOM     14  C   UNL A   1      34.137  23.605  25.741  1.00  0.00     0.019 A 
ATOM     15  O   UNL A   1      32.258  22.161  25.275  1.00  0.00    -0.475 OA
ATOM     16  Br  UNL A   1      38.222  22.847  25.904  1.00  0.00    -0.051 Br
ATOM     17  C   UNL A   1      35.518  23.751  25.893  1.00  0.00     0.027 A 
ATOM     18  C   UNL A   1      33.233  24.726  25.974  1.00  0.00     0.025 C 
ATOM     19  C   UNL A   1      31.464  23.340  24.960  1.00  0.00     0.314 C 
BRANCH  19  20
ATOM     20  C   UNL A   1      31.324  23.466  23.431  1.00  0.00     0.429 C 
ATOM     21  F   UNL A   1      32.221  24.363  22.947  1.00  0.00    -0.167 F 
ATOM     22  F   UNL A   1      31.561  22.299  22.789  1.00  0.00    -0.167 F 
ATOM     23  F   UNL A   1      30.094  23.883  23.052  1.00  0.00    -0.167 F 
ENDBRANCH  19  20
ENDBRANCH   5   8
ENDBRANCH   3   4
ENDBRANCH   2   3
ENDBRANCH   1   2
BRANCH   1  24
ATOM     24  C   UNL A   1      33.652  28.555  27.246  1.00  0.00     0.116 C 
BRANCH  24  25
ATOM     25  N   UNL A   1      33.562  29.920  27.744  1.00  0.00    -0.352 N 
ATOM     26  C   UNL A   1      34.555  30.670  28.329  1.00  0.00     0.251 C 
ATOM     27  H   UNL A   1      32.686  30.359  27.651  1.00  0.00     0.163 HD
ATOM     28  O   UNL A   1      34.318  31.792  28.766  1.00  0.00    -0.269 OA
BRANCH  26  29
ATOM     29  C   UNL A   1      35.898  30.077  28.464  1.00  0.00     0.039 A 
ATOM     30  C   UNL A   1      36.763  30.116  27.368  1.00  0.00     0.014 A 
ATOM     31  C   UNL A   1      36.325  29.570  29.695  1.00  0.00     0.014 A 
ATOM     32  C   UNL A   1      38.090  29.720  27.531  1.00  0.00     0.010 A 
ATOM     33  C   UNL A   1      37.661  29.227  29.868  1.00  0.00     0.010 A 
ATOM     34  C   UNL A   1      38.557  29.312  28.792  1.00  0.00    -0.014 A 
BRANCH  34  35
ATOM     35  C   UNL A   1      39.989  28.993  29.006  1.00  0.00     0.031 A 
ATOM     36  C   UNL A   1      40.910  30.025  29.588  1.00  0.00     0.074 A 
ATOM     37  C   UNL A   1      40.464  27.791  28.624  1.00  0.00     0.049 A 
ATOM     38  N   UNL A   1      42.198  29.950  29.802  1.00  0.00    -0.248 NA
ATOM     39  C   UNL A   1      40.309  31.316  29.957  1.00  0.00     0.031 C 
ATOM     40  C   UNL A   1      39.671  26.725  28.006  1.00  0.00     0.029 A 
ATOM     41  N   UNL A   1      41.728  27.264  28.697  1.00  0.00    -0.354 N 
ATOM     42  C   UNL A   1      42.563  31.185  30.325  1.00  0.00     0.074 A 
ATOM     43  C   UNL A   1      41.371  32.005  30.348  1.00  0.00     0.031 C 
ATOM     44  C   UNL A   1      40.461  25.661  27.789  1.00  0.00     0.029 A 
ATOM     45  C   UNL A   1      41.818  25.977  28.223  1.00  0.00     0.049 A 
ATOM     46  H   UNL A   1      42.499  27.761  29.055  1.00  0.00     0.167 HD
ATOM     47  C   UNL A   1      43.776  31.588  30.770  1.00  0.00     0.037 A 
ATOM     48  C   UNL A   1      42.875  25.144  28.154  1.00  0.00     0.037 A 
ATOM     49  C   UNL A   1      44.952  30.760  30.768  1.00  0.00     0.049 A 
ATOM     50  C   UNL A   1      44.212  25.612  28.656  1.00  0.00     0.074 A 
ATOM     51  C   UNL A   1      46.221  31.064  31.229  1.00  0.00     0.029 A 
ATOM     52  N   UNL A   1      45.001  29.460  30.286  1.00  0.00    -0.354 N 
ATOM     53  N   UNL A   1      44.532  26.772  29.179  1.00  0.00    -0.248 NA
ATOM     54  C   UNL A   1      45.328  24.663  28.563  1.00  0.00     0.031 C 
ATOM     55  C   UNL A   1      47.043  29.954  31.006  1.00  0.00     0.029 A 
ATOM     56  C   UNL A   1      46.280  28.949  30.433  1.00  0.00     0.049 A 
ATOM     57  H   UNL A   1      44.239  28.971  29.898  1.00  0.00     0.167 HD
ATOM     58  C   UNL A   1      45.883  26.685  29.492  1.00  0.00     0.074 A 
ATOM     59  C   UNL A   1      46.318  25.358  29.108  1.00  0.00     0.031 C 
ATOM     60  C   UNL A   1      46.690  27.622  30.048  1.00  0.00     0.037 A 
BRANCH  47  61
ATOM     61  C   UNL A   1      43.879  32.983  31.313  1.00  0.00     0.058 A 
ATOM     62  C   UNL A   1      43.719  33.245  32.683  1.00  0.00     0.135 A 
ATOM     63  C   UNL A   1      44.149  34.067  30.464  1.00  0.00     0.135 A 
ATOM     64  F   UNL A   1      43.440  32.244  33.533  1.00  0.00    -0.206 F 
ATOM     65  C   UNL A   1      43.793  34.536  33.190  1.00  0.00     0.059 A 
ATOM     66  C   UNL A   1      44.249  35.367  30.953  1.00  0.00     0.059 A 
ATOM     67  F   UNL A   1      44.306  33.872  29.145  1.00  0.00    -0.206 F 
ATOM     68  C   UNL A   1      44.054  35.592  32.315  1.00  0.00     0.060 A 
BRANCH  68  69
ATOM     69  S   UNL A   1      44.136  37.267  32.985  1.00  0.00     0.124 S 
ATOM     70  O   UNL A   1      45.458  37.267  33.602  1.00  0.00    -0.237 OA
ATOM     71  O   UNL A   1      43.997  38.092  31.789  1.00  0.00    -0.237 OA
ATOM     72  O   UNL A   1      43.009  37.316  33.911  1.00  0.00    -0.744 OA
ENDBRANCH  68  69
ENDBRANCH  47  61
BRANCH  48  73
ATOM     73  C   UNL A   1      42.694  23.766  27.631  1.00  0.00     0.058 A 
ATOM     74  C   UNL A   1      42.507  22.689  28.510  1.00  0.00     0.135 A 
ATOM     75  C   UNL A   1      42.664  23.503  26.254  1.00  0.00     0.135 A 
ATOM     76  F   UNL A   1      42.533  22.895  29.836  1.00  0.00    -0.206 F 
ATOM     77  C   UNL A   1      42.297  21.397  28.044  1.00  0.00     0.059 A 
ATOM     78  C   UNL A   1      42.440  22.219  25.762  1.00  0.00     0.059 A 
ATOM     79  F   UNL A   1      42.822  24.503  25.374  1.00  0.00    -0.206 F 
ATOM     80  C   UNL A   1      42.261  21.172  26.666  1.00  0.00     0.060 A 
BRANCH  80  81
ATOM     81  S   UNL A   1      41.915  19.502  26.071  1.00  0.00     0.124 S 
ATOM     82  O   UNL A   1      42.793  19.418  24.909  1.00  0.00    -0.237 OA
ATOM     83  O   UNL A   1      42.294  18.683  27.219  1.00  0.00    -0.237 OA
ATOM     84  O   UNL A   1      40.484  19.539  25.784  1.00  0.00    -0.744 OA
ENDBRANCH  80  81
ENDBRANCH  48  73
BRANCH  60  85
ATOM     85  C   UNL A   1      48.122  27.245  30.292  1.00  0.00     0.058 A 
ATOM     86  C   UNL A   1      49.137  27.629  29.403  1.00  0.00     0.135 A 
ATOM     87  C   UNL A   1      48.490  26.564  31.462  1.00  0.00     0.135 A 
ATOM     88  F   UNL A   1      48.833  28.276  28.267  1.00  0.00    -0.206 F 
ATOM     89  C   UNL A   1      50.473  27.346  29.666  1.00  0.00     0.059 A 
ATOM     90  C   UNL A   1      49.822  26.287  31.755  1.00  0.00     0.059 A 
ATOM     91  F   UNL A   1      47.553  26.183  32.345  1.00  0.00    -0.206 F 
ATOM     92  C   UNL A   1      50.806  26.679  30.847  1.00  0.00     0.060 A 
BRANCH  92  93
ATOM     93  S   UNL A   1      52.549  26.371  31.205  1.00  0.00     0.124 S 
ATOM     94  O   UNL A   1      52.474  25.141  31.987  1.00  0.00    -0.237 OA
ATOM     95  O   UNL A   1      53.126  26.241  29.871  1.00  0.00    -0.237 OA
ATOM     96  O   UNL A   1      52.958  27.562  31.945  1.00  0.00    -0.744 OA
ENDBRANCH  92  93
ENDBRANCH  60  85
ENDBRANCH  34  35
ENDBRANCH  26  29
ENDBRANCH  24  25
ENDBRANCH   1  24
TORSDOF 15
ENDMDL
MODEL 2
REMARK VINA RESULT:     -11.9      4.969     10.366
REMARK SMILES Cc1cc(Br)cc2c1O[C@H](C(F)(F)F)C(C(=O)NCCCCNC(=O)c1ccc(-c3c4nc(c(-c5c(F)cc(S(=O)(=O)[O-])cc5F)c5ccc([nH]5)c(-c5c(F)cc(S(=O)(=O)[O-])cc5F)c5nc(c(-c6c(F)cc(S(=O)(=O)[O-])cc6F)c6ccc3[nH]6)C=C5)C=C4)cc1)=C2
REMARK SMILES IDX 21 1 20 2 19 3 18 4 16 5 17 6 15 8 1 9 2 10 3 11 8 12 4 13
REMARK SMILES IDX 7 14 9 15 5 16 6 17 92 18 10 19 11 20 12 21 13 22 14 23
REMARK SMILES IDX 22 24 23 25 24 26 25 28 26 29 27 30 91 31 28 32 90 33 29 34
REMARK SMILES IDX 30 35 31 36 84 37 32 38 89 39 83 40 85 41 33 42 88 43 82 44
REMARK SMILES IDX 81 45 34 47 68 48 47 49 67 50 48 51 51 52 66 53 86 54 49 55
REMARK SMILES IDX 50 56 65 58 87 59 52 60 35 61 36 62 45 63 37 64 38 65 44 66
REMARK SMILES IDX 46 67 39 68 40 69 41 70 42 71 43 72 69 73 70 74 79 75 71 76
REMARK SMILES IDX 72 77 78 78 80 79 73 80 74 81 75 82 76 83 77 84 53 85 54 86
REMARK SMILES IDX 63 87 55 88 56 89 62 90 64 91 57 92 58 93 59 94 60 95 61 96
REMARK H PARENT 18 7 23 27 85 46 51 57
REMARK Flexibility Score: inf
ROOT
ATOM      1  C   UNL A   1      40.181  22.396  27.485  1.00  0.00     0.023 C 
ENDROOT
BRANCH   1   2
ATOM      2  C   UNL A   1      39.380  22.069  26.221  1.00  0.00     0.023 C 
BRANCH   2   3
ATOM      3  C   UNL A   1      38.147  22.944  26.017  1.00  0.00     0.116 C 
BRANCH   3   4
ATOM      4  N   UNL A   1      37.687  22.927  24.640  1.00  0.00    -0.352 N 
ATOM      5  C   UNL A   1      36.526  23.155  23.983  1.00  0.00     0.251 C 
ATOM      6  O   UNL A   1      36.580  23.020  22.756  1.00  0.00    -0.270 OA
ATOM      7  H   UNL A   1      38.412  22.683  24.019  1.00  0.00     0.163 HD
BRANCH   5   8
ATOM      8  C   UNL A   1      35.234  23.545  24.621  1.00  0.00     0.067 C 
ATOM      9  C   UNL A   1      30.416  23.900  26.371  1.00  0.00     0.048 C 
ATOM     10  C   UNL A   1      31.562  24.857  26.207  1.00  0.00    -0.007 A 
ATOM     11  C   UNL A   1      31.440  26.189  26.623  1.00  0.00     0.023 A 
ATOM     12  C   UNL A   1      32.769  24.439  25.628  1.00  0.00     0.130 A 
ATOM     13  C   UNL A   1      32.504  27.076  26.457  1.00  0.00     0.019 A 
ATOM     14  C   UNL A   1      33.833  25.330  25.455  1.00  0.00     0.019 A 
ATOM     15  O   UNL A   1      32.844  23.142  25.197  1.00  0.00    -0.475 OA
ATOM     16  Br  UNL A   1      32.319  28.871  27.022  1.00  0.00    -0.051 Br
ATOM     17  C   UNL A   1      33.698  26.656  25.872  1.00  0.00     0.027 A 
ATOM     18  C   UNL A   1      35.055  24.867  24.806  1.00  0.00     0.025 C 
ATOM     19  C   UNL A   1      34.183  22.579  25.089  1.00  0.00     0.314 C 
BRANCH  19  20
ATOM     20  C   UNL A   1      34.555  21.892  26.416  1.00  0.00     0.429 C 
ATOM     21  F   UNL A   1      35.539  20.978  26.215  1.00  0.00    -0.167 F 
ATOM     22  F   UNL A   1      35.021  22.764  27.340  1.00  0.00    -0.167 F 
ATOM     23  F   UNL A   1      33.511  21.241  26.978  1.00  0.00    -0.167 F 
ENDBRANCH  19  20
ENDBRANCH   5   8
ENDBRANCH   3   4
ENDBRANCH   2   3
ENDBRANCH   1   2
BRANCH   1  24
ATOM     24  C   UNL A   1      41.534  23.070  27.253  1.00  0.00     0.116 C 
BRANCH  24  25
ATOM     25  N   UNL A   1      41.566  23.943  26.087  1.00  0.00    -0.352 N 
ATOM     26  C   UNL A   1      41.486  25.315  26.061  1.00  0.00     0.251 C 
ATOM     27  H   UNL A   1      41.656  23.498  25.214  1.00  0.00     0.163 HD
ATOM     28  O   UNL A   1      41.458  25.921  24.994  1.00  0.00    -0.269 OA
BRANCH  26  29
ATOM     29  C   UNL A   1      41.385  26.039  27.342  1.00  0.00     0.039 A 
ATOM     30  C   UNL A   1      42.440  26.869  27.728  1.00  0.00     0.014 A 
ATOM     31  C   UNL A   1      40.215  25.965  28.103  1.00  0.00     0.014 A 
ATOM     32  C   UNL A   1      42.286  27.692  28.844  1.00  0.00     0.010 A 
ATOM     33  C   UNL A   1      40.045  26.826  29.182  1.00  0.00     0.010 A 
ATOM     34  C   UNL A   1      41.073  27.706  29.552  1.00  0.00    -0.014 A 
BRANCH  34  35
ATOM     35  C   UNL A   1      40.857  28.653  30.672  1.00  0.00     0.031 A 
ATOM     36  C   UNL A   1      41.704  28.562  31.907  1.00  0.00     0.074 A 
ATOM     37  C   UNL A   1      39.859  29.556  30.593  1.00  0.00     0.049 A 
ATOM     38  N   UNL A   1      41.632  29.265  33.008  1.00  0.00    -0.248 NA
ATOM     39  C   UNL A   1      42.754  27.532  31.915  1.00  0.00     0.031 C 
ATOM     40  C   UNL A   1      38.943  29.707  29.459  1.00  0.00     0.029 A 
ATOM     41  N   UNL A   1      39.449  30.516  31.482  1.00  0.00    -0.354 N 
ATOM     42  C   UNL A   1      42.622  28.760  33.841  1.00  0.00     0.074 A 
ATOM     43  C   UNL A   1      43.247  27.659  33.139  1.00  0.00     0.031 C 
ATOM     44  C   UNL A   1      38.101  30.724  29.709  1.00  0.00     0.029 A 
ATOM     45  C   UNL A   1      38.397  31.276  31.028  1.00  0.00     0.049 A 
ATOM     46  H   UNL A   1      39.868  30.649  32.363  1.00  0.00     0.167 HD
ATOM     47  C   UNL A   1      42.994  29.193  35.069  1.00  0.00     0.037 A 
ATOM     48  C   UNL A   1      37.750  32.305  31.607  1.00  0.00     0.037 A 
ATOM     49  C   UNL A   1      42.386  30.303  35.751  1.00  0.00     0.049 A 
ATOM     50  C   UNL A   1      38.182  32.770  32.969  1.00  0.00     0.074 A 
ATOM     51  C   UNL A   1      42.714  30.841  36.983  1.00  0.00     0.029 A 
ATOM     52  N   UNL A   1      41.328  31.051  35.255  1.00  0.00    -0.354 N 
ATOM     53  N   UNL A   1      39.142  32.302  33.730  1.00  0.00    -0.248 NA
ATOM     54  C   UNL A   1      37.446  33.900  33.552  1.00  0.00     0.031 C 
ATOM     55  C   UNL A   1      41.840  31.902  37.242  1.00  0.00     0.029 A 
ATOM     56  C   UNL A   1      40.987  32.043  36.159  1.00  0.00     0.049 A 
ATOM     57  H   UNL A   1      40.886  30.900  34.388  1.00  0.00     0.167 HD
ATOM     58  C   UNL A   1      39.139  33.092  34.873  1.00  0.00     0.074 A 
ATOM     59  C   UNL A   1      38.085  34.071  34.702  1.00  0.00     0.031 C 
ATOM     60  C   UNL A   1      39.937  33.011  35.966  1.00  0.00     0.037 A 
BRANCH  47  61
ATOM     61  C   UNL A   1      44.125  28.467  35.737  1.00  0.00     0.058 A 
ATOM     62  C   UNL A   1      43.887  27.387  36.603  1.00  0.00     0.135 A 
ATOM     63  C   UNL A   1      45.457  28.843  35.507  1.00  0.00     0.135 A 
ATOM     64  F   UNL A   1      42.629  27.002  36.870  1.00  0.00    -0.206 F 
ATOM     65  C   UNL A   1      44.928  26.724  37.240  1.00  0.00     0.059 A 
ATOM     66  C   UNL A   1      46.517  28.179  36.118  1.00  0.00     0.059 A 
ATOM     67  F   UNL A   1      45.739  29.872  34.692  1.00  0.00    -0.206 F 
ATOM     68  C   UNL A   1      46.240  27.131  36.995  1.00  0.00     0.060 A 
BRANCH  68  69
ATOM     69  S   UNL A   1      47.582  26.267  37.840  1.00  0.00     0.124 S 
ATOM     70  O   UNL A   1      48.730  27.094  37.481  1.00  0.00    -0.237 OA
ATOM     71  O   UNL A   1      47.168  26.334  39.238  1.00  0.00    -0.237 OA
ATOM     72  O   UNL A   1      47.555  24.935  37.245  1.00  0.00    -0.744 OA
ENDBRANCH  68  69
ENDBRANCH  47  61
BRANCH  48  73
ATOM     73  C   UNL A   1      36.657  32.995  30.875  1.00  0.00     0.058 A 
ATOM     74  C   UNL A   1      35.318  32.799  31.244  1.00  0.00     0.135 A 
ATOM     75  C   UNL A   1      36.926  33.887  29.827  1.00  0.00     0.135 A 
ATOM     76  F   UNL A   1      35.015  31.950  32.238  1.00  0.00    -0.206 F 
ATOM     77  C   UNL A   1      34.281  33.462  30.600  1.00  0.00     0.059 A 
ATOM     78  C   UNL A   1      35.905  34.575  29.176  1.00  0.00     0.059 A 
ATOM     79  F   UNL A   1      38.192  34.120  29.449  1.00  0.00    -0.206 F 
ATOM     80  C   UNL A   1      34.585  34.353  29.568  1.00  0.00     0.060 A 
BRANCH  80  81
ATOM     81  S   UNL A   1      33.235  35.264  28.787  1.00  0.00     0.124 S 
ATOM     82  O   UNL A   1      32.601  34.221  27.989  1.00  0.00    -0.237 OA
ATOM     83  O   UNL A   1      32.476  35.738  29.940  1.00  0.00    -0.237 OA
ATOM     84  O   UNL A   1      33.927  36.306  28.032  1.00  0.00    -0.744 OA
ENDBRANCH  80  81
ENDBRANCH  48  73
BRANCH  60  85
ATOM     85  C   UNL A   1      39.717  34.016  37.059  1.00  0.00     0.058 A 
ATOM     86  C   UNL A   1      38.935  33.711  38.183  1.00  0.00     0.135 A 
ATOM     87  C   UNL A   1      40.357  35.264  37.017  1.00  0.00     0.135 A 
ATOM     88  F   UNL A   1      38.298  32.533  38.263  1.00  0.00    -0.206 F 
ATOM     89  C   UNL A   1      38.793  34.614  39.231  1.00  0.00     0.059 A 
ATOM     90  C   UNL A   1      40.243  36.176  38.063  1.00  0.00     0.059 A 
ATOM     91  F   UNL A   1      41.120  35.598  35.965  1.00  0.00    -0.206 F 
ATOM     92  C   UNL A   1      39.454  35.841  39.164  1.00  0.00     0.060 A 
BRANCH  92  93
ATOM     93  S   UNL A   1      39.310  36.979  40.558  1.00  0.00     0.124 S 
ATOM     94  O   UNL A   1      38.552  38.075  39.965  1.00  0.00    -0.237 OA
ATOM     95  O   UNL A   1      38.597  36.177  41.546  1.00  0.00    -0.237 OA
ATOM     96  O   UNL A   1      40.699  37.284  40.893  1.00  0.00    -0.744 OA
ENDBRANCH  92  93
ENDBRANCH  60  85
ENDBRANCH  34  35
ENDBRANCH  26  29
ENDBRANCH  24  25
ENDBRANCH   1  24
TORSDOF 15
ENDMDL
MODEL 3
REMARK VINA RESULT:     -11.8      4.995     10.373
REMARK SMILES Cc1cc(Br)cc2c1O[C@H](C(F)(F)F)C(C(=O)NCCCCNC(=O)c1ccc(-c3c4nc(c(-c5c(F)cc(S(=O)(=O)[O-])cc5F)c5ccc([nH]5)c(-c5c(F)cc(S(=O)(=O)[O-])cc5F)c5nc(c(-c6c(F)cc(S(=O)(=O)[O-])cc6F)c6ccc3[nH]6)C=C5)C=C4)cc1)=C2
REMARK SMILES IDX 21 1 20 2 19 3 18 4 16 5 17 6 15 8 1 9 2 10 3 11 8 12 4 13
REMARK SMILES IDX 7 14 9 15 5 16 6 17 92 18 10 19 11 20 12 21 13 22 14 23
REMARK SMILES IDX 22 24 23 25 24 26 25 28 26 29 27 30 91 31 28 32 90 33 29 34
REMARK SMILES IDX 30 35 31 36 84 37 32 38 89 39 83 40 85 41 33 42 88 43 82 44
REMARK SMILES IDX 81 45 34 47 68 48 47 49 67 50 48 51 51 52 66 53 86 54 49 55
REMARK SMILES IDX 50 56 65 58 87 59 52 60 35 61 36 62 45 63 37 64 38 65 44 66
REMARK SMILES IDX 46 67 39 68 40 69 41 70 42 71 43 72 69 73 70 74 79 75 71 76
REMARK SMILES IDX 72 77 78 78 80 79 73 80 74 81 75 82 76 83 77 84 53 85 54 86
REMARK SMILES IDX 63 87 55 88 56 89 62 90 64 91 57 92 58 93 59 94 60 95 61 96
REMARK H PARENT 18 7 23 27 85 46 51 57
REMARK Flexibility Score: inf
ROOT
ATOM      1  C   UNL A   1      40.026  22.386  27.335  1.00  0.00     0.023 C 
ENDROOT
BRANCH   1   2
ATOM      2  C   UNL A   1      39.341  22.082  26.000  1.00  0.00     0.023 C 
BRANCH   2   3
ATOM      3  C   UNL A   1      38.058  22.871  25.760  1.00  0.00     0.116 C 
BRANCH   3   4
ATOM      4  N   UNL A   1      36.878  22.129  26.168  1.00  0.00    -0.352 N 
ATOM      5  C   UNL A   1      35.549  22.172  25.917  1.00  0.00     0.251 C 
ATOM      6  O   UNL A   1      34.874  21.318  26.502  1.00  0.00    -0.270 OA
ATOM      7  H   UNL A   1      37.104  21.404  26.794  1.00  0.00     0.163 HD
BRANCH   5   8
ATOM      8  C   UNL A   1      34.870  23.148  25.012  1.00  0.00     0.067 C 
ATOM      9  C   UNL A   1      32.886  25.786  21.076  1.00  0.00     0.048 C 
ATOM     10  C   UNL A   1      33.181  26.087  22.517  1.00  0.00    -0.007 A 
ATOM     11  C   UNL A   1      32.856  27.336  23.063  1.00  0.00     0.023 A 
ATOM     12  C   UNL A   1      33.795  25.130  23.338  1.00  0.00     0.130 A 
ATOM     13  C   UNL A   1      33.144  27.612  24.400  1.00  0.00     0.019 A 
ATOM     14  C   UNL A   1      34.091  25.411  24.677  1.00  0.00     0.019 A 
ATOM     15  O   UNL A   1      34.136  23.934  22.766  1.00  0.00    -0.475 OA
ATOM     16  Br  UNL A   1      32.700  29.304  25.119  1.00  0.00    -0.051 Br
ATOM     17  C   UNL A   1      33.762  26.660  25.209  1.00  0.00     0.027 A 
ATOM     18  C   UNL A   1      34.771  24.404  25.484  1.00  0.00     0.025 C 
ATOM     19  C   UNL A   1      34.277  22.806  23.675  1.00  0.00     0.314 C 
BRANCH  19  20
ATOM     20  C   UNL A   1      32.926  22.075  23.793  1.00  0.00     0.429 C 
ATOM     21  F   UNL A   1      33.124  20.743  23.967  1.00  0.00    -0.167 F 
ATOM     22  F   UNL A   1      32.196  22.498  24.851  1.00  0.00    -0.167 F 
ATOM     23  F   UNL A   1      32.152  22.226  22.694  1.00  0.00    -0.167 F 
ENDBRANCH  19  20
ENDBRANCH   5   8
ENDBRANCH   3   4
ENDBRANCH   2   3
ENDBRANCH   1   2
BRANCH   1  24
ATOM     24  C   UNL A   1      41.379  23.093  27.237  1.00  0.00     0.116 C 
BRANCH  24  25
ATOM     25  N   UNL A   1      41.505  23.968  26.080  1.00  0.00    -0.352 N 
ATOM     26  C   UNL A   1      41.507  25.343  26.060  1.00  0.00     0.251 C 
ATOM     27  H   UNL A   1      41.599  23.522  25.207  1.00  0.00     0.163 HD
ATOM     28  O   UNL A   1      41.553  25.954  24.997  1.00  0.00    -0.269 OA
BRANCH  26  29
ATOM     29  C   UNL A   1      41.402  26.065  27.342  1.00  0.00     0.039 A 
ATOM     30  C   UNL A   1      42.434  26.932  27.709  1.00  0.00     0.014 A 
ATOM     31  C   UNL A   1      40.249  25.952  28.124  1.00  0.00     0.014 A 
ATOM     32  C   UNL A   1      42.271  27.751  28.826  1.00  0.00     0.010 A 
ATOM     33  C   UNL A   1      40.068  26.808  29.204  1.00  0.00     0.010 A 
ATOM     34  C   UNL A   1      41.071  27.724  29.555  1.00  0.00    -0.014 A 
BRANCH  34  35
ATOM     35  C   UNL A   1      40.840  28.665  30.677  1.00  0.00     0.031 A 
ATOM     36  C   UNL A   1      41.674  28.569  31.921  1.00  0.00     0.074 A 
ATOM     37  C   UNL A   1      39.843  29.567  30.591  1.00  0.00     0.049 A 
ATOM     38  N   UNL A   1      41.589  29.266  33.024  1.00  0.00    -0.248 NA
ATOM     39  C   UNL A   1      42.726  27.540  31.936  1.00  0.00     0.031 C 
ATOM     40  C   UNL A   1      38.939  29.723  29.449  1.00  0.00     0.029 A 
ATOM     41  N   UNL A   1      39.421  30.522  31.481  1.00  0.00    -0.354 N 
ATOM     42  C   UNL A   1      42.570  28.758  33.866  1.00  0.00     0.074 A 
ATOM     43  C   UNL A   1      43.204  27.662  33.166  1.00  0.00     0.031 C 
ATOM     44  C   UNL A   1      38.093  30.737  29.694  1.00  0.00     0.029 A 
ATOM     45  C   UNL A   1      38.373  31.283  31.019  1.00  0.00     0.049 A 
ATOM     46  H   UNL A   1      39.830  30.651  32.367  1.00  0.00     0.167 HD
ATOM     47  C   UNL A   1      42.928  29.185  35.100  1.00  0.00     0.037 A 
ATOM     48  C   UNL A   1      37.718  32.308  31.596  1.00  0.00     0.037 A 
ATOM     49  C   UNL A   1      42.311  30.291  35.781  1.00  0.00     0.049 A 
ATOM     50  C   UNL A   1      38.134  32.766  32.965  1.00  0.00     0.074 A 
ATOM     51  C   UNL A   1      42.624  30.823  37.020  1.00  0.00     0.029 A 
ATOM     52  N   UNL A   1      41.258  31.040  35.278  1.00  0.00    -0.354 N 
ATOM     53  N   UNL A   1      39.087  32.296  33.734  1.00  0.00    -0.248 NA
ATOM     54  C   UNL A   1      37.390  33.892  33.546  1.00  0.00     0.031 C 
ATOM     55  C   UNL A   1      41.745  31.882  37.274  1.00  0.00     0.029 A 
ATOM     56  C   UNL A   1      40.904  32.027  36.183  1.00  0.00     0.049 A 
ATOM     57  H   UNL A   1      40.825  30.893  34.405  1.00  0.00     0.167 HD
ATOM     58  C   UNL A   1      39.069  33.080  34.882  1.00  0.00     0.074 A 
ATOM     59  C   UNL A   1      38.016  34.059  34.704  1.00  0.00     0.031 C 
ATOM     60  C   UNL A   1      39.855  32.995  35.983  1.00  0.00     0.037 A 
BRANCH  47  61
ATOM     61  C   UNL A   1      44.053  28.458  35.777  1.00  0.00     0.058 A 
ATOM     62  C   UNL A   1      45.387  28.867  35.615  1.00  0.00     0.135 A 
ATOM     63  C   UNL A   1      43.800  27.353  36.604  1.00  0.00     0.135 A 
ATOM     64  F   UNL A   1      45.681  29.907  34.819  1.00  0.00    -0.206 F 
ATOM     65  C   UNL A   1      46.434  28.187  36.223  1.00  0.00     0.059 A 
ATOM     66  C   UNL A   1      44.833  26.670  37.241  1.00  0.00     0.059 A 
ATOM     67  F   UNL A   1      42.544  26.919  36.789  1.00  0.00    -0.206 F 
ATOM     68  C   UNL A   1      46.147  27.085  37.031  1.00  0.00     0.060 A 
BRANCH  68  69
ATOM     69  S   UNL A   1      47.520  26.205  37.806  1.00  0.00     0.124 S 
ATOM     70  O   UNL A   1      47.701  25.086  36.887  1.00  0.00    -0.237 OA
ATOM     71  O   UNL A   1      48.581  27.207  37.798  1.00  0.00    -0.237 OA
ATOM     72  O   UNL A   1      46.999  25.858  39.125  1.00  0.00    -0.744 OA
ENDBRANCH  68  69
ENDBRANCH  47  61
BRANCH  48  73
ATOM     73  C   UNL A   1      36.633  33.000  30.856  1.00  0.00     0.058 A 
ATOM     74  C   UNL A   1      35.290  32.808  31.215  1.00  0.00     0.135 A 
ATOM     75  C   UNL A   1      36.911  33.890  29.808  1.00  0.00     0.135 A 
ATOM     76  F   UNL A   1      34.978  31.962  32.208  1.00  0.00    -0.206 F 
ATOM     77  C   UNL A   1      34.260  33.474  30.563  1.00  0.00     0.059 A 
ATOM     78  C   UNL A   1      35.897  34.581  29.149  1.00  0.00     0.059 A 
ATOM     79  F   UNL A   1      38.180  34.118  29.438  1.00  0.00    -0.206 F 
ATOM     80  C   UNL A   1      34.573  34.363  29.533  1.00  0.00     0.060 A 
BRANCH  80  81
ATOM     81  S   UNL A   1      33.232  35.276  28.740  1.00  0.00     0.124 S 
ATOM     82  O   UNL A   1      33.970  36.264  27.961  1.00  0.00    -0.237 OA
ATOM     83  O   UNL A   1      32.560  34.231  27.974  1.00  0.00    -0.237 OA
ATOM     84  O   UNL A   1      32.470  35.801  29.871  1.00  0.00    -0.744 OA
ENDBRANCH  80  81
ENDBRANCH  48  73
BRANCH  60  85
ATOM     85  C   UNL A   1      39.622  33.994  37.078  1.00  0.00     0.058 A 
ATOM     86  C   UNL A   1      38.864  33.668  38.212  1.00  0.00     0.135 A 
ATOM     87  C   UNL A   1      40.226  35.259  37.028  1.00  0.00     0.135 A 
ATOM     88  F   UNL A   1      38.261  32.472  38.302  1.00  0.00    -0.206 F 
ATOM     89  C   UNL A   1      38.710  34.566  39.262  1.00  0.00     0.059 A 
ATOM     90  C   UNL A   1      40.100  36.168  38.074  1.00  0.00     0.059 A 
ATOM     91  F   UNL A   1      40.965  35.614  35.965  1.00  0.00    -0.206 F 
ATOM     92  C   UNL A   1      39.336  35.812  39.186  1.00  0.00     0.060 A 
BRANCH  92  93
ATOM     93  S   UNL A   1      39.178  36.947  40.582  1.00  0.00     0.124 S 
ATOM     94  O   UNL A   1      40.574  37.276  40.851  1.00  0.00    -0.237 OA
ATOM     95  O   UNL A   1      38.369  38.024  40.022  1.00  0.00    -0.237 OA
ATOM     96  O   UNL A   1      38.515  36.139  41.602  1.00  0.00    -0.744 OA
ENDBRANCH  92  93
ENDBRANCH  60  85
ENDBRANCH  34  35
ENDBRANCH  26  29
ENDBRANCH  24  25
ENDBRANCH   1  24
TORSDOF 15
ENDMDL
