MODEL 1
REMARK VINA RESULT:     -11.5      0.000      0.000
REMARK SMILES CN(C)C(=O)c1cc(N(CC(=O)NCCCCNC(=O)c2ccc(-c3c4nc(c(-c5c(F)cc(S(=O)(=O)[O-])cc5F)c5ccc([nH]5)c(-c5c(F)cc(S(=O)(=O)[O-])cc5F)c5nc(c(-c6c(F)cc(S(=O)(=O)[O-])cc6F)c6ccc3[nH]6)C=C5)C=C4)cc2)CC(F)(F)F)ccn1
REMARK SMILES IDX 15 1 14 2 13 3 11 4 12 5 10 7 9 8 8 9 6 10 7 11 94 12 93 13
REMARK SMILES IDX 92 14 4 15 1 16 2 17 3 18 5 19 87 20 88 21 89 22 90 23 91 24
REMARK SMILES IDX 16 25 17 26 18 27 19 28 20 30 21 31 22 32 86 33 23 34 85 35
REMARK SMILES IDX 24 36 25 37 26 38 79 39 27 40 84 41 78 42 80 43 28 44 83 45
REMARK SMILES IDX 77 46 76 47 29 49 63 50 42 51 62 52 43 53 46 54 61 55 81 56
REMARK SMILES IDX 44 57 45 58 60 60 82 61 47 62 30 63 31 64 40 65 32 66 33 67
REMARK SMILES IDX 39 68 41 69 34 70 35 71 36 72 37 73 38 74 64 75 65 76 74 77
REMARK SMILES IDX 66 78 67 79 73 80 75 81 68 82 69 83 70 84 71 85 72 86 48 87
REMARK SMILES IDX 49 88 58 89 50 90 51 91 57 92 59 93 52 94 53 95 54 96 55 97
REMARK SMILES IDX 56 98
REMARK H PARENT 13 6 18 29 80 48 46 59
REMARK Flexibility Score: inf
ROOT
ATOM      1  C   UNL A   1      39.354  21.490  25.774  1.00  0.00     0.023 C 
ENDROOT
BRANCH   1   2
ATOM      2  C   UNL A   1      37.989  22.174  25.761  1.00  0.00     0.116 C 
BRANCH   2   3
ATOM      3  N   UNL A   1      37.550  22.488  24.416  1.00  0.00    -0.355 N 
ATOM      4  C   UNL A   1      36.455  23.202  24.021  1.00  0.00     0.239 C 
ATOM      5  O   UNL A   1      36.207  23.301  22.817  1.00  0.00    -0.273 OA
ATOM      6  H   UNL A   1      38.116  22.139  23.690  1.00  0.00     0.163 HD
BRANCH   4   7
ATOM      7  C   UNL A   1      35.566  23.890  25.064  1.00  0.00     0.216 C 
BRANCH   7   8
ATOM      8  N   UNL A   1      34.180  23.355  25.100  1.00  0.00    -0.353 N 
BRANCH   8   9
ATOM      9  C   UNL A   1      33.096  24.094  25.565  1.00  0.00     0.041 A 
ATOM     10  C   UNL A   1      31.742  26.112  25.613  1.00  0.00     0.130 A 
ATOM     11  C   UNL A   1      32.918  25.448  25.250  1.00  0.00     0.060 A 
ATOM     12  N   UNL A   1      30.751  25.540  26.333  1.00  0.00    -0.251 NA
ATOM     13  C   UNL A   1      30.953  24.271  26.706  1.00  0.00     0.114 A 
ATOM     14  C   UNL A   1      32.083  23.538  26.363  1.00  0.00     0.046 A 
BRANCH  10  15
ATOM     15  C   UNL A   1      31.539  27.553  25.271  1.00  0.00     0.272 C 
ATOM     16  C   UNL A   1      31.766  29.928  25.744  1.00  0.00     0.146 C 
ATOM     17  N   UNL A   1      32.055  28.553  26.107  1.00  0.00    -0.343 N 
ATOM     18  C   UNL A   1      32.934  28.346  27.248  1.00  0.00     0.146 C 
ATOM     19  O   UNL A   1      30.896  27.823  24.255  1.00  0.00    -0.267 OA
ENDBRANCH  10  15
ENDBRANCH   8   9
BRANCH   8  20
ATOM     20  C   UNL A   1      34.023  21.981  24.517  1.00  0.00     0.232 C 
BRANCH  20  21
ATOM     21  C   UNL A   1      34.289  20.776  25.440  1.00  0.00     0.405 C 
ATOM     22  F   UNL A   1      33.300  19.855  25.381  1.00  0.00    -0.169 F 
ATOM     23  F   UNL A   1      35.427  20.145  25.059  1.00  0.00    -0.169 F 
ATOM     24  F   UNL A   1      34.441  21.130  26.732  1.00  0.00    -0.169 F 
ENDBRANCH  20  21
ENDBRANCH   8  20
ENDBRANCH   7   8
ENDBRANCH   4   7
ENDBRANCH   2   3
ENDBRANCH   1   2
BRANCH   1  25
ATOM     25  C   UNL A   1      40.149  21.711  27.063  1.00  0.00     0.023 C 
BRANCH  25  26
ATOM     26  C   UNL A   1      40.336  23.175  27.445  1.00  0.00     0.116 C 
BRANCH  26  27
ATOM     27  N   UNL A   1      40.757  23.997  26.321  1.00  0.00    -0.352 N 
ATOM     28  C   UNL A   1      40.938  25.357  26.266  1.00  0.00     0.251 C 
ATOM     29  H   UNL A   1      40.937  23.511  25.483  1.00  0.00     0.163 HD
ATOM     30  O   UNL A   1      41.137  25.904  25.185  1.00  0.00    -0.269 OA
BRANCH  28  31
ATOM     31  C   UNL A   1      40.862  26.156  27.506  1.00  0.00     0.039 A 
ATOM     32  C   UNL A   1      41.867  27.089  27.767  1.00  0.00     0.014 A 
ATOM     33  C   UNL A   1      39.795  26.002  28.396  1.00  0.00     0.014 A 
ATOM     34  C   UNL A   1      41.767  27.911  28.890  1.00  0.00     0.010 A 
ATOM     35  C   UNL A   1      39.653  26.880  29.466  1.00  0.00     0.010 A 
ATOM     36  C   UNL A   1      40.640  27.841  29.727  1.00  0.00    -0.014 A 
BRANCH  36  37
ATOM     37  C   UNL A   1      40.479  28.787  30.861  1.00  0.00     0.031 A 
ATOM     38  C   UNL A   1      41.330  28.654  32.093  1.00  0.00     0.074 A 
ATOM     39  C   UNL A   1      39.529  29.742  30.790  1.00  0.00     0.049 A 
ATOM     40  N   UNL A   1      41.334  29.391  33.175  1.00  0.00    -0.248 NA
ATOM     41  C   UNL A   1      42.286  27.535  32.130  1.00  0.00     0.031 C 
ATOM     42  C   UNL A   1      38.598  29.926  29.675  1.00  0.00     0.029 A 
ATOM     43  N   UNL A   1      39.192  30.739  31.671  1.00  0.00    -0.354 N 
ATOM     44  C   UNL A   1      42.283  28.824  34.017  1.00  0.00     0.074 A 
ATOM     45  C   UNL A   1      42.790  27.645  33.350  1.00  0.00     0.031 C 
ATOM     46  C   UNL A   1      37.823  30.994  29.920  1.00  0.00     0.029 A 
ATOM     47  C   UNL A   1      38.173  31.548  31.224  1.00  0.00     0.049 A 
ATOM     48  H   UNL A   1      39.636  30.863  32.539  1.00  0.00     0.167 HD
ATOM     49  C   UNL A   1      42.714  29.262  35.225  1.00  0.00     0.037 A 
ATOM     50  C   UNL A   1      37.586  32.615  31.798  1.00  0.00     0.037 A 
ATOM     51  C   UNL A   1      42.212  30.446  35.875  1.00  0.00     0.049 A 
ATOM     52  C   UNL A   1      38.082  33.084  33.138  1.00  0.00     0.074 A 
ATOM     53  C   UNL A   1      42.621  31.011  37.070  1.00  0.00     0.029 A 
ATOM     54  N   UNL A   1      41.186  31.245  35.388  1.00  0.00    -0.354 N 
ATOM     55  N   UNL A   1      39.038  32.584  33.885  1.00  0.00    -0.248 NA
ATOM     56  C   UNL A   1      37.429  34.268  33.710  1.00  0.00     0.031 C 
ATOM     57  C   UNL A   1      41.806  32.117  37.334  1.00  0.00     0.029 A 
ATOM     58  C   UNL A   1      40.930  32.280  36.273  1.00  0.00     0.049 A 
ATOM     59  H   UNL A   1      40.710  31.097  34.539  1.00  0.00     0.167 HD
ATOM     60  C   UNL A   1      39.117  33.406  35.003  1.00  0.00     0.074 A 
ATOM     61  C   UNL A   1      38.126  34.446  34.824  1.00  0.00     0.031 C 
ATOM     62  C   UNL A   1      39.934  33.308  36.082  1.00  0.00     0.037 A 
BRANCH  49  63
ATOM     63  C   UNL A   1      43.781  28.461  35.921  1.00  0.00     0.058 A 
ATOM     64  C   UNL A   1      45.148  28.736  35.742  1.00  0.00     0.135 A 
ATOM     65  C   UNL A   1      43.436  27.428  36.809  1.00  0.00     0.135 A 
ATOM     66  F   UNL A   1      45.538  29.701  34.894  1.00  0.00    -0.206 F 
ATOM     67  C   UNL A   1      46.132  27.997  36.392  1.00  0.00     0.059 A 
ATOM     68  C   UNL A   1      44.403  26.697  37.494  1.00  0.00     0.059 A 
ATOM     69  F   UNL A   1      42.146  27.120  37.019  1.00  0.00    -0.206 F 
ATOM     70  C   UNL A   1      45.749  26.981  37.268  1.00  0.00     0.060 A 
BRANCH  70  71
ATOM     71  S   UNL A   1      47.039  26.038  38.107  1.00  0.00     0.124 S 
ATOM     72  O   UNL A   1      47.607  27.047  38.996  1.00  0.00    -0.237 OA
ATOM     73  O   UNL A   1      46.275  24.978  38.758  1.00  0.00    -0.237 OA
ATOM     74  O   UNL A   1      47.907  25.602  37.018  1.00  0.00    -0.744 OA
ENDBRANCH  70  71
ENDBRANCH  49  63
BRANCH  50  75
ATOM     75  C   UNL A   1      36.486  33.326  31.093  1.00  0.00     0.058 A 
ATOM     76  C   UNL A   1      35.167  33.274  31.569  1.00  0.00     0.135 A 
ATOM     77  C   UNL A   1      36.734  34.088  29.941  1.00  0.00     0.135 A 
ATOM     78  F   UNL A   1      34.877  32.555  32.664  1.00  0.00    -0.206 F 
ATOM     79  C   UNL A   1      34.130  33.935  30.918  1.00  0.00     0.059 A 
ATOM     80  C   UNL A   1      35.719  34.783  29.289  1.00  0.00     0.059 A 
ATOM     81  F   UNL A   1      37.981  34.187  29.455  1.00  0.00    -0.206 F 
ATOM     82  C   UNL A   1      34.418  34.692  29.780  1.00  0.00     0.060 A 
BRANCH  82  83
ATOM     83  S   UNL A   1      33.073  35.587  28.973  1.00  0.00     0.124 S 
ATOM     84  O   UNL A   1      32.290  36.036  30.119  1.00  0.00    -0.237 OA
ATOM     85  O   UNL A   1      33.793  36.626  28.243  1.00  0.00    -0.237 OA
ATOM     86  O   UNL A   1      32.444  34.566  28.139  1.00  0.00    -0.744 OA
ENDBRANCH  82  83
ENDBRANCH  50  75
BRANCH  62  87
ATOM     87  C   UNL A   1      39.810  34.370  37.139  1.00  0.00     0.058 A 
ATOM     88  C   UNL A   1      40.486  35.597  37.041  1.00  0.00     0.135 A 
ATOM     89  C   UNL A   1      38.975  34.172  38.252  1.00  0.00     0.135 A 
ATOM     90  F   UNL A   1      41.300  35.836  36.000  1.00  0.00    -0.206 F 
ATOM     91  C   UNL A   1      40.369  36.573  38.024  1.00  0.00     0.059 A 
ATOM     92  C   UNL A   1      38.816  35.148  39.230  1.00  0.00     0.059 A 
ATOM     93  F   UNL A   1      38.293  33.024  38.391  1.00  0.00    -0.206 F 
ATOM     94  C   UNL A   1      39.531  36.339  39.116  1.00  0.00     0.060 A 
BRANCH  94  95
ATOM     95  S   UNL A   1      39.376  37.622  40.377  1.00  0.00     0.124 S 
ATOM     96  O   UNL A   1      38.195  38.343  39.917  1.00  0.00    -0.237 OA
ATOM     97  O   UNL A   1      39.209  36.841  41.598  1.00  0.00    -0.237 OA
ATOM     98  O   UNL A   1      40.636  38.352  40.274  1.00  0.00    -0.744 OA
ENDBRANCH  94  95
ENDBRANCH  62  87
ENDBRANCH  36  37
ENDBRANCH  28  31
ENDBRANCH  26  27
ENDBRANCH  25  26
ENDBRANCH   1  25
TORSDOF 19
ENDMDL
MODEL 2
REMARK VINA RESULT:     -11.4      6.577     12.096
REMARK SMILES CN(C)C(=O)c1cc(N(CC(=O)NCCCCNC(=O)c2ccc(-c3c4nc(c(-c5c(F)cc(S(=O)(=O)[O-])cc5F)c5ccc([nH]5)c(-c5c(F)cc(S(=O)(=O)[O-])cc5F)c5nc(c(-c6c(F)cc(S(=O)(=O)[O-])cc6F)c6ccc3[nH]6)C=C5)C=C4)cc2)CC(F)(F)F)ccn1
REMARK SMILES IDX 15 1 14 2 13 3 11 4 12 5 10 7 9 8 8 9 6 10 7 11 94 12 93 13
REMARK SMILES IDX 92 14 4 15 1 16 2 17 3 18 5 19 87 20 88 21 89 22 90 23 91 24
REMARK SMILES IDX 16 25 17 26 18 27 19 28 20 30 21 31 22 32 86 33 23 34 85 35
REMARK SMILES IDX 24 36 25 37 26 38 79 39 27 40 84 41 78 42 80 43 28 44 83 45
REMARK SMILES IDX 77 46 76 47 29 49 63 50 42 51 62 52 43 53 46 54 61 55 81 56
REMARK SMILES IDX 44 57 45 58 60 60 82 61 47 62 30 63 31 64 40 65 32 66 33 67
REMARK SMILES IDX 39 68 41 69 34 70 35 71 36 72 37 73 38 74 64 75 65 76 74 77
REMARK SMILES IDX 66 78 67 79 73 80 75 81 68 82 69 83 70 84 71 85 72 86 48 87
REMARK SMILES IDX 49 88 58 89 50 90 51 91 57 92 59 93 52 94 53 95 54 96 55 97
REMARK SMILES IDX 56 98
REMARK H PARENT 13 6 18 29 80 48 46 59
REMARK Flexibility Score: inf
ROOT
ATOM      1  C   UNL A   1      34.236  30.034  26.928  1.00  0.00     0.023 C 
ENDROOT
BRANCH   1   2
ATOM      2  C   UNL A   1      32.858  29.910  26.280  1.00  0.00     0.116 C 
BRANCH   2   3
ATOM      3  N   UNL A   1      32.937  29.889  24.834  1.00  0.00    -0.355 N 
ATOM      4  C   UNL A   1      33.364  28.880  24.017  1.00  0.00     0.239 C 
ATOM      5  O   UNL A   1      33.428  29.080  22.802  1.00  0.00    -0.273 OA
ATOM      6  H   UNL A   1      32.644  30.711  24.378  1.00  0.00     0.163 HD
BRANCH   4   7
ATOM      7  C   UNL A   1      33.735  27.515  24.609  1.00  0.00     0.216 C 
BRANCH   7   8
ATOM      8  N   UNL A   1      32.704  26.471  24.371  1.00  0.00    -0.353 N 
BRANCH   8   9
ATOM      9  C   UNL A   1      33.004  25.217  23.848  1.00  0.00     0.041 A 
ATOM     10  C   UNL A   1      34.507  23.335  23.526  1.00  0.00     0.130 A 
ATOM     11  C   UNL A   1      34.285  24.654  23.930  1.00  0.00     0.060 A 
ATOM     12  N   UNL A   1      33.554  22.549  22.976  1.00  0.00    -0.251 NA
ATOM     13  C   UNL A   1      32.349  23.110  22.822  1.00  0.00     0.114 A 
ATOM     14  C   UNL A   1      32.045  24.405  23.221  1.00  0.00     0.046 A 
BRANCH  10  15
ATOM     15  C   UNL A   1      35.869  22.723  23.620  1.00  0.00     0.272 C 
ATOM     16  C   UNL A   1      37.589  21.478  24.805  1.00  0.00     0.146 C 
ATOM     17  N   UNL A   1      36.232  21.990  24.757  1.00  0.00    -0.343 N 
ATOM     18  C   UNL A   1      35.349  21.611  25.851  1.00  0.00     0.146 C 
ATOM     19  O   UNL A   1      36.650  22.900  22.683  1.00  0.00    -0.267 OA
ENDBRANCH  10  15
ENDBRANCH   8   9
BRANCH   8  20
ATOM     20  C   UNL A   1      31.320  26.844  24.817  1.00  0.00     0.232 C 
BRANCH  20  21
ATOM     21  C   UNL A   1      30.885  26.422  26.234  1.00  0.00     0.405 C 
ATOM     22  F   UNL A   1      30.772  27.476  27.073  1.00  0.00    -0.169 F 
ATOM     23  F   UNL A   1      29.663  25.836  26.185  1.00  0.00    -0.169 F 
ATOM     24  F   UNL A   1      31.731  25.538  26.799  1.00  0.00    -0.169 F 
ENDBRANCH  20  21
ENDBRANCH   8  20
ENDBRANCH   7   8
ENDBRANCH   4   7
ENDBRANCH   2   3
ENDBRANCH   1   2
BRANCH   1  25
ATOM     25  C   UNL A   1      34.383  31.246  27.851  1.00  0.00     0.023 C 
BRANCH  25  26
ATOM     26  C   UNL A   1      35.711  31.315  28.595  1.00  0.00     0.116 C 
BRANCH  26  27
ATOM     27  N   UNL A   1      35.592  30.927  29.992  1.00  0.00    -0.352 N 
ATOM     28  C   UNL A   1      36.514  30.308  30.797  1.00  0.00     0.251 C 
ATOM     29  H   UNL A   1      34.729  31.137  30.418  1.00  0.00     0.163 HD
ATOM     30  O   UNL A   1      36.183  29.905  31.909  1.00  0.00    -0.269 OA
BRANCH  28  31
ATOM     31  C   UNL A   1      37.894  30.104  30.309  1.00  0.00     0.039 A 
ATOM     32  C   UNL A   1      38.900  29.828  31.236  1.00  0.00     0.014 A 
ATOM     33  C   UNL A   1      38.189  30.164  28.944  1.00  0.00     0.014 A 
ATOM     34  C   UNL A   1      40.191  29.550  30.785  1.00  0.00     0.010 A 
ATOM     35  C   UNL A   1      39.454  29.803  28.493  1.00  0.00     0.010 A 
ATOM     36  C   UNL A   1      40.470  29.495  29.409  1.00  0.00    -0.014 A 
BRANCH  36  37
ATOM     37  C   UNL A   1      41.816  29.096  28.923  1.00  0.00     0.031 A 
ATOM     38  C   UNL A   1      42.935  30.098  28.863  1.00  0.00     0.074 A 
ATOM     39  C   UNL A   1      42.012  27.831  28.498  1.00  0.00     0.049 A 
ATOM     40  N   UNL A   1      44.174  29.927  28.475  1.00  0.00    -0.248 NA
ATOM     41  C   UNL A   1      42.620  31.479  29.264  1.00  0.00     0.031 C 
ATOM     42  C   UNL A   1      40.984  26.789  28.446  1.00  0.00     0.029 A 
ATOM     43  N   UNL A   1      43.140  27.206  28.031  1.00  0.00    -0.354 N 
ATOM     44  C   UNL A   1      44.781  31.173  28.582  1.00  0.00     0.074 A 
ATOM     45  C   UNL A   1      43.760  32.104  29.010  1.00  0.00     0.031 C 
ATOM     46  C   UNL A   1      41.538  25.645  28.013  1.00  0.00     0.029 A 
ATOM     47  C   UNL A   1      42.947  25.880  27.719  1.00  0.00     0.049 A 
ATOM     48  H   UNL A   1      44.006  27.662  27.930  1.00  0.00     0.167 HD
ATOM     49  C   UNL A   1      46.077  31.504  28.371  1.00  0.00     0.037 A 
ATOM     50  C   UNL A   1      43.808  24.957  27.249  1.00  0.00     0.037 A 
ATOM     51  C   UNL A   1      47.089  30.565  27.959  1.00  0.00     0.049 A 
ATOM     52  C   UNL A   1      45.243  25.348  27.024  1.00  0.00     0.074 A 
ATOM     53  C   UNL A   1      48.443  30.784  27.774  1.00  0.00     0.029 A 
ATOM     54  N   UNL A   1      46.858  29.229  27.660  1.00  0.00    -0.354 N 
ATOM     55  N   UNL A   1      45.819  26.512  27.210  1.00  0.00    -0.248 NA
ATOM     56  C   UNL A   1      46.148  24.299  26.538  1.00  0.00     0.031 C 
ATOM     57  C   UNL A   1      49.020  29.597  27.310  1.00  0.00     0.029 A 
ATOM     58  C   UNL A   1      48.039  28.620  27.266  1.00  0.00     0.049 A 
ATOM     59  H   UNL A   1      45.983  28.780  27.720  1.00  0.00     0.167 HD
ATOM     60  C   UNL A   1      47.158  26.330  26.885  1.00  0.00     0.074 A 
ATOM     61  C   UNL A   1      47.309  24.939  26.512  1.00  0.00     0.031 C 
ATOM     62  C   UNL A   1      48.172  27.232  26.892  1.00  0.00     0.037 A 
BRANCH  49  63
ATOM     63  C   UNL A   1      46.476  32.940  28.584  1.00  0.00     0.058 A 
ATOM     64  C   UNL A   1      46.433  33.882  27.542  1.00  0.00     0.135 A 
ATOM     65  C   UNL A   1      46.871  33.392  29.855  1.00  0.00     0.135 A 
ATOM     66  F   UNL A   1      46.078  33.506  26.304  1.00  0.00    -0.206 F 
ATOM     67  C   UNL A   1      46.796  35.210  27.744  1.00  0.00     0.059 A 
ATOM     68  C   UNL A   1      47.208  34.723  30.087  1.00  0.00     0.059 A 
ATOM     69  F   UNL A   1      46.932  32.537  30.888  1.00  0.00    -0.206 F 
ATOM     70  C   UNL A   1      47.181  35.621  29.021  1.00  0.00     0.060 A 
BRANCH  70  71
ATOM     71  S   UNL A   1      47.643  37.349  29.266  1.00  0.00     0.124 S 
ATOM     72  O   UNL A   1      46.563  37.820  30.128  1.00  0.00    -0.237 OA
ATOM     73  O   UNL A   1      48.953  37.233  29.898  1.00  0.00    -0.237 OA
ATOM     74  O   UNL A   1      47.649  37.896  27.913  1.00  0.00    -0.744 OA
ENDBRANCH  70  71
ENDBRANCH  49  63
BRANCH  50  75
ATOM     75  C   UNL A   1      43.340  23.569  26.990  1.00  0.00     0.058 A 
ATOM     76  C   UNL A   1      43.176  22.650  28.038  1.00  0.00     0.135 A 
ATOM     77  C   UNL A   1      43.029  23.138  25.690  1.00  0.00     0.135 A 
ATOM     78  F   UNL A   1      43.465  23.013  29.297  1.00  0.00    -0.206 F 
ATOM     79  C   UNL A   1      42.739  21.350  27.808  1.00  0.00     0.059 A 
ATOM     80  C   UNL A   1      42.561  21.851  25.438  1.00  0.00     0.059 A 
ATOM     81  F   UNL A   1      43.150  23.982  24.654  1.00  0.00    -0.206 F 
ATOM     82  C   UNL A   1      42.429  20.961  26.503  1.00  0.00     0.060 A 
BRANCH  82  83
ATOM     83  S   UNL A   1      41.813  19.287  26.222  1.00  0.00     0.124 S 
ATOM     84  O   UNL A   1      42.121  18.644  27.494  1.00  0.00    -0.237 OA
ATOM     85  O   UNL A   1      40.399  19.523  25.949  1.00  0.00    -0.237 OA
ATOM     86  O   UNL A   1      42.597  18.830  25.077  1.00  0.00    -0.744 OA
ENDBRANCH  82  83
ENDBRANCH  50  75
BRANCH  62  87
ATOM     87  C   UNL A   1      49.539  26.735  26.512  1.00  0.00     0.058 A 
ATOM     88  C   UNL A   1      50.394  26.129  27.447  1.00  0.00     0.135 A 
ATOM     89  C   UNL A   1      49.989  26.836  25.185  1.00  0.00     0.135 A 
ATOM     90  F   UNL A   1      50.015  26.010  28.730  1.00  0.00    -0.206 F 
ATOM     91  C   UNL A   1      51.659  25.674  27.088  1.00  0.00     0.059 A 
ATOM     92  C   UNL A   1      51.237  26.358  24.797  1.00  0.00     0.059 A 
ATOM     93  F   UNL A   1      49.209  27.395  24.246  1.00  0.00    -0.206 F 
ATOM     94  C   UNL A   1      52.072  25.794  25.760  1.00  0.00     0.060 A 
BRANCH  94  95
ATOM     95  S   UNL A   1      53.709  25.186  25.307  1.00  0.00     0.124 S 
ATOM     96  O   UNL A   1      54.531  25.724  26.385  1.00  0.00    -0.237 OA
ATOM     97  O   UNL A   1      53.518  23.738  25.315  1.00  0.00    -0.237 OA
ATOM     98  O   UNL A   1      53.937  25.774  23.991  1.00  0.00    -0.744 OA
ENDBRANCH  94  95
ENDBRANCH  62  87
ENDBRANCH  36  37
ENDBRANCH  28  31
ENDBRANCH  26  27
ENDBRANCH  25  26
ENDBRANCH   1  25
TORSDOF 19
ENDMDL
MODEL 3
REMARK VINA RESULT:     -11.3      1.846      3.538
REMARK SMILES CN(C)C(=O)c1cc(N(CC(=O)NCCCCNC(=O)c2ccc(-c3c4nc(c(-c5c(F)cc(S(=O)(=O)[O-])cc5F)c5ccc([nH]5)c(-c5c(F)cc(S(=O)(=O)[O-])cc5F)c5nc(c(-c6c(F)cc(S(=O)(=O)[O-])cc6F)c6ccc3[nH]6)C=C5)C=C4)cc2)CC(F)(F)F)ccn1
REMARK SMILES IDX 15 1 14 2 13 3 11 4 12 5 10 7 9 8 8 9 6 10 7 11 94 12 93 13
REMARK SMILES IDX 92 14 4 15 1 16 2 17 3 18 5 19 87 20 88 21 89 22 90 23 91 24
REMARK SMILES IDX 16 25 17 26 18 27 19 28 20 30 21 31 22 32 86 33 23 34 85 35
REMARK SMILES IDX 24 36 25 37 26 38 79 39 27 40 84 41 78 42 80 43 28 44 83 45
REMARK SMILES IDX 77 46 76 47 29 49 63 50 42 51 62 52 43 53 46 54 61 55 81 56
REMARK SMILES IDX 44 57 45 58 60 60 82 61 47 62 30 63 31 64 40 65 32 66 33 67
REMARK SMILES IDX 39 68 41 69 34 70 35 71 36 72 37 73 38 74 64 75 65 76 74 77
REMARK SMILES IDX 66 78 67 79 73 80 75 81 68 82 69 83 70 84 71 85 72 86 48 87
REMARK SMILES IDX 49 88 58 89 50 90 51 91 57 92 59 93 52 94 53 95 54 96 55 97
REMARK SMILES IDX 56 98
REMARK H PARENT 13 6 18 29 80 48 46 59
REMARK Flexibility Score: inf
ROOT
ATOM      1  C   UNL A   1      39.676  22.121  26.882  1.00  0.00     0.023 C 
ENDROOT
BRANCH   1   2
ATOM      2  C   UNL A   1      38.767  21.504  25.821  1.00  0.00     0.116 C 
BRANCH   2   3
ATOM      3  N   UNL A   1      38.117  22.511  25.009  1.00  0.00    -0.355 N 
ATOM      4  C   UNL A   1      36.782  22.774  24.882  1.00  0.00     0.239 C 
ATOM      5  O   UNL A   1      36.414  23.632  24.076  1.00  0.00    -0.273 OA
ATOM      6  H   UNL A   1      38.716  23.083  24.477  1.00  0.00     0.163 HD
BRANCH   4   7
ATOM      7  C   UNL A   1      35.763  22.024  25.749  1.00  0.00     0.216 C 
BRANCH   7   8
ATOM      8  N   UNL A   1      34.357  22.228  25.314  1.00  0.00    -0.353 N 
BRANCH   8   9
ATOM      9  C   UNL A   1      33.709  21.374  24.425  1.00  0.00     0.041 A 
ATOM     10  C   UNL A   1      33.104  19.154  23.645  1.00  0.00     0.130 A 
ATOM     11  C   UNL A   1      33.884  19.984  24.455  1.00  0.00     0.060 A 
ATOM     12  N   UNL A   1      32.201  19.614  22.750  1.00  0.00    -0.251 NA
ATOM     13  C   UNL A   1      32.088  20.944  22.661  1.00  0.00     0.114 A 
ATOM     14  C   UNL A   1      32.811  21.833  23.449  1.00  0.00     0.046 A 
BRANCH  10  15
ATOM     15  C   UNL A   1      33.276  17.668  23.678  1.00  0.00     0.272 C 
ATOM     16  C   UNL A   1      33.297  15.531  24.839  1.00  0.00     0.146 C 
ATOM     17  N   UNL A   1      33.051  16.961  24.867  1.00  0.00    -0.343 N 
ATOM     18  C   UNL A   1      32.502  17.509  26.099  1.00  0.00     0.146 C 
ATOM     19  O   UNL A   1      33.634  17.103  22.643  1.00  0.00    -0.267 OA
ENDBRANCH  10  15
ENDBRANCH   8   9
BRANCH   8  20
ATOM     20  C   UNL A   1      33.658  23.382  25.971  1.00  0.00     0.232 C 
BRANCH  20  21
ATOM     21  C   UNL A   1      32.562  23.062  27.006  1.00  0.00     0.405 C 
ATOM     22  F   UNL A   1      31.903  24.169  27.416  1.00  0.00    -0.169 F 
ATOM     23  F   UNL A   1      31.634  22.241  26.456  1.00  0.00    -0.169 F 
ATOM     24  F   UNL A   1      33.043  22.443  28.103  1.00  0.00    -0.169 F 
ENDBRANCH  20  21
ENDBRANCH   8  20
ENDBRANCH   7   8
ENDBRANCH   4   7
ENDBRANCH   2   3
ENDBRANCH   1   2
BRANCH   1  25
ATOM     25  C   UNL A   1      41.170  21.998  26.572  1.00  0.00     0.023 C 
BRANCH  25  26
ATOM     26  C   UNL A   1      41.993  23.227  26.936  1.00  0.00     0.116 C 
BRANCH  26  27
ATOM     27  N   UNL A   1      42.132  24.157  25.826  1.00  0.00    -0.352 N 
ATOM     28  C   UNL A   1      41.995  25.522  25.821  1.00  0.00     0.251 C 
ATOM     29  H   UNL A   1      42.355  23.750  24.957  1.00  0.00     0.163 HD
ATOM     30  O   UNL A   1      41.985  26.132  24.755  1.00  0.00    -0.269 OA
BRANCH  28  31
ATOM     31  C   UNL A   1      41.831  26.247  27.098  1.00  0.00     0.039 A 
ATOM     32  C   UNL A   1      42.746  27.249  27.424  1.00  0.00     0.014 A 
ATOM     33  C   UNL A   1      40.769  25.954  27.958  1.00  0.00     0.014 A 
ATOM     34  C   UNL A   1      42.557  28.000  28.585  1.00  0.00     0.010 A 
ATOM     35  C   UNL A   1      40.535  26.759  29.068  1.00  0.00     0.010 A 
ATOM     36  C   UNL A   1      41.429  27.788  29.396  1.00  0.00    -0.014 A 
BRANCH  36  37
ATOM     37  C   UNL A   1      41.169  28.655  30.573  1.00  0.00     0.031 A 
ATOM     38  C   UNL A   1      41.991  28.513  31.824  1.00  0.00     0.074 A 
ATOM     39  C   UNL A   1      40.157  29.546  30.523  1.00  0.00     0.049 A 
ATOM     40  N   UNL A   1      41.912  29.186  32.944  1.00  0.00    -0.248 NA
ATOM     41  C   UNL A   1      43.021  27.461  31.832  1.00  0.00     0.031 C 
ATOM     42  C   UNL A   1      39.248  29.727  29.389  1.00  0.00     0.029 A 
ATOM     43  N   UNL A   1      39.725  30.466  31.444  1.00  0.00    -0.354 N 
ATOM     44  C   UNL A   1      42.873  28.640  33.785  1.00  0.00     0.074 A 
ATOM     45  C   UNL A   1      43.481  27.538  33.073  1.00  0.00     0.031 C 
ATOM     46  C   UNL A   1      38.393  30.724  29.665  1.00  0.00     0.029 A 
ATOM     47  C   UNL A   1      38.665  31.227  31.007  1.00  0.00     0.049 A 
ATOM     48  H   UNL A   1      40.134  30.572  32.332  1.00  0.00     0.167 HD
ATOM     49  C   UNL A   1      43.236  29.039  35.028  1.00  0.00     0.037 A 
ATOM     50  C   UNL A   1      37.988  32.218  31.618  1.00  0.00     0.037 A 
ATOM     51  C   UNL A   1      42.633  30.148  35.724  1.00  0.00     0.049 A 
ATOM     52  C   UNL A   1      38.410  32.644  32.997  1.00  0.00     0.074 A 
ATOM     53  C   UNL A   1      42.966  30.671  36.960  1.00  0.00     0.029 A 
ATOM     54  N   UNL A   1      41.569  30.900  35.247  1.00  0.00    -0.354 N 
ATOM     55  N   UNL A   1      39.377  32.170  33.747  1.00  0.00    -0.248 NA
ATOM     56  C   UNL A   1      37.660  33.747  33.610  1.00  0.00     0.031 C 
ATOM     57  C   UNL A   1      42.068  31.703  37.256  1.00  0.00     0.029 A 
ATOM     58  C   UNL A   1      41.215  31.864  36.177  1.00  0.00     0.049 A 
ATOM     59  H   UNL A   1      41.129  30.767  34.375  1.00  0.00     0.167 HD
ATOM     60  C   UNL A   1      39.366  32.932  34.910  1.00  0.00     0.074 A 
ATOM     61  C   UNL A   1      38.309  33.910  34.754  1.00  0.00     0.031 C 
ATOM     62  C   UNL A   1      40.156  32.830  36.009  1.00  0.00     0.037 A 
BRANCH  49  63
ATOM     63  C   UNL A   1      44.336  28.275  35.715  1.00  0.00     0.058 A 
ATOM     64  C   UNL A   1      44.065  27.180  36.554  1.00  0.00     0.135 A 
ATOM     65  C   UNL A   1      45.683  28.614  35.504  1.00  0.00     0.135 A 
ATOM     66  F   UNL A   1      42.796  26.819  36.805  1.00  0.00    -0.206 F 
ATOM     67  C   UNL A   1      45.084  26.472  37.182  1.00  0.00     0.059 A 
ATOM     68  C   UNL A   1      46.721  27.899  36.096  1.00  0.00     0.059 A 
ATOM     69  F   UNL A   1      46.003  29.650  34.712  1.00  0.00    -0.206 F 
ATOM     70  C   UNL A   1      46.410  26.838  36.946  1.00  0.00     0.060 A 
BRANCH  70  71
ATOM     71  S   UNL A   1      47.719  25.904  37.764  1.00  0.00     0.124 S 
ATOM     72  O   UNL A   1      48.190  25.049  36.678  1.00  0.00    -0.237 OA
ATOM     73  O   UNL A   1      48.638  26.958  38.183  1.00  0.00    -0.237 OA
ATOM     74  O   UNL A   1      47.024  25.216  38.846  1.00  0.00    -0.744 OA
ENDBRANCH  70  71
ENDBRANCH  49  63
BRANCH  50  75
ATOM     75  C   UNL A   1      36.862  32.891  30.917  1.00  0.00     0.058 A 
ATOM     76  C   UNL A   1      37.098  33.876  29.945  1.00  0.00     0.135 A 
ATOM     77  C   UNL A   1      35.528  32.550  31.191  1.00  0.00     0.135 A 
ATOM     78  F   UNL A   1      38.355  34.240  29.652  1.00  0.00    -0.206 F 
ATOM     79  C   UNL A   1      36.053  34.511  29.283  1.00  0.00     0.059 A 
ATOM     80  C   UNL A   1      34.466  33.151  30.520  1.00  0.00     0.059 A 
ATOM     81  F   UNL A   1      35.248  31.602  32.098  1.00  0.00    -0.206 F 
ATOM     82  C   UNL A   1      34.739  34.138  29.574  1.00  0.00     0.060 A 
BRANCH  82  83
ATOM     83  S   UNL A   1      33.392  34.934  28.671  1.00  0.00     0.124 S 
ATOM     84  O   UNL A   1      32.850  33.816  27.908  1.00  0.00    -0.237 OA
ATOM     85  O   UNL A   1      32.554  35.437  29.755  1.00  0.00    -0.237 OA
ATOM     86  O   UNL A   1      34.075  35.961  27.889  1.00  0.00    -0.744 OA
ENDBRANCH  82  83
ENDBRANCH  50  75
BRANCH  62  87
ATOM     87  C   UNL A   1      39.925  33.821  37.117  1.00  0.00     0.058 A 
ATOM     88  C   UNL A   1      40.545  35.081  37.124  1.00  0.00     0.135 A 
ATOM     89  C   UNL A   1      39.047  33.518  38.170  1.00  0.00     0.135 A 
ATOM     90  F   UNL A   1      41.397  35.420  36.144  1.00  0.00    -0.206 F 
ATOM     91  C   UNL A   1      40.330  35.991  38.154  1.00  0.00     0.059 A 
ATOM     92  C   UNL A   1      38.791  34.426  39.193  1.00  0.00     0.059 A 
ATOM     93  F   UNL A   1      38.417  32.333  38.208  1.00  0.00    -0.206 F 
ATOM     94  C   UNL A   1      39.451  35.654  39.185  1.00  0.00     0.060 A 
BRANCH  94  95
ATOM     95  S   UNL A   1      39.170  36.851  40.507  1.00  0.00     0.124 S 
ATOM     96  O   UNL A   1      38.592  37.969  39.771  1.00  0.00    -0.237 OA
ATOM     97  O   UNL A   1      38.257  36.131  41.390  1.00  0.00    -0.237 OA
ATOM     98  O   UNL A   1      40.506  37.079  41.047  1.00  0.00    -0.744 OA
ENDBRANCH  94  95
ENDBRANCH  62  87
ENDBRANCH  36  37
ENDBRANCH  28  31
ENDBRANCH  26  27
ENDBRANCH  25  26
ENDBRANCH   1  25
TORSDOF 19
ENDMDL
