MODEL 1
REMARK VINA RESULT:     -11.5      0.000      0.000
REMARK SMILES O=C(Cc1ccccc1Nc1c(F)cccc1C(F)(F)F)NCCCCNC(=O)c1ccc(-c2c3nc(c(-c4c(F)cc(S(=O)(=O)[O-])cc4F)c4ccc([nH]4)c(-c4c(F)cc(S(=O)(=O)[O-])cc4F)c4nc(c(-c5c(F)cc(S(=O)(=O)[O-])cc5F)c5ccc2[nH]5)C=C4)C=C3)cc1
REMARK SMILES IDX 24 1 23 2 22 3 1 4 2 5 3 7 4 8 5 9 9 10 6 11 8 12 7 13 10 14
REMARK SMILES IDX 11 16 12 17 17 18 13 19 14 20 16 21 15 22 18 23 19 24 20 25
REMARK SMILES IDX 21 26 25 27 26 28 27 29 28 30 29 32 30 33 31 34 95 35 32 36
REMARK SMILES IDX 94 37 33 38 34 39 35 40 88 41 36 42 93 43 87 44 89 45 37 46
REMARK SMILES IDX 92 47 86 48 85 49 38 51 72 52 51 53 71 54 52 55 55 56 70 57
REMARK SMILES IDX 90 58 53 59 54 60 69 62 91 63 56 64 39 65 40 66 49 67 41 68
REMARK SMILES IDX 42 69 48 70 50 71 43 72 44 73 45 74 46 75 47 76 73 77 74 78
REMARK SMILES IDX 83 79 75 80 76 81 82 82 84 83 77 84 78 85 79 86 80 87 81 88
REMARK SMILES IDX 57 89 58 90 67 91 59 92 60 93 66 94 68 95 61 96 62 97 63 98
REMARK SMILES IDX 64 99 65 100
REMARK H PARENT 22 6 10 15 27 31 89 50 55 61
REMARK Flexibility Score: inf
ROOT
ATOM      1  C   UNL A   1      33.954  28.778  24.626  1.00  0.00     0.023 C 
ENDROOT
BRANCH   1   2
ATOM      2  C   UNL A   1      33.455  28.571  23.196  1.00  0.00     0.116 C 
BRANCH   2   3
ATOM      3  N   UNL A   1      32.525  27.467  23.094  1.00  0.00    -0.356 N 
ATOM      4  O   UNL A   1      33.671  26.307  21.471  1.00  0.00    -0.275 OA
ATOM      5  C   UNL A   1      32.748  26.376  22.277  1.00  0.00     0.224 C 
ATOM      6  H   UNL A   1      31.699  27.493  23.630  1.00  0.00     0.163 HD
BRANCH   5   7
ATOM      7  C   UNL A   1      31.758  25.236  22.494  1.00  0.00     0.137 C 
BRANCH   7   8
ATOM      8  C   UNL A   1      31.634  24.844  23.956  1.00  0.00    -0.015 A 
ATOM      9  C   UNL A   1      30.459  25.211  24.651  1.00  0.00     0.006 A 
ATOM     10  C   UNL A   1      32.614  24.089  24.635  1.00  0.00     0.042 A 
ATOM     11  C   UNL A   1      30.272  24.886  25.993  1.00  0.00     0.000 A 
ATOM     12  C   UNL A   1      32.414  23.798  25.996  1.00  0.00     0.026 A 
ATOM     13  C   UNL A   1      31.259  24.191  26.671  1.00  0.00     0.002 A 
BRANCH  10  14
ATOM     14  N   UNL A   1      33.742  23.576  23.956  1.00  0.00    -0.352 N 
ATOM     15  H   UNL A   1      34.018  24.089  23.162  1.00  0.00     0.167 HD
BRANCH  14  16
ATOM     16  C   UNL A   1      34.537  22.441  24.237  1.00  0.00     0.087 A 
ATOM     17  C   UNL A   1      35.897  22.671  24.531  1.00  0.00     0.147 A 
ATOM     18  C   UNL A   1      34.055  21.122  24.334  1.00  0.00     0.082 A 
ATOM     19  F   UNL A   1      36.391  23.914  24.410  1.00  0.00    -0.205 F 
ATOM     20  C   UNL A   1      36.751  21.662  24.965  1.00  0.00     0.041 A 
ATOM     21  C   UNL A   1      34.926  20.109  24.803  1.00  0.00     0.015 A 
ATOM     22  C   UNL A   1      36.258  20.375  25.123  1.00  0.00     0.004 A 
BRANCH  18  23
ATOM     23  C   UNL A   1      32.660  20.691  23.938  1.00  0.00     0.418 C 
ATOM     24  F   UNL A   1      32.636  19.373  23.562  1.00  0.00    -0.166 F 
ATOM     25  F   UNL A   1      31.777  20.773  24.972  1.00  0.00    -0.166 F 
ATOM     26  F   UNL A   1      32.109  21.356  22.889  1.00  0.00    -0.166 F 
ENDBRANCH  18  23
ENDBRANCH  14  16
ENDBRANCH  10  14
ENDBRANCH   7   8
ENDBRANCH   5   7
ENDBRANCH   2   3
ENDBRANCH   1   2
BRANCH   1  27
ATOM     27  C   UNL A   1      33.172  28.025  25.709  1.00  0.00     0.023 C 
BRANCH  27  28
ATOM     28  C   UNL A   1      33.582  28.330  27.147  1.00  0.00     0.116 C 
BRANCH  28  29
ATOM     29  N   UNL A   1      33.489  29.746  27.461  1.00  0.00    -0.352 N 
ATOM     30  C   UNL A   1      34.402  30.569  28.076  1.00  0.00     0.251 C 
ATOM     31  H   UNL A   1      32.647  30.180  27.194  1.00  0.00     0.163 HD
ATOM     32  O   UNL A   1      34.058  31.700  28.424  1.00  0.00    -0.269 OA
BRANCH  30  33
ATOM     33  C   UNL A   1      35.780  30.103  28.346  1.00  0.00     0.039 A 
ATOM     34  C   UNL A   1      36.717  30.124  27.310  1.00  0.00     0.014 A 
ATOM     35  C   UNL A   1      36.152  29.628  29.608  1.00  0.00     0.014 A 
ATOM     36  C   UNL A   1      38.039  29.736  27.555  1.00  0.00     0.010 A 
ATOM     37  C   UNL A   1      37.484  29.312  29.869  1.00  0.00     0.010 A 
ATOM     38  C   UNL A   1      38.444  29.363  28.847  1.00  0.00    -0.014 A 
BRANCH  38  39
ATOM     39  C   UNL A   1      39.866  29.039  29.146  1.00  0.00     0.031 A 
ATOM     40  C   UNL A   1      40.775  30.076  29.751  1.00  0.00     0.074 A 
ATOM     41  C   UNL A   1      40.357  27.828  28.815  1.00  0.00     0.049 A 
ATOM     42  N   UNL A   1      42.054  29.998  30.018  1.00  0.00    -0.248 NA
ATOM     43  C   UNL A   1      40.174  31.380  30.075  1.00  0.00     0.031 C 
ATOM     44  C   UNL A   1      39.592  26.750  28.184  1.00  0.00     0.029 A 
ATOM     45  N   UNL A   1      41.617  27.299  28.951  1.00  0.00    -0.354 N 
ATOM     46  C   UNL A   1      42.413  31.240  30.531  1.00  0.00     0.074 A 
ATOM     47  C   UNL A   1      41.228  32.070  30.485  1.00  0.00     0.031 C 
ATOM     48  C   UNL A   1      40.390  25.685  28.009  1.00  0.00     0.029 A 
ATOM     49  C   UNL A   1      41.735  26.015  28.473  1.00  0.00     0.049 A 
ATOM     50  H   UNL A   1      42.367  27.795  29.355  1.00  0.00     0.167 HD
ATOM     51  C   UNL A   1      43.612  31.645  31.014  1.00  0.00     0.037 A 
ATOM     52  C   UNL A   1      42.805  25.198  28.402  1.00  0.00     0.037 A 
ATOM     53  C   UNL A   1      44.784  30.809  31.073  1.00  0.00     0.049 A 
ATOM     54  C   UNL A   1      44.131  25.676  28.931  1.00  0.00     0.074 A 
ATOM     55  C   UNL A   1      46.030  31.110  31.596  1.00  0.00     0.029 A 
ATOM     56  N   UNL A   1      44.859  29.511  30.589  1.00  0.00    -0.354 N 
ATOM     57  N   UNL A   1      44.434  26.833  29.470  1.00  0.00    -0.248 NA
ATOM     58  C   UNL A   1      45.258  24.737  28.847  1.00  0.00     0.031 C 
ATOM     59  C   UNL A   1      46.873  30.015  31.378  1.00  0.00     0.029 A 
ATOM     60  C   UNL A   1      46.137  29.008  30.776  1.00  0.00     0.049 A 
ATOM     61  H   UNL A   1      44.114  29.019  30.173  1.00  0.00     0.167 HD
ATOM     62  C   UNL A   1      45.778  26.749  29.818  1.00  0.00     0.074 A 
ATOM     63  C   UNL A   1      46.226  25.424  29.439  1.00  0.00     0.031 C 
ATOM     64  C   UNL A   1      46.570  27.684  30.401  1.00  0.00     0.037 A 
BRANCH  51  65
ATOM     65  C   UNL A   1      43.722  33.059  31.521  1.00  0.00     0.058 A 
ATOM     66  C   UNL A   1      44.085  34.121  30.678  1.00  0.00     0.135 A 
ATOM     67  C   UNL A   1      43.417  33.365  32.858  1.00  0.00     0.135 A 
ATOM     68  F   UNL A   1      44.399  33.888  29.393  1.00  0.00    -0.206 F 
ATOM     69  C   UNL A   1      44.173  35.428  31.147  1.00  0.00     0.059 A 
ATOM     70  C   UNL A   1      43.468  34.669  33.342  1.00  0.00     0.059 A 
ATOM     71  F   UNL A   1      43.061  32.390  33.711  1.00  0.00    -0.206 F 
ATOM     72  C   UNL A   1      43.862  35.692  32.481  1.00  0.00     0.060 A 
BRANCH  72  73
ATOM     73  S   UNL A   1      43.979  37.394  33.072  1.00  0.00     0.124 S 
ATOM     74  O   UNL A   1      42.829  37.471  33.968  1.00  0.00    -0.237 OA
ATOM     75  O   UNL A   1      45.287  37.411  33.718  1.00  0.00    -0.237 OA
ATOM     76  O   UNL A   1      43.875  38.187  31.850  1.00  0.00    -0.744 OA
ENDBRANCH  72  73
ENDBRANCH  51  65
BRANCH  52  77
ATOM     77  C   UNL A   1      42.662  23.835  27.820  1.00  0.00     0.058 A 
ATOM     78  C   UNL A   1      42.511  22.710  28.644  1.00  0.00     0.135 A 
ATOM     79  C   UNL A   1      42.663  23.632  26.431  1.00  0.00     0.135 A 
ATOM     80  F   UNL A   1      42.511  22.850  29.979  1.00  0.00    -0.206 F 
ATOM     81  C   UNL A   1      42.383  21.430  28.114  1.00  0.00     0.059 A 
ATOM     82  C   UNL A   1      42.508  22.365  25.877  1.00  0.00     0.059 A 
ATOM     83  F   UNL A   1      42.790  24.677  25.598  1.00  0.00    -0.206 F 
ATOM     84  C   UNL A   1      42.378  21.268  26.728  1.00  0.00     0.060 A 
BRANCH  84  85
ATOM     85  S   UNL A   1      42.162  19.608  26.050  1.00  0.00     0.124 S 
ATOM     86  O   UNL A   1      40.741  19.608  25.720  1.00  0.00    -0.237 OA
ATOM     87  O   UNL A   1      43.082  19.617  24.919  1.00  0.00    -0.237 OA
ATOM     88  O   UNL A   1      42.552  18.741  27.159  1.00  0.00    -0.744 OA
ENDBRANCH  84  85
ENDBRANCH  52  77
BRANCH  64  89
ATOM     89  C   UNL A   1      47.994  27.301  30.704  1.00  0.00     0.058 A 
ATOM     90  C   UNL A   1      48.350  26.651  31.896  1.00  0.00     0.135 A 
ATOM     91  C   UNL A   1      49.008  27.541  29.763  1.00  0.00     0.135 A 
ATOM     92  F   UNL A   1      47.422  26.403  32.834  1.00  0.00    -0.206 F 
ATOM     93  C   UNL A   1      49.665  26.275  32.154  1.00  0.00     0.059 A 
ATOM     94  C   UNL A   1      50.323  27.145  29.986  1.00  0.00     0.059 A 
ATOM     95  F   UNL A   1      48.722  28.151  28.600  1.00  0.00    -0.206 F 
ATOM     96  C   UNL A   1      50.644  26.524  31.192  1.00  0.00     0.060 A 
BRANCH  96  97
ATOM     97  S   UNL A   1      52.338  25.999  31.524  1.00  0.00     0.124 S 
ATOM     98  O   UNL A   1      52.775  27.006  32.486  1.00  0.00    -0.237 OA
ATOM     99  O   UNL A   1      52.149  24.653  32.058  1.00  0.00    -0.237 OA
ATOM    100  O   UNL A   1      52.979  26.063  30.215  1.00  0.00    -0.744 OA
ENDBRANCH  96  97
ENDBRANCH  64  89
ENDBRANCH  38  39
ENDBRANCH  30  33
ENDBRANCH  28  29
ENDBRANCH  27  28
ENDBRANCH   1  27
TORSDOF 18
ENDMDL
MODEL 2
REMARK VINA RESULT:     -11.2      3.040      4.360
REMARK SMILES O=C(Cc1ccccc1Nc1c(F)cccc1C(F)(F)F)NCCCCNC(=O)c1ccc(-c2c3nc(c(-c4c(F)cc(S(=O)(=O)[O-])cc4F)c4ccc([nH]4)c(-c4c(F)cc(S(=O)(=O)[O-])cc4F)c4nc(c(-c5c(F)cc(S(=O)(=O)[O-])cc5F)c5ccc2[nH]5)C=C4)C=C3)cc1
REMARK SMILES IDX 24 1 23 2 22 3 1 4 2 5 3 7 4 8 5 9 9 10 6 11 8 12 7 13 10 14
REMARK SMILES IDX 11 16 12 17 17 18 13 19 14 20 16 21 15 22 18 23 19 24 20 25
REMARK SMILES IDX 21 26 25 27 26 28 27 29 28 30 29 32 30 33 31 34 95 35 32 36
REMARK SMILES IDX 94 37 33 38 34 39 35 40 88 41 36 42 93 43 87 44 89 45 37 46
REMARK SMILES IDX 92 47 86 48 85 49 38 51 72 52 51 53 71 54 52 55 55 56 70 57
REMARK SMILES IDX 90 58 53 59 54 60 69 62 91 63 56 64 39 65 40 66 49 67 41 68
REMARK SMILES IDX 42 69 48 70 50 71 43 72 44 73 45 74 46 75 47 76 73 77 74 78
REMARK SMILES IDX 83 79 75 80 76 81 82 82 84 83 77 84 78 85 79 86 80 87 81 88
REMARK SMILES IDX 57 89 58 90 67 91 59 92 60 93 66 94 68 95 61 96 62 97 63 98
REMARK SMILES IDX 64 99 65 100
REMARK H PARENT 22 6 10 15 27 31 89 50 55 61
REMARK Flexibility Score: inf
ROOT
ATOM      1  C   UNL A   1      34.537  32.222  28.238  1.00  0.00     0.023 C 
ENDROOT
BRANCH   1   2
ATOM      2  C   UNL A   1      34.736  30.876  27.542  1.00  0.00     0.116 C 
BRANCH   2   3
ATOM      3  N   UNL A   1      33.479  30.251  27.190  1.00  0.00    -0.356 N 
ATOM      4  O   UNL A   1      34.363  28.647  25.797  1.00  0.00    -0.275 OA
ATOM      5  C   UNL A   1      33.401  29.129  26.389  1.00  0.00     0.224 C 
ATOM      6  H   UNL A   1      32.643  30.640  27.537  1.00  0.00     0.163 HD
BRANCH   5   7
ATOM      7  C   UNL A   1      32.008  28.510  26.334  1.00  0.00     0.137 C 
BRANCH   7   8
ATOM      8  C   UNL A   1      31.417  28.532  24.936  1.00  0.00    -0.015 A 
ATOM      9  C   UNL A   1      30.655  29.658  24.548  1.00  0.00     0.006 A 
ATOM     10  C   UNL A   1      31.638  27.507  23.992  1.00  0.00     0.042 A 
ATOM     11  C   UNL A   1      30.082  29.752  23.281  1.00  0.00     0.000 A 
ATOM     12  C   UNL A   1      31.026  27.612  22.730  1.00  0.00     0.026 A 
ATOM     13  C   UNL A   1      30.256  28.719  22.375  1.00  0.00     0.002 A 
BRANCH  10  14
ATOM     14  N   UNL A   1      32.504  26.427  24.275  1.00  0.00    -0.352 N 
ATOM     15  H   UNL A   1      33.316  26.666  24.779  1.00  0.00     0.167 HD
BRANCH  14  16
ATOM     16  C   UNL A   1      32.389  25.056  23.948  1.00  0.00     0.087 A 
ATOM     17  C   UNL A   1      33.057  24.619  22.786  1.00  0.00     0.147 A 
ATOM     18  C   UNL A   1      31.740  24.090  24.739  1.00  0.00     0.082 A 
ATOM     19  F   UNL A   1      33.653  25.525  21.994  1.00  0.00    -0.205 F 
ATOM     20  C   UNL A   1      33.145  23.276  22.433  1.00  0.00     0.041 A 
ATOM     21  C   UNL A   1      31.859  22.723  24.384  1.00  0.00     0.015 A 
ATOM     22  C   UNL A   1      32.560  22.319  23.247  1.00  0.00     0.004 A 
BRANCH  18  23
ATOM     23  C   UNL A   1      30.881  24.408  25.943  1.00  0.00     0.418 C 
ATOM     24  F   UNL A   1      31.611  25.031  26.922  1.00  0.00    -0.166 F 
ATOM     25  F   UNL A   1      29.878  25.282  25.649  1.00  0.00    -0.166 F 
ATOM     26  F   UNL A   1      30.313  23.342  26.565  1.00  0.00    -0.166 F 
ENDBRANCH  18  23
ENDBRANCH  14  16
ENDBRANCH  10  14
ENDBRANCH   7   8
ENDBRANCH   5   7
ENDBRANCH   2   3
ENDBRANCH   1   2
BRANCH   1  27
ATOM     27  C   UNL A   1      35.803  33.075  28.392  1.00  0.00     0.023 C 
BRANCH  27  28
ATOM     28  C   UNL A   1      36.427  33.077  29.784  1.00  0.00     0.116 C 
BRANCH  28  29
ATOM     29  N   UNL A   1      35.960  31.972  30.604  1.00  0.00    -0.352 N 
ATOM     30  C   UNL A   1      36.529  30.740  30.822  1.00  0.00     0.251 C 
ATOM     31  H   UNL A   1      35.109  32.128  31.073  1.00  0.00     0.163 HD
ATOM     32  O   UNL A   1      35.881  29.868  31.401  1.00  0.00    -0.269 OA
BRANCH  30  33
ATOM     33  C   UNL A   1      37.900  30.446  30.348  1.00  0.00     0.039 A 
ATOM     34  C   UNL A   1      38.939  30.381  31.280  1.00  0.00     0.014 A 
ATOM     35  C   UNL A   1      38.172  30.250  28.990  1.00  0.00     0.014 A 
ATOM     36  C   UNL A   1      40.234  30.054  30.861  1.00  0.00     0.010 A 
ATOM     37  C   UNL A   1      39.446  29.853  28.585  1.00  0.00     0.010 A 
ATOM     38  C   UNL A   1      40.491  29.748  29.514  1.00  0.00    -0.014 A 
BRANCH  38  39
ATOM     39  C   UNL A   1      41.841  29.307  29.068  1.00  0.00     0.031 A 
ATOM     40  C   UNL A   1      42.976  30.293  28.979  1.00  0.00     0.074 A 
ATOM     41  C   UNL A   1      42.031  28.029  28.682  1.00  0.00     0.049 A 
ATOM     42  N   UNL A   1      44.199  30.108  28.550  1.00  0.00    -0.248 NA
ATOM     43  C   UNL A   1      42.693  31.673  29.405  1.00  0.00     0.031 C 
ATOM     44  C   UNL A   1      41.003  26.986  28.679  1.00  0.00     0.029 A 
ATOM     45  N   UNL A   1      43.149  27.389  28.207  1.00  0.00    -0.354 N 
ATOM     46  C   UNL A   1      44.827  31.345  28.644  1.00  0.00     0.074 A 
ATOM     47  C   UNL A   1      43.834  32.284  29.119  1.00  0.00     0.031 C 
ATOM     48  C   UNL A   1      41.542  25.835  28.247  1.00  0.00     0.029 A 
ATOM     49  C   UNL A   1      42.942  26.064  27.899  1.00  0.00     0.049 A 
ATOM     50  H   UNL A   1      44.019  27.837  28.098  1.00  0.00     0.167 HD
ATOM     51  C   UNL A   1      46.117  31.665  28.379  1.00  0.00     0.037 A 
ATOM     52  C   UNL A   1      43.777  25.140  27.384  1.00  0.00     0.037 A 
ATOM     53  C   UNL A   1      47.106  30.722  27.923  1.00  0.00     0.049 A 
ATOM     54  C   UNL A   1      45.201  25.523  27.083  1.00  0.00     0.074 A 
ATOM     55  C   UNL A   1      48.452  30.937  27.681  1.00  0.00     0.029 A 
ATOM     56  N   UNL A   1      46.858  29.387  27.635  1.00  0.00    -0.354 N 
ATOM     57  N   UNL A   1      45.793  26.684  27.239  1.00  0.00    -0.248 NA
ATOM     58  C   UNL A   1      46.072  24.471  26.542  1.00  0.00     0.031 C 
ATOM     59  C   UNL A   1      49.005  29.748  27.193  1.00  0.00     0.029 A 
ATOM     60  C   UNL A   1      48.020  28.774  27.191  1.00  0.00     0.049 A 
ATOM     61  H   UNL A   1      45.986  28.941  27.731  1.00  0.00     0.167 HD
ATOM     62  C   UNL A   1      47.113  26.493  26.845  1.00  0.00     0.074 A 
ATOM     63  C   UNL A   1      47.235  25.103  26.455  1.00  0.00     0.031 C 
ATOM     64  C   UNL A   1      48.132  27.387  26.812  1.00  0.00     0.037 A 
BRANCH  51  65
ATOM     65  C   UNL A   1      46.538  33.098  28.577  1.00  0.00     0.058 A 
ATOM     66  C   UNL A   1      47.025  33.562  29.809  1.00  0.00     0.135 A 
ATOM     67  C   UNL A   1      46.496  34.008  27.508  1.00  0.00     0.135 A 
ATOM     68  F   UNL A   1      47.076  32.740  30.870  1.00  0.00    -0.206 F 
ATOM     69  C   UNL A   1      47.424  34.884  29.984  1.00  0.00     0.059 A 
ATOM     70  C   UNL A   1      46.920  35.327  27.651  1.00  0.00     0.059 A 
ATOM     71  F   UNL A   1      46.042  33.620  26.305  1.00  0.00    -0.206 F 
ATOM     72  C   UNL A   1      47.368  35.758  28.899  1.00  0.00     0.060 A 
BRANCH  72  73
ATOM     73  S   UNL A   1      47.894  37.468  29.143  1.00  0.00     0.124 S 
ATOM     74  O   UNL A   1      48.110  37.905  27.768  1.00  0.00    -0.237 OA
ATOM     75  O   UNL A   1      46.742  38.055  29.820  1.00  0.00    -0.237 OA
ATOM     76  O   UNL A   1      49.099  37.341  29.957  1.00  0.00    -0.744 OA
ENDBRANCH  72  73
ENDBRANCH  51  65
BRANCH  52  77
ATOM     77  C   UNL A   1      43.290  23.755  27.134  1.00  0.00     0.058 A 
ATOM     78  C   UNL A   1      42.910  23.345  25.848  1.00  0.00     0.135 A 
ATOM     79  C   UNL A   1      43.204  22.815  28.172  1.00  0.00     0.135 A 
ATOM     80  F   UNL A   1      42.966  24.209  24.823  1.00  0.00    -0.206 F 
ATOM     81  C   UNL A   1      42.446  22.056  25.602  1.00  0.00     0.059 A 
ATOM     82  C   UNL A   1      42.771  21.512  27.945  1.00  0.00     0.059 A 
ATOM     83  F   UNL A   1      43.570  23.152  29.419  1.00  0.00    -0.206 F 
ATOM     84  C   UNL A   1      42.384  21.145  26.657  1.00  0.00     0.060 A 
BRANCH  84  85
ATOM     85  S   UNL A   1      41.828  19.460  26.315  1.00  0.00     0.124 S 
ATOM     86  O   UNL A   1      42.575  19.145  25.103  1.00  0.00    -0.237 OA
ATOM     87  O   UNL A   1      42.240  18.752  27.522  1.00  0.00    -0.237 OA
ATOM     88  O   UNL A   1      40.385  19.612  26.148  1.00  0.00    -0.744 OA
ENDBRANCH  84  85
ENDBRANCH  52  77
BRANCH  64  89
ATOM     89  C   UNL A   1      49.484  26.888  26.375  1.00  0.00     0.058 A 
ATOM     90  C   UNL A   1      50.357  26.240  27.262  1.00  0.00     0.135 A 
ATOM     91  C   UNL A   1      49.887  27.015  25.036  1.00  0.00     0.135 A 
ATOM     92  F   UNL A   1      50.026  26.098  28.555  1.00  0.00    -0.206 F 
ATOM     93  C   UNL A   1      51.593  25.756  26.841  1.00  0.00     0.059 A 
ATOM     94  C   UNL A   1      51.104  26.511  24.587  1.00  0.00     0.059 A 
ATOM     95  F   UNL A   1      49.086  27.618  24.142  1.00  0.00    -0.206 F 
ATOM     96  C   UNL A   1      51.956  25.894  25.501  1.00  0.00     0.060 A 
BRANCH  96  97
ATOM     97  S   UNL A   1      53.546  25.230  24.962  1.00  0.00     0.124 S 
ATOM     98  O   UNL A   1      53.529  25.547  23.537  1.00  0.00    -0.237 OA
ATOM     99  O   UNL A   1      54.492  25.994  25.769  1.00  0.00    -0.237 OA
ATOM    100  O   UNL A   1      53.453  23.812  25.289  1.00  0.00    -0.744 OA
ENDBRANCH  96  97
ENDBRANCH  64  89
ENDBRANCH  38  39
ENDBRANCH  30  33
ENDBRANCH  28  29
ENDBRANCH  27  28
ENDBRANCH   1  27
TORSDOF 18
ENDMDL
MODEL 3
REMARK VINA RESULT:     -11.2      3.202      9.284
REMARK SMILES O=C(Cc1ccccc1Nc1c(F)cccc1C(F)(F)F)NCCCCNC(=O)c1ccc(-c2c3nc(c(-c4c(F)cc(S(=O)(=O)[O-])cc4F)c4ccc([nH]4)c(-c4c(F)cc(S(=O)(=O)[O-])cc4F)c4nc(c(-c5c(F)cc(S(=O)(=O)[O-])cc5F)c5ccc2[nH]5)C=C4)C=C3)cc1
REMARK SMILES IDX 24 1 23 2 22 3 1 4 2 5 3 7 4 8 5 9 9 10 6 11 8 12 7 13 10 14
REMARK SMILES IDX 11 16 12 17 17 18 13 19 14 20 16 21 15 22 18 23 19 24 20 25
REMARK SMILES IDX 21 26 25 27 26 28 27 29 28 30 29 32 30 33 31 34 95 35 32 36
REMARK SMILES IDX 94 37 33 38 34 39 35 40 88 41 36 42 93 43 87 44 89 45 37 46
REMARK SMILES IDX 92 47 86 48 85 49 38 51 72 52 51 53 71 54 52 55 55 56 70 57
REMARK SMILES IDX 90 58 53 59 54 60 69 62 91 63 56 64 39 65 40 66 49 67 41 68
REMARK SMILES IDX 42 69 48 70 50 71 43 72 44 73 45 74 46 75 47 76 73 77 74 78
REMARK SMILES IDX 83 79 75 80 76 81 82 82 84 83 77 84 78 85 79 86 80 87 81 88
REMARK SMILES IDX 57 89 58 90 67 91 59 92 60 93 66 94 68 95 61 96 62 97 63 98
REMARK SMILES IDX 64 99 65 100
REMARK H PARENT 22 6 10 15 27 31 89 50 55 61
REMARK Flexibility Score: inf
ROOT
ATOM      1  C   UNL A   1      35.030  22.912  27.013  1.00  0.00     0.023 C 
ENDROOT
BRANCH   1   2
ATOM      2  C   UNL A   1      33.918  21.897  27.270  1.00  0.00     0.116 C 
BRANCH   2   3
ATOM      3  N   UNL A   1      32.842  22.007  26.308  1.00  0.00    -0.356 N 
ATOM      4  O   UNL A   1      31.501  23.388  27.568  1.00  0.00    -0.275 OA
ATOM      5  C   UNL A   1      31.737  22.810  26.511  1.00  0.00     0.224 C 
ATOM      6  H   UNL A   1      32.900  21.488  25.472  1.00  0.00     0.163 HD
BRANCH   5   7
ATOM      7  C   UNL A   1      30.846  22.949  25.281  1.00  0.00     0.137 C 
BRANCH   7   8
ATOM      8  C   UNL A   1      31.582  23.547  24.095  1.00  0.00    -0.015 A 
ATOM      9  C   UNL A   1      32.280  22.675  23.229  1.00  0.00     0.006 A 
ATOM     10  C   UNL A   1      31.557  24.925  23.791  1.00  0.00     0.042 A 
ATOM     11  C   UNL A   1      32.977  23.148  22.120  1.00  0.00     0.000 A 
ATOM     12  C   UNL A   1      32.292  25.381  22.682  1.00  0.00     0.026 A 
ATOM     13  C   UNL A   1      32.995  24.507  21.854  1.00  0.00     0.002 A 
BRANCH  10  14
ATOM     14  N   UNL A   1      30.764  25.824  24.539  1.00  0.00    -0.352 N 
ATOM     15  H   UNL A   1      29.879  25.480  24.799  1.00  0.00     0.167 HD
BRANCH  14  16
ATOM     16  C   UNL A   1      31.042  27.141  24.971  1.00  0.00     0.087 A 
ATOM     17  C   UNL A   1      31.861  27.280  26.110  1.00  0.00     0.147 A 
ATOM     18  C   UNL A   1      30.640  28.312  24.301  1.00  0.00     0.082 A 
ATOM     19  F   UNL A   1      32.229  26.181  26.789  1.00  0.00    -0.205 F 
ATOM     20  C   UNL A   1      32.328  28.514  26.552  1.00  0.00     0.041 A 
ATOM     21  C   UNL A   1      31.143  29.560  24.745  1.00  0.00     0.015 A 
ATOM     22  C   UNL A   1      31.984  29.661  25.853  1.00  0.00     0.004 A 
BRANCH  18  23
ATOM     23  C   UNL A   1      29.667  28.343  23.144  1.00  0.00     0.418 C 
ATOM     24  F   UNL A   1      29.349  29.631  22.797  1.00  0.00    -0.166 F 
ATOM     25  F   UNL A   1      30.191  27.798  22.010  1.00  0.00    -0.166 F 
ATOM     26  F   UNL A   1      28.468  27.740  23.359  1.00  0.00    -0.166 F 
ENDBRANCH  18  23
ENDBRANCH  14  16
ENDBRANCH  10  14
ENDBRANCH   7   8
ENDBRANCH   5   7
ENDBRANCH   2   3
ENDBRANCH   1   2
BRANCH   1  27
ATOM     27  C   UNL A   1      35.338  23.190  25.536  1.00  0.00     0.023 C 
BRANCH  27  28
ATOM     28  C   UNL A   1      36.715  23.783  25.252  1.00  0.00     0.116 C 
BRANCH  28  29
ATOM     29  N   UNL A   1      37.784  22.817  25.445  1.00  0.00    -0.352 N 
ATOM     30  C   UNL A   1      39.015  22.978  26.035  1.00  0.00     0.251 C 
ATOM     31  H   UNL A   1      37.600  21.914  25.102  1.00  0.00     0.163 HD
ATOM     32  O   UNL A   1      39.857  22.086  25.931  1.00  0.00    -0.269 OA
BRANCH  30  33
ATOM     33  C   UNL A   1      39.344  24.219  26.772  1.00  0.00     0.039 A 
ATOM     34  C   UNL A   1      38.855  24.387  28.070  1.00  0.00     0.014 A 
ATOM     35  C   UNL A   1      40.117  25.227  26.186  1.00  0.00     0.014 A 
ATOM     36  C   UNL A   1      39.196  25.529  28.803  1.00  0.00     0.010 A 
ATOM     37  C   UNL A   1      40.516  26.328  26.942  1.00  0.00     0.010 A 
ATOM     38  C   UNL A   1      40.062  26.492  28.260  1.00  0.00    -0.014 A 
BRANCH  38  39
ATOM     39  C   UNL A   1      40.510  27.665  29.060  1.00  0.00     0.031 A 
ATOM     40  C   UNL A   1      41.836  27.640  29.774  1.00  0.00     0.074 A 
ATOM     41  C   UNL A   1      39.695  28.730  29.195  1.00  0.00     0.049 A 
ATOM     42  N   UNL A   1      42.362  28.537  30.569  1.00  0.00    -0.248 NA
ATOM     43  C   UNL A   1      42.668  26.440  29.592  1.00  0.00     0.031 C 
ATOM     44  C   UNL A   1      38.368  28.861  28.590  1.00  0.00     0.029 A 
ATOM     45  N   UNL A   1      39.855  29.903  29.892  1.00  0.00    -0.354 N 
ATOM     46  C   UNL A   1      43.578  28.008  30.988  1.00  0.00     0.074 A 
ATOM     47  C   UNL A   1      43.685  26.689  30.403  1.00  0.00     0.031 C 
ATOM     48  C   UNL A   1      37.845  30.051  28.923  1.00  0.00     0.029 A 
ATOM     49  C   UNL A   1      38.777  30.754  29.800  1.00  0.00     0.049 A 
ATOM     50  H   UNL A   1      40.666  30.115  30.408  1.00  0.00     0.167 HD
ATOM     51  C   UNL A   1      44.527  28.577  31.771  1.00  0.00     0.037 A 
ATOM     52  C   UNL A   1      38.557  31.956  30.367  1.00  0.00     0.037 A 
ATOM     53  C   UNL A   1      44.423  29.898  32.337  1.00  0.00     0.049 A 
ATOM     54  C   UNL A   1      39.619  32.561  31.245  1.00  0.00     0.074 A 
ATOM     55  C   UNL A   1      45.355  30.584  33.097  1.00  0.00     0.029 A 
ATOM     56  N   UNL A   1      43.321  30.732  32.211  1.00  0.00    -0.354 N 
ATOM     57  N   UNL A   1      40.790  32.071  31.579  1.00  0.00    -0.248 NA
ATOM     58  C   UNL A   1      39.333  33.883  31.820  1.00  0.00     0.031 C 
ATOM     59  C   UNL A   1      44.795  31.809  33.476  1.00  0.00     0.029 A 
ATOM     60  C   UNL A   1      43.539  31.914  32.902  1.00  0.00     0.049 A 
ATOM     61  H   UNL A   1      42.504  30.516  31.705  1.00  0.00     0.167 HD
ATOM     62  C   UNL A   1      41.393  33.039  32.376  1.00  0.00     0.074 A 
ATOM     63  C   UNL A   1      40.462  34.145  32.465  1.00  0.00     0.031 C 
ATOM     64  C   UNL A   1      42.608  33.013  32.978  1.00  0.00     0.037 A 
BRANCH  51  65
ATOM     65  C   UNL A   1      45.767  27.774  32.064  1.00  0.00     0.058 A 
ATOM     66  C   UNL A   1      45.895  27.013  33.237  1.00  0.00     0.135 A 
ATOM     67  C   UNL A   1      46.824  27.727  31.139  1.00  0.00     0.135 A 
ATOM     68  F   UNL A   1      44.923  27.028  34.163  1.00  0.00    -0.206 F 
ATOM     69  C   UNL A   1      47.038  26.263  33.499  1.00  0.00     0.059 A 
ATOM     70  C   UNL A   1      47.963  26.959  31.365  1.00  0.00     0.059 A 
ATOM     71  F   UNL A   1      46.756  28.433  29.998  1.00  0.00    -0.206 F 
ATOM     72  C   UNL A   1      48.066  26.242  32.556  1.00  0.00     0.060 A 
BRANCH  72  73
ATOM     73  S   UNL A   1      49.539  25.260  32.911  1.00  0.00     0.124 S 
ATOM     74  O   UNL A   1      50.310  26.181  33.740  1.00  0.00    -0.237 OA
ATOM     75  O   UNL A   1      48.982  24.101  33.601  1.00  0.00    -0.237 OA
ATOM     76  O   UNL A   1      50.096  24.991  31.589  1.00  0.00    -0.744 OA
ENDBRANCH  72  73
ENDBRANCH  51  65
BRANCH  52  77
ATOM     77  C   UNL A   1      37.279  32.677  30.107  1.00  0.00     0.058 A 
ATOM     78  C   UNL A   1      37.190  33.649  29.100  1.00  0.00     0.135 A 
ATOM     79  C   UNL A   1      36.123  32.401  30.853  1.00  0.00     0.135 A 
ATOM     80  F   UNL A   1      38.270  33.955  28.365  1.00  0.00    -0.206 F 
ATOM     81  C   UNL A   1      36.005  34.335  28.852  1.00  0.00     0.059 A 
ATOM     82  C   UNL A   1      34.919  33.052  30.604  1.00  0.00     0.059 A 
ATOM     83  F   UNL A   1      36.150  31.468  31.818  1.00  0.00    -0.206 F 
ATOM     84  C   UNL A   1      34.873  34.026  29.607  1.00  0.00     0.060 A 
BRANCH  84  85
ATOM     85  S   UNL A   1      33.328  34.887  29.241  1.00  0.00     0.124 S 
ATOM     86  O   UNL A   1      32.708  33.983  28.280  1.00  0.00    -0.237 OA
ATOM     87  O   UNL A   1      32.698  34.955  30.555  1.00  0.00    -0.237 OA
ATOM     88  O   UNL A   1      33.778  36.169  28.704  1.00  0.00    -0.744 OA
ENDBRANCH  84  85
ENDBRANCH  52  77
BRANCH  64  89
ATOM     89  C   UNL A   1      43.026  34.231  33.757  1.00  0.00     0.058 A 
ATOM     90  C   UNL A   1      42.959  34.274  35.159  1.00  0.00     0.135 A 
ATOM     91  C   UNL A   1      43.549  35.352  33.093  1.00  0.00     0.135 A 
ATOM     92  F   UNL A   1      42.460  33.234  35.844  1.00  0.00    -0.206 F 
ATOM     93  C   UNL A   1      43.374  35.395  35.872  1.00  0.00     0.059 A 
ATOM     94  C   UNL A   1      44.000  36.471  33.788  1.00  0.00     0.059 A 
ATOM     95  F   UNL A   1      43.645  35.361  31.753  1.00  0.00    -0.206 F 
ATOM     96  C   UNL A   1      43.896  36.487  35.178  1.00  0.00     0.060 A 
BRANCH  96  97
ATOM     97  S   UNL A   1      44.465  37.919  36.118  1.00  0.00     0.124 S 
ATOM     98  O   UNL A   1      43.504  37.951  37.216  1.00  0.00    -0.237 OA
ATOM     99  O   UNL A   1      45.826  37.534  36.479  1.00  0.00    -0.237 OA
ATOM    100  O   UNL A   1      44.362  39.017  35.163  1.00  0.00    -0.744 OA
ENDBRANCH  96  97
ENDBRANCH  64  89
ENDBRANCH  38  39
ENDBRANCH  30  33
ENDBRANCH  28  29
ENDBRANCH  27  28
ENDBRANCH   1  27
TORSDOF 18
ENDMDL
