MODEL 1
REMARK VINA RESULT:     -12.7      0.000      0.000
REMARK SMILES C[C@]12CCC(=O)N1[C@H](C(=O)N1CCC[C@@H]1C(=O)NCCCCNC(=O)c1ccc(-c3c4nc(c(-c5c(F)cc(S(=O)(=O)[O-])cc5F)c5ccc([nH]5)c(-c5c(F)cc(S(=O)(=O)[O-])cc5F)c5nc(c(-c6c(F)cc(S(=O)(=O)[O-])cc6F)c6ccc3[nH]6)C=C5)C=C4)cc1)CS2
REMARK SMILES IDX 21 1 20 2 19 3 18 4 16 5 17 6 15 8 11 9 12 10 13 11 14 12
REMARK SMILES IDX 9 13 10 14 8 15 1 16 2 17 3 18 7 19 93 20 4 21 5 22 92 23
REMARK SMILES IDX 6 24 22 25 23 26 24 27 25 29 26 30 27 31 91 32 28 33 90 34
REMARK SMILES IDX 29 35 30 36 31 37 84 38 32 39 89 40 83 41 85 42 33 43 88 44
REMARK SMILES IDX 82 45 81 46 34 48 68 49 47 50 67 51 48 52 51 53 66 54 86 55
REMARK SMILES IDX 49 56 50 57 65 59 87 60 52 61 35 62 36 63 45 64 37 65 38 66
REMARK SMILES IDX 44 67 46 68 39 69 40 70 41 71 42 72 43 73 69 74 70 75 79 76
REMARK SMILES IDX 71 77 72 78 78 79 80 80 73 81 74 82 75 83 76 84 77 85 53 86
REMARK SMILES IDX 54 87 63 88 55 89 56 90 62 91 64 92 57 93 58 94 59 95 60 96
REMARK SMILES IDX 61 97
REMARK H PARENT 18 7 23 28 85 47 51 58
REMARK Flexibility Score: inf
ROOT
ATOM      1  C   UNL A   1      38.963  22.184  26.320  1.00  0.00     0.023 C 
ENDROOT
BRANCH   1   2
ATOM      2  C   UNL A   1      37.861  22.734  25.414  1.00  0.00     0.023 C 
BRANCH   2   3
ATOM      3  C   UNL A   1      36.851  23.654  26.096  1.00  0.00     0.116 C 
BRANCH   3   4
ATOM      4  N   UNL A   1      35.794  22.939  26.785  1.00  0.00    -0.354 N 
ATOM      5  C   UNL A   1      34.475  22.801  26.474  1.00  0.00     0.242 C 
ATOM      6  O   UNL A   1      33.819  22.020  27.176  1.00  0.00    -0.273 OA
ATOM      7  H   UNL A   1      36.074  22.481  27.610  1.00  0.00     0.163 HD
BRANCH   5   8
ATOM      8  C   UNL A   1      33.743  23.652  25.408  1.00  0.00     0.174 C 
ATOM      9  N   UNL A   1      32.283  23.772  25.449  1.00  0.00    -0.329 N 
ATOM     10  C   UNL A   1      31.673  22.939  24.413  1.00  0.00     0.120 C 
ATOM     11  C   UNL A   1      32.803  22.107  23.831  1.00  0.00     0.024 C 
ATOM     12  C   UNL A   1      34.014  23.002  24.039  1.00  0.00     0.037 C 
BRANCH   9  13
ATOM     13  C   UNL A   1      31.459  24.535  26.246  1.00  0.00     0.246 C 
ATOM     14  O   UNL A   1      31.017  24.016  27.282  1.00  0.00    -0.272 OA
BRANCH  13  15
ATOM     15  C   UNL A   1      31.029  25.990  25.912  1.00  0.00     0.186 C 
ATOM     16  C   UNL A   1      33.711  27.205  24.216  1.00  0.00     0.047 C 
ATOM     17  C   UNL A   1      32.367  27.714  24.728  1.00  0.00     0.087 C 
ATOM     18  C   UNL A   1      32.462  29.216  25.001  1.00  0.00     0.049 C 
ATOM     19  N   UNL A   1      31.978  27.108  25.980  1.00  0.00    -0.315 N 
ATOM     20  S   UNL A   1      31.045  27.254  23.549  1.00  0.00    -0.131 SA
ATOM     21  C   UNL A   1      31.821  29.426  26.359  1.00  0.00     0.103 C 
ATOM     22  C   UNL A   1      31.790  28.057  26.986  1.00  0.00     0.224 C 
ATOM     23  C   UNL A   1      30.102  26.244  24.733  1.00  0.00     0.107 C 
ATOM     24  O   UNL A   1      31.437  27.835  28.128  1.00  0.00    -0.275 OA
ENDBRANCH  13  15
ENDBRANCH   9  13
ENDBRANCH   5   8
ENDBRANCH   3   4
ENDBRANCH   2   3
ENDBRANCH   1   2
BRANCH   1  25
ATOM     25  C   UNL A   1      39.856  23.234  26.975  1.00  0.00     0.116 C 
BRANCH  25  26
ATOM     26  N   UNL A   1      40.750  23.896  26.037  1.00  0.00    -0.352 N 
ATOM     27  C   UNL A   1      41.351  25.131  26.098  1.00  0.00     0.251 C 
ATOM     28  H   UNL A   1      40.957  23.375  25.229  1.00  0.00     0.163 HD
ATOM     29  O   UNL A   1      41.943  25.566  25.113  1.00  0.00    -0.269 OA
BRANCH  27  30
ATOM     30  C   UNL A   1      41.261  25.960  27.321  1.00  0.00     0.039 A 
ATOM     31  C   UNL A   1      42.306  26.841  27.613  1.00  0.00     0.014 A 
ATOM     32  C   UNL A   1      40.171  25.866  28.188  1.00  0.00     0.014 A 
ATOM     33  C   UNL A   1      42.212  27.691  28.718  1.00  0.00     0.010 A 
ATOM     34  C   UNL A   1      40.038  26.771  29.240  1.00  0.00     0.010 A 
ATOM     35  C   UNL A   1      41.054  27.698  29.514  1.00  0.00    -0.014 A 
BRANCH  35  36
ATOM     36  C   UNL A   1      40.879  28.684  30.613  1.00  0.00     0.031 A 
ATOM     37  C   UNL A   1      41.693  28.580  31.874  1.00  0.00     0.074 A 
ATOM     38  C   UNL A   1      39.919  29.625  30.512  1.00  0.00     0.049 A 
ATOM     39  N   UNL A   1      41.624  29.302  32.963  1.00  0.00    -0.248 NA
ATOM     40  C   UNL A   1      42.690  27.501  31.930  1.00  0.00     0.031 C 
ATOM     41  C   UNL A   1      39.007  29.784  29.376  1.00  0.00     0.029 A 
ATOM     42  N   UNL A   1      39.533  30.611  31.386  1.00  0.00    -0.354 N 
ATOM     43  C   UNL A   1      42.546  28.749  33.843  1.00  0.00     0.074 A 
ATOM     44  C   UNL A   1      43.129  27.604  33.176  1.00  0.00     0.031 C 
ATOM     45  C   UNL A   1      38.178  30.812  29.618  1.00  0.00     0.029 A 
ATOM     46  C   UNL A   1      38.477  31.367  30.935  1.00  0.00     0.049 A 
ATOM     47  H   UNL A   1      39.973  30.763  32.254  1.00  0.00     0.167 HD
ATOM     48  C   UNL A   1      42.892  29.168  35.085  1.00  0.00     0.037 A 
ATOM     49  C   UNL A   1      37.816  32.386  31.516  1.00  0.00     0.037 A 
ATOM     50  C   UNL A   1      42.337  30.329  35.731  1.00  0.00     0.049 A 
ATOM     51  C   UNL A   1      38.251  32.873  32.869  1.00  0.00     0.074 A 
ATOM     52  C   UNL A   1      42.686  30.887  36.948  1.00  0.00     0.029 A 
ATOM     53  N   UNL A   1      41.311  31.107  35.215  1.00  0.00    -0.354 N 
ATOM     54  N   UNL A   1      39.189  32.395  33.651  1.00  0.00    -0.248 NA
ATOM     55  C   UNL A   1      37.552  34.044  33.412  1.00  0.00     0.031 C 
ATOM     56  C   UNL A   1      41.848  31.983  37.185  1.00  0.00     0.029 A 
ATOM     57  C   UNL A   1      41.001  32.130  36.097  1.00  0.00     0.049 A 
ATOM     58  H   UNL A   1      40.867  30.955  34.349  1.00  0.00     0.167 HD
ATOM     59  C   UNL A   1      39.202  33.213  34.773  1.00  0.00     0.074 A 
ATOM     60  C   UNL A   1      38.187  34.226  34.563  1.00  0.00     0.031 C 
ATOM     61  C   UNL A   1      39.985  33.130  35.879  1.00  0.00     0.037 A 
BRANCH  48  62
ATOM     62  C   UNL A   1      43.921  28.355  35.821  1.00  0.00     0.058 A 
ATOM     63  C   UNL A   1      45.298  28.577  35.652  1.00  0.00     0.135 A 
ATOM     64  C   UNL A   1      43.527  27.332  36.698  1.00  0.00     0.135 A 
ATOM     65  F   UNL A   1      45.730  29.537  34.817  1.00  0.00    -0.206 F 
ATOM     66  C   UNL A   1      46.248  27.781  36.283  1.00  0.00     0.059 A 
ATOM     67  C   UNL A   1      44.460  26.539  37.362  1.00  0.00     0.059 A 
ATOM     68  F   UNL A   1      42.225  27.079  36.902  1.00  0.00    -0.206 F 
ATOM     69  C   UNL A   1      45.818  26.756  37.127  1.00  0.00     0.060 A 
BRANCH  69  70
ATOM     70  S   UNL A   1      47.057  25.698  37.906  1.00  0.00     0.124 S 
ATOM     71  O   UNL A   1      46.558  25.632  39.277  1.00  0.00    -0.237 OA
ATOM     72  O   UNL A   1      46.952  24.465  37.134  1.00  0.00    -0.237 OA
ATOM     73  O   UNL A   1      48.299  26.444  37.725  1.00  0.00    -0.744 OA
ENDBRANCH  69  70
ENDBRANCH  48  62
BRANCH  49  74
ATOM     74  C   UNL A   1      36.687  33.025  30.792  1.00  0.00     0.058 A 
ATOM     75  C   UNL A   1      35.359  32.771  31.160  1.00  0.00     0.135 A 
ATOM     76  C   UNL A   1      36.918  33.954  29.766  1.00  0.00     0.135 A 
ATOM     77  F   UNL A   1      35.090  31.886  32.132  1.00  0.00    -0.206 F 
ATOM     78  C   UNL A   1      34.295  33.421  30.541  1.00  0.00     0.059 A 
ATOM     79  C   UNL A   1      35.872  34.631  29.144  1.00  0.00     0.059 A 
ATOM     80  F   UNL A   1      38.173  34.243  29.390  1.00  0.00    -0.206 F 
ATOM     81  C   UNL A   1      34.564  34.356  29.539  1.00  0.00     0.060 A 
BRANCH  81  82
ATOM     82  S   UNL A   1      33.184  35.266  28.811  1.00  0.00     0.124 S 
ATOM     83  O   UNL A   1      32.562  34.243  27.980  1.00  0.00    -0.237 OA
ATOM     84  O   UNL A   1      32.429  35.678  29.990  1.00  0.00    -0.237 OA
ATOM     85  O   UNL A   1      33.844  36.352  28.090  1.00  0.00    -0.744 OA
ENDBRANCH  81  82
ENDBRANCH  49  74
BRANCH  61  86
ATOM     86  C   UNL A   1      39.785  34.170  36.944  1.00  0.00     0.058 A 
ATOM     87  C   UNL A   1      39.028  33.906  38.096  1.00  0.00     0.135 A 
ATOM     88  C   UNL A   1      40.399  35.428  36.835  1.00  0.00     0.135 A 
ATOM     89  F   UNL A   1      38.414  32.722  38.244  1.00  0.00    -0.206 F 
ATOM     90  C   UNL A   1      38.872  34.861  39.097  1.00  0.00     0.059 A 
ATOM     91  C   UNL A   1      40.274  36.389  37.834  1.00  0.00     0.059 A 
ATOM     92  F   UNL A   1      41.140  35.727  35.757  1.00  0.00    -0.206 F 
ATOM     93  C   UNL A   1      39.500  36.100  38.957  1.00  0.00     0.060 A 
BRANCH  93  94
ATOM     94  S   UNL A   1      39.321  37.318  40.277  1.00  0.00     0.124 S 
ATOM     95  O   UNL A   1      38.564  38.369  39.606  1.00  0.00    -0.237 OA
ATOM     96  O   UNL A   1      38.598  36.569  41.301  1.00  0.00    -0.237 OA
ATOM     97  O   UNL A   1      40.701  37.655  40.616  1.00  0.00    -0.744 OA
ENDBRANCH  93  94
ENDBRANCH  61  86
ENDBRANCH  35  36
ENDBRANCH  27  30
ENDBRANCH  25  26
ENDBRANCH   1  25
TORSDOF 16
ENDMDL
MODEL 2
REMARK VINA RESULT:     -12.7      1.329      2.031
REMARK SMILES C[C@]12CCC(=O)N1[C@H](C(=O)N1CCC[C@@H]1C(=O)NCCCCNC(=O)c1ccc(-c3c4nc(c(-c5c(F)cc(S(=O)(=O)[O-])cc5F)c5ccc([nH]5)c(-c5c(F)cc(S(=O)(=O)[O-])cc5F)c5nc(c(-c6c(F)cc(S(=O)(=O)[O-])cc6F)c6ccc3[nH]6)C=C5)C=C4)cc1)CS2
REMARK SMILES IDX 21 1 20 2 19 3 18 4 16 5 17 6 15 8 11 9 12 10 13 11 14 12
REMARK SMILES IDX 9 13 10 14 8 15 1 16 2 17 3 18 7 19 93 20 4 21 5 22 92 23
REMARK SMILES IDX 6 24 22 25 23 26 24 27 25 29 26 30 27 31 91 32 28 33 90 34
REMARK SMILES IDX 29 35 30 36 31 37 84 38 32 39 89 40 83 41 85 42 33 43 88 44
REMARK SMILES IDX 82 45 81 46 34 48 68 49 47 50 67 51 48 52 51 53 66 54 86 55
REMARK SMILES IDX 49 56 50 57 65 59 87 60 52 61 35 62 36 63 45 64 37 65 38 66
REMARK SMILES IDX 44 67 46 68 39 69 40 70 41 71 42 72 43 73 69 74 70 75 79 76
REMARK SMILES IDX 71 77 72 78 78 79 80 80 73 81 74 82 75 83 76 84 77 85 53 86
REMARK SMILES IDX 54 87 63 88 55 89 56 90 62 91 64 92 57 93 58 94 59 95 60 96
REMARK SMILES IDX 61 97
REMARK H PARENT 18 7 23 28 85 47 51 58
REMARK Flexibility Score: inf
ROOT
ATOM      1  C   UNL A   1      39.687  21.801  26.562  1.00  0.00     0.023 C 
ENDROOT
BRANCH   1   2
ATOM      2  C   UNL A   1      38.482  21.614  25.639  1.00  0.00     0.023 C 
BRANCH   2   3
ATOM      3  C   UNL A   1      37.437  22.726  25.695  1.00  0.00     0.116 C 
BRANCH   3   4
ATOM      4  N   UNL A   1      36.288  22.396  26.518  1.00  0.00    -0.354 N 
ATOM      5  C   UNL A   1      35.173  21.672  26.225  1.00  0.00     0.242 C 
ATOM      6  O   UNL A   1      34.402  21.436  27.164  1.00  0.00    -0.273 OA
ATOM      7  H   UNL A   1      36.320  22.754  27.434  1.00  0.00     0.163 HD
BRANCH   5   8
ATOM      8  C   UNL A   1      34.760  21.260  24.790  1.00  0.00     0.174 C 
ATOM      9  N   UNL A   1      33.921  22.156  23.990  1.00  0.00    -0.329 N 
ATOM     10  C   UNL A   1      32.546  21.660  23.941  1.00  0.00     0.120 C 
ATOM     11  C   UNL A   1      32.487  20.506  24.927  1.00  0.00     0.024 C 
ATOM     12  C   UNL A   1      33.913  19.980  24.908  1.00  0.00     0.037 C 
BRANCH   9  13
ATOM     13  C   UNL A   1      34.229  23.303  23.291  1.00  0.00     0.246 C 
ATOM     14  O   UNL A   1      34.951  23.191  22.289  1.00  0.00    -0.272 OA
BRANCH  13  15
ATOM     15  C   UNL A   1      33.754  24.725  23.699  1.00  0.00     0.186 C 
ATOM     16  C   UNL A   1      30.372  24.495  23.453  1.00  0.00     0.047 C 
ATOM     17  C   UNL A   1      31.416  25.561  23.766  1.00  0.00     0.087 C 
ATOM     18  C   UNL A   1      30.874  26.937  23.374  1.00  0.00     0.049 C 
ATOM     19  N   UNL A   1      32.638  25.389  23.014  1.00  0.00    -0.315 N 
ATOM     20  S   UNL A   1      31.920  25.433  25.522  1.00  0.00    -0.131 SA
ATOM     21  C   UNL A   1      31.996  27.619  22.617  1.00  0.00     0.103 C 
ATOM     22  C   UNL A   1      32.932  26.504  22.228  1.00  0.00     0.224 C 
ATOM     23  C   UNL A   1      33.673  25.093  25.172  1.00  0.00     0.107 C 
ATOM     24  O   UNL A   1      33.907  26.646  21.516  1.00  0.00    -0.275 OA
ENDBRANCH  13  15
ENDBRANCH   9  13
ENDBRANCH   5   8
ENDBRANCH   3   4
ENDBRANCH   2   3
ENDBRANCH   1   2
BRANCH   1  25
ATOM     25  C   UNL A   1      39.997  23.244  26.949  1.00  0.00     0.116 C 
BRANCH  25  26
ATOM     26  N   UNL A   1      40.868  23.920  26.000  1.00  0.00    -0.352 N 
ATOM     27  C   UNL A   1      41.449  25.165  26.052  1.00  0.00     0.251 C 
ATOM     28  H   UNL A   1      41.074  23.402  25.189  1.00  0.00     0.163 HD
ATOM     29  O   UNL A   1      42.021  25.610  25.060  1.00  0.00    -0.269 OA
BRANCH  27  30
ATOM     30  C   UNL A   1      41.361  25.993  27.276  1.00  0.00     0.039 A 
ATOM     31  C   UNL A   1      42.364  26.935  27.524  1.00  0.00     0.014 A 
ATOM     32  C   UNL A   1      40.313  25.840  28.188  1.00  0.00     0.014 A 
ATOM     33  C   UNL A   1      42.265  27.783  28.630  1.00  0.00     0.010 A 
ATOM     34  C   UNL A   1      40.171  26.741  29.241  1.00  0.00     0.010 A 
ATOM     35  C   UNL A   1      41.142  27.727  29.472  1.00  0.00    -0.014 A 
BRANCH  35  36
ATOM     36  C   UNL A   1      40.955  28.705  30.575  1.00  0.00     0.031 A 
ATOM     37  C   UNL A   1      41.765  28.603  31.838  1.00  0.00     0.074 A 
ATOM     38  C   UNL A   1      39.986  29.638  30.476  1.00  0.00     0.049 A 
ATOM     39  N   UNL A   1      41.687  29.319  32.930  1.00  0.00    -0.248 NA
ATOM     40  C   UNL A   1      42.773  27.533  31.892  1.00  0.00     0.031 C 
ATOM     41  C   UNL A   1      39.076  29.794  29.338  1.00  0.00     0.029 A 
ATOM     42  N   UNL A   1      39.589  30.616  31.353  1.00  0.00    -0.354 N 
ATOM     43  C   UNL A   1      42.612  28.771  33.810  1.00  0.00     0.074 A 
ATOM     44  C   UNL A   1      43.208  27.635  33.140  1.00  0.00     0.031 C 
ATOM     45  C   UNL A   1      38.237  30.813  29.583  1.00  0.00     0.029 A 
ATOM     46  C   UNL A   1      38.527  31.364  30.902  1.00  0.00     0.049 A 
ATOM     47  H   UNL A   1      40.025  30.768  32.223  1.00  0.00     0.167 HD
ATOM     48  C   UNL A   1      42.951  29.187  35.055  1.00  0.00     0.037 A 
ATOM     49  C   UNL A   1      37.855  32.375  31.486  1.00  0.00     0.037 A 
ATOM     50  C   UNL A   1      42.382  30.340  35.705  1.00  0.00     0.049 A 
ATOM     51  C   UNL A   1      38.282  32.859  32.843  1.00  0.00     0.074 A 
ATOM     52  C   UNL A   1      42.723  30.896  36.926  1.00  0.00     0.029 A 
ATOM     53  N   UNL A   1      41.351  31.111  35.189  1.00  0.00    -0.354 N 
ATOM     54  N   UNL A   1      39.221  32.386  33.625  1.00  0.00    -0.248 NA
ATOM     55  C   UNL A   1      37.569  34.021  33.390  1.00  0.00     0.031 C 
ATOM     56  C   UNL A   1      41.874  31.982  37.165  1.00  0.00     0.029 A 
ATOM     57  C   UNL A   1      41.029  32.127  36.075  1.00  0.00     0.049 A 
ATOM     58  H   UNL A   1      40.911  30.959  34.322  1.00  0.00     0.167 HD
ATOM     59  C   UNL A   1      39.223  33.199  34.752  1.00  0.00     0.074 A 
ATOM     60  C   UNL A   1      38.200  34.203  34.543  1.00  0.00     0.031 C 
ATOM     61  C   UNL A   1      40.004  33.119  35.859  1.00  0.00     0.037 A 
BRANCH  48  62
ATOM     62  C   UNL A   1      43.985  28.381  35.790  1.00  0.00     0.058 A 
ATOM     63  C   UNL A   1      43.627  27.355  36.680  1.00  0.00     0.135 A 
ATOM     64  C   UNL A   1      45.353  28.644  35.613  1.00  0.00     0.135 A 
ATOM     65  F   UNL A   1      42.332  27.068  36.895  1.00  0.00    -0.206 F 
ATOM     66  C   UNL A   1      44.583  26.655  37.409  1.00  0.00     0.059 A 
ATOM     67  C   UNL A   1      46.329  27.938  36.311  1.00  0.00     0.059 A 
ATOM     68  F   UNL A   1      45.753  29.609  34.770  1.00  0.00    -0.206 F 
ATOM     69  C   UNL A   1      45.931  26.963  37.226  1.00  0.00     0.060 A 
BRANCH  69  70
ATOM     70  S   UNL A   1      47.163  26.081  38.209  1.00  0.00     0.124 S 
ATOM     71  O   UNL A   1      46.444  25.888  39.465  1.00  0.00    -0.237 OA
ATOM     72  O   UNL A   1      47.394  24.875  37.420  1.00  0.00    -0.237 OA
ATOM     73  O   UNL A   1      48.284  27.015  38.263  1.00  0.00    -0.744 OA
ENDBRANCH  69  70
ENDBRANCH  48  62
BRANCH  49  74
ATOM     74  C   UNL A   1      36.722  33.006  30.762  1.00  0.00     0.058 A 
ATOM     75  C   UNL A   1      35.397  32.780  31.159  1.00  0.00     0.135 A 
ATOM     76  C   UNL A   1      36.947  33.902  29.705  1.00  0.00     0.135 A 
ATOM     77  F   UNL A   1      35.133  31.928  32.161  1.00  0.00    -0.206 F 
ATOM     78  C   UNL A   1      34.331  33.425  30.538  1.00  0.00     0.059 A 
ATOM     79  C   UNL A   1      35.899  34.573  29.081  1.00  0.00     0.059 A 
ATOM     80  F   UNL A   1      38.200  34.163  29.301  1.00  0.00    -0.206 F 
ATOM     81  C   UNL A   1      34.595  34.327  29.505  1.00  0.00     0.060 A 
BRANCH  81  82
ATOM     82  S   UNL A   1      33.214  35.233  28.772  1.00  0.00     0.124 S 
ATOM     83  O   UNL A   1      32.497  35.686  29.957  1.00  0.00    -0.237 OA
ATOM     84  O   UNL A   1      33.899  36.268  28.004  1.00  0.00    -0.237 OA
ATOM     85  O   UNL A   1      32.536  34.217  27.970  1.00  0.00    -0.744 OA
ENDBRANCH  81  82
ENDBRANCH  49  74
BRANCH  61  86
ATOM     86  C   UNL A   1      39.791  34.152  36.928  1.00  0.00     0.058 A 
ATOM     87  C   UNL A   1      39.005  33.887  38.060  1.00  0.00     0.135 A 
ATOM     88  C   UNL A   1      40.422  35.403  36.845  1.00  0.00     0.135 A 
ATOM     89  F   UNL A   1      38.374  32.708  38.184  1.00  0.00    -0.206 F 
ATOM     90  C   UNL A   1      38.836  34.834  39.065  1.00  0.00     0.059 A 
ATOM     91  C   UNL A   1      40.285  36.357  37.849  1.00  0.00     0.059 A 
ATOM     92  F   UNL A   1      41.192  35.703  35.787  1.00  0.00    -0.206 F 
ATOM     93  C   UNL A   1      39.482  36.067  38.951  1.00  0.00     0.060 A 
BRANCH  93  94
ATOM     94  S   UNL A   1      39.286  37.276  40.278  1.00  0.00     0.124 S 
ATOM     95  O   UNL A   1      38.551  36.502  41.273  1.00  0.00    -0.237 OA
ATOM     96  O   UNL A   1      40.669  37.597  40.618  1.00  0.00    -0.237 OA
ATOM     97  O   UNL A   1      38.538  38.357  39.643  1.00  0.00    -0.744 OA
ENDBRANCH  93  94
ENDBRANCH  61  86
ENDBRANCH  35  36
ENDBRANCH  27  30
ENDBRANCH  25  26
ENDBRANCH   1  25
TORSDOF 16
ENDMDL
MODEL 3
REMARK VINA RESULT:     -12.7      6.495     12.110
REMARK SMILES C[C@]12CCC(=O)N1[C@H](C(=O)N1CCC[C@@H]1C(=O)NCCCCNC(=O)c1ccc(-c3c4nc(c(-c5c(F)cc(S(=O)(=O)[O-])cc5F)c5ccc([nH]5)c(-c5c(F)cc(S(=O)(=O)[O-])cc5F)c5nc(c(-c6c(F)cc(S(=O)(=O)[O-])cc6F)c6ccc3[nH]6)C=C5)C=C4)cc1)CS2
REMARK SMILES IDX 21 1 20 2 19 3 18 4 16 5 17 6 15 8 11 9 12 10 13 11 14 12
REMARK SMILES IDX 9 13 10 14 8 15 1 16 2 17 3 18 7 19 93 20 4 21 5 22 92 23
REMARK SMILES IDX 6 24 22 25 23 26 24 27 25 29 26 30 27 31 91 32 28 33 90 34
REMARK SMILES IDX 29 35 30 36 31 37 84 38 32 39 89 40 83 41 85 42 33 43 88 44
REMARK SMILES IDX 82 45 81 46 34 48 68 49 47 50 67 51 48 52 51 53 66 54 86 55
REMARK SMILES IDX 49 56 50 57 65 59 87 60 52 61 35 62 36 63 45 64 37 65 38 66
REMARK SMILES IDX 44 67 46 68 39 69 40 70 41 71 42 72 43 73 69 74 70 75 79 76
REMARK SMILES IDX 71 77 72 78 78 79 80 80 73 81 74 82 75 83 76 84 77 85 53 86
REMARK SMILES IDX 54 87 63 88 55 89 56 90 62 91 64 92 57 93 58 94 59 95 60 96
REMARK SMILES IDX 61 97
REMARK H PARENT 18 7 23 28 85 47 51 58
REMARK Flexibility Score: inf
ROOT
ATOM      1  C   UNL A   1      34.599  31.362  27.639  1.00  0.00     0.023 C 
ENDROOT
BRANCH   1   2
ATOM      2  C   UNL A   1      34.632  29.882  27.258  1.00  0.00     0.023 C 
BRANCH   2   3
ATOM      3  C   UNL A   1      33.441  29.390  26.439  1.00  0.00     0.116 C 
BRANCH   3   4
ATOM      4  N   UNL A   1      33.681  29.404  25.008  1.00  0.00    -0.354 N 
ATOM      5  C   UNL A   1      33.137  28.646  24.015  1.00  0.00     0.242 C 
ATOM      6  O   UNL A   1      33.429  28.960  22.854  1.00  0.00    -0.273 OA
ATOM      7  H   UNL A   1      34.343  30.067  24.706  1.00  0.00     0.163 HD
BRANCH   5   8
ATOM      8  C   UNL A   1      32.307  27.363  24.262  1.00  0.00     0.174 C 
ATOM      9  N   UNL A   1      32.413  26.237  23.330  1.00  0.00    -0.329 N 
ATOM     10  C   UNL A   1      31.234  26.177  22.466  1.00  0.00     0.120 C 
ATOM     11  C   UNL A   1      30.452  27.449  22.743  1.00  0.00     0.024 C 
ATOM     12  C   UNL A   1      30.821  27.757  24.185  1.00  0.00     0.037 C 
BRANCH   9  13
ATOM     13  C   UNL A   1      33.382  25.269  23.185  1.00  0.00     0.246 C 
ATOM     14  O   UNL A   1      34.023  25.248  22.124  1.00  0.00    -0.272 OA
BRANCH  13  15
ATOM     15  C   UNL A   1      33.700  24.188  24.256  1.00  0.00     0.186 C 
ATOM     16  C   UNL A   1      36.637  22.875  23.161  1.00  0.00     0.047 C 
ATOM     17  C   UNL A   1      35.637  22.635  24.287  1.00  0.00     0.087 C 
ATOM     18  C   UNL A   1      35.686  21.165  24.708  1.00  0.00     0.049 C 
ATOM     19  N   UNL A   1      34.271  22.887  23.889  1.00  0.00    -0.315 N 
ATOM     20  S   UNL A   1      35.955  23.810  25.654  1.00  0.00    -0.131 SA
ATOM     21  C   UNL A   1      34.240  20.719  24.805  1.00  0.00     0.103 C 
ATOM     22  C   UNL A   1      33.463  21.759  24.041  1.00  0.00     0.224 C 
ATOM     23  C   UNL A   1      34.320  24.606  25.580  1.00  0.00     0.107 C 
ATOM     24  O   UNL A   1      32.272  21.690  23.809  1.00  0.00    -0.275 OA
ENDBRANCH  13  15
ENDBRANCH   9  13
ENDBRANCH   5   8
ENDBRANCH   3   4
ENDBRANCH   2   3
ENDBRANCH   1   2
BRANCH   1  25
ATOM     25  C   UNL A   1      35.645  31.798  28.661  1.00  0.00     0.116 C 
BRANCH  25  26
ATOM     26  N   UNL A   1      35.501  31.138  29.950  1.00  0.00    -0.352 N 
ATOM     27  C   UNL A   1      36.367  30.319  30.634  1.00  0.00     0.251 C 
ATOM     28  H   UNL A   1      34.645  31.307  30.405  1.00  0.00     0.163 HD
ATOM     29  O   UNL A   1      35.978  29.732  31.642  1.00  0.00    -0.269 OA
BRANCH  27  30
ATOM     30  C   UNL A   1      37.750  30.104  30.153  1.00  0.00     0.039 A 
ATOM     31  C   UNL A   1      38.783  30.020  31.091  1.00  0.00     0.014 A 
ATOM     32  C   UNL A   1      38.041  30.003  28.790  1.00  0.00     0.014 A 
ATOM     33  C   UNL A   1      40.086  29.740  30.669  1.00  0.00     0.010 A 
ATOM     34  C   UNL A   1      39.322  29.640  28.378  1.00  0.00     0.010 A 
ATOM     35  C   UNL A   1      40.358  29.499  29.313  1.00  0.00    -0.014 A 
BRANCH  35  36
ATOM     36  C   UNL A   1      41.709  29.072  28.861  1.00  0.00     0.031 A 
ATOM     37  C   UNL A   1      42.824  30.071  28.725  1.00  0.00     0.074 A 
ATOM     38  C   UNL A   1      41.907  27.792  28.486  1.00  0.00     0.049 A 
ATOM     39  N   UNL A   1      44.041  29.896  28.277  1.00  0.00    -0.248 NA
ATOM     40  C   UNL A   1      42.521  31.458  29.111  1.00  0.00     0.031 C 
ATOM     41  C   UNL A   1      40.887  26.740  28.493  1.00  0.00     0.029 A 
ATOM     42  N   UNL A   1      43.028  27.162  28.004  1.00  0.00    -0.354 N 
ATOM     43  C   UNL A   1      44.639  31.150  28.300  1.00  0.00     0.074 A 
ATOM     44  C   UNL A   1      43.636  32.084  28.765  1.00  0.00     0.031 C 
ATOM     45  C   UNL A   1      41.432  25.597  28.049  1.00  0.00     0.029 A 
ATOM     46  C   UNL A   1      42.827  25.837  27.698  1.00  0.00     0.049 A 
ATOM     47  H   UNL A   1      43.894  27.617  27.889  1.00  0.00     0.167 HD
ATOM     48  C   UNL A   1      45.913  31.490  27.985  1.00  0.00     0.037 A 
ATOM     49  C   UNL A   1      43.668  24.918  27.184  1.00  0.00     0.037 A 
ATOM     50  C   UNL A   1      46.918  30.552  27.558  1.00  0.00     0.049 A 
ATOM     51  C   UNL A   1      45.091  25.300  26.894  1.00  0.00     0.074 A 
ATOM     52  C   UNL A   1      48.259  30.782  27.303  1.00  0.00     0.029 A 
ATOM     53  N   UNL A   1      46.693  29.203  27.320  1.00  0.00    -0.354 N 
ATOM     54  N   UNL A   1      45.666  26.473  27.008  1.00  0.00    -0.248 NA
ATOM     55  C   UNL A   1      45.984  24.234  26.420  1.00  0.00     0.031 C 
ATOM     56  C   UNL A   1      48.837  29.581  26.876  1.00  0.00     0.029 A 
ATOM     57  C   UNL A   1      47.864  28.593  26.901  1.00  0.00     0.049 A 
ATOM     58  H   UNL A   1      45.828  28.747  27.430  1.00  0.00     0.167 HD
ATOM     59  C   UNL A   1      46.991  26.285  26.633  1.00  0.00     0.074 A 
ATOM     60  C   UNL A   1      47.136  24.882  26.301  1.00  0.00     0.031 C 
ATOM     61  C   UNL A   1      47.995  27.195  26.569  1.00  0.00     0.037 A 
BRANCH  48  62
ATOM     62  C   UNL A   1      46.280  32.944  28.089  1.00  0.00     0.058 A 
ATOM     63  C   UNL A   1      46.784  33.495  29.279  1.00  0.00     0.135 A 
ATOM     64  C   UNL A   1      46.116  33.802  26.990  1.00  0.00     0.135 A 
ATOM     65  F   UNL A   1      46.950  32.722  30.365  1.00  0.00    -0.206 F 
ATOM     66  C   UNL A   1      47.060  34.854  29.393  1.00  0.00     0.059 A 
ATOM     67  C   UNL A   1      46.412  35.160  27.072  1.00  0.00     0.059 A 
ATOM     68  F   UNL A   1      45.645  33.328  25.826  1.00  0.00    -0.206 F 
ATOM     69  C   UNL A   1      46.860  35.680  28.287  1.00  0.00     0.060 A 
BRANCH  69  70
ATOM     70  S   UNL A   1      47.178  37.449  28.457  1.00  0.00     0.124 S 
ATOM     71  O   UNL A   1      48.069  37.692  27.327  1.00  0.00    -0.237 OA
ATOM     72  O   UNL A   1      45.842  38.024  28.345  1.00  0.00    -0.237 OA
ATOM     73  O   UNL A   1      47.794  37.556  29.777  1.00  0.00    -0.744 OA
ENDBRANCH  69  70
ENDBRANCH  48  62
BRANCH  49  74
ATOM     74  C   UNL A   1      43.173  23.538  26.942  1.00  0.00     0.058 A 
ATOM     75  C   UNL A   1      42.913  23.084  25.642  1.00  0.00     0.135 A 
ATOM     76  C   UNL A   1      43.021  22.628  27.999  1.00  0.00     0.135 A 
ATOM     77  F   UNL A   1      43.040  23.920  24.601  1.00  0.00    -0.206 F 
ATOM     78  C   UNL A   1      42.523  21.771  25.395  1.00  0.00     0.059 A 
ATOM     79  C   UNL A   1      42.650  21.305  27.776  1.00  0.00     0.059 A 
ATOM     80  F   UNL A   1      43.276  23.012  29.259  1.00  0.00    -0.206 F 
ATOM     81  C   UNL A   1      42.403  20.887  26.469  1.00  0.00     0.060 A 
BRANCH  81  82
ATOM     82  S   UNL A   1      41.993  19.160  26.129  1.00  0.00     0.124 S 
ATOM     83  O   UNL A   1      40.571  19.250  25.823  1.00  0.00    -0.237 OA
ATOM     84  O   UNL A   1      42.871  18.850  25.005  1.00  0.00    -0.237 OA
ATOM     85  O   UNL A   1      42.330  18.485  27.380  1.00  0.00    -0.744 OA
ENDBRANCH  81  82
ENDBRANCH  49  74
BRANCH  61  86
ATOM     86  C   UNL A   1      49.346  26.701  26.136  1.00  0.00     0.058 A 
ATOM     87  C   UNL A   1      49.839  26.949  24.845  1.00  0.00     0.135 A 
ATOM     88  C   UNL A   1      50.178  26.017  27.036  1.00  0.00     0.135 A 
ATOM     89  F   UNL A   1      49.081  27.593  23.944  1.00  0.00    -0.206 F 
ATOM     90  C   UNL A   1      51.105  26.519  24.456  1.00  0.00     0.059 A 
ATOM     91  C   UNL A   1      51.454  25.597  26.676  1.00  0.00     0.059 A 
ATOM     92  F   UNL A   1      49.756  25.762  28.285  1.00  0.00    -0.206 F 
ATOM     93  C   UNL A   1      51.906  25.844  25.380  1.00  0.00     0.060 A 
BRANCH  93  94
ATOM     94  S   UNL A   1      53.559  25.322  24.877  1.00  0.00     0.124 S 
ATOM     95  O   UNL A   1      54.401  26.191  25.693  1.00  0.00    -0.237 OA
ATOM     96  O   UNL A   1      53.567  23.908  25.239  1.00  0.00    -0.237 OA
ATOM     97  O   UNL A   1      53.578  25.594  23.442  1.00  0.00    -0.744 OA
ENDBRANCH  93  94
ENDBRANCH  61  86
ENDBRANCH  35  36
ENDBRANCH  27  30
ENDBRANCH  25  26
ENDBRANCH   1  25
TORSDOF 16
ENDMDL
