MODEL 1
REMARK VINA RESULT:     -12.7      0.000      0.000
REMARK SMILES Cc1n[nH]c(C[N@H+]2CCC[C@H](c3cccc(C(=O)NCCCCNC(=O)c4ccc(-c5c6nc(c(-c7c(F)cc(S(=O)(=O)[O-])cc7F)c7ccc([nH]7)c(-c7c(F)cc(S(=O)(=O)[O-])cc7F)c7nc(c(-c8c(F)cc(S(=O)(=O)[O-])cc8F)c8ccc5[nH]8)C=C7)C=C6)cc4)c3)C2)n1
REMARK SMILES IDX 21 1 20 2 19 3 17 4 18 5 16 7 12 8 13 9 93 10 14 11 15 12
REMARK SMILES IDX 11 13 7 14 8 15 94 16 9 18 10 19 6 20 5 21 1 22 2 23 3 24
REMARK SMILES IDX 95 25 4 26 22 28 23 29 24 30 25 31 26 33 27 34 28 35 92 36
REMARK SMILES IDX 29 37 91 38 30 39 31 40 32 41 85 42 33 43 90 44 84 45 86 46
REMARK SMILES IDX 34 47 89 48 83 49 82 50 35 52 69 53 48 54 68 55 49 56 52 57
REMARK SMILES IDX 67 58 87 59 50 60 51 61 66 63 88 64 53 65 36 66 37 67 46 68
REMARK SMILES IDX 38 69 39 70 45 71 47 72 40 73 41 74 42 75 43 76 44 77 70 78
REMARK SMILES IDX 71 79 80 80 72 81 73 82 79 83 81 84 74 85 75 86 76 87 77 88
REMARK SMILES IDX 78 89 54 90 55 91 64 92 56 93 57 94 63 95 65 96 58 97 59 98
REMARK SMILES IDX 60 99 61 100 62 101
REMARK H PARENT 19 6 7 17 4 27 24 32 86 51 52 62
REMARK Flexibility Score: inf
ROOT
ATOM      1  C   UNL A   1      34.047  27.900  25.575  1.00  0.00     0.023 C 
ENDROOT
BRANCH   1   2
ATOM      2  C   UNL A   1      33.802  26.471  25.093  1.00  0.00     0.116 C 
BRANCH   2   3
ATOM      3  N   UNL A   1      33.616  26.320  23.653  1.00  0.00    -0.352 N 
ATOM      4  C   UNL A   1      33.821  25.269  22.777  1.00  0.00     0.251 C 
ATOM      5  O   UNL A   1      33.610  25.462  21.580  1.00  0.00    -0.269 OA
ATOM      6  H   UNL A   1      33.276  27.133  23.215  1.00  0.00     0.163 HD
BRANCH   4   7
ATOM      7  C   UNL A   1      34.365  23.950  23.205  1.00  0.00     0.040 A 
ATOM      8  C   UNL A   1      34.046  21.878  24.444  1.00  0.00    -0.039 A 
ATOM      9  C   UNL A   1      35.435  21.691  24.443  1.00  0.00     0.004 A 
ATOM     10  C   UNL A   1      33.541  22.940  23.687  1.00  0.00     0.018 A 
ATOM     11  C   UNL A   1      36.275  22.579  23.765  1.00  0.00     0.001 A 
ATOM     12  C   UNL A   1      35.745  23.732  23.185  1.00  0.00     0.014 A 
BRANCH   8  13
ATOM     13  C   UNL A   1      33.085  21.119  25.360  1.00  0.00     0.074 C 
ATOM     14  N   UNL A   1      31.849  23.010  26.399  1.00  0.00    -0.328 N 
ATOM     15  C   UNL A   1      32.447  22.735  27.713  1.00  0.00     0.262 C 
ATOM     16  C   UNL A   1      31.716  21.785  25.593  1.00  0.00     0.270 C 
ATOM     17  H   UNL A   1      32.501  23.631  25.921  1.00  0.00     0.348 HD
ATOM     18  C   UNL A   1      33.786  21.997  27.606  1.00  0.00     0.062 C 
ATOM     19  C   UNL A   1      33.654  20.749  26.743  1.00  0.00     0.020 C 
BRANCH  14  20
ATOM     20  C   UNL A   1      30.578  23.749  26.477  1.00  0.00     0.340 C 
BRANCH  20  21
ATOM     21  C   UNL A   1      30.388  24.765  25.401  1.00  0.00     0.179 A 
ATOM     22  C   UNL A   1      30.357  27.960  23.919  1.00  0.00     0.092 C 
ATOM     23  C   UNL A   1      30.311  26.521  24.239  1.00  0.00     0.147 A 
ATOM     24  N   UNL A   1      30.389  25.560  23.311  1.00  0.00    -0.159 NA
ATOM     25  N   UNL A   1      30.244  26.069  25.527  1.00  0.00    -0.211 NA
ATOM     26  N   UNL A   1      30.436  24.455  24.072  1.00  0.00    -0.258 N 
ATOM     27  H   UNL A   1      30.497  23.538  23.719  1.00  0.00     0.192 HD
ENDBRANCH  20  21
ENDBRANCH  14  20
ENDBRANCH   8  13
ENDBRANCH   4   7
ENDBRANCH   2   3
ENDBRANCH   1   2
BRANCH   1  28
ATOM     28  C   UNL A   1      32.991  28.525  26.483  1.00  0.00     0.023 C 
BRANCH  28  29
ATOM     29  C   UNL A   1      33.537  29.389  27.612  1.00  0.00     0.116 C 
BRANCH  29  30
ATOM     30  N   UNL A   1      33.822  30.770  27.217  1.00  0.00    -0.352 N 
ATOM     31  C   UNL A   1      34.888  31.557  27.635  1.00  0.00     0.251 C 
ATOM     32  H   UNL A   1      33.190  31.185  26.587  1.00  0.00     0.163 HD
ATOM     33  O   UNL A   1      34.847  32.771  27.556  1.00  0.00    -0.269 OA
BRANCH  31  34
ATOM     34  C   UNL A   1      36.078  30.871  28.174  1.00  0.00     0.039 A 
ATOM     35  C   UNL A   1      36.327  29.521  27.919  1.00  0.00     0.014 A 
ATOM     36  C   UNL A   1      36.989  31.645  28.886  1.00  0.00     0.014 A 
ATOM     37  C   UNL A   1      37.555  28.983  28.304  1.00  0.00     0.010 A 
ATOM     38  C   UNL A   1      38.249  31.158  29.123  1.00  0.00     0.010 A 
ATOM     39  C   UNL A   1      38.526  29.815  28.882  1.00  0.00    -0.014 A 
BRANCH  39  40
ATOM     40  C   UNL A   1      39.879  29.329  29.140  1.00  0.00     0.031 A 
ATOM     41  C   UNL A   1      40.218  29.126  30.580  1.00  0.00     0.074 A 
ATOM     42  C   UNL A   1      40.686  28.862  28.161  1.00  0.00     0.049 A 
ATOM     43  N   UNL A   1      41.083  29.774  31.287  1.00  0.00    -0.248 NA
ATOM     44  C   UNL A   1      39.409  28.177  31.363  1.00  0.00     0.031 C 
ATOM     45  C   UNL A   1      40.381  28.685  26.736  1.00  0.00     0.029 A 
ATOM     46  N   UNL A   1      41.927  28.318  28.263  1.00  0.00    -0.354 N 
ATOM     47  C   UNL A   1      41.098  29.161  32.540  1.00  0.00     0.074 A 
ATOM     48  C   UNL A   1      39.924  28.329  32.585  1.00  0.00     0.031 C 
ATOM     49  C   UNL A   1      41.288  27.854  26.179  1.00  0.00     0.029 A 
ATOM     50  C   UNL A   1      42.329  27.584  27.152  1.00  0.00     0.049 A 
ATOM     51  H   UNL A   1      42.496  28.433  29.058  1.00  0.00     0.167 HD
ATOM     52  C   UNL A   1      42.199  29.209  33.342  1.00  0.00     0.037 A 
ATOM     53  C   UNL A   1      43.420  26.782  27.054  1.00  0.00     0.037 A 
ATOM     54  C   UNL A   1      43.128  30.217  32.890  1.00  0.00     0.049 A 
ATOM     55  C   UNL A   1      44.362  27.203  28.126  1.00  0.00     0.074 A 
ATOM     56  C   UNL A   1      43.044  31.577  32.659  1.00  0.00     0.029 A 
ATOM     57  N   UNL A   1      44.254  29.800  32.218  1.00  0.00    -0.354 N 
ATOM     58  N   UNL A   1      44.958  28.365  28.150  1.00  0.00    -0.248 NA
ATOM     59  C   UNL A   1      44.266  26.530  29.413  1.00  0.00     0.031 C 
ATOM     60  C   UNL A   1      43.791  31.791  31.462  1.00  0.00     0.029 A 
ATOM     61  C   UNL A   1      44.353  30.571  31.086  1.00  0.00     0.049 A 
ATOM     62  H   UNL A   1      44.869  29.083  32.495  1.00  0.00     0.167 HD
ATOM     63  C   UNL A   1      44.908  28.764  29.478  1.00  0.00     0.074 A 
ATOM     64  C   UNL A   1      44.552  27.555  30.221  1.00  0.00     0.031 C 
ATOM     65  C   UNL A   1      44.871  30.086  29.826  1.00  0.00     0.037 A 
BRANCH  52  66
ATOM     66  C   UNL A   1      42.614  28.122  34.310  1.00  0.00     0.058 A 
ATOM     67  C   UNL A   1      42.729  28.426  35.684  1.00  0.00     0.135 A 
ATOM     68  C   UNL A   1      43.174  26.886  33.917  1.00  0.00     0.135 A 
ATOM     69  F   UNL A   1      42.235  29.575  36.173  1.00  0.00    -0.206 F 
ATOM     70  C   UNL A   1      43.419  27.607  36.579  1.00  0.00     0.059 A 
ATOM     71  C   UNL A   1      43.818  26.029  34.802  1.00  0.00     0.059 A 
ATOM     72  F   UNL A   1      43.215  26.493  32.638  1.00  0.00    -0.206 F 
ATOM     73  C   UNL A   1      43.976  26.417  36.122  1.00  0.00     0.060 A 
BRANCH  73  74
ATOM     74  S   UNL A   1      44.964  25.414  37.245  1.00  0.00     0.124 S 
ATOM     75  O   UNL A   1      46.309  25.898  36.958  1.00  0.00    -0.237 OA
ATOM     76  O   UNL A   1      44.414  25.783  38.544  1.00  0.00    -0.237 OA
ATOM     77  O   UNL A   1      44.678  24.049  36.815  1.00  0.00    -0.744 OA
ENDBRANCH  73  74
ENDBRANCH  52  66
BRANCH  53  78
ATOM     78  C   UNL A   1      43.543  25.491  26.324  1.00  0.00     0.058 A 
ATOM     79  C   UNL A   1      44.539  25.296  25.351  1.00  0.00     0.135 A 
ATOM     80  C   UNL A   1      42.870  24.330  26.759  1.00  0.00     0.135 A 
ATOM     81  F   UNL A   1      45.243  26.340  24.888  1.00  0.00    -0.206 F 
ATOM     82  C   UNL A   1      44.887  24.024  24.880  1.00  0.00     0.059 A 
ATOM     83  C   UNL A   1      43.190  23.053  26.296  1.00  0.00     0.059 A 
ATOM     84  F   UNL A   1      41.938  24.387  27.722  1.00  0.00    -0.206 F 
ATOM     85  C   UNL A   1      44.221  22.905  25.377  1.00  0.00     0.060 A 
BRANCH  85  86
ATOM     86  S   UNL A   1      44.792  21.250  24.919  1.00  0.00     0.124 S 
ATOM     87  O   UNL A   1      46.158  21.249  25.430  1.00  0.00    -0.237 OA
ATOM     88  O   UNL A   1      43.846  20.391  25.624  1.00  0.00    -0.237 OA
ATOM     89  O   UNL A   1      44.670  21.239  23.463  1.00  0.00    -0.744 OA
ENDBRANCH  85  86
ENDBRANCH  53  78
BRANCH  65  90
ATOM     90  C   UNL A   1      45.175  31.120  28.769  1.00  0.00     0.058 A 
ATOM     91  C   UNL A   1      44.266  31.566  27.792  1.00  0.00     0.135 A 
ATOM     92  C   UNL A   1      46.408  31.788  28.835  1.00  0.00     0.135 A 
ATOM     93  F   UNL A   1      43.021  31.075  27.730  1.00  0.00    -0.206 F 
ATOM     94  C   UNL A   1      44.592  32.576  26.885  1.00  0.00     0.059 A 
ATOM     95  C   UNL A   1      46.741  32.822  27.964  1.00  0.00     0.059 A 
ATOM     96  F   UNL A   1      47.300  31.463  29.787  1.00  0.00    -0.206 F 
ATOM     97  C   UNL A   1      45.836  33.196  26.975  1.00  0.00     0.060 A 
BRANCH  97  98
ATOM     98  S   UNL A   1      46.246  34.522  25.821  1.00  0.00     0.124 S 
ATOM     99  O   UNL A   1      45.320  34.270  24.723  1.00  0.00    -0.237 OA
ATOM    100  O   UNL A   1      45.982  35.723  26.609  1.00  0.00    -0.237 OA
ATOM    101  O   UNL A   1      47.655  34.286  25.516  1.00  0.00    -0.744 OA
ENDBRANCH  97  98
ENDBRANCH  65  90
ENDBRANCH  39  40
ENDBRANCH  31  34
ENDBRANCH  29  30
ENDBRANCH  28  29
ENDBRANCH   1  28
TORSDOF 17
ENDMDL
MODEL 2
REMARK VINA RESULT:     -12.7      2.733      8.885
REMARK SMILES Cc1n[nH]c(C[N@H+]2CCC[C@H](c3cccc(C(=O)NCCCCNC(=O)c4ccc(-c5c6nc(c(-c7c(F)cc(S(=O)(=O)[O-])cc7F)c7ccc([nH]7)c(-c7c(F)cc(S(=O)(=O)[O-])cc7F)c7nc(c(-c8c(F)cc(S(=O)(=O)[O-])cc8F)c8ccc5[nH]8)C=C7)C=C6)cc4)c3)C2)n1
REMARK SMILES IDX 21 1 20 2 19 3 17 4 18 5 16 7 12 8 13 9 93 10 14 11 15 12
REMARK SMILES IDX 11 13 7 14 8 15 94 16 9 18 10 19 6 20 5 21 1 22 2 23 3 24
REMARK SMILES IDX 95 25 4 26 22 28 23 29 24 30 25 31 26 33 27 34 28 35 92 36
REMARK SMILES IDX 29 37 91 38 30 39 31 40 32 41 85 42 33 43 90 44 84 45 86 46
REMARK SMILES IDX 34 47 89 48 83 49 82 50 35 52 69 53 48 54 68 55 49 56 52 57
REMARK SMILES IDX 67 58 87 59 50 60 51 61 66 63 88 64 53 65 36 66 37 67 46 68
REMARK SMILES IDX 38 69 39 70 45 71 47 72 40 73 41 74 42 75 43 76 44 77 70 78
REMARK SMILES IDX 71 79 80 80 72 81 73 82 79 83 81 84 74 85 75 86 76 87 77 88
REMARK SMILES IDX 78 89 54 90 55 91 64 92 56 93 57 94 63 95 65 96 58 97 59 98
REMARK SMILES IDX 60 99 61 100 62 101
REMARK H PARENT 19 6 7 17 4 27 24 32 86 51 52 62
REMARK Flexibility Score: inf
ROOT
ATOM      1  C   UNL A   1      39.381  22.452  26.502  1.00  0.00     0.023 C 
ENDROOT
BRANCH   1   2
ATOM      2  C   UNL A   1      38.072  23.000  25.938  1.00  0.00     0.116 C 
BRANCH   2   3
ATOM      3  N   UNL A   1      36.900  22.152  26.138  1.00  0.00    -0.352 N 
ATOM      4  C   UNL A   1      35.570  22.274  25.778  1.00  0.00     0.251 C 
ATOM      5  O   UNL A   1      34.789  21.394  26.136  1.00  0.00    -0.269 OA
ATOM      6  H   UNL A   1      37.098  21.323  26.632  1.00  0.00     0.163 HD
BRANCH   4   7
ATOM      7  C   UNL A   1      35.031  23.460  25.056  1.00  0.00     0.040 A 
ATOM      8  C   UNL A   1      33.833  25.578  25.147  1.00  0.00    -0.039 A 
ATOM      9  C   UNL A   1      33.587  25.472  23.772  1.00  0.00     0.004 A 
ATOM     10  C   UNL A   1      34.684  24.628  25.722  1.00  0.00     0.018 A 
ATOM     11  C   UNL A   1      34.123  24.415  23.030  1.00  0.00     0.001 A 
ATOM     12  C   UNL A   1      34.806  23.386  23.678  1.00  0.00     0.014 A 
BRANCH   8  13
ATOM     13  C   UNL A   1      33.086  26.538  26.074  1.00  0.00     0.074 C 
ATOM     14  N   UNL A   1      31.452  27.536  24.487  1.00  0.00    -0.328 N 
ATOM     15  C   UNL A   1      32.113  28.846  24.565  1.00  0.00     0.262 C 
ATOM     16  C   UNL A   1      31.602  26.774  25.739  1.00  0.00     0.270 C 
ATOM     17  H   UNL A   1      31.936  27.024  23.750  1.00  0.00     0.348 HD
ATOM     18  C   UNL A   1      33.586  28.739  24.972  1.00  0.00     0.062 C 
ATOM     19  C   UNL A   1      33.742  27.922  26.249  1.00  0.00     0.020 C 
BRANCH  14  20
ATOM     20  C   UNL A   1      30.045  27.613  24.064  1.00  0.00     0.340 C 
BRANCH  20  21
ATOM     21  C   UNL A   1      29.738  28.747  23.144  1.00  0.00     0.179 A 
ATOM     22  C   UNL A   1      28.676  31.970  22.203  1.00  0.00     0.092 C 
ATOM     23  C   UNL A   1      29.209  30.598  22.288  1.00  0.00     0.147 A 
ATOM     24  N   UNL A   1      29.999  30.059  21.351  1.00  0.00    -0.159 NA
ATOM     25  N   UNL A   1      28.976  29.798  23.371  1.00  0.00    -0.211 NA
ATOM     26  N   UNL A   1      30.322  28.884  21.917  1.00  0.00    -0.258 N 
ATOM     27  H   UNL A   1      30.904  28.208  21.501  1.00  0.00     0.192 HD
ENDBRANCH  20  21
ENDBRANCH  14  20
ENDBRANCH   8  13
ENDBRANCH   4   7
ENDBRANCH   2   3
ENDBRANCH   1   2
BRANCH   1  28
ATOM     28  C   UNL A   1      39.761  21.021  26.131  1.00  0.00     0.023 C 
BRANCH  28  29
ATOM     29  C   UNL A   1      40.782  20.363  27.048  1.00  0.00     0.116 C 
BRANCH  29  30
ATOM     30  N   UNL A   1      41.943  19.811  26.347  1.00  0.00    -0.352 N 
ATOM     31  C   UNL A   1      42.970  20.522  25.739  1.00  0.00     0.251 C 
ATOM     32  H   UNL A   1      42.001  18.829  26.300  1.00  0.00     0.163 HD
ATOM     33  O   UNL A   1      43.673  20.013  24.886  1.00  0.00    -0.269 OA
BRANCH  31  34
ATOM     34  C   UNL A   1      43.186  21.918  26.168  1.00  0.00     0.039 A 
ATOM     35  C   UNL A   1      42.968  22.994  25.305  1.00  0.00     0.014 A 
ATOM     36  C   UNL A   1      43.541  22.126  27.497  1.00  0.00     0.014 A 
ATOM     37  C   UNL A   1      43.014  24.288  25.824  1.00  0.00     0.010 A 
ATOM     38  C   UNL A   1      43.433  23.383  28.036  1.00  0.00     0.010 A 
ATOM     39  C   UNL A   1      43.221  24.475  27.200  1.00  0.00    -0.014 A 
BRANCH  39  40
ATOM     40  C   UNL A   1      43.106  25.800  27.806  1.00  0.00     0.031 A 
ATOM     41  C   UNL A   1      44.155  26.780  27.396  1.00  0.00     0.074 A 
ATOM     42  C   UNL A   1      42.009  26.197  28.489  1.00  0.00     0.049 A 
ATOM     43  N   UNL A   1      45.076  27.306  28.132  1.00  0.00    -0.248 NA
ATOM     44  C   UNL A   1      44.278  27.117  25.968  1.00  0.00     0.031 C 
ATOM     45  C   UNL A   1      40.753  25.468  28.699  1.00  0.00     0.029 A 
ATOM     46  N   UNL A   1      41.737  27.410  29.039  1.00  0.00    -0.354 N 
ATOM     47  C   UNL A   1      45.747  28.220  27.321  1.00  0.00     0.074 A 
ATOM     48  C   UNL A   1      45.347  27.917  25.971  1.00  0.00     0.031 C 
ATOM     49  C   UNL A   1      39.789  26.330  29.088  1.00  0.00     0.029 A 
ATOM     50  C   UNL A   1      40.393  27.627  29.324  1.00  0.00     0.049 A 
ATOM     51  H   UNL A   1      42.434  28.081  29.220  1.00  0.00     0.167 HD
ATOM     52  C   UNL A   1      46.393  29.299  27.848  1.00  0.00     0.037 A 
ATOM     53  C   UNL A   1      39.815  28.799  29.690  1.00  0.00     0.037 A 
ATOM     54  C   UNL A   1      46.570  29.154  29.273  1.00  0.00     0.049 A 
ATOM     55  C   UNL A   1      40.900  29.669  30.215  1.00  0.00     0.074 A 
ATOM     56  C   UNL A   1      47.166  28.205  30.082  1.00  0.00     0.029 A 
ATOM     57  N   UNL A   1      45.742  29.875  30.101  1.00  0.00    -0.354 N 
ATOM     58  N   UNL A   1      41.567  29.414  31.310  1.00  0.00    -0.248 NA
ATOM     59  C   UNL A   1      41.569  30.557  29.275  1.00  0.00     0.031 C 
ATOM     60  C   UNL A   1      46.285  28.070  31.196  1.00  0.00     0.029 A 
ATOM     61  C   UNL A   1      45.257  29.000  31.042  1.00  0.00     0.049 A 
ATOM     62  H   UNL A   1      45.536  30.835  30.031  1.00  0.00     0.167 HD
ATOM     63  C   UNL A   1      42.884  29.728  31.005  1.00  0.00     0.074 A 
ATOM     64  C   UNL A   1      42.809  30.511  29.771  1.00  0.00     0.031 C 
ATOM     65  C   UNL A   1      43.930  29.087  31.610  1.00  0.00     0.037 A 
BRANCH  52  66
ATOM     66  C   UNL A   1      46.546  30.639  27.160  1.00  0.00     0.058 A 
ATOM     67  C   UNL A   1      47.813  31.260  27.130  1.00  0.00     0.135 A 
ATOM     68  C   UNL A   1      45.461  31.462  26.785  1.00  0.00     0.135 A 
ATOM     69  F   UNL A   1      48.918  30.576  27.468  1.00  0.00    -0.206 F 
ATOM     70  C   UNL A   1      47.978  32.614  26.833  1.00  0.00     0.059 A 
ATOM     71  C   UNL A   1      45.609  32.799  26.431  1.00  0.00     0.059 A 
ATOM     72  F   UNL A   1      44.191  31.041  26.838  1.00  0.00    -0.206 F 
ATOM     73  C   UNL A   1      46.864  33.379  26.501  1.00  0.00     0.060 A 
BRANCH  73  74
ATOM     74  S   UNL A   1      47.056  35.149  26.229  1.00  0.00     0.124 S 
ATOM     75  O   UNL A   1      47.689  35.566  27.475  1.00  0.00    -0.237 OA
ATOM     76  O   UNL A   1      47.899  35.183  25.039  1.00  0.00    -0.237 OA
ATOM     77  O   UNL A   1      45.685  35.608  26.032  1.00  0.00    -0.744 OA
ENDBRANCH  73  74
ENDBRANCH  52  66
BRANCH  53  78
ATOM     78  C   UNL A   1      38.472  29.314  29.308  1.00  0.00     0.058 A 
ATOM     79  C   UNL A   1      37.500  29.608  30.282  1.00  0.00     0.135 A 
ATOM     80  C   UNL A   1      38.207  29.794  28.008  1.00  0.00     0.135 A 
ATOM     81  F   UNL A   1      37.674  29.206  31.550  1.00  0.00    -0.206 F 
ATOM     82  C   UNL A   1      36.366  30.378  29.998  1.00  0.00     0.059 A 
ATOM     83  C   UNL A   1      37.078  30.553  27.698  1.00  0.00     0.059 A 
ATOM     84  F   UNL A   1      39.086  29.619  27.011  1.00  0.00    -0.206 F 
ATOM     85  C   UNL A   1      36.175  30.867  28.706  1.00  0.00     0.060 A 
BRANCH  85  86
ATOM     86  S   UNL A   1      34.819  32.017  28.378  1.00  0.00     0.124 S 
ATOM     87  O   UNL A   1      35.486  33.060  27.606  1.00  0.00    -0.237 OA
ATOM     88  O   UNL A   1      33.876  31.182  27.641  1.00  0.00    -0.237 OA
ATOM     89  O   UNL A   1      34.379  32.415  29.713  1.00  0.00    -0.744 OA
ENDBRANCH  85  86
ENDBRANCH  53  78
BRANCH  65  90
ATOM     90  C   UNL A   1      43.649  28.233  32.823  1.00  0.00     0.058 A 
ATOM     91  C   UNL A   1      43.424  28.726  34.121  1.00  0.00     0.135 A 
ATOM     92  C   UNL A   1      43.467  26.854  32.632  1.00  0.00     0.135 A 
ATOM     93  F   UNL A   1      43.454  30.041  34.378  1.00  0.00    -0.206 F 
ATOM     94  C   UNL A   1      43.103  27.883  35.188  1.00  0.00     0.059 A 
ATOM     95  C   UNL A   1      43.112  26.000  33.672  1.00  0.00     0.059 A 
ATOM     96  F   UNL A   1      43.597  26.322  31.404  1.00  0.00    -0.206 F 
ATOM     97  C   UNL A   1      42.954  26.518  34.954  1.00  0.00     0.060 A 
BRANCH  97  98
ATOM     98  S   UNL A   1      42.509  25.432  36.326  1.00  0.00     0.124 S 
ATOM     99  O   UNL A   1      43.779  24.782  36.626  1.00  0.00    -0.237 OA
ATOM    100  O   UNL A   1      42.024  26.373  37.332  1.00  0.00    -0.237 OA
ATOM    101  O   UNL A   1      41.483  24.563  35.754  1.00  0.00    -0.744 OA
ENDBRANCH  97  98
ENDBRANCH  65  90
ENDBRANCH  39  40
ENDBRANCH  31  34
ENDBRANCH  29  30
ENDBRANCH  28  29
ENDBRANCH   1  28
TORSDOF 17
ENDMDL
MODEL 3
REMARK VINA RESULT:     -12.6      1.541      2.989
REMARK SMILES Cc1n[nH]c(C[N@H+]2CCC[C@H](c3cccc(C(=O)NCCCCNC(=O)c4ccc(-c5c6nc(c(-c7c(F)cc(S(=O)(=O)[O-])cc7F)c7ccc([nH]7)c(-c7c(F)cc(S(=O)(=O)[O-])cc7F)c7nc(c(-c8c(F)cc(S(=O)(=O)[O-])cc8F)c8ccc5[nH]8)C=C7)C=C6)cc4)c3)C2)n1
REMARK SMILES IDX 21 1 20 2 19 3 17 4 18 5 16 7 12 8 13 9 93 10 14 11 15 12
REMARK SMILES IDX 11 13 7 14 8 15 94 16 9 18 10 19 6 20 5 21 1 22 2 23 3 24
REMARK SMILES IDX 95 25 4 26 22 28 23 29 24 30 25 31 26 33 27 34 28 35 92 36
REMARK SMILES IDX 29 37 91 38 30 39 31 40 32 41 85 42 33 43 90 44 84 45 86 46
REMARK SMILES IDX 34 47 89 48 83 49 82 50 35 52 69 53 48 54 68 55 49 56 52 57
REMARK SMILES IDX 67 58 87 59 50 60 51 61 66 63 88 64 53 65 36 66 37 67 46 68
REMARK SMILES IDX 38 69 39 70 45 71 47 72 40 73 41 74 42 75 43 76 44 77 70 78
REMARK SMILES IDX 71 79 80 80 72 81 73 82 79 83 81 84 74 85 75 86 76 87 77 88
REMARK SMILES IDX 78 89 54 90 55 91 64 92 56 93 57 94 63 95 65 96 58 97 59 98
REMARK SMILES IDX 60 99 61 100 62 101
REMARK H PARENT 19 6 7 17 4 27 24 32 86 51 52 62
REMARK Flexibility Score: inf
ROOT
ATOM      1  C   UNL A   1      33.181  29.304  24.984  1.00  0.00     0.023 C 
ENDROOT
BRANCH   1   2
ATOM      2  C   UNL A   1      32.296  28.782  23.854  1.00  0.00     0.116 C 
BRANCH   2   3
ATOM      3  N   UNL A   1      32.986  28.018  22.819  1.00  0.00    -0.352 N 
ATOM      4  C   UNL A   1      33.067  26.666  22.535  1.00  0.00     0.251 C 
ATOM      5  O   UNL A   1      33.782  26.313  21.598  1.00  0.00    -0.269 OA
ATOM      6  H   UNL A   1      33.501  28.581  22.196  1.00  0.00     0.163 HD
BRANCH   4   7
ATOM      7  C   UNL A   1      32.400  25.622  23.361  1.00  0.00     0.040 A 
ATOM      8  C   UNL A   1      32.568  23.947  25.120  1.00  0.00    -0.039 A 
ATOM      9  C   UNL A   1      31.397  23.351  24.633  1.00  0.00     0.004 A 
ATOM     10  C   UNL A   1      32.954  25.165  24.550  1.00  0.00     0.018 A 
ATOM     11  C   UNL A   1      30.691  23.927  23.573  1.00  0.00     0.001 A 
ATOM     12  C   UNL A   1      31.215  25.036  22.908  1.00  0.00     0.014 A 
BRANCH   8  13
ATOM     13  C   UNL A   1      33.534  23.261  26.087  1.00  0.00     0.074 C 
ATOM     14  N   UNL A   1      35.365  22.618  24.532  1.00  0.00    -0.328 N 
ATOM     15  C   UNL A   1      35.057  21.190  24.694  1.00  0.00     0.262 C 
ATOM     16  C   UNL A   1      35.029  23.388  25.742  1.00  0.00     0.270 C 
ATOM     17  H   UNL A   1      34.767  22.948  23.776  1.00  0.00     0.348 HD
ATOM     18  C   UNL A   1      33.605  20.946  25.118  1.00  0.00     0.062 C 
ATOM     19  C   UNL A   1      33.250  21.769  26.349  1.00  0.00     0.020 C 
BRANCH  14  20
ATOM     20  C   UNL A   1      36.746  22.874  24.091  1.00  0.00     0.340 C 
BRANCH  20  21
ATOM     21  C   UNL A   1      37.779  22.681  25.151  1.00  0.00     0.179 A 
ATOM     22  C   UNL A   1      40.387  21.076  26.890  1.00  0.00     0.092 C 
ATOM     23  C   UNL A   1      39.356  21.991  26.365  1.00  0.00     0.147 A 
ATOM     24  N   UNL A   1      39.334  23.302  26.633  1.00  0.00    -0.159 NA
ATOM     25  N   UNL A   1      38.379  21.564  25.510  1.00  0.00    -0.211 NA
ATOM     26  N   UNL A   1      38.323  23.718  25.852  1.00  0.00    -0.258 N 
ATOM     27  H   UNL A   1      38.015  24.650  25.792  1.00  0.00     0.192 HD
ENDBRANCH  20  21
ENDBRANCH  14  20
ENDBRANCH   8  13
ENDBRANCH   4   7
ENDBRANCH   2   3
ENDBRANCH   1   2
BRANCH   1  28
ATOM     28  C   UNL A   1      33.635  28.300  26.040  1.00  0.00     0.023 C 
BRANCH  28  29
ATOM     29  C   UNL A   1      33.968  28.897  27.401  1.00  0.00     0.116 C 
BRANCH  29  30
ATOM     30  N   UNL A   1      33.653  30.322  27.517  1.00  0.00    -0.352 N 
ATOM     31  C   UNL A   1      34.458  31.316  28.058  1.00  0.00     0.251 C 
ATOM     32  H   UNL A   1      32.775  30.606  27.174  1.00  0.00     0.163 HD
ATOM     33  O   UNL A   1      33.989  32.371  28.443  1.00  0.00    -0.269 OA
BRANCH  31  34
ATOM     34  C   UNL A   1      35.908  31.053  28.145  1.00  0.00     0.039 A 
ATOM     35  C   UNL A   1      36.772  31.913  28.828  1.00  0.00     0.014 A 
ATOM     36  C   UNL A   1      36.373  29.868  27.584  1.00  0.00     0.014 A 
ATOM     37  C   UNL A   1      38.093  31.514  29.027  1.00  0.00     0.010 A 
ATOM     38  C   UNL A   1      37.624  29.410  27.914  1.00  0.00     0.010 A 
ATOM     39  C   UNL A   1      38.508  30.246  28.591  1.00  0.00    -0.014 A 
BRANCH  39  40
ATOM     40  C   UNL A   1      39.830  29.727  28.931  1.00  0.00     0.031 A 
ATOM     41  C   UNL A   1      40.094  29.566  30.392  1.00  0.00     0.074 A 
ATOM     42  C   UNL A   1      40.666  29.199  28.010  1.00  0.00     0.049 A 
ATOM     43  N   UNL A   1      40.945  30.212  31.117  1.00  0.00    -0.248 NA
ATOM     44  C   UNL A   1      39.217  28.674  31.168  1.00  0.00     0.031 C 
ATOM     45  C   UNL A   1      40.423  28.979  26.579  1.00  0.00     0.029 A 
ATOM     46  N   UNL A   1      41.882  28.619  28.190  1.00  0.00    -0.354 N 
ATOM     47  C   UNL A   1      40.880  29.646  32.390  1.00  0.00     0.074 A 
ATOM     48  C   UNL A   1      39.678  28.854  32.408  1.00  0.00     0.031 C 
ATOM     49  C   UNL A   1      41.327  28.099  26.096  1.00  0.00     0.029 A 
ATOM     50  C   UNL A   1      42.311  27.832  27.127  1.00  0.00     0.049 A 
ATOM     51  H   UNL A   1      42.416  28.746  29.008  1.00  0.00     0.167 HD
ATOM     52  C   UNL A   1      41.944  29.688  33.242  1.00  0.00     0.037 A 
ATOM     53  C   UNL A   1      43.378  26.993  27.111  1.00  0.00     0.037 A 
ATOM     54  C   UNL A   1      42.927  30.648  32.800  1.00  0.00     0.049 A 
ATOM     55  C   UNL A   1      44.282  27.423  28.211  1.00  0.00     0.074 A 
ATOM     56  C   UNL A   1      42.899  32.001  32.518  1.00  0.00     0.029 A 
ATOM     57  N   UNL A   1      44.068  30.171  32.198  1.00  0.00    -0.354 N 
ATOM     58  N   UNL A   1      44.915  28.566  28.223  1.00  0.00    -0.248 NA
ATOM     59  C   UNL A   1      44.102  26.801  29.515  1.00  0.00     0.031 C 
ATOM     60  C   UNL A   1      43.708  32.147  31.352  1.00  0.00     0.029 A 
ATOM     61  C   UNL A   1      44.246  30.896  31.046  1.00  0.00     0.049 A 
ATOM     62  H   UNL A   1      44.645  29.446  32.530  1.00  0.00     0.167 HD
ATOM     63  C   UNL A   1      44.815  29.014  29.532  1.00  0.00     0.074 A 
ATOM     64  C   UNL A   1      44.384  27.846  30.299  1.00  0.00     0.031 C 
ATOM     65  C   UNL A   1      44.807  30.349  29.831  1.00  0.00     0.037 A 
BRANCH  52  66
ATOM     66  C   UNL A   1      42.276  28.625  34.267  1.00  0.00     0.058 A 
ATOM     67  C   UNL A   1      42.406  28.990  35.624  1.00  0.00     0.135 A 
ATOM     68  C   UNL A   1      42.748  27.334  33.941  1.00  0.00     0.135 A 
ATOM     69  F   UNL A   1      41.993  30.194  36.051  1.00  0.00    -0.206 F 
ATOM     70  C   UNL A   1      43.032  28.170  36.565  1.00  0.00     0.059 A 
ATOM     71  C   UNL A   1      43.325  26.479  34.874  1.00  0.00     0.059 A 
ATOM     72  F   UNL A   1      42.765  26.875  32.684  1.00  0.00    -0.206 F 
ATOM     73  C   UNL A   1      43.505  26.922  36.173  1.00  0.00     0.060 A 
BRANCH  73  74
ATOM     74  S   UNL A   1      44.413  25.909  37.354  1.00  0.00     0.124 S 
ATOM     75  O   UNL A   1      45.749  26.488  37.263  1.00  0.00    -0.237 OA
ATOM     76  O   UNL A   1      43.687  26.163  38.592  1.00  0.00    -0.237 OA
ATOM     77  O   UNL A   1      44.271  24.560  36.816  1.00  0.00    -0.744 OA
ENDBRANCH  73  74
ENDBRANCH  52  66
BRANCH  53  78
ATOM     78  C   UNL A   1      43.492  25.672  26.434  1.00  0.00     0.058 A 
ATOM     79  C   UNL A   1      44.412  25.465  25.390  1.00  0.00     0.135 A 
ATOM     80  C   UNL A   1      42.903  24.511  26.977  1.00  0.00     0.135 A 
ATOM     81  F   UNL A   1      45.033  26.510  24.822  1.00  0.00    -0.206 F 
ATOM     82  C   UNL A   1      44.770  24.185  24.951  1.00  0.00     0.059 A 
ATOM     83  C   UNL A   1      43.235  23.225  26.549  1.00  0.00     0.059 A 
ATOM     84  F   UNL A   1      42.052  24.582  28.010  1.00  0.00    -0.206 F 
ATOM     85  C   UNL A   1      44.192  23.068  25.554  1.00  0.00     0.060 A 
BRANCH  85  86
ATOM     86  S   UNL A   1      44.788  21.414  25.127  1.00  0.00     0.124 S 
ATOM     87  O   UNL A   1      44.662  21.412  23.674  1.00  0.00    -0.237 OA
ATOM     88  O   UNL A   1      46.151  21.433  25.648  1.00  0.00    -0.237 OA
ATOM     89  O   UNL A   1      43.868  20.528  25.835  1.00  0.00    -0.744 OA
ENDBRANCH  85  86
ENDBRANCH  53  78
BRANCH  65  90
ATOM     90  C   UNL A   1      45.195  31.333  28.754  1.00  0.00     0.058 A 
ATOM     91  C   UNL A   1      44.363  31.739  27.695  1.00  0.00     0.135 A 
ATOM     92  C   UNL A   1      46.425  31.997  28.879  1.00  0.00     0.135 A 
ATOM     93  F   UNL A   1      43.121  31.252  27.564  1.00  0.00    -0.206 F 
ATOM     94  C   UNL A   1      44.761  32.706  26.770  1.00  0.00     0.059 A 
ATOM     95  C   UNL A   1      46.829  32.990  27.990  1.00  0.00     0.059 A 
ATOM     96  F   UNL A   1      47.243  31.711  29.907  1.00  0.00    -0.206 F 
ATOM     97  C   UNL A   1      46.001  33.323  26.923  1.00  0.00     0.060 A 
BRANCH  97  98
ATOM     98  S   UNL A   1      46.504  34.595  25.743  1.00  0.00     0.124 S 
ATOM     99  O   UNL A   1      45.570  34.379  24.643  1.00  0.00    -0.237 OA
ATOM    100  O   UNL A   1      46.314  35.827  26.504  1.00  0.00    -0.237 OA
ATOM    101  O   UNL A   1      47.897  34.260  25.455  1.00  0.00    -0.744 OA
ENDBRANCH  97  98
ENDBRANCH  65  90
ENDBRANCH  39  40
ENDBRANCH  31  34
ENDBRANCH  29  30
ENDBRANCH  28  29
ENDBRANCH   1  28
TORSDOF 17
ENDMDL
