MODEL 1
REMARK VINA RESULT:     -11.2      0.000      0.000
REMARK SMILES C[C@H](C(=O)NCCCCNC(=O)c1ccc(-c2c3nc(c(-c4c(F)cc(S(=O)(=O)[O-])cc4F)c4ccc([nH]4)c(-c4c(F)cc(S(=O)(=O)[O-])cc4F)c4nc(c(-c5c(F)cc(S(=O)(=O)[O-])cc5F)c5ccc2[nH]5)C=C4)C=C3)cc1)c1cccc(C(=O)c2ccccc2)c1
REMARK SMILES IDX 7 1 6 2 5 3 3 4 4 5 2 7 1 8 79 9 80 10 92 11 81 12 83 13
REMARK SMILES IDX 82 14 84 15 85 16 86 17 87 18 91 19 88 20 90 21 89 22 8 23
REMARK SMILES IDX 9 24 10 25 11 26 12 28 13 29 14 30 78 31 15 32 77 33 16 34
REMARK SMILES IDX 17 35 18 36 71 37 19 38 76 39 70 40 72 41 20 42 75 43 69 44
REMARK SMILES IDX 68 45 21 47 55 48 34 49 54 50 35 51 38 52 53 53 73 54 36 55
REMARK SMILES IDX 37 56 52 58 74 59 39 60 22 61 23 62 32 63 24 64 25 65 31 66
REMARK SMILES IDX 33 67 26 68 27 69 28 70 29 71 30 72 56 73 57 74 66 75 58 76
REMARK SMILES IDX 59 77 65 78 67 79 60 80 61 81 62 82 63 83 64 84 40 85 41 86
REMARK SMILES IDX 50 87 42 88 43 89 49 90 51 91 44 92 45 93 46 94 47 95 48 96
REMARK H PARENT 5 6 10 27 72 46 38 57
REMARK Flexibility Score: inf
ROOT
ATOM      1  C   UNL A   1      33.911  28.774  24.989  1.00  0.00     0.023 C 
ENDROOT
BRANCH   1   2
ATOM      2  C   UNL A   1      32.569  29.238  24.436  1.00  0.00     0.116 C 
BRANCH   2   3
ATOM      3  N   UNL A   1      32.076  28.513  23.281  1.00  0.00    -0.356 N 
ATOM      4  C   UNL A   1      31.044  27.624  23.181  1.00  0.00     0.227 C 
ATOM      5  O   UNL A   1      30.618  27.417  22.036  1.00  0.00    -0.274 OA
ATOM      6  H   UNL A   1      32.558  28.689  22.441  1.00  0.00     0.163 HD
BRANCH   4   7
ATOM      7  C   UNL A   1      30.516  26.755  24.338  1.00  0.00     0.105 C 
ATOM      8  C   UNL A   1      29.091  26.345  23.916  1.00  0.00     0.023 C 
BRANCH   7   9
ATOM      9  C   UNL A   1      31.375  25.603  24.856  1.00  0.00    -0.035 A 
ATOM     10  C   UNL A   1      31.119  24.985  26.085  1.00  0.00     0.004 A 
ATOM     11  C   UNL A   1      32.442  25.092  24.091  1.00  0.00     0.016 A 
ATOM     12  C   UNL A   1      32.041  24.095  26.643  1.00  0.00     0.001 A 
ATOM     13  C   UNL A   1      33.348  24.158  24.613  1.00  0.00     0.023 A 
ATOM     14  C   UNL A   1      33.171  23.710  25.923  1.00  0.00     0.012 A 
BRANCH  13  15
ATOM     15  C   UNL A   1      34.477  23.593  23.814  1.00  0.00     0.193 C 
ATOM     16  O   UNL A   1      34.417  23.540  22.589  1.00  0.00    -0.289 OA
BRANCH  15  17
ATOM     17  C   UNL A   1      35.742  23.191  24.463  1.00  0.00     0.022 A 
ATOM     18  C   UNL A   1      36.391  24.129  25.272  1.00  0.00     0.012 A 
ATOM     19  C   UNL A   1      36.281  21.913  24.284  1.00  0.00     0.012 A 
ATOM     20  C   UNL A   1      37.556  23.768  25.948  1.00  0.00     0.001 A 
ATOM     21  C   UNL A   1      37.441  21.555  24.973  1.00  0.00     0.001 A 
ATOM     22  C   UNL A   1      38.072  22.478  25.809  1.00  0.00     0.000 A 
ENDBRANCH  15  17
ENDBRANCH  13  15
ENDBRANCH   7   9
ENDBRANCH   4   7
ENDBRANCH   2   3
ENDBRANCH   1   2
BRANCH   1  23
ATOM     23  C   UNL A   1      33.878  27.741  26.115  1.00  0.00     0.023 C 
BRANCH  23  24
ATOM     24  C   UNL A   1      33.345  28.206  27.469  1.00  0.00     0.116 C 
BRANCH  24  25
ATOM     25  N   UNL A   1      33.345  29.649  27.637  1.00  0.00    -0.352 N 
ATOM     26  C   UNL A   1      34.347  30.516  28.019  1.00  0.00     0.251 C 
ATOM     27  H   UNL A   1      32.481  30.083  27.447  1.00  0.00     0.163 HD
ATOM     28  O   UNL A   1      34.073  31.700  28.185  1.00  0.00    -0.269 OA
BRANCH  26  29
ATOM     29  C   UNL A   1      35.732  30.040  28.269  1.00  0.00     0.039 A 
ATOM     30  C   UNL A   1      36.639  30.051  27.204  1.00  0.00     0.014 A 
ATOM     31  C   UNL A   1      36.146  29.565  29.515  1.00  0.00     0.014 A 
ATOM     32  C   UNL A   1      37.968  29.669  27.412  1.00  0.00     0.010 A 
ATOM     33  C   UNL A   1      37.494  29.274  29.744  1.00  0.00     0.010 A 
ATOM     34  C   UNL A   1      38.424  29.325  28.696  1.00  0.00    -0.014 A 
BRANCH  34  35
ATOM     35  C   UNL A   1      39.869  29.051  28.940  1.00  0.00     0.031 A 
ATOM     36  C   UNL A   1      40.471  27.704  28.629  1.00  0.00     0.074 A 
ATOM     37  C   UNL A   1      40.642  30.021  29.473  1.00  0.00     0.049 A 
ATOM     38  N   UNL A   1      41.712  27.306  28.759  1.00  0.00    -0.248 NA
ATOM     39  C   UNL A   1      39.560  26.661  28.134  1.00  0.00     0.031 C 
ATOM     40  C   UNL A   1      40.168  31.343  29.893  1.00  0.00     0.029 A 
ATOM     41  N   UNL A   1      41.987  30.051  29.750  1.00  0.00    -0.354 N 
ATOM     42  C   UNL A   1      41.732  25.977  28.352  1.00  0.00     0.074 A 
ATOM     43  C   UNL A   1      40.367  25.613  28.043  1.00  0.00     0.031 C 
ATOM     44  C   UNL A   1      41.209  32.064  30.339  1.00  0.00     0.029 A 
ATOM     45  C   UNL A   1      42.418  31.250  30.272  1.00  0.00     0.049 A 
ATOM     46  H   UNL A   1      42.586  29.287  29.592  1.00  0.00     0.167 HD
ATOM     47  C   UNL A   1      42.793  25.144  28.217  1.00  0.00     0.037 A 
ATOM     48  C   UNL A   1      43.646  31.653  30.653  1.00  0.00     0.037 A 
ATOM     49  C   UNL A   1      44.155  25.509  28.519  1.00  0.00     0.049 A 
ATOM     50  C   UNL A   1      44.809  30.713  30.483  1.00  0.00     0.074 A 
ATOM     51  C   UNL A   1      45.303  24.749  28.380  1.00  0.00     0.029 A 
ATOM     52  N   UNL A   1      44.553  26.739  29.025  1.00  0.00    -0.354 N 
ATOM     53  N   UNL A   1      44.815  29.482  30.027  1.00  0.00    -0.248 NA
ATOM     54  C   UNL A   1      46.134  31.221  30.863  1.00  0.00     0.031 C 
ATOM     55  C   UNL A   1      46.388  25.501  28.843  1.00  0.00     0.029 A 
ATOM     56  C   UNL A   1      45.926  26.751  29.218  1.00  0.00     0.049 A 
ATOM     57  H   UNL A   1      43.950  27.492  29.219  1.00  0.00     0.167 HD
ATOM     58  C   UNL A   1      46.146  29.076  30.050  1.00  0.00     0.074 A 
ATOM     59  C   UNL A   1      46.917  30.204  30.532  1.00  0.00     0.031 C 
ATOM     60  C   UNL A   1      46.681  27.877  29.710  1.00  0.00     0.037 A 
BRANCH  47  61
ATOM     61  C   UNL A   1      42.530  23.755  27.692  1.00  0.00     0.058 A 
ATOM     62  C   UNL A   1      42.470  23.493  26.313  1.00  0.00     0.135 A 
ATOM     63  C   UNL A   1      42.391  22.666  28.568  1.00  0.00     0.135 A 
ATOM     64  F   UNL A   1      42.581  24.497  25.427  1.00  0.00    -0.206 F 
ATOM     65  C   UNL A   1      42.258  22.209  25.822  1.00  0.00     0.059 A 
ATOM     66  C   UNL A   1      42.208  21.367  28.099  1.00  0.00     0.059 A 
ATOM     67  F   UNL A   1      42.441  22.857  29.896  1.00  0.00    -0.206 F 
ATOM     68  C   UNL A   1      42.132  21.151  26.724  1.00  0.00     0.060 A 
BRANCH  68  69
ATOM     69  S   UNL A   1      41.880  19.488  26.067  1.00  0.00     0.124 S 
ATOM     70  O   UNL A   1      42.311  18.662  27.191  1.00  0.00    -0.237 OA
ATOM     71  O   UNL A   1      40.448  19.478  25.786  1.00  0.00    -0.237 OA
ATOM     72  O   UNL A   1      42.747  19.451  24.893  1.00  0.00    -0.744 OA
ENDBRANCH  68  69
ENDBRANCH  47  61
BRANCH  48  73
ATOM     73  C   UNL A   1      43.842  33.016  31.222  1.00  0.00     0.058 A 
ATOM     74  C   UNL A   1      44.141  34.113  30.402  1.00  0.00     0.135 A 
ATOM     75  C   UNL A   1      43.736  33.244  32.603  1.00  0.00     0.135 A 
ATOM     76  F   UNL A   1      44.258  33.948  29.075  1.00  0.00    -0.206 F 
ATOM     77  C   UNL A   1      44.355  35.383  30.930  1.00  0.00     0.059 A 
ATOM     78  C   UNL A   1      43.914  34.510  33.152  1.00  0.00     0.059 A 
ATOM     79  F   UNL A   1      43.433  32.232  33.432  1.00  0.00    -0.206 F 
ATOM     80  C   UNL A   1      44.238  35.572  32.309  1.00  0.00     0.060 A 
BRANCH  80  81
ATOM     81  S   UNL A   1      44.482  37.228  32.983  1.00  0.00     0.124 S 
ATOM     82  O   UNL A   1      45.917  37.232  33.240  1.00  0.00    -0.237 OA
ATOM     83  O   UNL A   1      44.026  38.076  31.886  1.00  0.00    -0.237 OA
ATOM     84  O   UNL A   1      43.628  37.237  34.167  1.00  0.00    -0.744 OA
ENDBRANCH  80  81
ENDBRANCH  48  73
BRANCH  60  85
ATOM     85  C   UNL A   1      48.176  27.736  29.831  1.00  0.00     0.058 A 
ATOM     86  C   UNL A   1      49.038  28.080  28.776  1.00  0.00     0.135 A 
ATOM     87  C   UNL A   1      48.755  27.255  31.016  1.00  0.00     0.135 A 
ATOM     88  F   UNL A   1      48.538  28.544  27.619  1.00  0.00    -0.206 F 
ATOM     89  C   UNL A   1      50.413  27.901  28.873  1.00  0.00     0.059 A 
ATOM     90  C   UNL A   1      50.132  27.100  31.147  1.00  0.00     0.059 A 
ATOM     91  F   UNL A   1      47.981  26.926  32.063  1.00  0.00    -0.206 F 
ATOM     92  C   UNL A   1      50.951  27.403  30.062  1.00  0.00     0.060 A 
BRANCH  92  93
ATOM     93  S   UNL A   1      52.736  27.159  30.169  1.00  0.00     0.124 S 
ATOM     94  O   UNL A   1      52.842  26.263  31.316  1.00  0.00    -0.237 OA
ATOM     95  O   UNL A   1      53.049  26.568  28.871  1.00  0.00    -0.237 OA
ATOM     96  O   UNL A   1      53.252  28.509  30.377  1.00  0.00    -0.744 OA
ENDBRANCH  92  93
ENDBRANCH  60  85
ENDBRANCH  34  35
ENDBRANCH  26  29
ENDBRANCH  24  25
ENDBRANCH  23  24
ENDBRANCH   1  23
TORSDOF 17
ENDMDL
MODEL 2
REMARK VINA RESULT:     -11.0      5.053     10.058
REMARK SMILES C[C@H](C(=O)NCCCCNC(=O)c1ccc(-c2c3nc(c(-c4c(F)cc(S(=O)(=O)[O-])cc4F)c4ccc([nH]4)c(-c4c(F)cc(S(=O)(=O)[O-])cc4F)c4nc(c(-c5c(F)cc(S(=O)(=O)[O-])cc5F)c5ccc2[nH]5)C=C4)C=C3)cc1)c1cccc(C(=O)c2ccccc2)c1
REMARK SMILES IDX 7 1 6 2 5 3 3 4 4 5 2 7 1 8 79 9 80 10 92 11 81 12 83 13
REMARK SMILES IDX 82 14 84 15 85 16 86 17 87 18 91 19 88 20 90 21 89 22 8 23
REMARK SMILES IDX 9 24 10 25 11 26 12 28 13 29 14 30 78 31 15 32 77 33 16 34
REMARK SMILES IDX 17 35 18 36 71 37 19 38 76 39 70 40 72 41 20 42 75 43 69 44
REMARK SMILES IDX 68 45 21 47 55 48 34 49 54 50 35 51 38 52 53 53 73 54 36 55
REMARK SMILES IDX 37 56 52 58 74 59 39 60 22 61 23 62 32 63 24 64 25 65 31 66
REMARK SMILES IDX 33 67 26 68 27 69 28 70 29 71 30 72 56 73 57 74 66 75 58 76
REMARK SMILES IDX 59 77 65 78 67 79 60 80 61 81 62 82 63 83 64 84 40 85 41 86
REMARK SMILES IDX 50 87 42 88 43 89 49 90 51 91 44 92 45 93 46 94 47 95 48 96
REMARK H PARENT 5 6 10 27 72 46 38 57
REMARK Flexibility Score: inf
ROOT
ATOM      1  C   UNL A   1      39.757  21.263  25.928  1.00  0.00     0.023 C 
ENDROOT
BRANCH   1   2
ATOM      2  C   UNL A   1      38.571  22.201  26.121  1.00  0.00     0.116 C 
BRANCH   2   3
ATOM      3  N   UNL A   1      37.260  21.582  26.067  1.00  0.00    -0.356 N 
ATOM      4  C   UNL A   1      36.243  21.763  25.173  1.00  0.00     0.227 C 
ATOM      5  O   UNL A   1      35.380  20.875  25.150  1.00  0.00    -0.274 OA
ATOM      6  H   UNL A   1      37.076  20.933  26.783  1.00  0.00     0.163 HD
BRANCH   4   7
ATOM      7  C   UNL A   1      36.012  23.045  24.351  1.00  0.00     0.105 C 
ATOM      8  C   UNL A   1      36.760  22.813  23.024  1.00  0.00     0.023 C 
BRANCH   7   9
ATOM      9  C   UNL A   1      34.590  23.578  24.187  1.00  0.00    -0.035 A 
ATOM     10  C   UNL A   1      33.830  23.314  23.041  1.00  0.00     0.004 A 
ATOM     11  C   UNL A   1      33.974  24.330  25.207  1.00  0.00     0.016 A 
ATOM     12  C   UNL A   1      32.629  23.991  22.810  1.00  0.00     0.001 A 
ATOM     13  C   UNL A   1      32.744  24.973  25.013  1.00  0.00     0.023 A 
ATOM     14  C   UNL A   1      32.106  24.846  23.778  1.00  0.00     0.012 A 
BRANCH  13  15
ATOM     15  C   UNL A   1      32.067  25.763  26.086  1.00  0.00     0.193 C 
ATOM     16  O   UNL A   1      31.224  25.244  26.813  1.00  0.00    -0.289 OA
BRANCH  15  17
ATOM     17  C   UNL A   1      32.474  27.152  26.382  1.00  0.00     0.022 A 
ATOM     18  C   UNL A   1      31.575  27.966  27.078  1.00  0.00     0.012 A 
ATOM     19  C   UNL A   1      33.721  27.647  25.987  1.00  0.00     0.012 A 
ATOM     20  C   UNL A   1      31.947  29.264  27.426  1.00  0.00     0.001 A 
ATOM     21  C   UNL A   1      34.092  28.943  26.350  1.00  0.00     0.001 A 
ATOM     22  C   UNL A   1      33.209  29.747  27.074  1.00  0.00     0.000 A 
ENDBRANCH  15  17
ENDBRANCH  13  15
ENDBRANCH   7   9
ENDBRANCH   4   7
ENDBRANCH   2   3
ENDBRANCH   1   2
BRANCH   1  23
ATOM     23  C   UNL A   1      41.072  21.660  26.596  1.00  0.00     0.023 C 
BRANCH  23  24
ATOM     24  C   UNL A   1      41.194  23.100  27.090  1.00  0.00     0.116 C 
BRANCH  24  25
ATOM     25  N   UNL A   1      41.432  24.068  26.032  1.00  0.00    -0.352 N 
ATOM     26  C   UNL A   1      41.467  25.445  26.058  1.00  0.00     0.251 C 
ATOM     27  H   UNL A   1      41.595  23.672  25.145  1.00  0.00     0.163 HD
ATOM     28  O   UNL A   1      41.593  26.053  25.000  1.00  0.00    -0.269 OA
BRANCH  26  29
ATOM     29  C   UNL A   1      41.319  26.203  27.327  1.00  0.00     0.039 A 
ATOM     30  C   UNL A   1      42.287  27.162  27.644  1.00  0.00     0.014 A 
ATOM     31  C   UNL A   1      40.266  25.974  28.216  1.00  0.00     0.014 A 
ATOM     32  C   UNL A   1      42.151  27.939  28.799  1.00  0.00     0.010 A 
ATOM     33  C   UNL A   1      40.082  26.813  29.318  1.00  0.00     0.010 A 
ATOM     34  C   UNL A   1      41.020  27.809  29.622  1.00  0.00    -0.014 A 
BRANCH  34  35
ATOM     35  C   UNL A   1      40.812  28.732  30.776  1.00  0.00     0.031 A 
ATOM     36  C   UNL A   1      41.642  28.614  32.028  1.00  0.00     0.074 A 
ATOM     37  C   UNL A   1      39.845  29.671  30.701  1.00  0.00     0.049 A 
ATOM     38  N   UNL A   1      41.607  29.348  33.113  1.00  0.00    -0.248 NA
ATOM     39  C   UNL A   1      42.619  27.516  32.085  1.00  0.00     0.031 C 
ATOM     40  C   UNL A   1      38.919  29.841  29.578  1.00  0.00     0.029 A 
ATOM     41  N   UNL A   1      39.479  30.660  31.581  1.00  0.00    -0.354 N 
ATOM     42  C   UNL A   1      42.559  28.810  33.971  1.00  0.00     0.074 A 
ATOM     43  C   UNL A   1      43.104  27.643  33.313  1.00  0.00     0.031 C 
ATOM     44  C   UNL A   1      38.119  30.892  29.820  1.00  0.00     0.029 A 
ATOM     45  C   UNL A   1      38.447  31.449  31.128  1.00  0.00     0.049 A 
ATOM     46  H   UNL A   1      39.914  30.791  32.454  1.00  0.00     0.167 HD
ATOM     47  C   UNL A   1      42.968  29.264  35.181  1.00  0.00     0.037 A 
ATOM     48  C   UNL A   1      37.831  32.505  31.697  1.00  0.00     0.037 A 
ATOM     49  C   UNL A   1      42.430  30.431  35.834  1.00  0.00     0.049 A 
ATOM     50  C   UNL A   1      38.310  32.995  33.036  1.00  0.00     0.074 A 
ATOM     51  C   UNL A   1      42.803  30.993  37.042  1.00  0.00     0.029 A 
ATOM     52  N   UNL A   1      41.400  31.216  35.334  1.00  0.00    -0.354 N 
ATOM     53  N   UNL A   1      39.265  32.514  33.798  1.00  0.00    -0.248 NA
ATOM     54  C   UNL A   1      37.643  34.183  33.587  1.00  0.00     0.031 C 
ATOM     55  C   UNL A   1      41.970  32.089  37.294  1.00  0.00     0.029 A 
ATOM     56  C   UNL A   1      41.115  32.246  36.217  1.00  0.00     0.049 A 
ATOM     57  H   UNL A   1      40.939  31.064  34.477  1.00  0.00     0.167 HD
ATOM     58  C   UNL A   1      39.321  33.350  34.909  1.00  0.00     0.074 A 
ATOM     59  C   UNL A   1      38.329  34.384  34.702  1.00  0.00     0.031 C 
ATOM     60  C   UNL A   1      40.116  33.264  36.005  1.00  0.00     0.037 A 
BRANCH  47  61
ATOM     61  C   UNL A   1      44.075  28.510  35.874  1.00  0.00     0.058 A 
ATOM     62  C   UNL A   1      45.424  28.851  35.682  1.00  0.00     0.135 A 
ATOM     63  C   UNL A   1      43.788  27.474  36.778  1.00  0.00     0.135 A 
ATOM     64  F   UNL A   1      45.761  29.822  34.818  1.00  0.00    -0.206 F 
ATOM     65  C   UNL A   1      46.448  28.179  36.341  1.00  0.00     0.059 A 
ATOM     66  C   UNL A   1      44.794  26.808  37.473  1.00  0.00     0.059 A 
ATOM     67  F   UNL A   1      42.516  27.106  37.001  1.00  0.00    -0.206 F 
ATOM     68  C   UNL A   1      46.122  27.160  37.239  1.00  0.00     0.060 A 
BRANCH  68  69
ATOM     69  S   UNL A   1      47.465  26.315  38.102  1.00  0.00     0.124 S 
ATOM     70  O   UNL A   1      48.372  27.423  38.385  1.00  0.00    -0.237 OA
ATOM     71  O   UNL A   1      46.781  25.745  39.258  1.00  0.00    -0.237 OA
ATOM     72  O   UNL A   1      47.945  25.348  37.120  1.00  0.00    -0.744 OA
ENDBRANCH  68  69
ENDBRANCH  47  61
BRANCH  48  73
ATOM     73  C   UNL A   1      36.702  33.178  30.996  1.00  0.00     0.058 A 
ATOM     74  C   UNL A   1      36.918  33.982  29.868  1.00  0.00     0.135 A 
ATOM     75  C   UNL A   1      35.381  33.030  31.448  1.00  0.00     0.135 A 
ATOM     76  F   UNL A   1      38.164  34.160  29.398  1.00  0.00    -0.206 F 
ATOM     77  C   UNL A   1      35.871  34.638  29.227  1.00  0.00     0.059 A 
ATOM     78  C   UNL A   1      34.314  33.650  30.805  1.00  0.00     0.059 A 
ATOM     79  F   UNL A   1      35.116  32.257  32.512  1.00  0.00    -0.206 F 
ATOM     80  C   UNL A   1      34.570  34.464  29.703  1.00  0.00     0.060 A 
BRANCH  80  81
ATOM     81  S   UNL A   1      33.213  35.290  28.846  1.00  0.00     0.124 S 
ATOM     82  O   UNL A   1      33.920  36.335  28.116  1.00  0.00    -0.237 OA
ATOM     83  O   UNL A   1      32.658  34.209  28.038  1.00  0.00    -0.237 OA
ATOM     84  O   UNL A   1      32.358  35.749  29.936  1.00  0.00    -0.744 OA
ENDBRANCH  80  81
ENDBRANCH  48  73
BRANCH  60  85
ATOM     85  C   UNL A   1      39.955  34.335  37.052  1.00  0.00     0.058 A 
ATOM     86  C   UNL A   1      39.072  34.183  38.134  1.00  0.00     0.135 A 
ATOM     87  C   UNL A   1      40.693  35.527  36.974  1.00  0.00     0.135 A 
ATOM     88  F   UNL A   1      38.340  33.065  38.257  1.00  0.00    -0.206 F 
ATOM     89  C   UNL A   1      38.888  35.196  39.069  1.00  0.00     0.059 A 
ATOM     90  C   UNL A   1      40.550  36.540  37.919  1.00  0.00     0.059 A 
ATOM     91  F   UNL A   1      41.564  35.720  35.970  1.00  0.00    -0.206 F 
ATOM     92  C   UNL A   1      39.628  36.374  38.949  1.00  0.00     0.060 A 
BRANCH  92  93
ATOM     93  S   UNL A   1      39.367  37.687  40.161  1.00  0.00     0.124 S 
ATOM     94  O   UNL A   1      38.197  38.365  39.611  1.00  0.00    -0.237 OA
ATOM     95  O   UNL A   1      39.144  36.936  41.393  1.00  0.00    -0.237 OA
ATOM     96  O   UNL A   1      40.613  38.446  40.113  1.00  0.00    -0.744 OA
ENDBRANCH  92  93
ENDBRANCH  60  85
ENDBRANCH  34  35
ENDBRANCH  26  29
ENDBRANCH  24  25
ENDBRANCH  23  24
ENDBRANCH   1  23
TORSDOF 17
ENDMDL
MODEL 3
REMARK VINA RESULT:     -10.8      1.480      3.852
REMARK SMILES C[C@H](C(=O)NCCCCNC(=O)c1ccc(-c2c3nc(c(-c4c(F)cc(S(=O)(=O)[O-])cc4F)c4ccc([nH]4)c(-c4c(F)cc(S(=O)(=O)[O-])cc4F)c4nc(c(-c5c(F)cc(S(=O)(=O)[O-])cc5F)c5ccc2[nH]5)C=C4)C=C3)cc1)c1cccc(C(=O)c2ccccc2)c1
REMARK SMILES IDX 7 1 6 2 5 3 3 4 4 5 2 7 1 8 79 9 80 10 92 11 81 12 83 13
REMARK SMILES IDX 82 14 84 15 85 16 86 17 87 18 91 19 88 20 90 21 89 22 8 23
REMARK SMILES IDX 9 24 10 25 11 26 12 28 13 29 14 30 78 31 15 32 77 33 16 34
REMARK SMILES IDX 17 35 18 36 71 37 19 38 76 39 70 40 72 41 20 42 75 43 69 44
REMARK SMILES IDX 68 45 21 47 55 48 34 49 54 50 35 51 38 52 53 53 73 54 36 55
REMARK SMILES IDX 37 56 52 58 74 59 39 60 22 61 23 62 32 63 24 64 25 65 31 66
REMARK SMILES IDX 33 67 26 68 27 69 28 70 29 71 30 72 56 73 57 74 66 75 58 76
REMARK SMILES IDX 59 77 65 78 67 79 60 80 61 81 62 82 63 83 64 84 40 85 41 86
REMARK SMILES IDX 50 87 42 88 43 89 49 90 51 91 44 92 45 93 46 94 47 95 48 96
REMARK H PARENT 5 6 10 27 72 46 38 57
REMARK Flexibility Score: inf
ROOT
ATOM      1  C   UNL A   1      33.676  26.243  25.870  1.00  0.00     0.023 C 
ENDROOT
BRANCH   1   2
ATOM      2  C   UNL A   1      32.723  25.061  26.012  1.00  0.00     0.116 C 
BRANCH   2   3
ATOM      3  N   UNL A   1      32.965  23.943  25.119  1.00  0.00    -0.356 N 
ATOM      4  C   UNL A   1      32.828  23.861  23.763  1.00  0.00     0.227 C 
ATOM      5  O   UNL A   1      33.422  22.920  23.216  1.00  0.00    -0.274 OA
ATOM      6  H   UNL A   1      33.276  23.120  25.558  1.00  0.00     0.163 HD
BRANCH   4   7
ATOM      7  C   UNL A   1      31.869  24.724  22.922  1.00  0.00     0.105 C 
ATOM      8  C   UNL A   1      30.461  24.398  23.456  1.00  0.00     0.023 C 
BRANCH   7   9
ATOM      9  C   UNL A   1      32.154  26.216  22.764  1.00  0.00    -0.035 A 
ATOM     10  C   UNL A   1      33.217  26.688  21.986  1.00  0.00     0.004 A 
ATOM     11  C   UNL A   1      31.326  27.181  23.373  1.00  0.00     0.016 A 
ATOM     12  C   UNL A   1      33.597  28.032  22.036  1.00  0.00     0.001 A 
ATOM     13  C   UNL A   1      31.662  28.541  23.388  1.00  0.00     0.023 A 
ATOM     14  C   UNL A   1      32.842  28.950  22.764  1.00  0.00     0.012 A 
BRANCH  13  15
ATOM     15  C   UNL A   1      30.792  29.582  24.015  1.00  0.00     0.193 C 
ATOM     16  O   UNL A   1      31.027  30.003  25.144  1.00  0.00    -0.289 OA
BRANCH  15  17
ATOM     17  C   UNL A   1      29.698  30.219  23.253  1.00  0.00     0.022 A 
ATOM     18  C   UNL A   1      29.028  31.296  23.841  1.00  0.00     0.012 A 
ATOM     19  C   UNL A   1      29.338  29.770  21.978  1.00  0.00     0.012 A 
ATOM     20  C   UNL A   1      28.030  31.960  23.129  1.00  0.00     0.001 A 
ATOM     21  C   UNL A   1      28.346  30.447  21.266  1.00  0.00     0.001 A 
ATOM     22  C   UNL A   1      27.699  31.544  21.838  1.00  0.00     0.000 A 
ENDBRANCH  15  17
ENDBRANCH  13  15
ENDBRANCH   7   9
ENDBRANCH   4   7
ENDBRANCH   2   3
ENDBRANCH   1   2
BRANCH   1  23
ATOM     23  C   UNL A   1      33.244  27.562  26.509  1.00  0.00     0.023 C 
BRANCH  23  24
ATOM     24  C   UNL A   1      34.041  28.810  26.134  1.00  0.00     0.116 C 
BRANCH  24  25
ATOM     25  N   UNL A   1      33.813  29.941  27.017  1.00  0.00    -0.352 N 
ATOM     26  C   UNL A   1      34.611  30.506  27.988  1.00  0.00     0.251 C 
ATOM     27  H   UNL A   1      32.938  30.379  26.903  1.00  0.00     0.163 HD
ATOM     28  O   UNL A   1      34.153  31.410  28.679  1.00  0.00    -0.269 OA
BRANCH  26  29
ATOM     29  C   UNL A   1      35.992  30.020  28.238  1.00  0.00     0.039 A 
ATOM     30  C   UNL A   1      36.904  30.035  27.177  1.00  0.00     0.014 A 
ATOM     31  C   UNL A   1      36.399  29.530  29.481  1.00  0.00     0.014 A 
ATOM     32  C   UNL A   1      38.230  29.643  27.386  1.00  0.00     0.010 A 
ATOM     33  C   UNL A   1      37.744  29.228  29.712  1.00  0.00     0.010 A 
ATOM     34  C   UNL A   1      38.678  29.284  28.669  1.00  0.00    -0.014 A 
BRANCH  34  35
ATOM     35  C   UNL A   1      40.121  28.998  28.916  1.00  0.00     0.031 A 
ATOM     36  C   UNL A   1      40.714  27.649  28.601  1.00  0.00     0.074 A 
ATOM     37  C   UNL A   1      40.900  29.960  29.454  1.00  0.00     0.049 A 
ATOM     38  N   UNL A   1      41.952  27.241  28.732  1.00  0.00    -0.248 NA
ATOM     39  C   UNL A   1      39.797  26.614  28.099  1.00  0.00     0.031 C 
ATOM     40  C   UNL A   1      40.434  31.284  29.879  1.00  0.00     0.029 A 
ATOM     41  N   UNL A   1      42.244  29.980  29.736  1.00  0.00    -0.354 N 
ATOM     42  C   UNL A   1      41.964  25.913  28.321  1.00  0.00     0.074 A 
ATOM     43  C   UNL A   1      40.597  25.561  28.006  1.00  0.00     0.031 C 
ATOM     44  C   UNL A   1      41.479  31.996  30.330  1.00  0.00     0.029 A 
ATOM     45  C   UNL A   1      42.682  31.173  30.263  1.00  0.00     0.049 A 
ATOM     46  H   UNL A   1      42.838  29.212  29.576  1.00  0.00     0.167 HD
ATOM     47  C   UNL A   1      43.019  25.073  28.184  1.00  0.00     0.037 A 
ATOM     48  C   UNL A   1      43.912  31.566  30.650  1.00  0.00     0.037 A 
ATOM     49  C   UNL A   1      44.382  25.428  28.492  1.00  0.00     0.049 A 
ATOM     50  C   UNL A   1      45.068  30.619  30.479  1.00  0.00     0.074 A 
ATOM     51  C   UNL A   1      45.525  24.660  28.353  1.00  0.00     0.029 A 
ATOM     52  N   UNL A   1      44.788  26.652  29.004  1.00  0.00    -0.354 N 
ATOM     53  N   UNL A   1      45.067  29.390  30.018  1.00  0.00    -0.248 NA
ATOM     54  C   UNL A   1      46.396  31.116  30.864  1.00  0.00     0.031 C 
ATOM     55  C   UNL A   1      46.615  25.402  28.822  1.00  0.00     0.029 A 
ATOM     56  C   UNL A   1      46.160  26.654  29.201  1.00  0.00     0.049 A 
ATOM     57  H   UNL A   1      44.189  27.409  29.199  1.00  0.00     0.167 HD
ATOM     58  C   UNL A   1      46.395  28.974  30.043  1.00  0.00     0.074 A 
ATOM     59  C   UNL A   1      47.172  30.094  30.532  1.00  0.00     0.031 C 
ATOM     60  C   UNL A   1      46.922  27.772  29.700  1.00  0.00     0.037 A 
BRANCH  47  61
ATOM     61  C   UNL A   1      42.747  23.689  27.653  1.00  0.00     0.058 A 
ATOM     62  C   UNL A   1      42.737  23.423  26.274  1.00  0.00     0.135 A 
ATOM     63  C   UNL A   1      42.550  22.606  28.526  1.00  0.00     0.135 A 
ATOM     64  F   UNL A   1      42.905  24.421  25.391  1.00  0.00    -0.206 F 
ATOM     65  C   UNL A   1      42.517  22.142  25.778  1.00  0.00     0.059 A 
ATOM     66  C   UNL A   1      42.358  21.310  28.054  1.00  0.00     0.059 A 
ATOM     67  F   UNL A   1      42.551  22.800  29.854  1.00  0.00    -0.206 F 
ATOM     68  C   UNL A   1      42.333  21.090  26.678  1.00  0.00     0.060 A 
BRANCH  68  69
ATOM     69  S   UNL A   1      42.071  19.430  26.015  1.00  0.00     0.124 S 
ATOM     70  O   UNL A   1      42.514  18.598  27.130  1.00  0.00    -0.237 OA
ATOM     71  O   UNL A   1      40.636  19.424  25.749  1.00  0.00    -0.237 OA
ATOM     72  O   UNL A   1      42.926  19.398  24.832  1.00  0.00    -0.744 OA
ENDBRANCH  68  69
ENDBRANCH  47  61
BRANCH  48  73
ATOM     73  C   UNL A   1      44.116  32.925  31.224  1.00  0.00     0.058 A 
ATOM     74  C   UNL A   1      44.012  33.158  32.603  1.00  0.00     0.135 A 
ATOM     75  C   UNL A   1      44.416  34.021  30.399  1.00  0.00     0.135 A 
ATOM     76  F   UNL A   1      43.721  32.146  33.435  1.00  0.00    -0.206 F 
ATOM     77  C   UNL A   1      44.171  34.431  33.143  1.00  0.00     0.059 A 
ATOM     78  C   UNL A   1      44.612  35.297  30.918  1.00  0.00     0.059 A 
ATOM     79  F   UNL A   1      44.546  33.850  29.074  1.00  0.00    -0.206 F 
ATOM     80  C   UNL A   1      44.473  35.496  32.290  1.00  0.00     0.060 A 
BRANCH  80  81
ATOM     81  S   UNL A   1      44.713  37.138  33.002  1.00  0.00     0.124 S 
ATOM     82  O   UNL A   1      45.677  36.861  34.059  1.00  0.00    -0.237 OA
ATOM     83  O   UNL A   1      45.215  37.896  31.860  1.00  0.00    -0.237 OA
ATOM     84  O   UNL A   1      43.373  37.508  33.449  1.00  0.00    -0.744 OA
ENDBRANCH  80  81
ENDBRANCH  48  73
BRANCH  60  85
ATOM     85  C   UNL A   1      48.415  27.620  29.824  1.00  0.00     0.058 A 
ATOM     86  C   UNL A   1      49.020  27.219  31.027  1.00  0.00     0.135 A 
ATOM     87  C   UNL A   1      49.253  27.877  28.726  1.00  0.00     0.135 A 
ATOM     88  F   UNL A   1      48.268  26.963  32.109  1.00  0.00    -0.206 F 
ATOM     89  C   UNL A   1      50.402  27.130  31.152  1.00  0.00     0.059 A 
ATOM     90  C   UNL A   1      50.638  27.761  28.819  1.00  0.00     0.059 A 
ATOM     91  F   UNL A   1      48.729  28.248  27.546  1.00  0.00    -0.206 F 
ATOM     92  C   UNL A   1      51.204  27.409  30.043  1.00  0.00     0.060 A 
BRANCH  92  93
ATOM     93  S   UNL A   1      52.997  27.306  30.223  1.00  0.00     0.124 S 
ATOM     94  O   UNL A   1      53.127  26.825  31.594  1.00  0.00    -0.237 OA
ATOM     95  O   UNL A   1      53.362  26.353  29.179  1.00  0.00    -0.237 OA
ATOM     96  O   UNL A   1      53.441  28.678  29.993  1.00  0.00    -0.744 OA
ENDBRANCH  92  93
ENDBRANCH  60  85
ENDBRANCH  34  35
ENDBRANCH  26  29
ENDBRANCH  24  25
ENDBRANCH  23  24
ENDBRANCH   1  23
TORSDOF 17
ENDMDL
