MODEL 1
REMARK VINA RESULT:     -13.4      0.000      0.000
REMARK SMILES C[C@@H]1CC(C)(C)C[C@@](CC(=O)Nc2cccc(C(F)(F)F)c2)(C(=O)NCCCCNC(=O)c2ccc(-c3c4nc(c(-c5c(F)cc(S(=O)(=O)[O-])cc5F)c5ccc([nH]5)c(-c5c(F)cc(S(=O)(=O)[O-])cc5F)c5nc(c(-c6c(F)cc(S(=O)(=O)[O-])cc6F)c6ccc3[nH]6)C=C5)C=C4)cc2)C1
REMARK SMILES IDX 27 1 26 2 25 3 23 4 24 5 8 7 1 8 2 9 3 10 99 11 4 12 5 13
REMARK SMILES IDX 6 14 7 15 9 16 10 17 11 18 12 19 13 21 14 22 22 23 15 24
REMARK SMILES IDX 17 25 16 26 18 27 19 28 20 29 21 30 28 31 29 32 30 33 31 34
REMARK SMILES IDX 32 36 33 37 34 38 98 39 35 40 97 41 36 42 37 43 38 44 91 45
REMARK SMILES IDX 39 46 96 47 90 48 92 49 40 50 95 51 89 52 88 53 41 55 75 56
REMARK SMILES IDX 54 57 74 58 55 59 58 60 73 61 93 62 56 63 57 64 72 66 94 67
REMARK SMILES IDX 59 68 42 69 43 70 52 71 44 72 45 73 51 74 53 75 46 76 47 77
REMARK SMILES IDX 48 78 49 79 50 80 76 81 77 82 86 83 78 84 79 85 85 86 87 87
REMARK SMILES IDX 80 88 81 89 82 90 83 91 84 92 60 93 61 94 70 95 62 96 63 97
REMARK SMILES IDX 69 98 71 99 64 100 65 101 66 102 67 103 68 104
REMARK H PARENT 25 6 12 20 30 35 92 54 58 65
REMARK Flexibility Score: inf
ROOT
ATOM      1  C   UNL A   1      38.440  23.534  26.499  1.00  0.00     0.023 C 
ENDROOT
BRANCH   1   2
ATOM      2  C   UNL A   1      37.258  23.184  25.580  1.00  0.00     0.116 C 
BRANCH   2   3
ATOM      3  N   UNL A   1      36.317  22.217  26.154  1.00  0.00    -0.356 N 
ATOM      4  C   UNL A   1      34.953  22.043  26.071  1.00  0.00     0.226 C 
ATOM      5  O   UNL A   1      34.503  21.090  26.711  1.00  0.00    -0.274 OA
ATOM      6  H   UNL A   1      36.756  21.545  26.725  1.00  0.00     0.163 HD
BRANCH   4   7
ATOM      7  C   UNL A   1      33.995  22.981  25.227  1.00  0.00     0.059 C 
ATOM      8  C   UNL A   1      33.265  25.639  23.202  1.00  0.00     0.008 C 
ATOM      9  C   UNL A   1      34.075  24.373  22.952  1.00  0.00    -0.013 C 
ATOM     10  C   UNL A   1      33.277  23.315  22.223  1.00  0.00     0.009 C 
ATOM     11  C   UNL A   1      34.803  23.722  24.132  1.00  0.00     0.020 C 
ATOM     12  C   UNL A   1      32.379  22.430  23.114  1.00  0.00    -0.034 C 
ATOM     13  C   UNL A   1      31.031  23.105  23.419  1.00  0.00     0.011 C 
ATOM     14  C   UNL A   1      32.071  21.187  22.237  1.00  0.00     0.011 C 
ATOM     15  C   UNL A   1      33.047  21.985  24.459  1.00  0.00     0.024 C 
BRANCH   7  16
ATOM     16  C   UNL A   1      33.396  23.907  26.314  1.00  0.00     0.117 C 
BRANCH  16  17
ATOM     17  C   UNL A   1      31.999  23.938  26.876  1.00  0.00     0.225 C 
ATOM     18  O   UNL A   1      31.644  22.965  27.562  1.00  0.00    -0.275 OA
ATOM     19  N   UNL A   1      31.091  24.941  26.818  1.00  0.00    -0.326 N 
ATOM     20  H   UNL A   1      30.371  24.777  27.468  1.00  0.00     0.169 HD
BRANCH  19  21
ATOM     21  C   UNL A   1      30.847  26.142  26.125  1.00  0.00     0.041 A 
ATOM     22  C   UNL A   1      30.014  25.984  25.001  1.00  0.00     0.026 A 
ATOM     23  C   UNL A   1      31.433  27.388  26.333  1.00  0.00     0.039 A 
ATOM     24  C   UNL A   1      29.884  26.981  24.036  1.00  0.00     0.003 A 
ATOM     25  C   UNL A   1      31.404  28.366  25.305  1.00  0.00     0.058 A 
ATOM     26  C   UNL A   1      30.606  28.155  24.170  1.00  0.00     0.013 A 
BRANCH  25  27
ATOM     27  C   UNL A   1      32.285  29.599  25.353  1.00  0.00     0.416 C 
ATOM     28  F   UNL A   1      33.094  29.704  24.255  1.00  0.00    -0.166 F 
ATOM     29  F   UNL A   1      31.580  30.758  25.404  1.00  0.00    -0.166 F 
ATOM     30  F   UNL A   1      33.133  29.609  26.415  1.00  0.00    -0.166 F 
ENDBRANCH  25  27
ENDBRANCH  19  21
ENDBRANCH  16  17
ENDBRANCH   7  16
ENDBRANCH   4   7
ENDBRANCH   2   3
ENDBRANCH   1   2
BRANCH   1  31
ATOM     31  C   UNL A   1      39.578  22.503  26.586  1.00  0.00     0.023 C 
BRANCH  31  32
ATOM     32  C   UNL A   1      40.969  23.017  26.974  1.00  0.00     0.116 C 
BRANCH  32  33
ATOM     33  N   UNL A   1      41.576  23.879  25.971  1.00  0.00    -0.352 N 
ATOM     34  C   UNL A   1      41.857  25.228  25.979  1.00  0.00     0.251 C 
ATOM     35  H   UNL A   1      41.830  23.417  25.139  1.00  0.00     0.163 HD
ATOM     36  O   UNL A   1      42.282  25.745  24.951  1.00  0.00    -0.269 OA
BRANCH  34  37
ATOM     37  C   UNL A   1      41.636  26.074  27.182  1.00  0.00     0.039 A 
ATOM     38  C   UNL A   1      42.519  27.136  27.420  1.00  0.00     0.014 A 
ATOM     39  C   UNL A   1      40.622  25.813  28.106  1.00  0.00     0.014 A 
ATOM     40  C   UNL A   1      42.347  27.962  28.538  1.00  0.00     0.010 A 
ATOM     41  C   UNL A   1      40.407  26.681  29.181  1.00  0.00     0.010 A 
ATOM     42  C   UNL A   1      41.268  27.765  29.415  1.00  0.00    -0.014 A 
BRANCH  42  43
ATOM     43  C   UNL A   1      41.036  28.688  30.564  1.00  0.00     0.031 A 
ATOM     44  C   UNL A   1      41.840  28.561  31.832  1.00  0.00     0.074 A 
ATOM     45  C   UNL A   1      40.062  29.617  30.487  1.00  0.00     0.049 A 
ATOM     46  N   UNL A   1      41.760  29.262  32.936  1.00  0.00    -0.248 NA
ATOM     47  C   UNL A   1      42.845  27.490  31.876  1.00  0.00     0.031 C 
ATOM     48  C   UNL A   1      39.164  29.807  29.345  1.00  0.00     0.029 A 
ATOM     49  N   UNL A   1      39.653  30.571  31.389  1.00  0.00    -0.354 N 
ATOM     50  C   UNL A   1      42.696  28.713  33.806  1.00  0.00     0.074 A 
ATOM     51  C   UNL A   1      43.287  27.581  33.122  1.00  0.00     0.031 C 
ATOM     52  C   UNL A   1      38.325  30.822  29.607  1.00  0.00     0.029 A 
ATOM     53  C   UNL A   1      38.599  31.337  30.945  1.00  0.00     0.049 A 
ATOM     54  H   UNL A   1      40.074  30.693  32.269  1.00  0.00     0.167 HD
ATOM     55  C   UNL A   1      43.052  29.124  35.049  1.00  0.00     0.037 A 
ATOM     56  C   UNL A   1      37.923  32.336  31.546  1.00  0.00     0.037 A 
ATOM     57  C   UNL A   1      42.469  30.256  35.724  1.00  0.00     0.049 A 
ATOM     58  C   UNL A   1      38.342  32.790  32.917  1.00  0.00     0.074 A 
ATOM     59  C   UNL A   1      42.799  30.786  36.960  1.00  0.00     0.029 A 
ATOM     60  N   UNL A   1      41.429  31.029  35.227  1.00  0.00    -0.354 N 
ATOM     61  N   UNL A   1      39.285  32.308  33.692  1.00  0.00    -0.248 NA
ATOM     62  C   UNL A   1      37.621  33.935  33.488  1.00  0.00     0.031 C 
ATOM     63  C   UNL A   1      41.927  31.847  37.231  1.00  0.00     0.029 A 
ATOM     64  C   UNL A   1      41.091  32.017  36.139  1.00  0.00     0.049 A 
ATOM     65  H   UNL A   1      40.994  30.895  34.354  1.00  0.00     0.167 HD
ATOM     66  C   UNL A   1      39.284  33.104  34.833  1.00  0.00     0.074 A 
ATOM     67  C   UNL A   1      38.260  34.110  34.637  1.00  0.00     0.031 C 
ATOM     68  C   UNL A   1      40.064  33.012  35.940  1.00  0.00     0.037 A 
BRANCH  55  69
ATOM     69  C   UNL A   1      44.123  28.335  35.760  1.00  0.00     0.058 A 
ATOM     70  C   UNL A   1      43.809  27.269  36.620  1.00  0.00     0.135 A 
ATOM     71  C   UNL A   1      45.481  28.643  35.576  1.00  0.00     0.135 A 
ATOM     72  F   UNL A   1      42.527  26.933  36.841  1.00  0.00    -0.206 F 
ATOM     73  C   UNL A   1      44.795  26.572  37.310  1.00  0.00     0.059 A 
ATOM     74  C   UNL A   1      46.487  27.937  36.231  1.00  0.00     0.059 A 
ATOM     75  F   UNL A   1      45.844  29.645  34.761  1.00  0.00    -0.206 F 
ATOM     76  C   UNL A   1      46.133  26.919  37.115  1.00  0.00     0.060 A 
BRANCH  76  77
ATOM     77  S   UNL A   1      47.399  26.028  38.042  1.00  0.00     0.124 S 
ATOM     78  O   UNL A   1      46.594  25.048  38.764  1.00  0.00    -0.237 OA
ATOM     79  O   UNL A   1      48.246  25.493  36.981  1.00  0.00    -0.237 OA
ATOM     80  O   UNL A   1      48.012  27.065  38.867  1.00  0.00    -0.744 OA
ENDBRANCH  76  77
ENDBRANCH  55  69
BRANCH  56  81
ATOM     81  C   UNL A   1      36.790  32.987  30.834  1.00  0.00     0.058 A 
ATOM     82  C   UNL A   1      35.458  32.727  31.191  1.00  0.00     0.135 A 
ATOM     83  C   UNL A   1      37.020  33.915  29.805  1.00  0.00     0.135 A 
ATOM     84  F   UNL A   1      35.185  31.842  32.162  1.00  0.00    -0.206 F 
ATOM     85  C   UNL A   1      34.395  33.358  30.552  1.00  0.00     0.059 A 
ATOM     86  C   UNL A   1      35.975  34.578  29.169  1.00  0.00     0.059 A 
ATOM     87  F   UNL A   1      38.276  34.211  29.436  1.00  0.00    -0.206 F 
ATOM     88  C   UNL A   1      34.665  34.288  29.547  1.00  0.00     0.060 A 
BRANCH  88  89
ATOM     89  S   UNL A   1      33.281  35.158  28.776  1.00  0.00     0.124 S 
ATOM     90  O   UNL A   1      32.661  34.093  27.997  1.00  0.00    -0.237 OA
ATOM     91  O   UNL A   1      32.528  35.621  29.938  1.00  0.00    -0.237 OA
ATOM     92  O   UNL A   1      33.934  36.209  28.003  1.00  0.00    -0.744 OA
ENDBRANCH  88  89
ENDBRANCH  56  81
BRANCH  68  93
ATOM     93  C   UNL A   1      39.861  34.045  37.017  1.00  0.00     0.058 A 
ATOM     94  C   UNL A   1      39.020  33.817  38.117  1.00  0.00     0.135 A 
ATOM     95  C   UNL A   1      40.543  35.273  36.960  1.00  0.00     0.135 A 
ATOM     96  F   UNL A   1      38.340  32.663  38.221  1.00  0.00    -0.206 F 
ATOM     97  C   UNL A   1      38.831  34.782  39.102  1.00  0.00     0.059 A 
ATOM     98  C   UNL A   1      40.395  36.239  37.950  1.00  0.00     0.059 A 
ATOM     99  F   UNL A   1      41.371  35.539  35.938  1.00  0.00    -0.206 F 
ATOM    100  C   UNL A   1      39.522  35.992  39.009  1.00  0.00     0.060 A 
BRANCH 100 101
ATOM    101  S   UNL A   1      39.276  37.234  40.296  1.00  0.00     0.124 S 
ATOM    102  O   UNL A   1      38.525  38.257  39.576  1.00  0.00    -0.237 OA
ATOM    103  O   UNL A   1      38.528  36.492  41.307  1.00  0.00    -0.237 OA
ATOM    104  O   UNL A   1      40.635  37.604  40.677  1.00  0.00    -0.744 OA
ENDBRANCH 100 101
ENDBRANCH  68  93
ENDBRANCH  42  43
ENDBRANCH  34  37
ENDBRANCH  32  33
ENDBRANCH  31  32
ENDBRANCH   1  31
TORSDOF 18
ENDMDL
MODEL 2
REMARK VINA RESULT:     -13.2      5.788      7.969
REMARK SMILES C[C@@H]1CC(C)(C)C[C@@](CC(=O)Nc2cccc(C(F)(F)F)c2)(C(=O)NCCCCNC(=O)c2ccc(-c3c4nc(c(-c5c(F)cc(S(=O)(=O)[O-])cc5F)c5ccc([nH]5)c(-c5c(F)cc(S(=O)(=O)[O-])cc5F)c5nc(c(-c6c(F)cc(S(=O)(=O)[O-])cc6F)c6ccc3[nH]6)C=C5)C=C4)cc2)C1
REMARK SMILES IDX 27 1 26 2 25 3 23 4 24 5 8 7 1 8 2 9 3 10 99 11 4 12 5 13
REMARK SMILES IDX 6 14 7 15 9 16 10 17 11 18 12 19 13 21 14 22 22 23 15 24
REMARK SMILES IDX 17 25 16 26 18 27 19 28 20 29 21 30 28 31 29 32 30 33 31 34
REMARK SMILES IDX 32 36 33 37 34 38 98 39 35 40 97 41 36 42 37 43 38 44 91 45
REMARK SMILES IDX 39 46 96 47 90 48 92 49 40 50 95 51 89 52 88 53 41 55 75 56
REMARK SMILES IDX 54 57 74 58 55 59 58 60 73 61 93 62 56 63 57 64 72 66 94 67
REMARK SMILES IDX 59 68 42 69 43 70 52 71 44 72 45 73 51 74 53 75 46 76 47 77
REMARK SMILES IDX 48 78 49 79 50 80 76 81 77 82 86 83 78 84 79 85 85 86 87 87
REMARK SMILES IDX 80 88 81 89 82 90 83 91 84 92 60 93 61 94 70 95 62 96 63 97
REMARK SMILES IDX 69 98 71 99 64 100 65 101 66 102 67 103 68 104
REMARK H PARENT 25 6 12 20 30 35 92 54 58 65
REMARK Flexibility Score: inf
ROOT
ATOM      1  C   UNL A   1      37.061  20.938  24.727  1.00  0.00     0.023 C 
ENDROOT
BRANCH   1   2
ATOM      2  C   UNL A   1      35.611  20.472  24.943  1.00  0.00     0.116 C 
BRANCH   2   3
ATOM      3  N   UNL A   1      35.040  20.871  26.234  1.00  0.00    -0.356 N 
ATOM      4  C   UNL A   1      34.153  21.850  26.627  1.00  0.00     0.226 C 
ATOM      5  O   UNL A   1      33.903  21.880  27.834  1.00  0.00    -0.274 OA
ATOM      6  H   UNL A   1      35.359  20.318  26.983  1.00  0.00     0.163 HD
BRANCH   4   7
ATOM      7  C   UNL A   1      33.486  22.885  25.631  1.00  0.00     0.059 C 
ATOM      8  C   UNL A   1      33.450  25.620  23.578  1.00  0.00     0.008 C 
ATOM      9  C   UNL A   1      34.170  24.282  23.463  1.00  0.00    -0.013 C 
ATOM     10  C   UNL A   1      33.444  23.315  22.555  1.00  0.00     0.009 C 
ATOM     11  C   UNL A   1      34.571  23.552  24.749  1.00  0.00     0.020 C 
ATOM     12  C   UNL A   1      32.299  22.516  23.215  1.00  0.00    -0.034 C 
ATOM     13  C   UNL A   1      30.989  23.319  23.255  1.00  0.00     0.011 C 
ATOM     14  C   UNL A   1      32.064  21.317  22.257  1.00  0.00     0.011 C 
ATOM     15  C   UNL A   1      32.628  21.995  24.656  1.00  0.00     0.024 C 
BRANCH   7  16
ATOM     16  C   UNL A   1      32.764  23.856  26.598  1.00  0.00     0.117 C 
BRANCH  16  17
ATOM     17  C   UNL A   1      31.290  24.029  26.852  1.00  0.00     0.225 C 
ATOM     18  O   UNL A   1      30.707  23.108  27.448  1.00  0.00    -0.275 OA
ATOM     19  N   UNL A   1      30.515  25.110  26.603  1.00  0.00    -0.326 N 
ATOM     20  H   UNL A   1      29.661  25.028  27.086  1.00  0.00     0.169 HD
BRANCH  19  21
ATOM     21  C   UNL A   1      30.537  26.315  25.874  1.00  0.00     0.041 A 
ATOM     22  C   UNL A   1      29.714  26.298  24.733  1.00  0.00     0.026 A 
ATOM     23  C   UNL A   1      31.363  27.420  26.066  1.00  0.00     0.039 A 
ATOM     24  C   UNL A   1      29.811  27.270  23.740  1.00  0.00     0.003 A 
ATOM     25  C   UNL A   1      31.556  28.353  25.014  1.00  0.00     0.058 A 
ATOM     26  C   UNL A   1      30.757  28.275  23.863  1.00  0.00     0.013 A 
BRANCH  25  27
ATOM     27  C   UNL A   1      32.671  29.379  25.054  1.00  0.00     0.416 C 
ATOM     28  F   UNL A   1      32.244  30.595  25.513  1.00  0.00    -0.166 F 
ATOM     29  F   UNL A   1      33.699  29.019  25.865  1.00  0.00    -0.166 F 
ATOM     30  F   UNL A   1      33.208  29.634  23.832  1.00  0.00    -0.166 F 
ENDBRANCH  25  27
ENDBRANCH  19  21
ENDBRANCH  16  17
ENDBRANCH   7  16
ENDBRANCH   4   7
ENDBRANCH   2   3
ENDBRANCH   1   2
BRANCH   1  31
ATOM     31  C   UNL A   1      38.166  19.898  24.974  1.00  0.00     0.023 C 
BRANCH  31  32
ATOM     32  C   UNL A   1      39.256  20.253  25.990  1.00  0.00     0.116 C 
BRANCH  32  33
ATOM     33  N   UNL A   1      40.377  19.325  25.995  1.00  0.00    -0.352 N 
ATOM     34  C   UNL A   1      41.732  19.535  26.146  1.00  0.00     0.251 C 
ATOM     35  H   UNL A   1      40.124  18.382  25.868  1.00  0.00     0.163 HD
ATOM     36  O   UNL A   1      42.491  18.582  26.004  1.00  0.00    -0.269 OA
BRANCH  34  37
ATOM     37  C   UNL A   1      42.296  20.877  26.445  1.00  0.00     0.039 A 
ATOM     38  C   UNL A   1      42.612  21.721  25.371  1.00  0.00     0.014 A 
ATOM     39  C   UNL A   1      42.575  21.300  27.746  1.00  0.00     0.014 A 
ATOM     40  C   UNL A   1      43.142  22.996  25.605  1.00  0.00     0.010 A 
ATOM     41  C   UNL A   1      43.035  22.599  27.982  1.00  0.00     0.010 A 
ATOM     42  C   UNL A   1      43.328  23.464  26.916  1.00  0.00    -0.014 A 
BRANCH  42  43
ATOM     43  C   UNL A   1      43.820  24.849  27.173  1.00  0.00     0.031 A 
ATOM     44  C   UNL A   1      45.268  25.208  26.958  1.00  0.00     0.074 A 
ATOM     45  C   UNL A   1      42.971  25.782  27.649  1.00  0.00     0.049 A 
ATOM     46  N   UNL A   1      45.874  26.353  27.148  1.00  0.00    -0.248 NA
ATOM     47  C   UNL A   1      46.156  24.132  26.496  1.00  0.00     0.031 C 
ATOM     48  C   UNL A   1      41.558  25.554  27.964  1.00  0.00     0.029 A 
ATOM     49  N   UNL A   1      43.169  27.105  27.962  1.00  0.00    -0.354 N 
ATOM     50  C   UNL A   1      47.212  26.135  26.837  1.00  0.00     0.074 A 
ATOM     51  C   UNL A   1      47.338  24.730  26.506  1.00  0.00     0.031 C 
ATOM     52  C   UNL A   1      41.015  26.699  28.408  1.00  0.00     0.029 A 
ATOM     53  C   UNL A   1      42.043  27.736  28.441  1.00  0.00     0.049 A 
ATOM     54  H   UNL A   1      44.035  27.559  27.854  1.00  0.00     0.167 HD
ATOM     55  C   UNL A   1      48.238  27.021  26.804  1.00  0.00     0.037 A 
ATOM     56  C   UNL A   1      41.856  29.001  28.866  1.00  0.00     0.037 A 
ATOM     57  C   UNL A   1      48.108  28.421  27.125  1.00  0.00     0.049 A 
ATOM     58  C   UNL A   1      43.000  29.975  28.806  1.00  0.00     0.074 A 
ATOM     59  C   UNL A   1      49.074  29.412  27.069  1.00  0.00     0.029 A 
ATOM     60  N   UNL A   1      46.943  29.028  27.572  1.00  0.00    -0.354 N 
ATOM     61  N   UNL A   1      44.241  29.768  28.433  1.00  0.00    -0.248 NA
ATOM     62  C   UNL A   1      42.717  31.360  29.206  1.00  0.00     0.031 C 
ATOM     63  C   UNL A   1      48.506  30.605  27.528  1.00  0.00     0.029 A 
ATOM     64  C   UNL A   1      47.171  30.375  27.815  1.00  0.00     0.049 A 
ATOM     65  H   UNL A   1      46.081  28.571  27.698  1.00  0.00     0.167 HD
ATOM     66  C   UNL A   1      44.880  31.000  28.533  1.00  0.00     0.074 A 
ATOM     67  C   UNL A   1      43.883  31.949  28.984  1.00  0.00     0.031 C 
ATOM     68  C   UNL A   1      46.174  31.314  28.271  1.00  0.00     0.037 A 
BRANCH  55  69
ATOM     69  C   UNL A   1      49.596  26.497  26.410  1.00  0.00     0.058 A 
ATOM     70  C   UNL A   1      50.429  25.835  27.329  1.00  0.00     0.135 A 
ATOM     71  C   UNL A   1      50.070  26.650  25.097  1.00  0.00     0.135 A 
ATOM     72  F   UNL A   1      50.033  25.667  28.601  1.00  0.00    -0.206 F 
ATOM     73  C   UNL A   1      51.700  25.393  26.976  1.00  0.00     0.059 A 
ATOM     74  C   UNL A   1      51.325  26.185  24.713  1.00  0.00     0.059 A 
ATOM     75  F   UNL A   1      49.317  27.265  24.173  1.00  0.00    -0.206 F 
ATOM     76  C   UNL A   1      52.142  25.580  25.666  1.00  0.00     0.060 A 
BRANCH  76  77
ATOM     77  S   UNL A   1      53.806  25.030  25.231  1.00  0.00     0.124 S 
ATOM     78  O   UNL A   1      53.666  23.580  25.329  1.00  0.00    -0.237 OA
ATOM     79  O   UNL A   1      53.968  25.559  23.880  1.00  0.00    -0.237 OA
ATOM     80  O   UNL A   1      54.647  25.649  26.249  1.00  0.00    -0.744 OA
ENDBRANCH  76  77
ENDBRANCH  55  69
BRANCH  56  81
ATOM     81  C   UNL A   1      40.517  29.417  29.364  1.00  0.00     0.058 A 
ATOM     82  C   UNL A   1      40.274  29.603  30.733  1.00  0.00     0.135 A 
ATOM     83  C   UNL A   1      39.463  29.677  28.473  1.00  0.00     0.135 A 
ATOM     84  F   UNL A   1      41.245  29.360  31.626  1.00  0.00    -0.206 F 
ATOM     85  C   UNL A   1      39.033  30.024  31.203  1.00  0.00     0.059 A 
ATOM     86  C   UNL A   1      38.222  30.125  28.916  1.00  0.00     0.059 A 
ATOM     87  F   UNL A   1      39.648  29.530  27.151  1.00  0.00    -0.206 F 
ATOM     88  C   UNL A   1      38.016  30.291  30.284  1.00  0.00     0.060 A 
BRANCH  88  89
ATOM     89  S   UNL A   1      36.434  30.911  30.899  1.00  0.00     0.124 S 
ATOM     90  O   UNL A   1      36.016  29.829  31.782  1.00  0.00    -0.237 OA
ATOM     91  O   UNL A   1      36.829  32.155  31.554  1.00  0.00    -0.237 OA
ATOM     92  O   UNL A   1      35.644  31.076  29.683  1.00  0.00    -0.744 OA
ENDBRANCH  88  89
ENDBRANCH  56  81
BRANCH  68  93
ATOM     93  C   UNL A   1      46.583  32.754  28.436  1.00  0.00     0.058 A 
ATOM     94  C   UNL A   1      47.064  33.255  29.656  1.00  0.00     0.135 A 
ATOM     95  C   UNL A   1      46.516  33.641  27.348  1.00  0.00     0.135 A 
ATOM     96  F   UNL A   1      47.145  32.454  30.731  1.00  0.00    -0.206 F 
ATOM     97  C   UNL A   1      47.429  34.590  29.802  1.00  0.00     0.059 A 
ATOM     98  C   UNL A   1      46.907  34.971  27.462  1.00  0.00     0.059 A 
ATOM     99  F   UNL A   1      46.076  33.213  26.154  1.00  0.00    -0.206 F 
ATOM    100  C   UNL A   1      47.345  35.442  28.699  1.00  0.00     0.060 A 
BRANCH 100 101
ATOM    101  S   UNL A   1      47.829  37.170  28.897  1.00  0.00     0.124 S 
ATOM    102  O   UNL A   1      46.666  37.864  28.355  1.00  0.00    -0.237 OA
ATOM    103  O   UNL A   1      48.016  37.278  30.341  1.00  0.00    -0.237 OA
ATOM    104  O   UNL A   1      49.049  37.276  28.104  1.00  0.00    -0.744 OA
ENDBRANCH 100 101
ENDBRANCH  68  93
ENDBRANCH  42  43
ENDBRANCH  34  37
ENDBRANCH  32  33
ENDBRANCH  31  32
ENDBRANCH   1  31
TORSDOF 18
ENDMDL
MODEL 3
REMARK VINA RESULT:     -13.1      6.603     11.878
REMARK SMILES C[C@@H]1CC(C)(C)C[C@@](CC(=O)Nc2cccc(C(F)(F)F)c2)(C(=O)NCCCCNC(=O)c2ccc(-c3c4nc(c(-c5c(F)cc(S(=O)(=O)[O-])cc5F)c5ccc([nH]5)c(-c5c(F)cc(S(=O)(=O)[O-])cc5F)c5nc(c(-c6c(F)cc(S(=O)(=O)[O-])cc6F)c6ccc3[nH]6)C=C5)C=C4)cc2)C1
REMARK SMILES IDX 27 1 26 2 25 3 23 4 24 5 8 7 1 8 2 9 3 10 99 11 4 12 5 13
REMARK SMILES IDX 6 14 7 15 9 16 10 17 11 18 12 19 13 21 14 22 22 23 15 24
REMARK SMILES IDX 17 25 16 26 18 27 19 28 20 29 21 30 28 31 29 32 30 33 31 34
REMARK SMILES IDX 32 36 33 37 34 38 98 39 35 40 97 41 36 42 37 43 38 44 91 45
REMARK SMILES IDX 39 46 96 47 90 48 92 49 40 50 95 51 89 52 88 53 41 55 75 56
REMARK SMILES IDX 54 57 74 58 55 59 58 60 73 61 93 62 56 63 57 64 72 66 94 67
REMARK SMILES IDX 59 68 42 69 43 70 52 71 44 72 45 73 51 74 53 75 46 76 47 77
REMARK SMILES IDX 48 78 49 79 50 80 76 81 77 82 86 83 78 84 79 85 85 86 87 87
REMARK SMILES IDX 80 88 81 89 82 90 83 91 84 92 60 93 61 94 70 95 62 96 63 97
REMARK SMILES IDX 69 98 71 99 64 100 65 101 66 102 67 103 68 104
REMARK H PARENT 25 6 12 20 30 35 92 54 58 65
REMARK Flexibility Score: inf
ROOT
ATOM      1  C   UNL A   1      32.954  30.658  26.975  1.00  0.00     0.023 C 
ENDROOT
BRANCH   1   2
ATOM      2  C   UNL A   1      32.174  29.981  25.835  1.00  0.00     0.116 C 
BRANCH   2   3
ATOM      3  N   UNL A   1      32.975  29.718  24.634  1.00  0.00    -0.356 N 
ATOM      4  C   UNL A   1      33.272  28.583  23.912  1.00  0.00     0.226 C 
ATOM      5  O   UNL A   1      34.000  28.758  22.931  1.00  0.00    -0.274 OA
ATOM      6  H   UNL A   1      33.391  30.529  24.263  1.00  0.00     0.163 HD
BRANCH   4   7
ATOM      7  C   UNL A   1      32.743  27.137  24.285  1.00  0.00     0.059 C 
ATOM      8  C   UNL A   1      32.240  24.467  26.361  1.00  0.00     0.008 C 
ATOM      9  C   UNL A   1      31.692  25.888  26.395  1.00  0.00    -0.013 C 
ATOM     10  C   UNL A   1      30.299  25.982  25.815  1.00  0.00     0.009 C 
ATOM     11  C   UNL A   1      32.549  27.018  25.817  1.00  0.00     0.020 C 
ATOM     12  C   UNL A   1      30.227  26.110  24.277  1.00  0.00    -0.034 C 
ATOM     13  C   UNL A   1      30.326  24.742  23.583  1.00  0.00     0.011 C 
ATOM     14  C   UNL A   1      28.799  26.653  24.002  1.00  0.00     0.011 C 
ATOM     15  C   UNL A   1      31.296  27.077  23.664  1.00  0.00     0.024 C 
BRANCH   7  16
ATOM     16  C   UNL A   1      33.850  26.220  23.709  1.00  0.00     0.117 C 
BRANCH  16  17
ATOM     17  C   UNL A   1      33.758  25.179  22.624  1.00  0.00     0.225 C 
ATOM     18  O   UNL A   1      33.557  25.584  21.467  1.00  0.00    -0.275 OA
ATOM     19  N   UNL A   1      33.962  23.844  22.720  1.00  0.00    -0.326 N 
ATOM     20  H   UNL A   1      34.071  23.458  21.822  1.00  0.00     0.169 HD
BRANCH  19  21
ATOM     21  C   UNL A   1      34.068  22.831  23.693  1.00  0.00     0.041 A 
ATOM     22  C   UNL A   1      35.194  22.968  24.526  1.00  0.00     0.026 A 
ATOM     23  C   UNL A   1      33.298  21.677  23.819  1.00  0.00     0.039 A 
ATOM     24  C   UNL A   1      35.628  21.933  25.352  1.00  0.00     0.003 A 
ATOM     25  C   UNL A   1      33.791  20.575  24.565  1.00  0.00     0.058 A 
ATOM     26  C   UNL A   1      34.948  20.726  25.344  1.00  0.00     0.013 A 
BRANCH  25  27
ATOM     27  C   UNL A   1      33.153  19.203  24.473  1.00  0.00     0.416 C 
ATOM     28  F   UNL A   1      32.191  19.139  23.503  1.00  0.00    -0.166 F 
ATOM     29  F   UNL A   1      34.042  18.220  24.175  1.00  0.00    -0.166 F 
ATOM     30  F   UNL A   1      32.524  18.827  25.617  1.00  0.00    -0.166 F 
ENDBRANCH  25  27
ENDBRANCH  19  21
ENDBRANCH  16  17
ENDBRANCH   7  16
ENDBRANCH   4   7
ENDBRANCH   2   3
ENDBRANCH   1   2
BRANCH   1  31
ATOM     31  C   UNL A   1      34.234  29.953  27.452  1.00  0.00     0.023 C 
BRANCH  31  32
ATOM     32  C   UNL A   1      35.367  30.833  27.989  1.00  0.00     0.116 C 
BRANCH  32  33
ATOM     33  N   UNL A   1      35.373  30.961  29.439  1.00  0.00    -0.352 N 
ATOM     34  C   UNL A   1      36.337  30.655  30.376  1.00  0.00     0.251 C 
ATOM     35  H   UNL A   1      34.542  31.330  29.817  1.00  0.00     0.163 HD
ATOM     36  O   UNL A   1      36.052  30.759  31.564  1.00  0.00    -0.269 OA
BRANCH  34  37
ATOM     37  C   UNL A   1      37.691  30.179  29.990  1.00  0.00     0.039 A 
ATOM     38  C   UNL A   1      38.003  30.093  28.627  1.00  0.00     0.014 A 
ATOM     39  C   UNL A   1      38.635  29.761  30.931  1.00  0.00     0.014 A 
ATOM     40  C   UNL A   1      39.269  29.655  28.216  1.00  0.00     0.010 A 
ATOM     41  C   UNL A   1      39.921  29.392  30.524  1.00  0.00     0.010 A 
ATOM     42  C   UNL A   1      40.255  29.331  29.162  1.00  0.00    -0.014 A 
BRANCH  42  43
ATOM     43  C   UNL A   1      41.628  28.936  28.732  1.00  0.00     0.031 A 
ATOM     44  C   UNL A   1      42.737  29.953  28.654  1.00  0.00     0.074 A 
ATOM     45  C   UNL A   1      41.871  27.662  28.362  1.00  0.00     0.049 A 
ATOM     46  N   UNL A   1      43.983  29.793  28.283  1.00  0.00    -0.248 NA
ATOM     47  C   UNL A   1      42.394  31.337  29.012  1.00  0.00     0.031 C 
ATOM     48  C   UNL A   1      40.875  26.589  28.327  1.00  0.00     0.029 A 
ATOM     49  N   UNL A   1      43.026  27.053  27.934  1.00  0.00    -0.354 N 
ATOM     50  C   UNL A   1      44.569  31.052  28.356  1.00  0.00     0.074 A 
ATOM     51  C   UNL A   1      43.524  31.976  28.746  1.00  0.00     0.031 C 
ATOM     52  C   UNL A   1      41.463  25.453  27.918  1.00  0.00     0.029 A 
ATOM     53  C   UNL A   1      42.870  25.719  27.631  1.00  0.00     0.049 A 
ATOM     54  H   UNL A   1      43.885  27.526  27.852  1.00  0.00     0.167 HD
ATOM     55  C   UNL A   1      45.861  31.408  28.142  1.00  0.00     0.037 A 
ATOM     56  C   UNL A   1      43.753  24.812  27.168  1.00  0.00     0.037 A 
ATOM     57  C   UNL A   1      46.901  30.485  27.763  1.00  0.00     0.049 A 
ATOM     58  C   UNL A   1      45.184  25.219  26.954  1.00  0.00     0.074 A 
ATOM     59  C   UNL A   1      48.251  30.736  27.577  1.00  0.00     0.029 A 
ATOM     60  N   UNL A   1      46.710  29.136  27.500  1.00  0.00    -0.354 N 
ATOM     61  N   UNL A   1      45.737  26.399  27.106  1.00  0.00    -0.248 NA
ATOM     62  C   UNL A   1      46.118  24.169  26.526  1.00  0.00     0.031 C 
ATOM     63  C   UNL A   1      48.864  29.551  27.156  1.00  0.00     0.029 A 
ATOM     64  C   UNL A   1      47.911  28.546  27.134  1.00  0.00     0.049 A 
ATOM     65  H   UNL A   1      45.848  28.665  27.564  1.00  0.00     0.167 HD
ATOM     66  C   UNL A   1      47.086  26.229  26.812  1.00  0.00     0.074 A 
ATOM     67  C   UNL A   1      47.268  24.828  26.492  1.00  0.00     0.031 C 
ATOM     68  C   UNL A   1      48.083  27.150  26.810  1.00  0.00     0.037 A 
BRANCH  55  69
ATOM     69  C   UNL A   1      46.217  32.863  28.313  1.00  0.00     0.058 A 
ATOM     70  C   UNL A   1      46.038  33.795  27.276  1.00  0.00     0.135 A 
ATOM     71  C   UNL A   1      46.737  33.336  29.529  1.00  0.00     0.135 A 
ATOM     72  F   UNL A   1      45.552  33.400  26.088  1.00  0.00    -0.206 F 
ATOM     73  C   UNL A   1      46.410  35.128  27.419  1.00  0.00     0.059 A 
ATOM     74  C   UNL A   1      47.085  34.673  29.705  1.00  0.00     0.059 A 
ATOM     75  F   UNL A   1      46.923  32.496  30.558  1.00  0.00    -0.206 F 
ATOM     76  C   UNL A   1      46.940  35.556  28.637  1.00  0.00     0.060 A 
BRANCH  76  77
ATOM     77  S   UNL A   1      47.448  37.281  28.797  1.00  0.00     0.124 S 
ATOM     78  O   UNL A   1      46.176  37.975  28.623  1.00  0.00    -0.237 OA
ATOM     79  O   UNL A   1      48.010  37.318  30.144  1.00  0.00    -0.237 OA
ATOM     80  O   UNL A   1      48.411  37.455  27.715  1.00  0.00    -0.744 OA
ENDBRANCH  76  77
ENDBRANCH  55  69
BRANCH  56  81
ATOM     81  C   UNL A   1      43.301  23.420  26.899  1.00  0.00     0.058 A 
ATOM     82  C   UNL A   1      43.172  22.935  25.589  1.00  0.00     0.135 A 
ATOM     83  C   UNL A   1      43.027  22.533  27.953  1.00  0.00     0.135 A 
ATOM     84  F   UNL A   1      43.414  23.745  24.548  1.00  0.00    -0.206 F 
ATOM     85  C   UNL A   1      42.782  21.624  25.332  1.00  0.00     0.059 A 
ATOM     86  C   UNL A   1      42.661  21.210  27.721  1.00  0.00     0.059 A 
ATOM     87  F   UNL A   1      43.150  22.942  29.226  1.00  0.00    -0.206 F 
ATOM     88  C   UNL A   1      42.537  20.767  26.406  1.00  0.00     0.060 A 
BRANCH  88  89
ATOM     89  S   UNL A   1      42.107  19.046  26.060  1.00  0.00     0.124 S 
ATOM     90  O   UNL A   1      40.683  19.152  25.767  1.00  0.00    -0.237 OA
ATOM     91  O   UNL A   1      42.973  18.737  24.926  1.00  0.00    -0.237 OA
ATOM     92  O   UNL A   1      42.447  18.360  27.303  1.00  0.00    -0.744 OA
ENDBRANCH  88  89
ENDBRANCH  56  81
BRANCH  68  93
ATOM     93  C   UNL A   1      49.471  26.666  26.482  1.00  0.00     0.058 A 
ATOM     94  C   UNL A   1      50.297  26.067  27.445  1.00  0.00     0.135 A 
ATOM     95  C   UNL A   1      49.971  26.781  25.173  1.00  0.00     0.135 A 
ATOM     96  F   UNL A   1      49.872  25.935  28.713  1.00  0.00    -0.206 F 
ATOM     97  C   UNL A   1      51.582  25.632  27.135  1.00  0.00     0.059 A 
ATOM     98  C   UNL A   1      51.241  26.324  24.832  1.00  0.00     0.059 A 
ATOM     99  F   UNL A   1      49.220  27.334  24.208  1.00  0.00    -0.206 F 
ATOM    100  C   UNL A   1      52.046  25.767  25.825  1.00  0.00     0.060 A 
BRANCH 100 101
ATOM    101  S   UNL A   1      53.712  25.192  25.431  1.00  0.00     0.124 S 
ATOM    102  O   UNL A   1      54.491  25.787  26.512  1.00  0.00    -0.237 OA
ATOM    103  O   UNL A   1      53.562  23.741  25.481  1.00  0.00    -0.237 OA
ATOM    104  O   UNL A   1      53.958  25.745  24.103  1.00  0.00    -0.744 OA
ENDBRANCH 100 101
ENDBRANCH  68  93
ENDBRANCH  42  43
ENDBRANCH  34  37
ENDBRANCH  32  33
ENDBRANCH  31  32
ENDBRANCH   1  31
TORSDOF 18
ENDMDL
