MODEL 1
REMARK VINA RESULT:     -10.6      0.000      0.000
REMARK SMILES CC[C@H](C)[C@@H](NC(=O)/C=C/c1csc(C)n1)C(=O)NCCCCNC(=O)c1ccc(-c2c3nc(c(-c4c(F)cc(S(=O)(=O)[O-])cc4F)c4ccc([nH]4)c(-c4c(F)cc(S(=O)(=O)[O-])cc4F)c4nc(c(-c5c(F)cc(S(=O)(=O)[O-])cc5F)c5ccc2[nH]5)C=C4)C=C3)cc1
REMARK SMILES IDX 21 1 20 2 19 3 17 4 18 5 5 7 3 8 4 9 2 10 1 11 6 12 7 13
REMARK SMILES IDX 8 15 9 16 10 17 11 18 12 19 16 20 13 21 14 22 15 23 22 24
REMARK SMILES IDX 23 25 24 26 25 27 26 29 27 30 28 31 92 32 29 33 91 34 30 35
REMARK SMILES IDX 31 36 32 37 85 38 33 39 90 40 84 41 86 42 34 43 89 44 83 45
REMARK SMILES IDX 82 46 35 48 69 49 48 50 68 51 49 52 52 53 67 54 87 55 50 56
REMARK SMILES IDX 51 57 66 59 88 60 53 61 36 62 37 63 46 64 38 65 39 66 45 67
REMARK SMILES IDX 47 68 40 69 41 70 42 71 43 72 44 73 70 74 71 75 80 76 72 77
REMARK SMILES IDX 73 78 79 79 81 80 74 81 75 82 76 83 77 84 78 85 54 86 55 87
REMARK SMILES IDX 64 88 56 89 57 90 63 91 65 92 58 93 59 94 60 95 61 96 62 97
REMARK H PARENT 19 6 6 14 24 28 86 47 52 58
REMARK Flexibility Score: inf
ROOT
ATOM      1  C   UNL A   1      31.934  27.028  26.267  1.00  0.00     0.023 C 
ENDROOT
BRANCH   1   2
ATOM      2  C   UNL A   1      31.990  25.512  26.339  1.00  0.00     0.116 C 
BRANCH   2   3
ATOM      3  N   UNL A   1      31.012  24.927  25.444  1.00  0.00    -0.354 N 
ATOM      4  C   UNL A   1      31.195  24.339  24.232  1.00  0.00     0.242 C 
ATOM      5  O   UNL A   1      30.206  23.912  23.627  1.00  0.00    -0.273 OA
ATOM      6  H   UNL A   1      30.080  24.961  25.758  1.00  0.00     0.163 HD
BRANCH   4   7
ATOM      7  C   UNL A   1      32.583  24.290  23.576  1.00  0.00     0.174 C 
BRANCH   7   8
ATOM      8  C   UNL A   1      33.161  22.847  23.806  1.00  0.00     0.018 C 
ATOM      9  C   UNL A   1      32.623  21.814  22.812  1.00  0.00     0.010 C 
BRANCH   8  10
ATOM     10  C   UNL A   1      34.716  22.802  23.793  1.00  0.00     0.002 C 
ATOM     11  C   UNL A   1      35.321  23.990  24.535  1.00  0.00     0.004 C 
ENDBRANCH   8  10
ENDBRANCH   7   8
BRANCH   7  12
ATOM     12  N   UNL A   1      32.596  24.693  22.145  1.00  0.00    -0.340 N 
ATOM     13  C   UNL A   1      32.775  25.917  21.547  1.00  0.00     0.244 C 
ATOM     14  H   UNL A   1      32.452  23.952  21.513  1.00  0.00     0.164 HD
ATOM     15  O   UNL A   1      33.188  25.967  20.392  1.00  0.00    -0.270 OA
BRANCH  13  16
ATOM     16  C   UNL A   1      32.227  27.132  22.186  1.00  0.00     0.073 C 
ATOM     17  C   UNL A   1      30.916  27.389  22.293  1.00  0.00     0.035 C 
BRANCH  17  18
ATOM     18  C   UNL A   1      30.372  28.693  22.531  1.00  0.00     0.074 A 
ATOM     19  C   UNL A   1      30.386  29.292  23.774  1.00  0.00     0.095 A 
ATOM     20  N   UNL A   1      29.607  29.337  21.571  1.00  0.00    -0.242 NA
ATOM     21  S   UNL A   1      29.452  30.724  23.743  1.00  0.00    -0.127 S 
ATOM     22  C   UNL A   1      29.090  30.438  22.085  1.00  0.00     0.090 A 
ATOM     23  C   UNL A   1      28.216  31.406  21.360  1.00  0.00     0.079 C 
ENDBRANCH  17  18
ENDBRANCH  13  16
ENDBRANCH   7  12
ENDBRANCH   4   7
ENDBRANCH   2   3
ENDBRANCH   1   2
BRANCH   1  24
ATOM     24  C   UNL A   1      32.502  27.703  27.515  1.00  0.00     0.023 C 
BRANCH  24  25
ATOM     25  C   UNL A   1      33.818  28.439  27.279  1.00  0.00     0.116 C 
BRANCH  25  26
ATOM     26  N   UNL A   1      33.717  29.848  27.628  1.00  0.00    -0.352 N 
ATOM     27  C   UNL A   1      34.624  30.640  28.286  1.00  0.00     0.251 C 
ATOM     28  H   UNL A   1      32.882  30.295  27.354  1.00  0.00     0.163 HD
ATOM     29  O   UNL A   1      34.284  31.730  28.729  1.00  0.00    -0.269 OA
BRANCH  27  30
ATOM     30  C   UNL A   1      36.007  30.152  28.464  1.00  0.00     0.039 A 
ATOM     31  C   UNL A   1      36.886  30.203  27.382  1.00  0.00     0.014 A 
ATOM     32  C   UNL A   1      36.434  29.664  29.704  1.00  0.00     0.014 A 
ATOM     33  C   UNL A   1      38.214  29.818  27.563  1.00  0.00     0.010 A 
ATOM     34  C   UNL A   1      37.777  29.363  29.903  1.00  0.00     0.010 A 
ATOM     35  C   UNL A   1      38.680  29.434  28.834  1.00  0.00    -0.014 A 
BRANCH  35  36
ATOM     36  C   UNL A   1      40.115  29.118  29.048  1.00  0.00     0.031 A 
ATOM     37  C   UNL A   1      40.655  27.756  28.703  1.00  0.00     0.074 A 
ATOM     38  C   UNL A   1      40.922  30.054  29.586  1.00  0.00     0.049 A 
ATOM     39  N   UNL A   1      41.875  27.300  28.829  1.00  0.00    -0.248 NA
ATOM     40  C   UNL A   1      39.700  26.771  28.170  1.00  0.00     0.031 C 
ATOM     41  C   UNL A   1      40.498  31.390  30.018  1.00  0.00     0.029 A 
ATOM     42  N   UNL A   1      42.266  30.031  29.862  1.00  0.00    -0.354 N 
ATOM     43  C   UNL A   1      41.835  25.983  28.386  1.00  0.00     0.074 A 
ATOM     44  C   UNL A   1      40.459  25.690  28.052  1.00  0.00     0.031 C 
ATOM     45  C   UNL A   1      41.565  32.067  30.472  1.00  0.00     0.029 A 
ATOM     46  C   UNL A   1      42.740  31.205  30.401  1.00  0.00     0.049 A 
ATOM     47  H   UNL A   1      42.837  29.248  29.690  1.00  0.00     0.167 HD
ATOM     48  C   UNL A   1      42.858  25.107  28.243  1.00  0.00     0.037 A 
ATOM     49  C   UNL A   1      43.981  31.546  30.798  1.00  0.00     0.037 A 
ATOM     50  C   UNL A   1      44.230  25.411  28.564  1.00  0.00     0.049 A 
ATOM     51  C   UNL A   1      45.097  30.549  30.635  1.00  0.00     0.074 A 
ATOM     52  C   UNL A   1      45.346  24.606  28.413  1.00  0.00     0.029 A 
ATOM     53  N   UNL A   1      44.673  26.613  29.097  1.00  0.00    -0.354 N 
ATOM     54  N   UNL A   1      45.051  29.330  30.151  1.00  0.00    -0.248 NA
ATOM     55  C   UNL A   1      46.436  30.976  31.063  1.00  0.00     0.031 C 
ATOM     56  C   UNL A   1      46.456  25.303  28.902  1.00  0.00     0.029 A 
ATOM     57  C   UNL A   1      46.043  26.562  29.303  1.00  0.00     0.049 A 
ATOM     58  H   UNL A   1      44.100  27.387  29.300  1.00  0.00     0.167 HD
ATOM     59  C   UNL A   1      46.358  28.856  30.193  1.00  0.00     0.074 A 
ATOM     60  C   UNL A   1      47.172  29.929  30.724  1.00  0.00     0.031 C 
ATOM     61  C   UNL A   1      46.840  27.640  29.832  1.00  0.00     0.037 A 
BRANCH  48  62
ATOM     62  C   UNL A   1      42.544  23.741  27.696  1.00  0.00     0.058 A 
ATOM     63  C   UNL A   1      42.581  23.476  26.317  1.00  0.00     0.135 A 
ATOM     64  C   UNL A   1      42.275  22.668  28.561  1.00  0.00     0.135 A 
ATOM     65  F   UNL A   1      42.815  24.469  25.444  1.00  0.00    -0.206 F 
ATOM     66  C   UNL A   1      42.352  22.200  25.814  1.00  0.00     0.059 A 
ATOM     67  C   UNL A   1      42.071  21.376  28.081  1.00  0.00     0.059 A 
ATOM     68  F   UNL A   1      42.222  22.864  29.887  1.00  0.00    -0.206 F 
ATOM     69  C   UNL A   1      42.107  21.154  26.705  1.00  0.00     0.060 A 
BRANCH  69  70
ATOM     70  S   UNL A   1      41.857  19.496  26.034  1.00  0.00     0.124 S 
ATOM     71  O   UNL A   1      42.691  19.537  24.837  1.00  0.00    -0.237 OA
ATOM     72  O   UNL A   1      42.343  18.648  27.117  1.00  0.00    -0.237 OA
ATOM     73  O   UNL A   1      40.419  19.440  25.794  1.00  0.00    -0.744 OA
ENDBRANCH  69  70
ENDBRANCH  48  62
BRANCH  49  74
ATOM     74  C   UNL A   1      44.240  32.889  31.386  1.00  0.00     0.058 A 
ATOM     75  C   UNL A   1      44.157  33.108  32.770  1.00  0.00     0.135 A 
ATOM     76  C   UNL A   1      44.551  33.989  30.570  1.00  0.00     0.135 A 
ATOM     77  F   UNL A   1      43.860  32.090  33.592  1.00  0.00    -0.206 F 
ATOM     78  C   UNL A   1      44.335  34.372  33.321  1.00  0.00     0.059 A 
ATOM     79  C   UNL A   1      44.766  35.257  31.101  1.00  0.00     0.059 A 
ATOM     80  F   UNL A   1      44.664  33.833  29.243  1.00  0.00    -0.206 F 
ATOM     81  C   UNL A   1      44.636  35.442  32.477  1.00  0.00     0.060 A 
BRANCH  81  82
ATOM     82  S   UNL A   1      44.878  37.078  33.201  1.00  0.00     0.124 S 
ATOM     83  O   UNL A   1      45.528  36.746  34.464  1.00  0.00    -0.237 OA
ATOM     84  O   UNL A   1      45.717  37.735  32.204  1.00  0.00    -0.237 OA
ATOM     85  O   UNL A   1      43.519  37.601  33.309  1.00  0.00    -0.744 OA
ENDBRANCH  81  82
ENDBRANCH  49  74
BRANCH  61  86
ATOM     86  C   UNL A   1      48.322  27.421  29.975  1.00  0.00     0.058 A 
ATOM     87  C   UNL A   1      48.873  26.820  31.117  1.00  0.00     0.135 A 
ATOM     88  C   UNL A   1      49.200  27.803  28.947  1.00  0.00     0.135 A 
ATOM     89  F   UNL A   1      48.079  26.440  32.131  1.00  0.00    -0.206 F 
ATOM     90  C   UNL A   1      50.246  26.645  31.256  1.00  0.00     0.059 A 
ATOM     91  C   UNL A   1      50.574  27.605  29.050  1.00  0.00     0.059 A 
ATOM     92  F   UNL A   1      48.726  28.368  27.826  1.00  0.00    -0.206 F 
ATOM     93  C   UNL A   1      51.089  27.044  30.217  1.00  0.00     0.060 A 
BRANCH  93  94
ATOM     94  S   UNL A   1      52.868  26.811  30.410  1.00  0.00     0.124 S 
ATOM     95  O   UNL A   1      52.919  25.819  31.479  1.00  0.00    -0.237 OA
ATOM     96  O   UNL A   1      53.266  26.339  29.087  1.00  0.00    -0.237 OA
ATOM     97  O   UNL A   1      53.349  28.142  30.766  1.00  0.00    -0.744 OA
ENDBRANCH  93  94
ENDBRANCH  61  86
ENDBRANCH  35  36
ENDBRANCH  27  30
ENDBRANCH  25  26
ENDBRANCH  24  25
ENDBRANCH   1  24
TORSDOF 19
ENDMDL
MODEL 2
REMARK VINA RESULT:     -10.5      3.575      8.692
REMARK SMILES CC[C@H](C)[C@@H](NC(=O)/C=C/c1csc(C)n1)C(=O)NCCCCNC(=O)c1ccc(-c2c3nc(c(-c4c(F)cc(S(=O)(=O)[O-])cc4F)c4ccc([nH]4)c(-c4c(F)cc(S(=O)(=O)[O-])cc4F)c4nc(c(-c5c(F)cc(S(=O)(=O)[O-])cc5F)c5ccc2[nH]5)C=C4)C=C3)cc1
REMARK SMILES IDX 21 1 20 2 19 3 17 4 18 5 5 7 3 8 4 9 2 10 1 11 6 12 7 13
REMARK SMILES IDX 8 15 9 16 10 17 11 18 12 19 16 20 13 21 14 22 15 23 22 24
REMARK SMILES IDX 23 25 24 26 25 27 26 29 27 30 28 31 92 32 29 33 91 34 30 35
REMARK SMILES IDX 31 36 32 37 85 38 33 39 90 40 84 41 86 42 34 43 89 44 83 45
REMARK SMILES IDX 82 46 35 48 69 49 48 50 68 51 49 52 52 53 67 54 87 55 50 56
REMARK SMILES IDX 51 57 66 59 88 60 53 61 36 62 37 63 46 64 38 65 39 66 45 67
REMARK SMILES IDX 47 68 40 69 41 70 42 71 43 72 44 73 70 74 71 75 80 76 72 77
REMARK SMILES IDX 73 78 79 79 81 80 74 81 75 82 76 83 77 84 78 85 54 86 55 87
REMARK SMILES IDX 64 88 56 89 57 90 63 91 65 92 58 93 59 94 60 95 61 96 62 97
REMARK H PARENT 19 6 6 14 24 28 86 47 52 58
REMARK Flexibility Score: inf
ROOT
ATOM      1  C   UNL A   1      37.226  21.335  24.600  1.00  0.00     0.023 C 
ENDROOT
BRANCH   1   2
ATOM      2  C   UNL A   1      36.375  21.823  25.760  1.00  0.00     0.116 C 
BRANCH   2   3
ATOM      3  N   UNL A   1      36.094  23.237  25.622  1.00  0.00    -0.354 N 
ATOM      4  C   UNL A   1      34.900  23.870  25.481  1.00  0.00     0.242 C 
ATOM      5  O   UNL A   1      34.892  25.100  25.367  1.00  0.00    -0.273 OA
ATOM      6  H   UNL A   1      36.883  23.826  25.631  1.00  0.00     0.163 HD
BRANCH   4   7
ATOM      7  C   UNL A   1      33.590  23.074  25.366  1.00  0.00     0.174 C 
BRANCH   7   8
ATOM      8  C   UNL A   1      32.478  23.888  26.121  1.00  0.00     0.018 C 
ATOM      9  C   UNL A   1      31.525  24.628  25.178  1.00  0.00     0.010 C 
BRANCH   8  10
ATOM     10  C   UNL A   1      31.644  23.018  27.105  1.00  0.00     0.002 C 
ATOM     11  C   UNL A   1      30.257  22.711  26.550  1.00  0.00     0.004 C 
ENDBRANCH   8  10
ENDBRANCH   7   8
BRANCH   7  12
ATOM     12  N   UNL A   1      33.205  22.732  23.971  1.00  0.00    -0.340 N 
ATOM     13  C   UNL A   1      32.424  21.721  23.467  1.00  0.00     0.244 C 
ATOM     14  H   UNL A   1      33.575  23.337  23.288  1.00  0.00     0.164 HD
ATOM     15  O   UNL A   1      31.878  21.870  22.377  1.00  0.00    -0.270 OA
BRANCH  13  16
ATOM     16  C   UNL A   1      32.459  20.384  24.095  1.00  0.00     0.073 C 
ATOM     17  C   UNL A   1      33.554  19.855  24.658  1.00  0.00     0.035 C 
BRANCH  17  18
ATOM     18  C   UNL A   1      33.731  18.454  24.906  1.00  0.00     0.074 A 
ATOM     19  C   UNL A   1      34.829  17.749  24.459  1.00  0.00     0.095 A 
ATOM     20  N   UNL A   1      32.702  17.683  25.425  1.00  0.00    -0.242 NA
ATOM     21  S   UNL A   1      34.599  16.076  24.726  1.00  0.00    -0.127 S 
ATOM     22  C   UNL A   1      33.053  16.410  25.406  1.00  0.00     0.090 A 
ATOM     23  C   UNL A   1      32.217  15.274  25.890  1.00  0.00     0.079 C 
ENDBRANCH  17  18
ENDBRANCH  13  16
ENDBRANCH   7  12
ENDBRANCH   4   7
ENDBRANCH   2   3
ENDBRANCH   1   2
BRANCH   1  24
ATOM     24  C   UNL A   1      38.146  20.176  24.984  1.00  0.00     0.023 C 
BRANCH  24  25
ATOM     25  C   UNL A   1      39.339  20.588  25.841  1.00  0.00     0.116 C 
BRANCH  25  26
ATOM     26  N   UNL A   1      40.264  19.482  26.042  1.00  0.00    -0.352 N 
ATOM     27  C   UNL A   1      41.627  19.517  26.201  1.00  0.00     0.251 C 
ATOM     28  H   UNL A   1      39.856  18.586  26.066  1.00  0.00     0.163 HD
ATOM     29  O   UNL A   1      42.286  18.490  26.100  1.00  0.00    -0.269 OA
BRANCH  27  30
ATOM     30  C   UNL A   1      42.285  20.810  26.479  1.00  0.00     0.039 A 
ATOM     31  C   UNL A   1      42.645  21.628  25.409  1.00  0.00     0.014 A 
ATOM     32  C   UNL A   1      42.527  21.215  27.796  1.00  0.00     0.014 A 
ATOM     33  C   UNL A   1      43.195  22.884  25.665  1.00  0.00     0.010 A 
ATOM     34  C   UNL A   1      42.995  22.501  28.049  1.00  0.00     0.010 A 
ATOM     35  C   UNL A   1      43.337  23.346  26.985  1.00  0.00    -0.014 A 
BRANCH  35  36
ATOM     36  C   UNL A   1      43.831  24.721  27.256  1.00  0.00     0.031 A 
ATOM     37  C   UNL A   1      45.290  25.052  27.089  1.00  0.00     0.074 A 
ATOM     38  C   UNL A   1      42.964  25.660  27.684  1.00  0.00     0.049 A 
ATOM     39  N   UNL A   1      45.901  26.192  27.286  1.00  0.00    -0.248 NA
ATOM     40  C   UNL A   1      46.182  23.960  26.669  1.00  0.00     0.031 C 
ATOM     41  C   UNL A   1      41.537  25.439  27.942  1.00  0.00     0.029 A 
ATOM     42  N   UNL A   1      43.150  26.987  27.978  1.00  0.00    -0.354 N 
ATOM     43  C   UNL A   1      47.243  25.956  27.009  1.00  0.00     0.074 A 
ATOM     44  C   UNL A   1      47.369  24.550  26.696  1.00  0.00     0.031 C 
ATOM     45  C   UNL A   1      40.974  26.597  28.322  1.00  0.00     0.029 A 
ATOM     46  C   UNL A   1      42.001  27.632  28.374  1.00  0.00     0.049 A 
ATOM     47  H   UNL A   1      44.024  27.436  27.911  1.00  0.00     0.167 HD
ATOM     48  C   UNL A   1      48.270  26.838  26.989  1.00  0.00     0.037 A 
ATOM     49  C   UNL A   1      41.799  28.912  28.742  1.00  0.00     0.037 A 
ATOM     50  C   UNL A   1      48.133  28.241  27.287  1.00  0.00     0.049 A 
ATOM     51  C   UNL A   1      42.962  29.868  28.718  1.00  0.00     0.074 A 
ATOM     52  C   UNL A   1      49.106  29.226  27.252  1.00  0.00     0.029 A 
ATOM     53  N   UNL A   1      46.953  28.860  27.673  1.00  0.00    -0.354 N 
ATOM     54  N   UNL A   1      44.211  29.640  28.387  1.00  0.00    -0.248 NA
ATOM     55  C   UNL A   1      42.686  31.257  29.106  1.00  0.00     0.031 C 
ATOM     56  C   UNL A   1      48.525  30.429  27.665  1.00  0.00     0.029 A 
ATOM     57  C   UNL A   1      47.179  30.208  27.901  1.00  0.00     0.049 A 
ATOM     58  H   UNL A   1      46.084  28.408  27.771  1.00  0.00     0.167 HD
ATOM     59  C   UNL A   1      44.864  30.863  28.504  1.00  0.00     0.074 A 
ATOM     60  C   UNL A   1      43.864  31.829  28.909  1.00  0.00     0.031 C 
ATOM     61  C   UNL A   1      46.172  31.158  28.303  1.00  0.00     0.037 A 
BRANCH  48  62
ATOM     62  C   UNL A   1      49.633  26.323  26.611  1.00  0.00     0.058 A 
ATOM     63  C   UNL A   1      50.072  26.321  25.277  1.00  0.00     0.135 A 
ATOM     64  C   UNL A   1      50.536  25.896  27.597  1.00  0.00     0.135 A 
ATOM     65  F   UNL A   1      49.244  26.701  24.291  1.00  0.00    -0.206 F 
ATOM     66  C   UNL A   1      51.354  25.903  24.933  1.00  0.00     0.059 A 
ATOM     67  C   UNL A   1      51.833  25.501  27.279  1.00  0.00     0.059 A 
ATOM     68  F   UNL A   1      50.167  25.872  28.888  1.00  0.00    -0.206 F 
ATOM     69  C   UNL A   1      52.230  25.504  25.943  1.00  0.00     0.060 A 
BRANCH  69  70
ATOM     70  S   UNL A   1      53.904  25.009  25.480  1.00  0.00     0.124 S 
ATOM     71  O   UNL A   1      54.522  24.810  26.787  1.00  0.00    -0.237 OA
ATOM     72  O   UNL A   1      53.665  23.799  24.700  1.00  0.00    -0.237 OA
ATOM     73  O   UNL A   1      54.399  26.153  24.721  1.00  0.00    -0.744 OA
ENDBRANCH  69  70
ENDBRANCH  48  62
BRANCH  49  74
ATOM     74  C   UNL A   1      40.446  29.369  29.161  1.00  0.00     0.058 A 
ATOM     75  C   UNL A   1      39.423  29.578  28.223  1.00  0.00     0.135 A 
ATOM     76  C   UNL A   1      40.155  29.631  30.510  1.00  0.00     0.135 A 
ATOM     77  F   UNL A   1      39.651  29.344  26.921  1.00  0.00    -0.206 F 
ATOM     78  C   UNL A   1      38.176  30.064  28.598  1.00  0.00     0.059 A 
ATOM     79  C   UNL A   1      38.905  30.088  30.914  1.00  0.00     0.059 A 
ATOM     80  F   UNL A   1      41.089  29.428  31.452  1.00  0.00    -0.206 F 
ATOM     81  C   UNL A   1      37.928  30.320  29.948  1.00  0.00     0.060 A 
BRANCH  81  82
ATOM     82  S   UNL A   1      36.302  30.941  30.429  1.00  0.00     0.124 S 
ATOM     83  O   UNL A   1      35.586  30.900  29.159  1.00  0.00    -0.237 OA
ATOM     84  O   UNL A   1      35.885  29.966  31.431  1.00  0.00    -0.237 OA
ATOM     85  O   UNL A   1      36.593  32.275  30.946  1.00  0.00    -0.744 OA
ENDBRANCH  81  82
ENDBRANCH  49  74
BRANCH  61  86
ATOM     86  C   UNL A   1      46.587  32.593  28.490  1.00  0.00     0.058 A 
ATOM     87  C   UNL A   1      46.528  33.522  27.439  1.00  0.00     0.135 A 
ATOM     88  C   UNL A   1      47.033  33.048  29.742  1.00  0.00     0.135 A 
ATOM     89  F   UNL A   1      46.114  33.139  26.222  1.00  0.00    -0.206 F 
ATOM     90  C   UNL A   1      46.940  34.839  27.610  1.00  0.00     0.059 A 
ATOM     91  C   UNL A   1      47.416  34.370  29.945  1.00  0.00     0.059 A 
ATOM     92  F   UNL A   1      47.094  32.206  30.787  1.00  0.00    -0.206 F 
ATOM     93  C   UNL A   1      47.385  35.253  28.867  1.00  0.00     0.060 A 
BRANCH  93  94
ATOM     94  S   UNL A   1      47.915  36.966  29.075  1.00  0.00     0.124 S 
ATOM     95  O   UNL A   1      46.728  37.568  29.676  1.00  0.00    -0.237 OA
ATOM     96  O   UNL A   1      49.071  36.830  29.954  1.00  0.00    -0.237 OA
ATOM     97  O   UNL A   1      48.215  37.397  27.713  1.00  0.00    -0.744 OA
ENDBRANCH  93  94
ENDBRANCH  61  86
ENDBRANCH  35  36
ENDBRANCH  27  30
ENDBRANCH  25  26
ENDBRANCH  24  25
ENDBRANCH   1  24
TORSDOF 19
ENDMDL
MODEL 3
REMARK VINA RESULT:     -10.5      3.055      4.654
REMARK SMILES CC[C@H](C)[C@@H](NC(=O)/C=C/c1csc(C)n1)C(=O)NCCCCNC(=O)c1ccc(-c2c3nc(c(-c4c(F)cc(S(=O)(=O)[O-])cc4F)c4ccc([nH]4)c(-c4c(F)cc(S(=O)(=O)[O-])cc4F)c4nc(c(-c5c(F)cc(S(=O)(=O)[O-])cc5F)c5ccc2[nH]5)C=C4)C=C3)cc1
REMARK SMILES IDX 21 1 20 2 19 3 17 4 18 5 5 7 3 8 4 9 2 10 1 11 6 12 7 13
REMARK SMILES IDX 8 15 9 16 10 17 11 18 12 19 16 20 13 21 14 22 15 23 22 24
REMARK SMILES IDX 23 25 24 26 25 27 26 29 27 30 28 31 92 32 29 33 91 34 30 35
REMARK SMILES IDX 31 36 32 37 85 38 33 39 90 40 84 41 86 42 34 43 89 44 83 45
REMARK SMILES IDX 82 46 35 48 69 49 48 50 68 51 49 52 52 53 67 54 87 55 50 56
REMARK SMILES IDX 51 57 66 59 88 60 53 61 36 62 37 63 46 64 38 65 39 66 45 67
REMARK SMILES IDX 47 68 40 69 41 70 42 71 43 72 44 73 70 74 71 75 80 76 72 77
REMARK SMILES IDX 73 78 79 79 81 80 74 81 75 82 76 83 77 84 78 85 54 86 55 87
REMARK SMILES IDX 64 88 56 89 57 90 63 91 65 92 58 93 59 94 60 95 61 96 62 97
REMARK H PARENT 19 6 6 14 24 28 86 47 52 58
REMARK Flexibility Score: inf
ROOT
ATOM      1  C   UNL A   1      34.424  28.918  27.470  1.00  0.00     0.023 C 
ENDROOT
BRANCH   1   2
ATOM      2  C   UNL A   1      33.792  28.192  26.295  1.00  0.00     0.116 C 
BRANCH   2   3
ATOM      3  N   UNL A   1      33.939  28.970  25.081  1.00  0.00    -0.354 N 
ATOM      4  C   UNL A   1      33.521  28.687  23.819  1.00  0.00     0.242 C 
ATOM      5  O   UNL A   1      33.764  29.497  22.920  1.00  0.00    -0.273 OA
ATOM      6  H   UNL A   1      34.410  29.828  25.185  1.00  0.00     0.163 HD
BRANCH   4   7
ATOM      7  C   UNL A   1      32.847  27.346  23.489  1.00  0.00     0.174 C 
BRANCH   7   8
ATOM      8  C   UNL A   1      31.298  27.540  23.676  1.00  0.00     0.018 C 
ATOM      9  C   UNL A   1      30.584  27.975  22.394  1.00  0.00     0.010 C 
BRANCH   8  10
ATOM     10  C   UNL A   1      30.589  26.279  24.249  1.00  0.00     0.002 C 
ATOM     11  C   UNL A   1      31.206  25.838  25.573  1.00  0.00     0.004 C 
ENDBRANCH   8  10
ENDBRANCH   7   8
BRANCH   7  12
ATOM     12  N   UNL A   1      33.200  26.797  22.153  1.00  0.00    -0.340 N 
ATOM     13  C   UNL A   1      33.071  25.536  21.626  1.00  0.00     0.244 C 
ATOM     14  H   UNL A   1      33.596  27.455  21.537  1.00  0.00     0.164 HD
ATOM     15  O   UNL A   1      33.003  25.397  20.408  1.00  0.00    -0.270 OA
BRANCH  13  16
ATOM     16  C   UNL A   1      33.284  24.355  22.490  1.00  0.00     0.073 C 
ATOM     17  C   UNL A   1      34.367  24.181  23.258  1.00  0.00     0.035 C 
BRANCH  17  18
ATOM     18  C   UNL A   1      34.785  22.912  23.779  1.00  0.00     0.074 A 
ATOM     19  C   UNL A   1      33.909  22.017  24.357  1.00  0.00     0.095 A 
ATOM     20  N   UNL A   1      36.129  22.606  23.925  1.00  0.00    -0.242 NA
ATOM     21  S   UNL A   1      34.777  20.729  25.073  1.00  0.00    -0.127 S 
ATOM     22  C   UNL A   1      36.252  21.460  24.571  1.00  0.00     0.090 A 
ATOM     23  C   UNL A   1      37.541  20.791  24.911  1.00  0.00     0.079 C 
ENDBRANCH  17  18
ENDBRANCH  13  16
ENDBRANCH   7  12
ENDBRANCH   4   7
ENDBRANCH   2   3
ENDBRANCH   1   2
BRANCH   1  24
ATOM     24  C   UNL A   1      34.567  30.421  27.232  1.00  0.00     0.023 C 
BRANCH  24  25
ATOM     25  C   UNL A   1      35.679  31.076  28.047  1.00  0.00     0.116 C 
BRANCH  25  26
ATOM     26  N   UNL A   1      35.563  30.761  29.464  1.00  0.00    -0.352 N 
ATOM     27  C   UNL A   1      36.467  30.132  30.282  1.00  0.00     0.251 C 
ATOM     28  H   UNL A   1      34.721  31.039  29.893  1.00  0.00     0.163 HD
ATOM     29  O   UNL A   1      36.117  29.713  31.379  1.00  0.00    -0.269 OA
BRANCH  27  30
ATOM     30  C   UNL A   1      37.857  29.953  29.816  1.00  0.00     0.039 A 
ATOM     31  C   UNL A   1      38.887  29.929  30.756  1.00  0.00     0.014 A 
ATOM     32  C   UNL A   1      38.134  29.792  28.454  1.00  0.00     0.014 A 
ATOM     33  C   UNL A   1      40.192  29.681  30.333  1.00  0.00     0.010 A 
ATOM     34  C   UNL A   1      39.422  29.461  28.046  1.00  0.00     0.010 A 
ATOM     35  C   UNL A   1      40.464  29.407  28.980  1.00  0.00    -0.014 A 
BRANCH  35  36
ATOM     36  C   UNL A   1      41.838  29.048  28.544  1.00  0.00     0.031 A 
ATOM     37  C   UNL A   1      42.165  27.634  28.144  1.00  0.00     0.074 A 
ATOM     38  C   UNL A   1      42.796  29.995  28.542  1.00  0.00     0.049 A 
ATOM     39  N   UNL A   1      43.307  27.137  27.744  1.00  0.00    -0.248 NA
ATOM     40  C   UNL A   1      41.077  26.646  28.223  1.00  0.00     0.031 C 
ATOM     41  C   UNL A   1      42.613  31.386  28.969  1.00  0.00     0.029 A 
ATOM     42  N   UNL A   1      44.116  29.937  28.169  1.00  0.00    -0.354 N 
ATOM     43  C   UNL A   1      43.075  25.785  27.519  1.00  0.00     0.074 A 
ATOM     44  C   UNL A   1      41.702  25.524  27.890  1.00  0.00     0.031 C 
ATOM     45  C   UNL A   1      43.765  32.055  28.802  1.00  0.00     0.029 A 
ATOM     46  C   UNL A   1      44.779  31.137  28.295  1.00  0.00     0.049 A 
ATOM     47  H   UNL A   1      44.547  29.115  27.842  1.00  0.00     0.167 HD
ATOM     48  C   UNL A   1      43.920  24.853  27.020  1.00  0.00     0.037 A 
ATOM     49  C   UNL A   1      46.061  31.458  28.036  1.00  0.00     0.037 A 
ATOM     50  C   UNL A   1      45.283  25.123  26.637  1.00  0.00     0.049 A 
ATOM     51  C   UNL A   1      46.981  30.399  27.490  1.00  0.00     0.074 A 
ATOM     52  C   UNL A   1      46.208  24.256  26.081  1.00  0.00     0.029 A 
ATOM     53  N   UNL A   1      45.916  26.351  26.769  1.00  0.00    -0.354 N 
ATOM     54  N   UNL A   1      46.723  29.141  27.220  1.00  0.00    -0.248 NA
ATOM     55  C   UNL A   1      48.363  30.804  27.202  1.00  0.00     0.031 C 
ATOM     56  C   UNL A   1      47.414  24.946  25.923  1.00  0.00     0.029 A 
ATOM     57  C   UNL A   1      47.226  26.257  26.325  1.00  0.00     0.049 A 
ATOM     58  H   UNL A   1      45.497  27.167  27.125  1.00  0.00     0.167 HD
ATOM     59  C   UNL A   1      47.903  28.612  26.708  1.00  0.00     0.074 A 
ATOM     60  C   UNL A   1      48.865  29.695  26.682  1.00  0.00     0.031 C 
ATOM     61  C   UNL A   1      48.171  27.346  26.305  1.00  0.00     0.037 A 
BRANCH  48  62
ATOM     62  C   UNL A   1      43.397  23.454  26.834  1.00  0.00     0.058 A 
ATOM     63  C   UNL A   1      43.172  22.918  25.556  1.00  0.00     0.135 A 
ATOM     64  C   UNL A   1      43.186  22.616  27.941  1.00  0.00     0.135 A 
ATOM     65  F   UNL A   1      43.339  23.680  24.464  1.00  0.00    -0.206 F 
ATOM     66  C   UNL A   1      42.747  21.605  25.381  1.00  0.00     0.059 A 
ATOM     67  C   UNL A   1      42.789  21.289  27.789  1.00  0.00     0.059 A 
ATOM     68  F   UNL A   1      43.380  23.077  29.187  1.00  0.00    -0.206 F 
ATOM     69  C   UNL A   1      42.567  20.796  26.504  1.00  0.00     0.060 A 
BRANCH  69  70
ATOM     70  S   UNL A   1      42.059  19.081  26.253  1.00  0.00     0.124 S 
ATOM     71  O   UNL A   1      42.354  18.495  27.556  1.00  0.00    -0.237 OA
ATOM     72  O   UNL A   1      40.644  19.222  25.926  1.00  0.00    -0.237 OA
ATOM     73  O   UNL A   1      42.912  18.631  25.157  1.00  0.00    -0.744 OA
ENDBRANCH  69  70
ENDBRANCH  48  62
BRANCH  49  74
ATOM     74  C   UNL A   1      46.554  32.840  28.284  1.00  0.00     0.058 A 
ATOM     75  C   UNL A   1      46.515  33.820  27.280  1.00  0.00     0.135 A 
ATOM     76  C   UNL A   1      47.099  33.204  29.526  1.00  0.00     0.135 A 
ATOM     77  F   UNL A   1      46.006  33.523  26.074  1.00  0.00    -0.206 F 
ATOM     78  C   UNL A   1      47.031  35.095  27.482  1.00  0.00     0.059 A 
ATOM     79  C   UNL A   1      47.592  34.483  29.764  1.00  0.00     0.059 A 
ATOM     80  F   UNL A   1      47.142  32.313  30.529  1.00  0.00    -0.206 F 
ATOM     81  C   UNL A   1      47.572  35.416  28.729  1.00  0.00     0.060 A 
BRANCH  81  82
ATOM     82  S   UNL A   1      48.229  37.077  28.988  1.00  0.00     0.124 S 
ATOM     83  O   UNL A   1      49.660  36.856  28.812  1.00  0.00    -0.237 OA
ATOM     84  O   UNL A   1      47.565  37.838  27.935  1.00  0.00    -0.237 OA
ATOM     85  O   UNL A   1      47.803  37.397  30.347  1.00  0.00    -0.744 OA
ENDBRANCH  81  82
ENDBRANCH  49  74
BRANCH  61  86
ATOM     86  C   UNL A   1      49.552  27.073  25.772  1.00  0.00     0.058 A 
ATOM     87  C   UNL A   1      50.599  26.659  26.612  1.00  0.00     0.135 A 
ATOM     88  C   UNL A   1      49.828  27.212  24.402  1.00  0.00     0.135 A 
ATOM     89  F   UNL A   1      50.391  26.515  27.930  1.00  0.00    -0.206 F 
ATOM     90  C   UNL A   1      51.880  26.436  26.119  1.00  0.00     0.059 A 
ATOM     91  C   UNL A   1      51.093  26.960  23.882  1.00  0.00     0.059 A 
ATOM     92  F   UNL A   1      48.860  27.591  23.551  1.00  0.00    -0.206 F 
ATOM     93  C   UNL A   1      52.118  26.593  24.753  1.00  0.00     0.060 A 
BRANCH  93  94
ATOM     94  S   UNL A   1      53.786  26.299  24.127  1.00  0.00     0.124 S 
ATOM     95  O   UNL A   1      54.181  25.120  24.891  1.00  0.00    -0.237 OA
ATOM     96  O   UNL A   1      53.551  26.082  22.703  1.00  0.00    -0.237 OA
ATOM     97  O   UNL A   1      54.496  27.529  24.460  1.00  0.00    -0.744 OA
ENDBRANCH  93  94
ENDBRANCH  61  86
ENDBRANCH  35  36
ENDBRANCH  27  30
ENDBRANCH  25  26
ENDBRANCH  24  25
ENDBRANCH   1  24
TORSDOF 19
ENDMDL
