MODEL 1
REMARK VINA RESULT:     -13.1      0.000      0.000
REMARK SMILES O=C(NCCCCNC(=O)c1cnccc1C(=O)N1CCC(Cc2ccccc2)CC1)c1ccc(-c2c3nc(c(-c4c(F)cc(S(=O)(=O)[O-])cc4F)c4ccc([nH]4)c(-c4c(F)cc(S(=O)(=O)[O-])cc4F)c4nc(c(-c5c(F)cc(S(=O)(=O)[O-])cc5F)c5ccc2[nH]5)C=C4)C=C3)cc1
REMARK SMILES IDX 5 1 4 2 3 3 1 4 2 5 32 7 33 8 97 9 34 10 96 11 35 12 36 13
REMARK SMILES IDX 37 14 90 15 38 16 95 17 89 18 91 19 39 20 94 21 88 22 87 23
REMARK SMILES IDX 40 25 74 26 53 27 73 28 54 29 57 30 72 31 92 32 55 33 56 34
REMARK SMILES IDX 71 36 93 37 58 38 41 39 42 40 51 41 43 42 44 43 50 44 52 45
REMARK SMILES IDX 45 46 46 47 47 48 48 49 49 50 75 51 76 52 85 53 77 54 78 55
REMARK SMILES IDX 84 56 86 57 79 58 80 59 81 60 82 61 83 62 59 63 60 64 69 65
REMARK SMILES IDX 61 66 62 67 68 68 70 69 63 70 64 71 65 72 66 73 67 74 6 75
REMARK SMILES IDX 7 76 8 77 9 78 10 80 11 81 12 82 16 83 13 84 15 85 14 86
REMARK SMILES IDX 17 87 18 88 19 89 20 90 31 91 21 92 30 93 22 94 23 95 24 96
REMARK SMILES IDX 25 97 29 98 26 99 28 100 27 101
REMARK H PARENT 3 6 91 24 57 35 8 79
REMARK Flexibility Score: inf
ROOT
ATOM      1  C   UNL A   1      34.690  30.454  27.693  1.00  0.00     0.023 C 
ENDROOT
BRANCH   1   2
ATOM      2  C   UNL A   1      35.718  31.219  28.517  1.00  0.00     0.116 C 
BRANCH   2   3
ATOM      3  N   UNL A   1      35.640  30.953  29.943  1.00  0.00    -0.352 N 
ATOM      4  O   UNL A   1      36.263  30.036  31.913  1.00  0.00    -0.269 OA
ATOM      5  C   UNL A   1      36.538  30.279  30.745  1.00  0.00     0.251 C 
ATOM      6  H   UNL A   1      34.839  31.300  30.398  1.00  0.00     0.163 HD
BRANCH   5   7
ATOM      7  C   UNL A   1      37.821  29.819  30.168  1.00  0.00     0.039 A 
ATOM      8  C   UNL A   1      38.800  29.248  30.984  1.00  0.00     0.014 A 
ATOM      9  C   UNL A   1      38.058  29.992  28.802  1.00  0.00     0.014 A 
ATOM     10  C   UNL A   1      40.067  29.000  30.464  1.00  0.00     0.010 A 
ATOM     11  C   UNL A   1      39.309  29.666  28.264  1.00  0.00     0.010 A 
ATOM     12  C   UNL A   1      40.338  29.204  29.099  1.00  0.00    -0.014 A 
BRANCH  12  13
ATOM     13  C   UNL A   1      41.693  28.881  28.577  1.00  0.00     0.031 A 
ATOM     14  C   UNL A   1      42.794  29.909  28.548  1.00  0.00     0.074 A 
ATOM     15  C   UNL A   1      41.942  27.617  28.180  1.00  0.00     0.049 A 
ATOM     16  N   UNL A   1      44.044  29.763  28.190  1.00  0.00    -0.248 NA
ATOM     17  C   UNL A   1      42.449  31.277  28.967  1.00  0.00     0.031 C 
ATOM     18  C   UNL A   1      40.948  26.541  28.130  1.00  0.00     0.029 A 
ATOM     19  N   UNL A   1      43.102  27.015  27.770  1.00  0.00    -0.354 N 
ATOM     20  C   UNL A   1      44.635  31.014  28.330  1.00  0.00     0.074 A 
ATOM     21  C   UNL A   1      43.598  31.916  28.781  1.00  0.00     0.031 C 
ATOM     22  C   UNL A   1      41.551  25.401  27.764  1.00  0.00     0.029 A 
ATOM     23  C   UNL A   1      42.961  25.673  27.507  1.00  0.00     0.049 A 
ATOM     24  H   UNL A   1      43.956  27.496  27.674  1.00  0.00     0.167 HD
ATOM     25  C   UNL A   1      45.925  31.373  28.112  1.00  0.00     0.037 A 
ATOM     26  C   UNL A   1      43.863  24.761  27.099  1.00  0.00     0.037 A 
ATOM     27  C   UNL A   1      46.959  30.468  27.674  1.00  0.00     0.049 A 
ATOM     28  C   UNL A   1      45.288  25.181  26.888  1.00  0.00     0.074 A 
ATOM     29  C   UNL A   1      48.297  30.737  27.436  1.00  0.00     0.029 A 
ATOM     30  N   UNL A   1      46.774  29.118  27.410  1.00  0.00    -0.354 N 
ATOM     31  N   UNL A   1      45.827  26.367  27.042  1.00  0.00    -0.248 NA
ATOM     32  C   UNL A   1      46.226  24.142  26.446  1.00  0.00     0.031 C 
ATOM     33  C   UNL A   1      48.915  29.558  27.005  1.00  0.00     0.029 A 
ATOM     34  C   UNL A   1      47.970  28.545  27.008  1.00  0.00     0.049 A 
ATOM     35  H   UNL A   1      45.919  28.638  27.497  1.00  0.00     0.167 HD
ATOM     36  C   UNL A   1      47.167  26.218  26.712  1.00  0.00     0.074 A 
ATOM     37  C   UNL A   1      47.365  24.819  26.386  1.00  0.00     0.031 C 
ATOM     38  C   UNL A   1      48.146  27.155  26.672  1.00  0.00     0.037 A 
BRANCH  25  39
ATOM     39  C   UNL A   1      46.305  32.809  28.347  1.00  0.00     0.058 A 
ATOM     40  C   UNL A   1      46.200  33.770  27.329  1.00  0.00     0.135 A 
ATOM     41  C   UNL A   1      46.706  33.246  29.619  1.00  0.00     0.135 A 
ATOM     42  F   UNL A   1      45.834  33.403  26.089  1.00  0.00    -0.206 F 
ATOM     43  C   UNL A   1      46.488  35.111  27.561  1.00  0.00     0.059 A 
ATOM     44  C   UNL A   1      46.981  34.587  29.879  1.00  0.00     0.059 A 
ATOM     45  F   UNL A   1      46.822  32.369  30.629  1.00  0.00    -0.206 F 
ATOM     46  C   UNL A   1      46.876  35.510  28.840  1.00  0.00     0.060 A 
BRANCH  46  47
ATOM     47  S   UNL A   1      47.221  37.259  29.132  1.00  0.00     0.124 S 
ATOM     48  O   UNL A   1      47.208  37.788  27.771  1.00  0.00    -0.237 OA
ATOM     49  O   UNL A   1      46.102  37.663  29.978  1.00  0.00    -0.237 OA
ATOM     50  O   UNL A   1      48.525  37.245  29.787  1.00  0.00    -0.744 OA
ENDBRANCH  46  47
ENDBRANCH  25  39
BRANCH  26  51
ATOM     51  C   UNL A   1      43.433  23.360  26.854  1.00  0.00     0.058 A 
ATOM     52  C   UNL A   1      43.303  22.857  25.553  1.00  0.00     0.135 A 
ATOM     53  C   UNL A   1      43.163  22.494  27.925  1.00  0.00     0.135 A 
ATOM     54  F   UNL A   1      43.548  23.650  24.499  1.00  0.00    -0.206 F 
ATOM     55  C   UNL A   1      42.903  21.546  25.318  1.00  0.00     0.059 A 
ATOM     56  C   UNL A   1      42.787  21.172  27.717  1.00  0.00     0.059 A 
ATOM     57  F   UNL A   1      43.297  22.925  29.189  1.00  0.00    -0.206 F 
ATOM     58  C   UNL A   1      42.646  20.711  26.408  1.00  0.00     0.060 A 
BRANCH  58  59
ATOM     59  S   UNL A   1      42.171  18.995  26.105  1.00  0.00     0.124 S 
ATOM     60  O   UNL A   1      43.069  18.633  25.015  1.00  0.00    -0.237 OA
ATOM     61  O   UNL A   1      42.441  18.365  27.393  1.00  0.00    -0.237 OA
ATOM     62  O   UNL A   1      40.758  19.102  25.754  1.00  0.00    -0.744 OA
ENDBRANCH  58  59
ENDBRANCH  26  51
BRANCH  38  63
ATOM     63  C   UNL A   1      49.511  26.688  26.256  1.00  0.00     0.058 A 
ATOM     64  C   UNL A   1      50.393  26.099  27.175  1.00  0.00     0.135 A 
ATOM     65  C   UNL A   1      49.943  26.831  24.928  1.00  0.00     0.135 A 
ATOM     66  F   UNL A   1      50.028  25.946  28.457  1.00  0.00    -0.206 F 
ATOM     67  C   UNL A   1      51.672  25.701  26.801  1.00  0.00     0.059 A 
ATOM     68  C   UNL A   1      51.210  26.420  24.527  1.00  0.00     0.059 A 
ATOM     69  F   UNL A   1      49.133  27.380  24.008  1.00  0.00    -0.206 F 
ATOM     70  C   UNL A   1      52.074  25.874  25.476  1.00  0.00     0.060 A 
BRANCH  70  71
ATOM     71  S   UNL A   1      53.738  25.362  24.999  1.00  0.00     0.124 S 
ATOM     72  O   UNL A   1      54.544  25.966  26.055  1.00  0.00    -0.237 OA
ATOM     73  O   UNL A   1      53.643  23.906  25.029  1.00  0.00    -0.237 OA
ATOM     74  O   UNL A   1      53.903  25.945  23.670  1.00  0.00    -0.744 OA
ENDBRANCH  70  71
ENDBRANCH  38  63
ENDBRANCH  12  13
ENDBRANCH   5   7
ENDBRANCH   2   3
ENDBRANCH   1   2
BRANCH   1  75
ATOM     75  C   UNL A   1      35.219  29.293  26.849  1.00  0.00     0.023 C 
BRANCH  75  76
ATOM     76  C   UNL A   1      34.189  28.257  26.407  1.00  0.00     0.116 C 
BRANCH  76  77
ATOM     77  N   UNL A   1      33.088  28.104  27.342  1.00  0.00    -0.352 N 
ATOM     78  C   UNL A   1      31.756  27.928  27.087  1.00  0.00     0.253 C 
ATOM     79  H   UNL A   1      33.337  28.129  28.295  1.00  0.00     0.163 HD
ATOM     80  O   UNL A   1      30.950  27.841  28.010  1.00  0.00    -0.269 OA
BRANCH  78  81
ATOM     81  C   UNL A   1      31.242  27.897  25.718  1.00  0.00     0.070 A 
ATOM     82  C   UNL A   1      31.404  29.067  24.985  1.00  0.00     0.125 A 
ATOM     83  C   UNL A   1      30.630  26.811  25.095  1.00  0.00     0.055 A 
ATOM     84  N   UNL A   1      31.067  29.198  23.679  1.00  0.00    -0.264 NA
ATOM     85  C   UNL A   1      30.289  26.920  23.739  1.00  0.00     0.035 A 
ATOM     86  C   UNL A   1      30.531  28.114  23.082  1.00  0.00     0.112 A 
BRANCH  83  87
ATOM     87  C   UNL A   1      30.551  25.460  25.684  1.00  0.00     0.254 C 
ATOM     88  O   UNL A   1      29.644  25.311  26.508  1.00  0.00    -0.269 OA
ATOM     89  N   UNL A   1      31.380  24.413  25.288  1.00  0.00    -0.339 N 
ATOM     90  C   UNL A   1      30.837  23.067  25.451  1.00  0.00     0.120 C 
ATOM     91  C   UNL A   1      32.626  24.526  24.521  1.00  0.00     0.120 C 
ATOM     92  C   UNL A   1      31.869  22.036  25.864  1.00  0.00     0.025 C 
ATOM     93  C   UNL A   1      33.665  23.465  24.917  1.00  0.00     0.025 C 
ATOM     94  C   UNL A   1      33.050  22.054  24.886  1.00  0.00    -0.003 C 
BRANCH  94  95
ATOM     95  C   UNL A   1      34.079  20.957  25.218  1.00  0.00     0.039 C 
BRANCH  95  96
ATOM     96  C   UNL A   1      33.787  19.653  24.505  1.00  0.00    -0.048 A 
ATOM     97  C   UNL A   1      32.656  19.528  23.685  1.00  0.00     0.004 A 
ATOM     98  C   UNL A   1      34.656  18.559  24.626  1.00  0.00     0.004 A 
ATOM     99  C   UNL A   1      32.405  18.339  22.998  1.00  0.00     0.000 A 
ATOM    100  C   UNL A   1      34.401  17.368  23.940  1.00  0.00     0.000 A 
ATOM    101  C   UNL A   1      33.278  17.260  23.124  1.00  0.00     0.000 A 
ENDBRANCH  95  96
ENDBRANCH  94  95
ENDBRANCH  83  87
ENDBRANCH  78  81
ENDBRANCH  76  77
ENDBRANCH  75  76
ENDBRANCH   1  75
TORSDOF 17
ENDMDL
MODEL 2
REMARK VINA RESULT:     -12.9      1.173      2.058
REMARK SMILES O=C(NCCCCNC(=O)c1cnccc1C(=O)N1CCC(Cc2ccccc2)CC1)c1ccc(-c2c3nc(c(-c4c(F)cc(S(=O)(=O)[O-])cc4F)c4ccc([nH]4)c(-c4c(F)cc(S(=O)(=O)[O-])cc4F)c4nc(c(-c5c(F)cc(S(=O)(=O)[O-])cc5F)c5ccc2[nH]5)C=C4)C=C3)cc1
REMARK SMILES IDX 5 1 4 2 3 3 1 4 2 5 32 7 33 8 97 9 34 10 96 11 35 12 36 13
REMARK SMILES IDX 37 14 90 15 38 16 95 17 89 18 91 19 39 20 94 21 88 22 87 23
REMARK SMILES IDX 40 25 74 26 53 27 73 28 54 29 57 30 72 31 92 32 55 33 56 34
REMARK SMILES IDX 71 36 93 37 58 38 41 39 42 40 51 41 43 42 44 43 50 44 52 45
REMARK SMILES IDX 45 46 46 47 47 48 48 49 49 50 75 51 76 52 85 53 77 54 78 55
REMARK SMILES IDX 84 56 86 57 79 58 80 59 81 60 82 61 83 62 59 63 60 64 69 65
REMARK SMILES IDX 61 66 62 67 68 68 70 69 63 70 64 71 65 72 66 73 67 74 6 75
REMARK SMILES IDX 7 76 8 77 9 78 10 80 11 81 12 82 16 83 13 84 15 85 14 86
REMARK SMILES IDX 17 87 18 88 19 89 20 90 31 91 21 92 30 93 22 94 23 95 24 96
REMARK SMILES IDX 25 97 29 98 26 99 28 100 27 101
REMARK H PARENT 3 6 91 24 57 35 8 79
REMARK Flexibility Score: inf
ROOT
ATOM      1  C   UNL A   1      34.197  29.856  26.989  1.00  0.00     0.023 C 
ENDROOT
BRANCH   1   2
ATOM      2  C   UNL A   1      35.518  30.119  27.701  1.00  0.00     0.116 C 
BRANCH   2   3
ATOM      3  N   UNL A   1      35.395  30.207  29.147  1.00  0.00    -0.352 N 
ATOM      4  O   UNL A   1      36.079  30.036  31.294  1.00  0.00    -0.269 OA
ATOM      5  C   UNL A   1      36.374  30.049  30.106  1.00  0.00     0.251 C 
ATOM      6  H   UNL A   1      34.493  30.407  29.487  1.00  0.00     0.163 HD
BRANCH   5   7
ATOM      7  C   UNL A   1      37.779  29.856  29.683  1.00  0.00     0.039 A 
ATOM      8  C   UNL A   1      38.129  29.934  28.334  1.00  0.00     0.014 A 
ATOM      9  C   UNL A   1      38.749  29.560  30.645  1.00  0.00     0.014 A 
ATOM     10  C   UNL A   1      39.409  29.560  27.934  1.00  0.00     0.010 A 
ATOM     11  C   UNL A   1      40.058  29.263  30.247  1.00  0.00     0.010 A 
ATOM     12  C   UNL A   1      40.390  29.222  28.884  1.00  0.00    -0.014 A 
BRANCH  12  13
ATOM     13  C   UNL A   1      41.758  28.875  28.415  1.00  0.00     0.031 A 
ATOM     14  C   UNL A   1      42.866  29.895  28.390  1.00  0.00     0.074 A 
ATOM     15  C   UNL A   1      42.011  27.598  28.063  1.00  0.00     0.049 A 
ATOM     16  N   UNL A   1      44.127  29.730  28.076  1.00  0.00    -0.248 NA
ATOM     17  C   UNL A   1      42.519  31.277  28.757  1.00  0.00     0.031 C 
ATOM     18  C   UNL A   1      41.011  26.527  28.014  1.00  0.00     0.029 A 
ATOM     19  N   UNL A   1      43.179  26.977  27.709  1.00  0.00    -0.354 N 
ATOM     20  C   UNL A   1      44.722  30.981  28.197  1.00  0.00     0.074 A 
ATOM     21  C   UNL A   1      43.677  31.903  28.589  1.00  0.00     0.031 C 
ATOM     22  C   UNL A   1      41.618  25.374  27.701  1.00  0.00     0.029 A 
ATOM     23  C   UNL A   1      43.037  25.629  27.481  1.00  0.00     0.049 A 
ATOM     24  H   UNL A   1      44.038  27.450  27.625  1.00  0.00     0.167 HD
ATOM     25  C   UNL A   1      46.020  31.326  28.010  1.00  0.00     0.037 A 
ATOM     26  C   UNL A   1      43.945  24.699  27.129  1.00  0.00     0.037 A 
ATOM     27  C   UNL A   1      47.061  30.402  27.632  1.00  0.00     0.049 A 
ATOM     28  C   UNL A   1      45.378  25.105  26.951  1.00  0.00     0.074 A 
ATOM     29  C   UNL A   1      48.408  30.656  27.429  1.00  0.00     0.029 A 
ATOM     30  N   UNL A   1      46.876  29.046  27.403  1.00  0.00    -0.354 N 
ATOM     31  N   UNL A   1      45.920  26.291  27.087  1.00  0.00    -0.248 NA
ATOM     32  C   UNL A   1      46.323  24.047  26.569  1.00  0.00     0.031 C 
ATOM     33  C   UNL A   1      49.031  29.460  27.053  1.00  0.00     0.029 A 
ATOM     34  C   UNL A   1      48.079  28.454  27.056  1.00  0.00     0.049 A 
ATOM     35  H   UNL A   1      46.014  28.574  27.476  1.00  0.00     0.167 HD
ATOM     36  C   UNL A   1      47.270  26.124  26.804  1.00  0.00     0.074 A 
ATOM     37  C   UNL A   1      47.468  24.715  26.526  1.00  0.00     0.031 C 
ATOM     38  C   UNL A   1      48.256  27.054  26.767  1.00  0.00     0.037 A 
BRANCH  25  39
ATOM     39  C   UNL A   1      46.403  32.766  28.214  1.00  0.00     0.058 A 
ATOM     40  C   UNL A   1      46.235  33.719  27.197  1.00  0.00     0.135 A 
ATOM     41  C   UNL A   1      46.871  33.215  29.459  1.00  0.00     0.135 A 
ATOM     42  F   UNL A   1      45.803  33.341  25.982  1.00  0.00    -0.206 F 
ATOM     43  C   UNL A   1      46.526  35.064  27.404  1.00  0.00     0.059 A 
ATOM     44  C   UNL A   1      47.151  34.558  29.695  1.00  0.00     0.059 A 
ATOM     45  F   UNL A   1      47.049  32.345  30.466  1.00  0.00    -0.206 F 
ATOM     46  C   UNL A   1      46.982  35.474  28.658  1.00  0.00     0.060 A 
BRANCH  46  47
ATOM     47  S   UNL A   1      47.330  37.227  28.919  1.00  0.00     0.124 S 
ATOM     48  O   UNL A   1      46.438  37.848  27.944  1.00  0.00    -0.237 OA
ATOM     49  O   UNL A   1      46.966  37.415  30.319  1.00  0.00    -0.237 OA
ATOM     50  O   UNL A   1      48.755  37.340  28.625  1.00  0.00    -0.744 OA
ENDBRANCH  46  47
ENDBRANCH  25  39
BRANCH  26  51
ATOM     51  C   UNL A   1      43.513  23.295  26.913  1.00  0.00     0.058 A 
ATOM     52  C   UNL A   1      43.319  22.421  27.990  1.00  0.00     0.135 A 
ATOM     53  C   UNL A   1      43.268  22.808  25.619  1.00  0.00     0.135 A 
ATOM     54  F   UNL A   1      43.544  22.842  29.245  1.00  0.00    -0.206 F 
ATOM     55  C   UNL A   1      42.913  21.105  27.795  1.00  0.00     0.059 A 
ATOM     56  C   UNL A   1      42.836  21.506  25.399  1.00  0.00     0.059 A 
ATOM     57  F   UNL A   1      43.418  23.616  24.558  1.00  0.00    -0.206 F 
ATOM     58  C   UNL A   1      42.674  20.657  26.494  1.00  0.00     0.060 A 
BRANCH  58  59
ATOM     59  S   UNL A   1      42.103  18.963  26.241  1.00  0.00     0.124 S 
ATOM     60  O   UNL A   1      42.206  18.417  27.589  1.00  0.00    -0.237 OA
ATOM     61  O   UNL A   1      40.750  19.162  25.733  1.00  0.00    -0.237 OA
ATOM     62  O   UNL A   1      43.056  18.435  25.269  1.00  0.00    -0.744 OA
ENDBRANCH  58  59
ENDBRANCH  26  51
BRANCH  38  63
ATOM     63  C   UNL A   1      49.630  26.566  26.408  1.00  0.00     0.058 A 
ATOM     64  C   UNL A   1      50.112  26.646  25.093  1.00  0.00     0.135 A 
ATOM     65  C   UNL A   1      50.471  26.014  27.386  1.00  0.00     0.135 A 
ATOM     66  F   UNL A   1      49.342  27.161  24.121  1.00  0.00    -0.206 F 
ATOM     67  C   UNL A   1      51.369  26.159  24.749  1.00  0.00     0.059 A 
ATOM     68  C   UNL A   1      51.741  25.541  27.069  1.00  0.00     0.059 A 
ATOM     69  F   UNL A   1      50.060  25.924  28.661  1.00  0.00    -0.206 F 
ATOM     70  C   UNL A   1      52.173  25.601  25.744  1.00  0.00     0.060 A 
BRANCH  70  71
ATOM     71  S   UNL A   1      53.800  24.964  25.291  1.00  0.00     0.124 S 
ATOM     72  O   UNL A   1      53.520  23.544  25.114  1.00  0.00    -0.237 OA
ATOM     73  O   UNL A   1      54.103  25.708  24.071  1.00  0.00    -0.237 OA
ATOM     74  O   UNL A   1      54.629  25.303  26.444  1.00  0.00    -0.744 OA
ENDBRANCH  70  71
ENDBRANCH  38  63
ENDBRANCH  12  13
ENDBRANCH   5   7
ENDBRANCH   2   3
ENDBRANCH   1   2
BRANCH   1  75
ATOM     75  C   UNL A   1      33.473  28.557  27.352  1.00  0.00     0.023 C 
BRANCH  75  76
ATOM     76  C   UNL A   1      33.154  27.617  26.193  1.00  0.00     0.116 C 
BRANCH  76  77
ATOM     77  N   UNL A   1      33.804  27.994  24.950  1.00  0.00    -0.352 N 
ATOM     78  C   UNL A   1      33.242  28.360  23.758  1.00  0.00     0.253 C 
ATOM     79  H   UNL A   1      34.788  27.987  24.968  1.00  0.00     0.163 HD
ATOM     80  O   UNL A   1      33.949  28.626  22.789  1.00  0.00    -0.269 OA
BRANCH  78  81
ATOM     81  C   UNL A   1      31.790  28.390  23.579  1.00  0.00     0.070 A 
ATOM     82  C   UNL A   1      31.164  29.581  23.927  1.00  0.00     0.125 A 
ATOM     83  C   UNL A   1      31.002  27.353  23.086  1.00  0.00     0.055 A 
ATOM     84  N   UNL A   1      29.842  29.823  23.753  1.00  0.00    -0.264 NA
ATOM     85  C   UNL A   1      29.635  27.589  22.882  1.00  0.00     0.035 A 
ATOM     86  C   UNL A   1      29.110  28.825  23.218  1.00  0.00     0.112 A 
BRANCH  83  87
ATOM     87  C   UNL A   1      31.545  26.105  22.513  1.00  0.00     0.254 C 
ATOM     88  O   UNL A   1      31.783  26.155  21.303  1.00  0.00    -0.269 OA
ATOM     89  N   UNL A   1      31.838  24.984  23.286  1.00  0.00    -0.339 N 
ATOM     90  C   UNL A   1      32.887  24.107  22.773  1.00  0.00     0.120 C 
ATOM     91  C   UNL A   1      31.379  24.721  24.655  1.00  0.00     0.120 C 
ATOM     92  C   UNL A   1      32.632  22.634  23.026  1.00  0.00     0.025 C 
ATOM     93  C   UNL A   1      31.145  23.226  24.925  1.00  0.00     0.025 C 
ATOM     94  C   UNL A   1      32.376  22.395  24.519  1.00  0.00    -0.003 C 
BRANCH  94  95
ATOM     95  C   UNL A   1      32.203  20.897  24.832  1.00  0.00     0.039 C 
BRANCH  95  96
ATOM     96  C   UNL A   1      33.516  20.142  24.800  1.00  0.00    -0.048 A 
ATOM     97  C   UNL A   1      33.545  18.782  24.457  1.00  0.00     0.004 A 
ATOM     98  C   UNL A   1      34.725  20.794  25.082  1.00  0.00     0.004 A 
ATOM     99  C   UNL A   1      34.759  18.094  24.391  1.00  0.00     0.000 A 
ATOM    100  C   UNL A   1      35.938  20.101  25.018  1.00  0.00     0.000 A 
ATOM    101  C   UNL A   1      35.954  18.753  24.669  1.00  0.00     0.000 A 
ENDBRANCH  95  96
ENDBRANCH  94  95
ENDBRANCH  83  87
ENDBRANCH  78  81
ENDBRANCH  76  77
ENDBRANCH  75  76
ENDBRANCH   1  75
TORSDOF 17
ENDMDL
MODEL 3
REMARK VINA RESULT:     -12.9      0.946      8.060
REMARK SMILES O=C(NCCCCNC(=O)c1cnccc1C(=O)N1CCC(Cc2ccccc2)CC1)c1ccc(-c2c3nc(c(-c4c(F)cc(S(=O)(=O)[O-])cc4F)c4ccc([nH]4)c(-c4c(F)cc(S(=O)(=O)[O-])cc4F)c4nc(c(-c5c(F)cc(S(=O)(=O)[O-])cc5F)c5ccc2[nH]5)C=C4)C=C3)cc1
REMARK SMILES IDX 5 1 4 2 3 3 1 4 2 5 32 7 33 8 97 9 34 10 96 11 35 12 36 13
REMARK SMILES IDX 37 14 90 15 38 16 95 17 89 18 91 19 39 20 94 21 88 22 87 23
REMARK SMILES IDX 40 25 74 26 53 27 73 28 54 29 57 30 72 31 92 32 55 33 56 34
REMARK SMILES IDX 71 36 93 37 58 38 41 39 42 40 51 41 43 42 44 43 50 44 52 45
REMARK SMILES IDX 45 46 46 47 47 48 48 49 49 50 75 51 76 52 85 53 77 54 78 55
REMARK SMILES IDX 84 56 86 57 79 58 80 59 81 60 82 61 83 62 59 63 60 64 69 65
REMARK SMILES IDX 61 66 62 67 68 68 70 69 63 70 64 71 65 72 66 73 67 74 6 75
REMARK SMILES IDX 7 76 8 77 9 78 10 80 11 81 12 82 16 83 13 84 15 85 14 86
REMARK SMILES IDX 17 87 18 88 19 89 20 90 31 91 21 92 30 93 22 94 23 95 24 96
REMARK SMILES IDX 25 97 29 98 26 99 28 100 27 101
REMARK H PARENT 3 6 91 24 57 35 8 79
REMARK Flexibility Score: inf
ROOT
ATOM      1  C   UNL A   1      34.963  30.678  27.421  1.00  0.00     0.023 C 
ENDROOT
BRANCH   1   2
ATOM      2  C   UNL A   1      35.392  29.863  28.635  1.00  0.00     0.116 C 
BRANCH   2   3
ATOM      3  N   UNL A   1      35.541  30.653  29.846  1.00  0.00    -0.352 N 
ATOM      4  O   UNL A   1      36.602  31.452  31.675  1.00  0.00    -0.269 OA
ATOM      5  C   UNL A   1      36.673  30.854  30.609  1.00  0.00     0.251 C 
ATOM      6  H   UNL A   1      34.726  31.104  30.164  1.00  0.00     0.163 HD
BRANCH   5   7
ATOM      7  C   UNL A   1      37.967  30.304  30.146  1.00  0.00     0.039 A 
ATOM      8  C   UNL A   1      38.839  29.691  31.047  1.00  0.00     0.014 A 
ATOM      9  C   UNL A   1      38.324  30.435  28.800  1.00  0.00     0.014 A 
ATOM     10  C   UNL A   1      40.126  29.356  30.636  1.00  0.00     0.010 A 
ATOM     11  C   UNL A   1      39.591  30.022  28.372  1.00  0.00     0.010 A 
ATOM     12  C   UNL A   1      40.518  29.515  29.295  1.00  0.00    -0.014 A 
BRANCH  12  13
ATOM     13  C   UNL A   1      41.888  29.099  28.890  1.00  0.00     0.031 A 
ATOM     14  C   UNL A   1      42.181  27.698  28.421  1.00  0.00     0.074 A 
ATOM     15  C   UNL A   1      42.866  30.027  28.893  1.00  0.00     0.049 A 
ATOM     16  N   UNL A   1      43.305  27.203  27.969  1.00  0.00    -0.248 NA
ATOM     17  C   UNL A   1      41.078  26.726  28.470  1.00  0.00     0.031 C 
ATOM     18  C   UNL A   1      42.713  31.409  29.357  1.00  0.00     0.029 A 
ATOM     19  N   UNL A   1      44.168  29.962  28.471  1.00  0.00    -0.354 N 
ATOM     20  C   UNL A   1      43.052  25.864  27.688  1.00  0.00     0.074 A 
ATOM     21  C   UNL A   1      41.672  25.618  28.046  1.00  0.00     0.031 C 
ATOM     22  C   UNL A   1      43.858  32.073  29.148  1.00  0.00     0.029 A 
ATOM     23  C   UNL A   1      44.840  31.156  28.579  1.00  0.00     0.049 A 
ATOM     24  H   UNL A   1      44.583  29.140  28.123  1.00  0.00     0.167 HD
ATOM     25  C   UNL A   1      43.890  24.932  27.169  1.00  0.00     0.037 A 
ATOM     26  C   UNL A   1      46.108  31.480  28.263  1.00  0.00     0.037 A 
ATOM     27  C   UNL A   1      45.261  25.185  26.802  1.00  0.00     0.049 A 
ATOM     28  C   UNL A   1      47.006  30.435  27.670  1.00  0.00     0.074 A 
ATOM     29  C   UNL A   1      46.185  24.306  26.259  1.00  0.00     0.029 A 
ATOM     30  N   UNL A   1      45.908  26.405  26.935  1.00  0.00    -0.354 N 
ATOM     31  N   UNL A   1      46.739  29.180  27.398  1.00  0.00    -0.248 NA
ATOM     32  C   UNL A   1      48.377  30.847  27.342  1.00  0.00     0.031 C 
ATOM     33  C   UNL A   1      47.395  24.988  26.088  1.00  0.00     0.029 A 
ATOM     34  C   UNL A   1      47.216  26.301  26.490  1.00  0.00     0.049 A 
ATOM     35  H   UNL A   1      45.496  27.225  27.292  1.00  0.00     0.167 HD
ATOM     36  C   UNL A   1      47.910  28.651  26.871  1.00  0.00     0.074 A 
ATOM     37  C   UNL A   1      48.875  29.731  26.827  1.00  0.00     0.031 C 
ATOM     38  C   UNL A   1      48.168  27.382  26.469  1.00  0.00     0.037 A 
BRANCH  25  39
ATOM     39  C   UNL A   1      43.353  23.543  26.959  1.00  0.00     0.058 A 
ATOM     40  C   UNL A   1      42.995  23.082  25.682  1.00  0.00     0.135 A 
ATOM     41  C   UNL A   1      43.267  22.638  28.028  1.00  0.00     0.135 A 
ATOM     42  F   UNL A   1      43.046  23.911  24.627  1.00  0.00    -0.206 F 
ATOM     43  C   UNL A   1      42.561  21.776  25.475  1.00  0.00     0.059 A 
ATOM     44  C   UNL A   1      42.853  21.321  27.842  1.00  0.00     0.059 A 
ATOM     45  F   UNL A   1      43.597  23.027  29.270  1.00  0.00    -0.206 F 
ATOM     46  C   UNL A   1      42.495  20.902  26.561  1.00  0.00     0.060 A 
BRANCH  46  47
ATOM     47  S   UNL A   1      41.955  19.203  26.271  1.00  0.00     0.124 S 
ATOM     48  O   UNL A   1      40.538  19.395  25.978  1.00  0.00    -0.237 OA
ATOM     49  O   UNL A   1      42.785  18.799  25.142  1.00  0.00    -0.237 OA
ATOM     50  O   UNL A   1      42.249  18.532  27.533  1.00  0.00    -0.744 OA
ENDBRANCH  46  47
ENDBRANCH  25  39
BRANCH  26  51
ATOM     51  C   UNL A   1      46.600  32.859  28.515  1.00  0.00     0.058 A 
ATOM     52  C   UNL A   1      46.517  33.851  27.528  1.00  0.00     0.135 A 
ATOM     53  C   UNL A   1      47.144  33.213  29.759  1.00  0.00     0.135 A 
ATOM     54  F   UNL A   1      46.006  33.557  26.323  1.00  0.00    -0.206 F 
ATOM     55  C   UNL A   1      46.974  35.144  27.758  1.00  0.00     0.059 A 
ATOM     56  C   UNL A   1      47.584  34.504  30.022  1.00  0.00     0.059 A 
ATOM     57  F   UNL A   1      47.223  32.302  30.742  1.00  0.00    -0.206 F 
ATOM     58  C   UNL A   1      47.506  35.461  29.010  1.00  0.00     0.060 A 
BRANCH  58  59
ATOM     59  S   UNL A   1      48.057  37.151  29.326  1.00  0.00     0.124 S 
ATOM     60  O   UNL A   1      48.090  37.703  27.977  1.00  0.00    -0.237 OA
ATOM     61  O   UNL A   1      47.008  37.663  30.202  1.00  0.00    -0.237 OA
ATOM     62  O   UNL A   1      49.357  36.960  29.965  1.00  0.00    -0.744 OA
ENDBRANCH  58  59
ENDBRANCH  26  51
BRANCH  38  63
ATOM     63  C   UNL A   1      49.551  27.106  25.953  1.00  0.00     0.058 A 
ATOM     64  C   UNL A   1      49.870  27.267  24.596  1.00  0.00     0.135 A 
ATOM     65  C   UNL A   1      50.566  26.675  26.821  1.00  0.00     0.135 A 
ATOM     66  F   UNL A   1      48.931  27.671  23.725  1.00  0.00    -0.206 F 
ATOM     67  C   UNL A   1      51.139  26.975  24.108  1.00  0.00     0.059 A 
ATOM     68  C   UNL A   1      51.849  26.398  26.360  1.00  0.00     0.059 A 
ATOM     69  F   UNL A   1      50.314  26.514  28.130  1.00  0.00    -0.206 F 
ATOM     70  C   UNL A   1      52.120  26.533  24.998  1.00  0.00     0.060 A 
BRANCH  70  71
ATOM     71  S   UNL A   1      53.763  26.148  24.357  1.00  0.00     0.124 S 
ATOM     72  O   UNL A   1      53.938  24.771  24.807  1.00  0.00    -0.237 OA
ATOM     73  O   UNL A   1      53.593  26.328  22.918  1.00  0.00    -0.237 OA
ATOM     74  O   UNL A   1      54.619  27.136  25.008  1.00  0.00    -0.744 OA
ENDBRANCH  70  71
ENDBRANCH  38  63
ENDBRANCH  12  13
ENDBRANCH   5   7
ENDBRANCH   2   3
ENDBRANCH   1   2
BRANCH   1  75
ATOM     75  C   UNL A   1      33.461  30.918  27.257  1.00  0.00     0.023 C 
BRANCH  75  76
ATOM     76  C   UNL A   1      32.712  29.928  26.370  1.00  0.00     0.116 C 
BRANCH  76  77
ATOM     77  N   UNL A   1      33.584  29.181  25.479  1.00  0.00    -0.352 N 
ATOM     78  C   UNL A   1      33.254  28.365  24.432  1.00  0.00     0.253 C 
ATOM     79  H   UNL A   1      34.548  29.276  25.654  1.00  0.00     0.163 HD
ATOM     80  O   UNL A   1      34.128  27.784  23.793  1.00  0.00    -0.269 OA
BRANCH  78  81
ATOM     81  C   UNL A   1      31.858  28.112  24.076  1.00  0.00     0.070 A 
ATOM     82  C   UNL A   1      31.372  28.830  22.989  1.00  0.00     0.125 A 
ATOM     83  C   UNL A   1      30.997  27.220  24.711  1.00  0.00     0.055 A 
ATOM     84  N   UNL A   1      30.134  28.667  22.464  1.00  0.00    -0.264 NA
ATOM     85  C   UNL A   1      29.717  27.025  24.173  1.00  0.00     0.035 A 
ATOM     86  C   UNL A   1      29.339  27.755  23.059  1.00  0.00     0.112 A 
BRANCH  83  87
ATOM     87  C   UNL A   1      31.421  26.268  25.757  1.00  0.00     0.254 C 
ATOM     88  O   UNL A   1      31.289  26.681  26.912  1.00  0.00    -0.269 OA
ATOM     89  N   UNL A   1      31.862  24.978  25.471  1.00  0.00    -0.339 N 
ATOM     90  C   UNL A   1      31.657  23.982  26.519  1.00  0.00     0.120 C 
ATOM     91  C   UNL A   1      32.289  24.470  24.162  1.00  0.00     0.120 C 
ATOM     92  C   UNL A   1      32.778  22.968  26.628  1.00  0.00     0.025 C 
ATOM     93  C   UNL A   1      33.407  23.421  24.269  1.00  0.00     0.025 C 
ATOM     94  C   UNL A   1      33.026  22.310  25.265  1.00  0.00    -0.003 C 
BRANCH  94  95
ATOM     95  C   UNL A   1      34.097  21.208  25.353  1.00  0.00     0.039 C 
BRANCH  95  96
ATOM     96  C   UNL A   1      33.700  19.952  24.604  1.00  0.00    -0.048 A 
ATOM     97  C   UNL A   1      32.532  19.926  23.828  1.00  0.00     0.004 A 
ATOM     98  C   UNL A   1      34.508  18.806  24.646  1.00  0.00     0.004 A 
ATOM     99  C   UNL A   1      32.185  18.782  23.107  1.00  0.00     0.000 A 
ATOM    100  C   UNL A   1      34.156  17.661  23.927  1.00  0.00     0.000 A 
ATOM    101  C   UNL A   1      32.997  17.651  23.155  1.00  0.00     0.000 A 
ENDBRANCH  95  96
ENDBRANCH  94  95
ENDBRANCH  83  87
ENDBRANCH  78  81
ENDBRANCH  76  77
ENDBRANCH  75  76
ENDBRANCH   1  75
TORSDOF 17
ENDMDL
