MODEL 1
REMARK VINA RESULT:     -14.9      0.000      0.000
REMARK SMILES Cc1ccc(C2=NN(C(=O)CCC(=O)NCCCCNC(=O)c3ccc(-c4c5nc(c(-c6c(F)cc(S(=O)(=O)[O-])cc6F)c6ccc([nH]6)c(-c6c(F)cc(S(=O)(=O)[O-])cc6F)c6nc(c(-c7c(F)cc(S(=O)(=O)[O-])cc7F)c7ccc4[nH]7)C=C6)C=C5)cc3)[C@H](C[C@@H]3C=c4cccc(C)c4=NC3=O)C2)cc1
REMARK SMILES IDX 16 1 15 2 13 3 14 4 12 6 11 7 9 8 10 9 8 10 6 11 7 12 103 13
REMARK SMILES IDX 89 14 5 15 1 16 2 17 3 18 105 19 4 20 104 21 90 22 91 23
REMARK SMILES IDX 92 24 101 25 93 26 100 27 102 28 94 29 99 30 95 31 97 32
REMARK SMILES IDX 96 33 98 34 17 35 18 36 19 37 20 38 21 39 22 41 23 42 24 43
REMARK SMILES IDX 88 44 25 45 87 46 26 47 27 48 28 49 81 50 29 51 86 52 80 53
REMARK SMILES IDX 82 54 30 55 85 56 79 57 78 58 31 60 65 61 44 62 64 63 45 64
REMARK SMILES IDX 48 65 63 66 83 67 46 68 47 69 62 71 84 72 49 73 32 74 33 75
REMARK SMILES IDX 42 76 34 77 35 78 41 79 43 80 36 81 37 82 38 83 39 84 40 85
REMARK SMILES IDX 66 86 67 87 76 88 68 89 69 90 75 91 77 92 70 93 71 94 72 95
REMARK SMILES IDX 73 96 74 97 50 98 51 99 60 100 52 101 53 102 59 103 61 104
REMARK SMILES IDX 54 105 55 106 56 107 57 108 58 109
REMARK H PARENT 15 5 20 40 82 59 48 70
REMARK Flexibility Score: inf
ROOT
ATOM      1  C   UNL A   1      32.704  20.656  25.729  1.00  0.00     0.116 C 
ENDROOT
BRANCH   1   2
ATOM      2  N   UNL A   1      31.804  21.750  26.447  1.00  0.00    -0.356 N 
ATOM      3  C   UNL A   1      31.872  23.085  26.727  1.00  0.00     0.220 C 
ATOM      4  O   UNL A   1      30.898  23.569  27.318  1.00  0.00    -0.275 OA
ATOM      5  H   UNL A   1      30.966  21.358  26.783  1.00  0.00     0.163 HD
BRANCH   3   6
ATOM      6  C   UNL A   1      33.046  23.991  26.390  1.00  0.00     0.110 C 
BRANCH   6   7
ATOM      7  C   UNL A   1      32.790  25.479  26.383  1.00  0.00     0.112 C 
BRANCH   7   8
ATOM      8  C   UNL A   1      33.929  26.187  25.696  1.00  0.00     0.243 C 
ATOM      9  O   UNL A   1      34.901  25.580  25.268  1.00  0.00    -0.273 OA
BRANCH   8  10
ATOM     10  N   UNL A   1      33.726  27.546  25.679  1.00  0.00    -0.230 N 
ATOM     11  C   UNL A   1      33.835  30.176  27.028  1.00  0.00     0.070 C 
ATOM     12  N   UNL A   1      34.566  28.699  27.013  1.00  0.00    -0.174 NA
ATOM     13  C   UNL A   1      32.289  30.258  25.866  1.00  0.00     0.086 C 
ATOM     14  C   UNL A   1      32.276  28.612  24.882  1.00  0.00     0.118 C 
BRANCH  11  15
ATOM     15  C   UNL A   1      34.089  31.580  27.518  1.00  0.00    -0.002 A 
ATOM     16  C   UNL A   1      34.375  34.511  30.531  1.00  0.00     0.044 C 
ATOM     17  C   UNL A   1      34.405  33.723  29.254  1.00  0.00    -0.051 A 
ATOM     18  C   UNL A   1      35.454  32.824  29.076  1.00  0.00     0.004 A 
ATOM     19  C   UNL A   1      33.312  33.693  28.371  1.00  0.00     0.004 A 
ATOM     20  C   UNL A   1      35.298  31.759  28.202  1.00  0.00     0.010 A 
ATOM     21  C   UNL A   1      33.161  32.629  27.465  1.00  0.00     0.010 A 
ENDBRANCH  11  15
BRANCH  14  22
ATOM     22  C   UNL A   1      32.134  29.109  23.400  1.00  0.00     0.045 C 
BRANCH  22  23
ATOM     23  C   UNL A   1      32.071  27.961  22.418  1.00  0.00     0.106 C 
ATOM     24  C   UNL A   1      31.135  26.955  22.971  1.00  0.00    -0.003 C 
ATOM     25  C   UNL A   1      33.471  27.421  22.097  1.00  0.00     0.253 C 
ATOM     26  C   UNL A   1      31.397  25.657  22.985  1.00  0.00    -0.003 A 
ATOM     27  N   UNL A   1      33.680  26.062  22.107  1.00  0.00    -0.212 NA
ATOM     28  O   UNL A   1      34.369  28.201  21.780  1.00  0.00    -0.272 OA
ATOM     29  C   UNL A   1      30.413  24.699  23.401  1.00  0.00     0.010 A 
ATOM     30  C   UNL A   1      32.749  25.259  22.514  1.00  0.00     0.077 A 
ATOM     31  C   UNL A   1      30.700  23.397  23.345  1.00  0.00     0.001 A 
ATOM     32  C   UNL A   1      33.001  23.783  22.569  1.00  0.00    -0.025 A 
ATOM     33  C   UNL A   1      32.014  22.949  22.947  1.00  0.00     0.005 A 
ATOM     34  C   UNL A   1      34.389  23.337  22.248  1.00  0.00     0.047 C 
ENDBRANCH  22  23
ENDBRANCH  14  22
ENDBRANCH   8  10
ENDBRANCH   7   8
ENDBRANCH   6   7
ENDBRANCH   3   6
ENDBRANCH   1   2
BRANCH   1  35
ATOM     35  C   UNL A   1      34.775  20.649  24.798  1.00  0.00     0.023 C 
BRANCH  35  36
ATOM     36  C   UNL A   1      36.328  21.724  25.268  1.00  0.00     0.023 C 
BRANCH  36  37
ATOM     37  C   UNL A   1      38.188  21.533  25.543  1.00  0.00     0.116 C 
BRANCH  37  38
ATOM     38  N   UNL A   1      39.767  22.415  26.023  1.00  0.00    -0.352 N 
ATOM     39  C   UNL A   1      40.638  23.718  26.751  1.00  0.00     0.251 C 
ATOM     40  H   UNL A   1      40.476  21.826  25.678  1.00  0.00     0.163 HD
ATOM     41  O   UNL A   1      41.760  23.295  27.125  1.00  0.00    -0.269 OA
BRANCH  39  42
ATOM     42  C   UNL A   1      40.385  25.500  27.276  1.00  0.00     0.039 A 
ATOM     43  C   UNL A   1      40.516  26.627  26.437  1.00  0.00     0.014 A 
ATOM     44  C   UNL A   1      40.630  26.108  28.571  1.00  0.00     0.014 A 
ATOM     45  C   UNL A   1      41.300  27.859  26.900  1.00  0.00     0.010 A 
ATOM     46  C   UNL A   1      41.078  27.335  29.127  1.00  0.00     0.010 A 
ATOM     47  C   UNL A   1      41.814  28.021  28.228  1.00  0.00    -0.014 A 
BRANCH  47  48
ATOM     48  C   UNL A   1      43.210  28.430  28.721  1.00  0.00     0.031 A 
ATOM     49  C   UNL A   1      44.370  27.773  28.105  1.00  0.00     0.074 A 
ATOM     50  C   UNL A   1      43.603  29.481  29.521  1.00  0.00     0.049 A 
ATOM     51  N   UNL A   1      45.159  26.960  28.717  1.00  0.00    -0.248 NA
ATOM     52  C   UNL A   1      44.757  28.061  26.727  1.00  0.00     0.031 C 
ATOM     53  C   UNL A   1      44.926  29.811  30.104  1.00  0.00     0.029 A 
ATOM     54  N   UNL A   1      42.831  30.429  30.165  1.00  0.00    -0.354 N 
ATOM     55  C   UNL A   1      46.292  26.876  27.932  1.00  0.00     0.074 A 
ATOM     56  C   UNL A   1      45.897  27.369  26.630  1.00  0.00     0.031 C 
ATOM     57  C   UNL A   1      44.749  30.491  31.263  1.00  0.00     0.029 A 
ATOM     58  C   UNL A   1      43.328  30.668  31.461  1.00  0.00     0.049 A 
ATOM     59  H   UNL A   1      42.046  30.875  29.773  1.00  0.00     0.167 HD
ATOM     60  C   UNL A   1      47.524  26.714  28.503  1.00  0.00     0.037 A 
ATOM     61  C   UNL A   1      42.562  30.300  32.540  1.00  0.00     0.037 A 
ATOM     62  C   UNL A   1      47.449  27.000  29.947  1.00  0.00     0.049 A 
ATOM     63  C   UNL A   1      43.107  28.979  33.131  1.00  0.00     0.074 A 
ATOM     64  C   UNL A   1      47.905  28.068  30.707  1.00  0.00     0.029 A 
ATOM     65  N   UNL A   1      46.555  26.312  30.762  1.00  0.00    -0.354 N 
ATOM     66  N   UNL A   1      44.150  28.356  32.642  1.00  0.00    -0.248 NA
ATOM     67  C   UNL A   1      42.587  28.270  34.302  1.00  0.00     0.031 C 
ATOM     68  C   UNL A   1      47.230  28.050  31.958  1.00  0.00     0.029 A 
ATOM     69  C   UNL A   1      46.376  26.962  31.971  1.00  0.00     0.049 A 
ATOM     70  H   UNL A   1      46.109  25.471  30.512  1.00  0.00     0.167 HD
ATOM     71  C   UNL A   1      44.443  27.218  33.353  1.00  0.00     0.074 A 
ATOM     72  C   UNL A   1      43.447  27.233  34.409  1.00  0.00     0.031 C 
ATOM     73  C   UNL A   1      45.489  26.401  32.994  1.00  0.00     0.037 A 
BRANCH  60  74
ATOM     74  C   UNL A   1      48.844  26.634  27.740  1.00  0.00     0.058 A 
ATOM     75  C   UNL A   1      49.505  27.801  27.293  1.00  0.00     0.135 A 
ATOM     76  C   UNL A   1      49.556  25.440  27.489  1.00  0.00     0.135 A 
ATOM     77  F   UNL A   1      49.027  29.024  27.558  1.00  0.00    -0.206 F 
ATOM     78  C   UNL A   1      50.714  27.779  26.587  1.00  0.00     0.059 A 
ATOM     79  C   UNL A   1      50.738  25.386  26.737  1.00  0.00     0.059 A 
ATOM     80  F   UNL A   1      49.185  24.272  28.030  1.00  0.00    -0.206 F 
ATOM     81  C   UNL A   1      51.316  26.564  26.295  1.00  0.00     0.060 A 
BRANCH  81  82
ATOM     82  S   UNL A   1      52.889  26.555  25.414  1.00  0.00     0.124 S 
ATOM     83  O   UNL A   1      52.524  25.952  24.137  1.00  0.00    -0.237 OA
ATOM     84  O   UNL A   1      53.226  27.975  25.375  1.00  0.00    -0.237 OA
ATOM     85  O   UNL A   1      53.751  25.735  26.263  1.00  0.00    -0.744 OA
ENDBRANCH  81  82
ENDBRANCH  60  74
BRANCH  61  86
ATOM     86  C   UNL A   1      41.083  30.692  32.312  1.00  0.00     0.058 A 
ATOM     87  C   UNL A   1      40.110  29.732  32.666  1.00  0.00     0.135 A 
ATOM     88  C   UNL A   1      40.769  31.924  32.798  1.00  0.00     0.135 A 
ATOM     89  F   UNL A   1      40.064  28.589  31.965  1.00  0.00    -0.206 F 
ATOM     90  C   UNL A   1      39.225  29.846  33.808  1.00  0.00     0.059 A 
ATOM     91  C   UNL A   1      40.043  31.928  34.023  1.00  0.00     0.059 A 
ATOM     92  F   UNL A   1      41.587  32.961  32.543  1.00  0.00    -0.206 F 
ATOM     93  C   UNL A   1      39.201  30.985  34.638  1.00  0.00     0.060 A 
BRANCH  93  94
ATOM     94  S   UNL A   1      38.186  31.450  36.596  1.00  0.00     0.124 S 
ATOM     95  O   UNL A   1      37.126  32.461  36.467  1.00  0.00    -0.237 OA
ATOM     96  O   UNL A   1      37.492  30.431  37.346  1.00  0.00    -0.237 OA
ATOM     97  O   UNL A   1      39.444  31.889  37.168  1.00  0.00    -0.744 OA
ENDBRANCH  93  94
ENDBRANCH  61  86
BRANCH  73  98
ATOM     98  C   UNL A   1      45.899  25.051  33.586  1.00  0.00     0.058 A 
ATOM     99  C   UNL A   1      47.009  24.827  34.414  1.00  0.00     0.135 A 
ATOM    100  C   UNL A   1      45.078  23.900  33.384  1.00  0.00     0.135 A 
ATOM    101  F   UNL A   1      47.813  25.824  34.799  1.00  0.00    -0.206 F 
ATOM    102  C   UNL A   1      47.325  23.562  34.928  1.00  0.00     0.059 A 
ATOM    103  C   UNL A   1      45.329  22.655  33.952  1.00  0.00     0.059 A 
ATOM    104  F   UNL A   1      43.980  23.929  32.616  1.00  0.00    -0.206 F 
ATOM    105  C   UNL A   1      46.480  22.482  34.694  1.00  0.00     0.060 A 
BRANCH 105 106
ATOM    106  S   UNL A   1      46.880  20.869  35.382  1.00  0.00     0.124 S 
ATOM    107  O   UNL A   1      48.009  21.194  36.247  1.00  0.00    -0.237 OA
ATOM    108  O   UNL A   1      45.643  20.506  36.067  1.00  0.00    -0.237 OA
ATOM    109  O   UNL A   1      47.199  20.062  34.209  1.00  0.00    -0.744 OA
ENDBRANCH 105 106
ENDBRANCH  73  98
ENDBRANCH  47  48
ENDBRANCH  39  42
ENDBRANCH  37  38
ENDBRANCH  36  37
ENDBRANCH  35  36
ENDBRANCH   1  35
TORSDOF 20
ENDMDL
MODEL 2
REMARK VINA RESULT:     -14.3      3.604      9.790
REMARK SMILES Cc1ccc(C2=NN(C(=O)CCC(=O)NCCCCNC(=O)c3ccc(-c4c5nc(c(-c6c(F)cc(S(=O)(=O)[O-])cc6F)c6ccc([nH]6)c(-c6c(F)cc(S(=O)(=O)[O-])cc6F)c6nc(c(-c7c(F)cc(S(=O)(=O)[O-])cc7F)c7ccc4[nH]7)C=C6)C=C5)cc3)[C@H](C[C@@H]3C=c4cccc(C)c4=NC3=O)C2)cc1
REMARK SMILES IDX 16 1 15 2 13 3 14 4 12 6 11 7 9 8 10 9 8 10 6 11 7 12 103 13
REMARK SMILES IDX 89 14 5 15 1 16 2 17 3 18 105 19 4 20 104 21 90 22 91 23
REMARK SMILES IDX 92 24 101 25 93 26 100 27 102 28 94 29 99 30 95 31 97 32
REMARK SMILES IDX 96 33 98 34 17 35 18 36 19 37 20 38 21 39 22 41 23 42 24 43
REMARK SMILES IDX 88 44 25 45 87 46 26 47 27 48 28 49 81 50 29 51 86 52 80 53
REMARK SMILES IDX 82 54 30 55 85 56 79 57 78 58 31 60 65 61 44 62 64 63 45 64
REMARK SMILES IDX 48 65 63 66 83 67 46 68 47 69 62 71 84 72 49 73 32 74 33 75
REMARK SMILES IDX 42 76 34 77 35 78 41 79 43 80 36 81 37 82 38 83 39 84 40 85
REMARK SMILES IDX 66 86 67 87 76 88 68 89 69 90 75 91 77 92 70 93 71 94 72 95
REMARK SMILES IDX 73 96 74 97 50 98 51 99 60 100 52 101 53 102 59 103 61 104
REMARK SMILES IDX 54 105 55 106 56 107 57 108 58 109
REMARK H PARENT 15 5 20 40 82 59 48 70
REMARK Flexibility Score: inf
ROOT
ATOM      1  C   UNL A   1      39.290  28.575  28.816  1.00  0.00     0.116 C 
ENDROOT
BRANCH   1   2
ATOM      2  N   UNL A   1      38.160  29.492  29.450  1.00  0.00    -0.356 N 
ATOM      3  C   UNL A   1      37.017  30.114  29.035  1.00  0.00     0.220 C 
ATOM      4  O   UNL A   1      36.396  30.746  29.898  1.00  0.00    -0.275 OA
ATOM      5  H   UNL A   1      38.330  29.660  30.404  1.00  0.00     0.163 HD
BRANCH   3   6
ATOM      6  C   UNL A   1      36.481  30.101  27.612  1.00  0.00     0.110 C 
BRANCH   6   7
ATOM      7  C   UNL A   1      35.287  29.219  27.332  1.00  0.00     0.112 C 
BRANCH   7   8
ATOM      8  C   UNL A   1      34.033  30.053  27.310  1.00  0.00     0.243 C 
ATOM      9  O   UNL A   1      33.850  30.964  28.107  1.00  0.00    -0.273 OA
BRANCH   8  10
ATOM     10  N   UNL A   1      33.165  29.614  26.340  1.00  0.00    -0.230 N 
ATOM     11  C   UNL A   1      30.714  29.987  24.726  1.00  0.00     0.070 C 
ATOM     12  N   UNL A   1      31.886  30.838  25.513  1.00  0.00    -0.174 NA
ATOM     13  C   UNL A   1      30.864  28.077  24.999  1.00  0.00     0.086 C 
ATOM     14  C   UNL A   1      32.518  27.801  25.930  1.00  0.00     0.118 C 
BRANCH  11  15
ATOM     15  C   UNL A   1      29.647  30.198  23.681  1.00  0.00    -0.002 A 
ATOM     16  C   UNL A   1      28.020  32.145  20.317  1.00  0.00     0.044 C 
ATOM     17  C   UNL A   1      28.328  31.232  21.468  1.00  0.00    -0.051 A 
ATOM     18  C   UNL A   1      29.333  30.284  21.287  1.00  0.00     0.004 A 
ATOM     19  C   UNL A   1      27.815  31.458  22.757  1.00  0.00     0.004 A 
ATOM     20  C   UNL A   1      29.984  29.762  22.393  1.00  0.00     0.010 A 
ATOM     21  C   UNL A   1      28.457  30.911  23.881  1.00  0.00     0.010 A 
ENDBRANCH  11  15
BRANCH  14  22
ATOM     22  C   UNL A   1      33.210  26.693  25.060  1.00  0.00     0.045 C 
BRANCH  22  23
ATOM     23  C   UNL A   1      33.645  25.506  25.890  1.00  0.00     0.106 C 
ATOM     24  C   UNL A   1      34.915  25.006  25.316  1.00  0.00    -0.003 C 
ATOM     25  C   UNL A   1      32.531  24.454  25.987  1.00  0.00     0.253 C 
ATOM     26  C   UNL A   1      35.156  23.720  25.109  1.00  0.00    -0.003 A 
ATOM     27  N   UNL A   1      32.843  23.131  25.782  1.00  0.00    -0.212 NA
ATOM     28  O   UNL A   1      31.392  24.797  26.303  1.00  0.00    -0.272 OA
ATOM     29  C   UNL A   1      36.446  23.259  24.682  1.00  0.00     0.010 A 
ATOM     30  C   UNL A   1      34.027  22.793  25.378  1.00  0.00     0.077 A 
ATOM     31  C   UNL A   1      36.662  21.950  24.541  1.00  0.00     0.001 A 
ATOM     32  C   UNL A   1      34.346  21.353  25.110  1.00  0.00    -0.025 A 
ATOM     33  C   UNL A   1      35.591  21.001  24.736  1.00  0.00     0.005 A 
ATOM     34  C   UNL A   1      33.208  20.392  25.220  1.00  0.00     0.047 C 
ENDBRANCH  22  23
ENDBRANCH  14  22
ENDBRANCH   8  10
ENDBRANCH   7   8
ENDBRANCH   6   7
ENDBRANCH   3   6
ENDBRANCH   1   2
BRANCH   1  35
ATOM     35  C   UNL A   1      39.693  26.340  28.760  1.00  0.00     0.023 C 
BRANCH  35  36
ATOM     36  C   UNL A   1      38.875  24.981  27.633  1.00  0.00     0.023 C 
BRANCH  36  37
ATOM     37  C   UNL A   1      39.307  23.339  26.804  1.00  0.00     0.116 C 
BRANCH  37  38
ATOM     38  N   UNL A   1      40.685  22.301  26.080  1.00  0.00    -0.352 N 
ATOM     39  C   UNL A   1      42.333  22.030  25.634  1.00  0.00     0.251 C 
ATOM     40  H   UNL A   1      40.233  21.468  25.812  1.00  0.00     0.163 HD
ATOM     41  O   UNL A   1      42.562  20.795  25.662  1.00  0.00    -0.269 OA
BRANCH  39  42
ATOM     42  C   UNL A   1      43.897  22.994  25.262  1.00  0.00     0.039 A 
ATOM     43  C   UNL A   1      45.205  22.465  25.270  1.00  0.00     0.014 A 
ATOM     44  C   UNL A   1      44.180  24.395  25.510  1.00  0.00     0.014 A 
ATOM     45  C   UNL A   1      46.345  23.210  25.973  1.00  0.00     0.010 A 
ATOM     46  C   UNL A   1      45.262  25.236  25.881  1.00  0.00     0.010 A 
ATOM     47  C   UNL A   1      46.213  24.526  26.524  1.00  0.00    -0.014 A 
BRANCH  47  48
ATOM     48  C   UNL A   1      46.604  25.081  27.902  1.00  0.00     0.031 A 
ATOM     49  C   UNL A   1      45.533  25.267  28.890  1.00  0.00     0.074 A 
ATOM     50  C   UNL A   1      47.844  25.254  28.478  1.00  0.00     0.049 A 
ATOM     51  N   UNL A   1      45.129  26.411  29.322  1.00  0.00    -0.248 NA
ATOM     52  C   UNL A   1      44.880  24.123  29.520  1.00  0.00     0.031 C 
ATOM     53  C   UNL A   1      48.237  25.902  29.752  1.00  0.00     0.029 A 
ATOM     54  N   UNL A   1      49.098  25.038  27.939  1.00  0.00    -0.354 N 
ATOM     55  C   UNL A   1      44.414  26.145  30.473  1.00  0.00     0.074 A 
ATOM     56  C   UNL A   1      44.093  24.735  30.412  1.00  0.00     0.031 C 
ATOM     57  C   UNL A   1      49.490  26.404  29.632  1.00  0.00     0.029 A 
ATOM     58  C   UNL A   1      49.977  26.074  28.310  1.00  0.00     0.049 A 
ATOM     59  H   UNL A   1      49.343  24.269  27.375  1.00  0.00     0.167 HD
ATOM     60  C   UNL A   1      44.428  27.026  31.520  1.00  0.00     0.037 A 
ATOM     61  C   UNL A   1      50.451  26.920  27.337  1.00  0.00     0.037 A 
ATOM     62  C   UNL A   1      45.523  27.996  31.345  1.00  0.00     0.049 A 
ATOM     63  C   UNL A   1      49.673  28.255  27.392  1.00  0.00     0.074 A 
ATOM     64  C   UNL A   1      46.743  28.145  31.989  1.00  0.00     0.029 A 
ATOM     65  N   UNL A   1      45.609  28.770  30.192  1.00  0.00    -0.354 N 
ATOM     66  N   UNL A   1      48.724  28.492  28.263  1.00  0.00    -0.248 NA
ATOM     67  C   UNL A   1      49.894  29.426  26.541  1.00  0.00     0.031 C 
ATOM     68  C   UNL A   1      47.581  28.962  31.182  1.00  0.00     0.029 A 
ATOM     69  C   UNL A   1      46.868  29.328  30.054  1.00  0.00     0.049 A 
ATOM     70  H   UNL A   1      44.870  28.904  29.556  1.00  0.00     0.167 HD
ATOM     71  C   UNL A   1      48.202  29.754  28.117  1.00  0.00     0.074 A 
ATOM     72  C   UNL A   1      49.002  30.310  27.040  1.00  0.00     0.031 C 
ATOM     73  C   UNL A   1      47.176  30.200  28.918  1.00  0.00     0.037 A 
BRANCH  60  74
ATOM     74  C   UNL A   1      43.699  26.825  32.846  1.00  0.00     0.058 A 
ATOM     75  C   UNL A   1      44.146  25.876  33.794  1.00  0.00     0.135 A 
ATOM     76  C   UNL A   1      42.601  27.600  33.285  1.00  0.00     0.135 A 
ATOM     77  F   UNL A   1      45.249  25.145  33.588  1.00  0.00    -0.206 F 
ATOM     78  C   UNL A   1      43.510  25.654  35.021  1.00  0.00     0.059 A 
ATOM     79  C   UNL A   1      41.913  27.361  34.483  1.00  0.00     0.059 A 
ATOM     80  F   UNL A   1      42.189  28.681  32.610  1.00  0.00    -0.206 F 
ATOM     81  C   UNL A   1      42.380  26.388  35.351  1.00  0.00     0.060 A 
BRANCH  81  82
ATOM     82  S   UNL A   1      41.593  26.114  36.950  1.00  0.00     0.124 S 
ATOM     83  O   UNL A   1      40.712  27.272  37.062  1.00  0.00    -0.237 OA
ATOM     84  O   UNL A   1      40.933  24.828  36.750  1.00  0.00    -0.237 OA
ATOM     85  O   UNL A   1      42.716  26.098  37.885  1.00  0.00    -0.744 OA
ENDBRANCH  81  82
ENDBRANCH  60  74
BRANCH  61  86
ATOM     86  C   UNL A   1      50.862  26.118  26.080  1.00  0.00     0.058 A 
ATOM     87  C   UNL A   1      50.001  26.204  24.963  1.00  0.00     0.135 A 
ATOM     88  C   UNL A   1      52.162  26.302  25.722  1.00  0.00     0.135 A 
ATOM     89  F   UNL A   1      48.772  25.680  25.071  1.00  0.00    -0.206 F 
ATOM     90  C   UNL A   1      50.314  26.919  23.741  1.00  0.00     0.059 A 
ATOM     91  C   UNL A   1      52.373  27.165  24.609  1.00  0.00     0.059 A 
ATOM     92  F   UNL A   1      53.119  26.241  26.666  1.00  0.00    -0.206 F 
ATOM     93  C   UNL A   1      51.562  27.537  23.523  1.00  0.00     0.060 A 
BRANCH  93  94
ATOM     94  S   UNL A   1      52.345  28.914  21.920  1.00  0.00     0.124 S 
ATOM     95  O   UNL A   1      51.525  28.900  20.700  1.00  0.00    -0.237 OA
ATOM     96  O   UNL A   1      52.469  30.335  22.141  1.00  0.00    -0.237 OA
ATOM     97  O   UNL A   1      53.598  28.186  21.876  1.00  0.00    -0.744 OA
ENDBRANCH  93  94
ENDBRANCH  61  86
BRANCH  73  98
ATOM     98  C   UNL A   1      46.399  31.515  28.836  1.00  0.00     0.058 A 
ATOM     99  C   UNL A   1      45.332  31.779  27.965  1.00  0.00     0.135 A 
ATOM    100  C   UNL A   1      46.680  32.572  29.754  1.00  0.00     0.135 A 
ATOM    101  F   UNL A   1      44.864  30.851  27.123  1.00  0.00    -0.206 F 
ATOM    102  C   UNL A   1      44.659  33.008  27.946  1.00  0.00     0.059 A 
ATOM    103  C   UNL A   1      45.970  33.768  29.807  1.00  0.00     0.059 A 
ATOM    104  F   UNL A   1      47.670  32.495  30.654  1.00  0.00    -0.206 F 
ATOM    105  C   UNL A   1      44.983  33.996  28.870  1.00  0.00     0.060 A 
BRANCH 105 106
ATOM    106  S   UNL A   1      44.093  35.559  28.855  1.00  0.00     0.124 S 
ATOM    107  O   UNL A   1      44.652  36.202  27.670  1.00  0.00    -0.237 OA
ATOM    108  O   UNL A   1      42.703  35.127  28.744  1.00  0.00    -0.237 OA
ATOM    109  O   UNL A   1      44.451  36.173  30.130  1.00  0.00    -0.744 OA
ENDBRANCH 105 106
ENDBRANCH  73  98
ENDBRANCH  47  48
ENDBRANCH  39  42
ENDBRANCH  37  38
ENDBRANCH  36  37
ENDBRANCH  35  36
ENDBRANCH   1  35
TORSDOF 20
ENDMDL
MODEL 3
REMARK VINA RESULT:     -13.4      5.213      9.531
REMARK SMILES Cc1ccc(C2=NN(C(=O)CCC(=O)NCCCCNC(=O)c3ccc(-c4c5nc(c(-c6c(F)cc(S(=O)(=O)[O-])cc6F)c6ccc([nH]6)c(-c6c(F)cc(S(=O)(=O)[O-])cc6F)c6nc(c(-c7c(F)cc(S(=O)(=O)[O-])cc7F)c7ccc4[nH]7)C=C6)C=C5)cc3)[C@H](C[C@@H]3C=c4cccc(C)c4=NC3=O)C2)cc1
REMARK SMILES IDX 16 1 15 2 13 3 14 4 12 6 11 7 9 8 10 9 8 10 6 11 7 12 103 13
REMARK SMILES IDX 89 14 5 15 1 16 2 17 3 18 105 19 4 20 104 21 90 22 91 23
REMARK SMILES IDX 92 24 101 25 93 26 100 27 102 28 94 29 99 30 95 31 97 32
REMARK SMILES IDX 96 33 98 34 17 35 18 36 19 37 20 38 21 39 22 41 23 42 24 43
REMARK SMILES IDX 88 44 25 45 87 46 26 47 27 48 28 49 81 50 29 51 86 52 80 53
REMARK SMILES IDX 82 54 30 55 85 56 79 57 78 58 31 60 65 61 44 62 64 63 45 64
REMARK SMILES IDX 48 65 63 66 83 67 46 68 47 69 62 71 84 72 49 73 32 74 33 75
REMARK SMILES IDX 42 76 34 77 35 78 41 79 43 80 36 81 37 82 38 83 39 84 40 85
REMARK SMILES IDX 66 86 67 87 76 88 68 89 69 90 75 91 77 92 70 93 71 94 72 95
REMARK SMILES IDX 73 96 74 97 50 98 51 99 60 100 52 101 53 102 59 103 61 104
REMARK SMILES IDX 54 105 55 106 56 107 57 108 58 109
REMARK H PARENT 15 5 20 40 82 59 48 70
REMARK Flexibility Score: inf
ROOT
ATOM      1  C   UNL A   1      43.237  28.637  27.007  1.00  0.00     0.116 C 
ENDROOT
BRANCH   1   2
ATOM      2  N   UNL A   1      44.398  29.357  26.198  1.00  0.00    -0.356 N 
ATOM      3  C   UNL A   1      45.666  29.804  26.439  1.00  0.00     0.220 C 
ATOM      4  O   UNL A   1      46.255  30.317  25.479  1.00  0.00    -0.275 OA
ATOM      5  H   UNL A   1      44.131  29.530  25.268  1.00  0.00     0.163 HD
BRANCH   3   6
ATOM      6  C   UNL A   1      46.377  29.737  27.781  1.00  0.00     0.110 C 
BRANCH   6   7
ATOM      7  C   UNL A   1      47.037  28.429  28.149  1.00  0.00     0.112 C 
BRANCH   7   8
ATOM      8  C   UNL A   1      47.093  28.292  29.648  1.00  0.00     0.243 C 
ATOM      9  O   UNL A   1      48.136  28.435  30.271  1.00  0.00    -0.273 OA
BRANCH   8  10
ATOM     10  N   UNL A   1      45.863  27.951  30.157  1.00  0.00    -0.230 N 
ATOM     11  C   UNL A   1      43.375  28.692  31.575  1.00  0.00     0.070 C 
ATOM     12  N   UNL A   1      44.552  29.327  30.612  1.00  0.00    -0.174 NA
ATOM     13  C   UNL A   1      43.735  26.862  32.092  1.00  0.00     0.086 C 
ATOM     14  C   UNL A   1      45.271  26.316  31.081  1.00  0.00     0.118 C 
BRANCH  11  15
ATOM     15  C   UNL A   1      41.978  29.014  32.046  1.00  0.00    -0.002 A 
ATOM     16  C   UNL A   1      37.813  28.389  32.138  1.00  0.00     0.044 C 
ATOM     17  C   UNL A   1      39.227  28.839  32.366  1.00  0.00    -0.051 A 
ATOM     18  C   UNL A   1      40.058  28.000  33.105  1.00  0.00     0.004 A 
ATOM     19  C   UNL A   1      39.783  29.929  31.674  1.00  0.00     0.004 A 
ATOM     20  C   UNL A   1      41.432  28.095  32.951  1.00  0.00     0.010 A 
ATOM     21  C   UNL A   1      41.177  30.044  31.536  1.00  0.00     0.010 A 
ENDBRANCH  11  15
BRANCH  14  22
ATOM     22  C   UNL A   1      44.792  24.962  30.451  1.00  0.00     0.045 C 
BRANCH  22  23
ATOM     23  C   UNL A   1      44.236  25.146  29.057  1.00  0.00     0.106 C 
ATOM     24  C   UNL A   1      42.847  25.643  29.197  1.00  0.00    -0.003 C 
ATOM     25  C   UNL A   1      44.373  23.864  28.226  1.00  0.00     0.253 C 
ATOM     26  C   UNL A   1      41.835  25.163  28.490  1.00  0.00    -0.003 A 
ATOM     27  N   UNL A   1      43.294  23.422  27.496  1.00  0.00    -0.212 NA
ATOM     28  O   UNL A   1      45.456  23.281  28.175  1.00  0.00    -0.272 OA
ATOM     29  C   UNL A   1      40.532  25.760  28.549  1.00  0.00     0.010 A 
ATOM     30  C   UNL A   1      42.142  24.002  27.616  1.00  0.00     0.077 A 
ATOM     31  C   UNL A   1      39.554  25.280  27.777  1.00  0.00     0.001 A 
ATOM     32  C   UNL A   1      40.959  23.486  26.854  1.00  0.00    -0.025 A 
ATOM     33  C   UNL A   1      39.775  24.120  26.946  1.00  0.00     0.005 A 
ATOM     34  C   UNL A   1      41.172  22.231  26.074  1.00  0.00     0.047 C 
ENDBRANCH  22  23
ENDBRANCH  14  22
ENDBRANCH   8  10
ENDBRANCH   7   8
ENDBRANCH   6   7
ENDBRANCH   3   6
ENDBRANCH   1   2
BRANCH   1  35
ATOM     35  C   UNL A   1      41.412  29.344  28.159  1.00  0.00     0.023 C 
BRANCH  35  36
ATOM     36  C   UNL A   1      39.530  29.157  27.697  1.00  0.00     0.023 C 
BRANCH  36  37
ATOM     37  C   UNL A   1      37.830  29.182  28.521  1.00  0.00     0.116 C 
BRANCH  37  38
ATOM     38  N   UNL A   1      36.434  30.270  29.128  1.00  0.00    -0.352 N 
ATOM     39  C   UNL A   1      35.758  31.448  30.198  1.00  0.00     0.251 C 
ATOM     40  H   UNL A   1      35.693  30.063  28.514  1.00  0.00     0.163 HD
ATOM     41  O   UNL A   1      34.848  32.068  29.593  1.00  0.00    -0.269 OA
BRANCH  39  42
ATOM     42  C   UNL A   1      36.044  32.173  31.902  1.00  0.00     0.039 A 
ATOM     43  C   UNL A   1      35.744  33.496  32.290  1.00  0.00     0.014 A 
ATOM     44  C   UNL A   1      37.081  31.847  32.864  1.00  0.00     0.014 A 
ATOM     45  C   UNL A   1      36.760  34.328  33.079  1.00  0.00     0.010 A 
ATOM     46  C   UNL A   1      37.887  32.478  33.848  1.00  0.00     0.010 A 
ATOM     47  C   UNL A   1      37.987  33.802  33.599  1.00  0.00    -0.014 A 
BRANCH  47  48
ATOM     48  C   UNL A   1      39.426  34.328  33.505  1.00  0.00     0.031 A 
ATOM     49  C   UNL A   1      40.175  34.049  32.273  1.00  0.00     0.074 A 
ATOM     50  C   UNL A   1      40.106  35.220  34.306  1.00  0.00     0.049 A 
ATOM     51  N   UNL A   1      41.199  33.271  32.201  1.00  0.00    -0.248 NA
ATOM     52  C   UNL A   1      39.835  34.710  31.017  1.00  0.00     0.031 C 
ATOM     53  C   UNL A   1      41.529  35.639  34.297  1.00  0.00     0.029 A 
ATOM     54  N   UNL A   1      39.696  35.842  35.470  1.00  0.00    -0.354 N 
ATOM     55  C   UNL A   1      41.815  33.573  31.003  1.00  0.00     0.074 A 
ATOM     56  C   UNL A   1      40.818  34.274  30.222  1.00  0.00     0.031 C 
ATOM     57  C   UNL A   1      41.901  35.992  35.551  1.00  0.00     0.029 A 
ATOM     58  C   UNL A   1      40.744  35.862  36.411  1.00  0.00     0.049 A 
ATOM     59  H   UNL A   1      38.799  36.219  35.620  1.00  0.00     0.167 HD
ATOM     60  C   UNL A   1      43.176  33.507  30.884  1.00  0.00     0.037 A 
ATOM     61  C   UNL A   1      40.613  35.124  37.562  1.00  0.00     0.037 A 
ATOM     62  C   UNL A   1      43.793  33.436  32.220  1.00  0.00     0.049 A 
ATOM     63  C   UNL A   1      41.437  33.822  37.437  1.00  0.00     0.074 A 
ATOM     64  C   UNL A   1      44.508  34.365  32.964  1.00  0.00     0.029 A 
ATOM     65  N   UNL A   1      43.438  32.431  33.115  1.00  0.00    -0.354 N 
ATOM     66  N   UNL A   1      42.143  33.525  36.374  1.00  0.00    -0.248 NA
ATOM     67  C   UNL A   1      41.581  32.782  38.458  1.00  0.00     0.031 C 
ATOM     68  C   UNL A   1      44.522  33.940  34.320  1.00  0.00     0.029 A 
ATOM     69  C   UNL A   1      43.833  32.743  34.404  1.00  0.00     0.049 A 
ATOM     70  H   UNL A   1      42.966  31.604  32.863  1.00  0.00     0.167 HD
ATOM     71  C   UNL A   1      42.796  32.325  36.516  1.00  0.00     0.074 A 
ATOM     72  C   UNL A   1      42.434  31.919  37.862  1.00  0.00     0.031 C 
ATOM     73  C   UNL A   1      43.577  31.813  35.507  1.00  0.00     0.037 A 
BRANCH  60  74
ATOM     74  C   UNL A   1      43.965  33.843  29.621  1.00  0.00     0.058 A 
ATOM     75  C   UNL A   1      44.137  32.894  28.588  1.00  0.00     0.135 A 
ATOM     76  C   UNL A   1      44.509  35.115  29.327  1.00  0.00     0.135 A 
ATOM     77  F   UNL A   1      43.578  31.678  28.652  1.00  0.00    -0.206 F 
ATOM     78  C   UNL A   1      44.853  33.153  27.414  1.00  0.00     0.059 A 
ATOM     79  C   UNL A   1      45.277  35.384  28.186  1.00  0.00     0.059 A 
ATOM     80  F   UNL A   1      44.252  36.183  30.093  1.00  0.00    -0.206 F 
ATOM     81  C   UNL A   1      45.439  34.397  27.228  1.00  0.00     0.060 A 
BRANCH  81  82
ATOM     82  S   UNL A   1      46.330  34.726  25.696  1.00  0.00     0.124 S 
ATOM     83  O   UNL A   1      47.499  33.863  25.827  1.00  0.00    -0.237 OA
ATOM     84  O   UNL A   1      45.356  34.330  24.684  1.00  0.00    -0.237 OA
ATOM     85  O   UNL A   1      46.608  36.160  25.763  1.00  0.00    -0.744 OA
ENDBRANCH  81  82
ENDBRANCH  60  74
BRANCH  61  86
ATOM     86  C   UNL A   1      39.190  35.288  38.148  1.00  0.00     0.058 A 
ATOM     87  C   UNL A   1      38.387  34.127  38.198  1.00  0.00     0.135 A 
ATOM     88  C   UNL A   1      39.166  35.963  39.330  1.00  0.00     0.135 A 
ATOM     89  F   UNL A   1      38.001  33.574  37.039  1.00  0.00    -0.206 F 
ATOM     90  C   UNL A   1      38.040  33.424  39.417  1.00  0.00     0.059 A 
ATOM     91  C   UNL A   1      38.992  35.155  40.489  1.00  0.00     0.059 A 
ATOM     92  F   UNL A   1      39.871  37.102  39.451  1.00  0.00    -0.206 F 
ATOM     93  C   UNL A   1      38.415  33.890  40.694  1.00  0.00     0.060 A 
BRANCH  93  94
ATOM     94  S   UNL A   1      38.295  33.000  42.761  1.00  0.00     0.124 S 
ATOM     95  O   UNL A   1      39.008  31.719  42.876  1.00  0.00    -0.237 OA
ATOM     96  O   UNL A   1      38.812  33.697  43.914  1.00  0.00    -0.237 OA
ATOM     97  O   UNL A   1      36.849  32.939  42.675  1.00  0.00    -0.744 OA
ENDBRANCH  93  94
ENDBRANCH  61  86
BRANCH  73  98
ATOM     98  C   UNL A   1      44.286  30.458  35.436  1.00  0.00     0.058 A 
ATOM     99  C   UNL A   1      45.666  30.268  35.276  1.00  0.00     0.135 A 
ATOM    100  C   UNL A   1      43.546  29.252  35.624  1.00  0.00     0.135 A 
ATOM    101  F   UNL A   1      46.516  31.298  35.206  1.00  0.00    -0.206 F 
ATOM    102  C   UNL A   1      46.251  28.996  35.223  1.00  0.00     0.059 A 
ATOM    103  C   UNL A   1      44.119  27.984  35.657  1.00  0.00     0.059 A 
ATOM    104  F   UNL A   1      42.216  29.245  35.785  1.00  0.00    -0.206 F 
ATOM    105  C   UNL A   1      45.472  27.860  35.416  1.00  0.00     0.060 A 
BRANCH 105 106
ATOM    106  S   UNL A   1      46.239  26.233  35.375  1.00  0.00     0.124 S 
ATOM    107  O   UNL A   1      45.151  25.412  34.854  1.00  0.00    -0.237 OA
ATOM    108  O   UNL A   1      47.364  26.440  34.468  1.00  0.00    -0.237 OA
ATOM    109  O   UNL A   1      46.601  25.986  36.767  1.00  0.00    -0.744 OA
ENDBRANCH 105 106
ENDBRANCH  73  98
ENDBRANCH  47  48
ENDBRANCH  39  42
ENDBRANCH  37  38
ENDBRANCH  36  37
ENDBRANCH  35  36
ENDBRANCH   1  35
TORSDOF 20
ENDMDL
