MODEL 1
REMARK VINA RESULT:     -10.9      0.000      0.000
REMARK SMILES O=C(N/N=C/c1ccc(C(=O)NCCCCNC(=O)c2ccc(-c3c4nc(c(-c5c(F)cc(S(=O)(=O)[O-])cc5F)c5ccc([nH]5)c(-c5c(F)cc(S(=O)(=O)[O-])cc5F)c5nc(c(-c6c(F)cc(S(=O)(=O)[O-])cc6F)c6ccc3[nH]6)C=C5)C=C4)cc2)cc1)C(=O)Nc1ccc2c(c1)OCO2
REMARK SMILES IDX 14 1 13 2 12 3 10 4 11 5 9 7 6 8 7 9 87 10 8 11 86 12 5 13
REMARK SMILES IDX 4 14 3 15 1 16 2 17 88 19 89 20 90 21 91 23 92 24 96 25
REMARK SMILES IDX 93 26 95 27 94 28 97 29 99 30 98 31 15 32 16 33 17 34 18 35
REMARK SMILES IDX 19 37 20 38 21 39 85 40 22 41 84 42 23 43 24 44 25 45 78 46
REMARK SMILES IDX 26 47 83 48 77 49 79 50 27 51 82 52 76 53 75 54 28 56 62 57
REMARK SMILES IDX 41 58 61 59 42 60 45 61 60 62 80 63 43 64 44 65 59 67 81 68
REMARK SMILES IDX 46 69 29 70 30 71 39 72 31 73 32 74 38 75 40 76 33 77 34 78
REMARK SMILES IDX 35 79 36 80 37 81 63 82 64 83 73 84 65 85 66 86 72 87 74 88
REMARK SMILES IDX 67 89 68 90 69 91 70 92 71 93 47 94 48 95 57 96 49 97 50 98
REMARK SMILES IDX 56 99 58 100 51 101 52 102 53 103 54 104 55 105
REMARK H PARENT 12 6 3 18 90 22 17 36 79 55 45 66
REMARK Flexibility Score: inf
ROOT
ATOM      1  C   UNL A   1      33.205  34.582  28.850  1.00  0.00     0.023 C 
ENDROOT
BRANCH   1   2
ATOM      2  C   UNL A   1      33.920  35.101  30.099  1.00  0.00     0.116 C 
BRANCH   2   3
ATOM      3  N   UNL A   1      33.403  34.450  31.290  1.00  0.00    -0.352 N 
ATOM      4  C   UNL A   1      34.068  33.766  32.278  1.00  0.00     0.251 C 
ATOM      5  O   UNL A   1      33.445  33.312  33.233  1.00  0.00    -0.269 OA
ATOM      6  H   UNL A   1      32.428  34.508  31.407  1.00  0.00     0.163 HD
BRANCH   4   7
ATOM      7  C   UNL A   1      35.547  33.688  32.266  1.00  0.00     0.039 A 
ATOM      8  C   UNL A   1      38.513  33.206  32.946  1.00  0.00    -0.005 A 
ATOM      9  C   UNL A   1      37.527  32.295  32.245  1.00  0.00     0.010 A 
ATOM     10  C   UNL A   1      37.772  34.511  32.801  1.00  0.00     0.010 A 
ATOM     11  C   UNL A   1      36.146  32.493  31.969  1.00  0.00     0.014 A 
ATOM     12  C   UNL A   1      36.396  34.735  32.514  1.00  0.00     0.014 A 
BRANCH   8  13
ATOM     13  C   UNL A   1      40.393  32.742  33.862  1.00  0.00     0.141 C 
ATOM     14  N   UNL A   1      41.284  31.687  33.866  1.00  0.00    -0.180 NA
BRANCH  14  15
ATOM     15  N   UNL A   1      41.960  31.566  35.032  1.00  0.00    -0.239 N 
ATOM     16  O   UNL A   1      42.280  30.558  37.043  1.00  0.00    -0.262 OA
ATOM     17  C   UNL A   1      41.644  30.610  35.991  1.00  0.00     0.329 C 
ATOM     18  H   UNL A   1      42.708  32.182  35.209  1.00  0.00     0.194 HD
BRANCH  17  19
ATOM     19  C   UNL A   1      40.563  29.522  35.726  1.00  0.00     0.315 C 
ATOM     20  O   UNL A   1      39.428  29.705  36.166  1.00  0.00    -0.263 OA
ATOM     21  N   UNL A   1      40.790  28.430  34.885  1.00  0.00    -0.318 N 
ATOM     22  H   UNL A   1      40.125  28.209  34.194  1.00  0.00     0.170 HD
BRANCH  21  23
ATOM     23  C   UNL A   1      41.945  27.641  35.002  1.00  0.00     0.045 A 
ATOM     24  C   UNL A   1      41.772  26.122  36.022  1.00  0.00     0.030 A 
ATOM     25  C   UNL A   1      43.083  27.670  33.562  1.00  0.00     0.076 A 
ATOM     26  C   UNL A   1      42.790  24.643  35.611  1.00  0.00     0.053 A 
ATOM     27  C   UNL A   1      43.924  26.115  33.100  1.00  0.00     0.167 A 
ATOM     28  C   UNL A   1      43.802  24.672  34.128  1.00  0.00     0.165 A 
ATOM     29  O   UNL A   1      44.559  25.737  31.963  1.00  0.00    -0.454 OA
ATOM     30  O   UNL A   1      44.385  23.662  33.437  1.00  0.00    -0.454 OA
ATOM     31  C   UNL A   1      44.535  24.267  32.096  1.00  0.00     0.468 C 
ENDBRANCH  21  23
ENDBRANCH  17  19
ENDBRANCH  14  15
ENDBRANCH   8  13
ENDBRANCH   4   7
ENDBRANCH   2   3
ENDBRANCH   1   2
BRANCH   1  32
ATOM     32  C   UNL A   1      34.018  33.579  28.042  1.00  0.00     0.023 C 
BRANCH  32  33
ATOM     33  C   UNL A   1      34.480  32.371  28.836  1.00  0.00     0.116 C 
BRANCH  33  34
ATOM     34  N   UNL A   1      33.902  31.120  28.364  1.00  0.00    -0.352 N 
ATOM     35  C   UNL A   1      34.567  29.941  28.115  1.00  0.00     0.251 C 
ATOM     36  H   UNL A   1      32.930  31.117  28.206  1.00  0.00     0.163 HD
ATOM     37  O   UNL A   1      33.995  28.982  27.613  1.00  0.00    -0.269 OA
BRANCH  35  38
ATOM     38  C   UNL A   1      36.004  29.892  28.439  1.00  0.00     0.039 A 
ATOM     39  C   UNL A   1      36.403  29.471  29.709  1.00  0.00     0.014 A 
ATOM     40  C   UNL A   1      36.939  30.118  27.426  1.00  0.00     0.014 A 
ATOM     41  C   UNL A   1      37.754  29.209  29.944  1.00  0.00     0.010 A 
ATOM     42  C   UNL A   1      38.264  29.769  27.638  1.00  0.00     0.010 A 
ATOM     43  C   UNL A   1      38.686  29.318  28.899  1.00  0.00    -0.014 A 
BRANCH  43  44
ATOM     44  C   UNL A   1      40.124  29.010  29.091  1.00  0.00     0.031 A 
ATOM     45  C   UNL A   1      41.041  30.097  29.581  1.00  0.00     0.074 A 
ATOM     46  C   UNL A   1      40.617  27.805  28.739  1.00  0.00     0.049 A 
ATOM     47  N   UNL A   1      42.344  30.106  29.662  1.00  0.00    -0.248 NA
ATOM     48  C   UNL A   1      40.403  31.359  29.996  1.00  0.00     0.031 C 
ATOM     49  C   UNL A   1      39.832  26.684  28.219  1.00  0.00     0.029 A 
ATOM     50  N   UNL A   1      41.906  27.331  28.745  1.00  0.00    -0.354 N 
ATOM     51  C   UNL A   1      42.682  31.378  30.107  1.00  0.00     0.074 A 
ATOM     52  C   UNL A   1      41.454  32.131  30.223  1.00  0.00     0.031 C 
ATOM     53  C   UNL A   1      40.652  25.650  27.969  1.00  0.00     0.029 A 
ATOM     54  C   UNL A   1      42.025  26.047  28.267  1.00  0.00     0.049 A 
ATOM     55  H   UNL A   1      42.672  27.861  29.063  1.00  0.00     0.167 HD
ATOM     56  C   UNL A   1      43.906  31.868  30.414  1.00  0.00     0.037 A 
ATOM     57  C   UNL A   1      43.121  25.286  28.073  1.00  0.00     0.037 A 
ATOM     58  C   UNL A   1      45.117  31.096  30.333  1.00  0.00     0.049 A 
ATOM     59  C   UNL A   1      44.473  25.851  28.423  1.00  0.00     0.074 A 
ATOM     60  C   UNL A   1      46.401  31.477  30.673  1.00  0.00     0.029 A 
ATOM     61  N   UNL A   1      45.190  29.785  29.884  1.00  0.00    -0.354 N 
ATOM     62  N   UNL A   1      44.773  27.041  28.887  1.00  0.00    -0.248 NA
ATOM     63  C   UNL A   1      45.636  24.972  28.227  1.00  0.00     0.031 C 
ATOM     64  C   UNL A   1      47.260  30.411  30.389  1.00  0.00     0.029 A 
ATOM     65  C   UNL A   1      46.501  29.346  29.926  1.00  0.00     0.049 A 
ATOM     66  H   UNL A   1      44.423  29.248  29.581  1.00  0.00     0.167 HD
ATOM     67  C   UNL A   1      46.151  27.039  29.079  1.00  0.00     0.074 A 
ATOM     68  C   UNL A   1      46.627  25.731  28.676  1.00  0.00     0.031 C 
ATOM     69  C   UNL A   1      46.948  28.028  29.551  1.00  0.00     0.037 A 
BRANCH  56  70
ATOM     70  C   UNL A   1      43.991  33.297  30.872  1.00  0.00     0.058 A 
ATOM     71  C   UNL A   1      44.102  33.633  32.230  1.00  0.00     0.135 A 
ATOM     72  C   UNL A   1      43.984  34.345  29.937  1.00  0.00     0.135 A 
ATOM     73  F   UNL A   1      44.093  32.672  33.168  1.00  0.00    -0.206 F 
ATOM     74  C   UNL A   1      44.168  34.957  32.649  1.00  0.00     0.059 A 
ATOM     75  C   UNL A   1      44.083  35.675  30.331  1.00  0.00     0.059 A 
ATOM     76  F   UNL A   1      43.877  34.081  28.625  1.00  0.00    -0.206 F 
ATOM     77  C   UNL A   1      44.158  35.972  31.691  1.00  0.00     0.060 A 
BRANCH  77  78
ATOM     78  S   UNL A   1      44.249  37.685  32.252  1.00  0.00     0.124 S 
ATOM     79  O   UNL A   1      45.671  37.817  32.550  1.00  0.00    -0.237 OA
ATOM     80  O   UNL A   1      43.774  38.421  31.085  1.00  0.00    -0.237 OA
ATOM     81  O   UNL A   1      43.360  37.711  33.410  1.00  0.00    -0.744 OA
ENDBRANCH  77  78
ENDBRANCH  56  70
BRANCH  57  82
ATOM     82  C   UNL A   1      42.985  23.902  27.542  1.00  0.00     0.058 A 
ATOM     83  C   UNL A   1      42.714  22.825  28.398  1.00  0.00     0.135 A 
ATOM     84  C   UNL A   1      43.111  23.629  26.170  1.00  0.00     0.135 A 
ATOM     85  F   UNL A   1      42.592  23.033  29.718  1.00  0.00    -0.206 F 
ATOM     86  C   UNL A   1      42.592  21.525  27.920  1.00  0.00     0.059 A 
ATOM     87  C   UNL A   1      42.966  22.340  25.664  1.00  0.00     0.059 A 
ATOM     88  F   UNL A   1      43.352  24.626  25.305  1.00  0.00    -0.206 F 
ATOM     89  C   UNL A   1      42.718  21.292  26.550  1.00  0.00     0.060 A 
BRANCH  89  90
ATOM     90  S   UNL A   1      42.513  19.605  25.935  1.00  0.00     0.124 S 
ATOM     91  O   UNL A   1      42.688  18.825  27.155  1.00  0.00    -0.237 OA
ATOM     92  O   UNL A   1      41.161  19.642  25.388  1.00  0.00    -0.237 OA
ATOM     93  O   UNL A   1      43.578  19.478  24.945  1.00  0.00    -0.744 OA
ENDBRANCH  89  90
ENDBRANCH  57  82
BRANCH  69  94
ATOM     94  C   UNL A   1      48.410  27.729  29.730  1.00  0.00     0.058 A 
ATOM     95  C   UNL A   1      48.897  27.057  30.862  1.00  0.00     0.135 A 
ATOM     96  C   UNL A   1      49.318  28.026  28.700  1.00  0.00     0.135 A 
ATOM     97  F   UNL A   1      48.071  26.757  31.876  1.00  0.00    -0.206 F 
ATOM     98  C   UNL A   1      50.234  26.691  30.966  1.00  0.00     0.059 A 
ATOM     99  C   UNL A   1      50.653  27.646  28.772  1.00  0.00     0.059 A 
ATOM    100  F   UNL A   1      48.899  28.660  27.593  1.00  0.00    -0.206 F 
ATOM    101  C   UNL A   1      51.103  26.981  29.911  1.00  0.00     0.060 A 
BRANCH 101 102
ATOM    102  S   UNL A   1      52.819  26.430  30.026  1.00  0.00     0.124 S 
ATOM    103  O   UNL A   1      52.724  25.385  31.039  1.00  0.00    -0.237 OA
ATOM    104  O   UNL A   1      53.092  25.974  28.667  1.00  0.00    -0.237 OA
ATOM    105  O   UNL A   1      53.536  27.635  30.433  1.00  0.00    -0.744 OA
ENDBRANCH 101 102
ENDBRANCH  69  94
ENDBRANCH  43  44
ENDBRANCH  35  38
ENDBRANCH  33  34
ENDBRANCH  32  33
ENDBRANCH   1  32
TORSDOF 18
ENDMDL
MODEL 2
REMARK VINA RESULT:     -10.6      4.858     12.854
REMARK SMILES O=C(N/N=C/c1ccc(C(=O)NCCCCNC(=O)c2ccc(-c3c4nc(c(-c5c(F)cc(S(=O)(=O)[O-])cc5F)c5ccc([nH]5)c(-c5c(F)cc(S(=O)(=O)[O-])cc5F)c5nc(c(-c6c(F)cc(S(=O)(=O)[O-])cc6F)c6ccc3[nH]6)C=C5)C=C4)cc2)cc1)C(=O)Nc1ccc2c(c1)OCO2
REMARK SMILES IDX 14 1 13 2 12 3 10 4 11 5 9 7 6 8 7 9 87 10 8 11 86 12 5 13
REMARK SMILES IDX 4 14 3 15 1 16 2 17 88 19 89 20 90 21 91 23 92 24 96 25
REMARK SMILES IDX 93 26 95 27 94 28 97 29 99 30 98 31 15 32 16 33 17 34 18 35
REMARK SMILES IDX 19 37 20 38 21 39 85 40 22 41 84 42 23 43 24 44 25 45 78 46
REMARK SMILES IDX 26 47 83 48 77 49 79 50 27 51 82 52 76 53 75 54 28 56 62 57
REMARK SMILES IDX 41 58 61 59 42 60 45 61 60 62 80 63 43 64 44 65 59 67 81 68
REMARK SMILES IDX 46 69 29 70 30 71 39 72 31 73 32 74 38 75 40 76 33 77 34 78
REMARK SMILES IDX 35 79 36 80 37 81 63 82 64 83 73 84 65 85 66 86 72 87 74 88
REMARK SMILES IDX 67 89 68 90 69 91 70 92 71 93 47 94 48 95 57 96 49 97 50 98
REMARK SMILES IDX 56 99 58 100 51 101 52 102 53 103 54 104 55 105
REMARK H PARENT 12 6 3 18 90 22 17 36 79 55 45 66
REMARK Flexibility Score: inf
ROOT
ATOM      1  C   UNL A   1      42.413  22.612  28.531  1.00  0.00     0.023 C 
ENDROOT
BRANCH   1   2
ATOM      2  C   UNL A   1      41.143  21.791  28.304  1.00  0.00     0.116 C 
BRANCH   2   3
ATOM      3  N   UNL A   1      41.417  20.655  27.441  1.00  0.00    -0.352 N 
ATOM      4  C   UNL A   1      40.710  20.176  26.365  1.00  0.00     0.251 C 
ATOM      5  O   UNL A   1      41.132  19.210  25.737  1.00  0.00    -0.269 OA
ATOM      6  H   UNL A   1      42.235  20.153  27.660  1.00  0.00     0.163 HD
BRANCH   4   7
ATOM      7  C   UNL A   1      39.512  20.899  25.878  1.00  0.00     0.039 A 
ATOM      8  C   UNL A   1      36.797  22.330  25.613  1.00  0.00    -0.005 A 
ATOM      9  C   UNL A   1      38.158  22.904  25.950  1.00  0.00     0.010 A 
ATOM     10  C   UNL A   1      37.236  21.010  25.030  1.00  0.00     0.010 A 
ATOM     11  C   UNL A   1      39.406  22.242  26.119  1.00  0.00     0.014 A 
ATOM     12  C   UNL A   1      38.479  20.334  25.175  1.00  0.00     0.014 A 
BRANCH   8  13
ATOM     13  C   UNL A   1      34.847  23.173  25.897  1.00  0.00     0.141 C 
ATOM     14  N   UNL A   1      34.106  24.209  25.366  1.00  0.00    -0.180 NA
BRANCH  14  15
ATOM     15  N   UNL A   1      33.242  24.754  26.253  1.00  0.00    -0.239 N 
ATOM     16  O   UNL A   1      31.133  25.036  27.051  1.00  0.00    -0.262 OA
ATOM     17  C   UNL A   1      31.876  24.496  26.231  1.00  0.00     0.329 C 
ATOM     18  H   UNL A   1      33.596  25.360  26.944  1.00  0.00     0.194 HD
BRANCH  17  19
ATOM     19  C   UNL A   1      31.263  23.451  25.254  1.00  0.00     0.315 C 
ATOM     20  O   UNL A   1      31.578  22.269  25.387  1.00  0.00    -0.263 OA
ATOM     21  N   UNL A   1      30.260  23.781  24.340  1.00  0.00    -0.318 N 
ATOM     22  H   UNL A   1      29.458  23.214  24.281  1.00  0.00     0.170 HD
BRANCH  21  23
ATOM     23  C   UNL A   1      30.369  24.902  23.503  1.00  0.00     0.045 A 
ATOM     24  C   UNL A   1      29.566  26.437  24.119  1.00  0.00     0.030 A 
ATOM     25  C   UNL A   1      31.891  24.994  22.481  1.00  0.00     0.076 A 
ATOM     26  C   UNL A   1      30.281  28.071  23.659  1.00  0.00     0.053 A 
ATOM     27  C   UNL A   1      32.650  26.635  22.216  1.00  0.00     0.167 A 
ATOM     28  C   UNL A   1      31.833  28.116  22.758  1.00  0.00     0.165 A 
ATOM     29  O   UNL A   1      33.884  26.999  21.789  1.00  0.00    -0.454 OA
ATOM     30  O   UNL A   1      32.715  29.128  22.567  1.00  0.00    -0.454 OA
ATOM     31  C   UNL A   1      33.963  28.386  22.286  1.00  0.00     0.468 C 
ENDBRANCH  21  23
ENDBRANCH  17  19
ENDBRANCH  14  15
ENDBRANCH   8  13
ENDBRANCH   4   7
ENDBRANCH   2   3
ENDBRANCH   1   2
BRANCH   1  32
ATOM     32  C   UNL A   1      43.391  22.578  27.362  1.00  0.00     0.023 C 
BRANCH  32  33
ATOM     33  C   UNL A   1      43.649  23.932  26.730  1.00  0.00     0.116 C 
BRANCH  33  34
ATOM     34  N   UNL A   1      42.628  24.317  25.764  1.00  0.00    -0.352 N 
ATOM     35  C   UNL A   1      41.667  25.290  25.917  1.00  0.00     0.251 C 
ATOM     36  H   UNL A   1      42.626  23.829  24.909  1.00  0.00     0.163 HD
ATOM     37  O   UNL A   1      40.788  25.452  25.079  1.00  0.00    -0.269 OA
BRANCH  35  38
ATOM     38  C   UNL A   1      41.713  26.102  27.146  1.00  0.00     0.039 A 
ATOM     39  C   UNL A   1      42.553  27.215  27.198  1.00  0.00     0.014 A 
ATOM     40  C   UNL A   1      40.806  25.834  28.174  1.00  0.00     0.014 A 
ATOM     41  C   UNL A   1      42.432  28.108  28.264  1.00  0.00     0.010 A 
ATOM     42  C   UNL A   1      40.627  26.769  29.181  1.00  0.00     0.010 A 
ATOM     43  C   UNL A   1      41.443  27.912  29.240  1.00  0.00    -0.014 A 
BRANCH  43  44
ATOM     44  C   UNL A   1      41.250  28.856  30.368  1.00  0.00     0.031 A 
ATOM     45  C   UNL A   1      42.118  28.716  31.588  1.00  0.00     0.074 A 
ATOM     46  C   UNL A   1      40.250  29.760  30.338  1.00  0.00     0.049 A 
ATOM     47  N   UNL A   1      42.020  29.312  32.746  1.00  0.00    -0.248 NA
ATOM     48  C   UNL A   1      43.221  27.741  31.504  1.00  0.00     0.031 C 
ATOM     49  C   UNL A   1      39.322  29.965  29.225  1.00  0.00     0.029 A 
ATOM     50  N   UNL A   1      39.834  30.662  31.286  1.00  0.00    -0.354 N 
ATOM     51  C   UNL A   1      43.024  28.764  33.535  1.00  0.00     0.074 A 
ATOM     52  C   UNL A   1      43.683  27.748  32.745  1.00  0.00     0.031 C 
ATOM     53  C   UNL A   1      38.455  30.939  29.548  1.00  0.00     0.029 A 
ATOM     54  C   UNL A   1      38.735  31.397  30.906  1.00  0.00     0.049 A 
ATOM     55  H   UNL A   1      40.281  30.773  32.156  1.00  0.00     0.167 HD
ATOM     56  C   UNL A   1      43.381  29.095  34.797  1.00  0.00     0.037 A 
ATOM     57  C   UNL A   1      38.024  32.318  31.585  1.00  0.00     0.037 A 
ATOM     58  C   UNL A   1      42.744  30.134  35.560  1.00  0.00     0.049 A 
ATOM     59  C   UNL A   1      38.440  32.673  32.988  1.00  0.00     0.074 A 
ATOM     60  C   UNL A   1      43.061  30.588  36.826  1.00  0.00     0.029 A 
ATOM     61  N   UNL A   1      41.661  30.884  35.122  1.00  0.00    -0.354 N 
ATOM     62  N   UNL A   1      39.422  32.179  33.706  1.00  0.00    -0.248 NA
ATOM     63  C   UNL A   1      37.656  33.709  33.677  1.00  0.00     0.031 C 
ATOM     64  C   UNL A   1      42.145  31.584  37.174  1.00  0.00     0.029 A 
ATOM     65  C   UNL A   1      41.290  31.790  36.101  1.00  0.00     0.049 A 
ATOM     66  H   UNL A   1      41.223  30.786  34.247  1.00  0.00     0.167 HD
ATOM     67  C   UNL A   1      39.401  32.874  34.911  1.00  0.00     0.074 A 
ATOM     68  C   UNL A   1      38.305  33.819  34.828  1.00  0.00     0.031 C 
ATOM     69  C   UNL A   1      40.216  32.745  35.985  1.00  0.00     0.037 A 
BRANCH  56  70
ATOM     70  C   UNL A   1      44.513  28.331  35.425  1.00  0.00     0.058 A 
ATOM     71  C   UNL A   1      44.293  27.156  36.163  1.00  0.00     0.135 A 
ATOM     72  C   UNL A   1      45.839  28.765  35.269  1.00  0.00     0.135 A 
ATOM     73  F   UNL A   1      43.042  26.706  36.361  1.00  0.00    -0.206 F 
ATOM     74  C   UNL A   1      45.341  26.459  36.752  1.00  0.00     0.059 A 
ATOM     75  C   UNL A   1      46.907  28.065  35.821  1.00  0.00     0.059 A 
ATOM     76  F   UNL A   1      46.107  29.883  34.576  1.00  0.00    -0.206 F 
ATOM     77  C   UNL A   1      46.646  26.922  36.575  1.00  0.00     0.060 A 
BRANCH  77  78
ATOM     78  S   UNL A   1      47.996  26.003  37.343  1.00  0.00     0.124 S 
ATOM     79  O   UNL A   1      48.065  24.822  36.489  1.00  0.00    -0.237 OA
ATOM     80  O   UNL A   1      49.112  26.935  37.228  1.00  0.00    -0.237 OA
ATOM     81  O   UNL A   1      47.516  25.767  38.701  1.00  0.00    -0.744 OA
ENDBRANCH  77  78
ENDBRANCH  56  70
BRANCH  57  82
ATOM     82  C   UNL A   1      36.861  32.989  30.940  1.00  0.00     0.058 A 
ATOM     83  C   UNL A   1      35.548  32.675  31.319  1.00  0.00     0.135 A 
ATOM     84  C   UNL A   1      37.037  33.961  29.942  1.00  0.00     0.135 A 
ATOM     85  F   UNL A   1      35.327  31.748  32.263  1.00  0.00    -0.206 F 
ATOM     86  C   UNL A   1      34.450  33.286  30.722  1.00  0.00     0.059 A 
ATOM     87  C   UNL A   1      35.956  34.605  29.349  1.00  0.00     0.059 A 
ATOM     88  F   UNL A   1      38.274  34.310  29.555  1.00  0.00    -0.206 F 
ATOM     89  C   UNL A   1      34.665  34.251  29.737  1.00  0.00     0.060 A 
BRANCH  89  90
ATOM     90  S   UNL A   1      33.232  35.069  29.000  1.00  0.00     0.124 S 
ATOM     91  O   UNL A   1      32.781  34.066  28.043  1.00  0.00    -0.237 OA
ATOM     92  O   UNL A   1      32.371  35.280  30.160  1.00  0.00    -0.237 OA
ATOM     93  O   UNL A   1      33.800  36.283  28.423  1.00  0.00    -0.744 OA
ENDBRANCH  89  90
ENDBRANCH  57  82
BRANCH  69  94
ATOM     94  C   UNL A   1      40.015  33.686  37.140  1.00  0.00     0.058 A 
ATOM     95  C   UNL A   1      40.688  34.914  37.221  1.00  0.00     0.135 A 
ATOM     96  C   UNL A   1      39.052  33.395  38.120  1.00  0.00     0.135 A 
ATOM     97  F   UNL A   1      41.623  35.234  36.313  1.00  0.00    -0.206 F 
ATOM     98  C   UNL A   1      40.414  35.822  38.238  1.00  0.00     0.059 A 
ATOM     99  C   UNL A   1      38.743  34.300  39.130  1.00  0.00     0.059 A 
ATOM    100  F   UNL A   1      38.375  32.237  38.080  1.00  0.00    -0.206 F 
ATOM    101  C   UNL A   1      39.432  35.511  39.182  1.00  0.00     0.060 A 
BRANCH 101 102
ATOM    102  S   UNL A   1      39.031  36.734  40.449  1.00  0.00     0.124 S 
ATOM    103  O   UNL A   1      38.505  37.830  39.643  1.00  0.00    -0.237 OA
ATOM    104  O   UNL A   1      38.054  36.023  41.269  1.00  0.00    -0.237 OA
ATOM    105  O   UNL A   1      40.316  36.989  41.094  1.00  0.00    -0.744 OA
ENDBRANCH 101 102
ENDBRANCH  69  94
ENDBRANCH  43  44
ENDBRANCH  35  38
ENDBRANCH  33  34
ENDBRANCH  32  33
ENDBRANCH   1  32
TORSDOF 18
ENDMDL
MODEL 3
REMARK VINA RESULT:     -10.6      3.774     10.446
REMARK SMILES O=C(N/N=C/c1ccc(C(=O)NCCCCNC(=O)c2ccc(-c3c4nc(c(-c5c(F)cc(S(=O)(=O)[O-])cc5F)c5ccc([nH]5)c(-c5c(F)cc(S(=O)(=O)[O-])cc5F)c5nc(c(-c6c(F)cc(S(=O)(=O)[O-])cc6F)c6ccc3[nH]6)C=C5)C=C4)cc2)cc1)C(=O)Nc1ccc2c(c1)OCO2
REMARK SMILES IDX 14 1 13 2 12 3 10 4 11 5 9 7 6 8 7 9 87 10 8 11 86 12 5 13
REMARK SMILES IDX 4 14 3 15 1 16 2 17 88 19 89 20 90 21 91 23 92 24 96 25
REMARK SMILES IDX 93 26 95 27 94 28 97 29 99 30 98 31 15 32 16 33 17 34 18 35
REMARK SMILES IDX 19 37 20 38 21 39 85 40 22 41 84 42 23 43 24 44 25 45 78 46
REMARK SMILES IDX 26 47 83 48 77 49 79 50 27 51 82 52 76 53 75 54 28 56 62 57
REMARK SMILES IDX 41 58 61 59 42 60 45 61 60 62 80 63 43 64 44 65 59 67 81 68
REMARK SMILES IDX 46 69 29 70 30 71 39 72 31 73 32 74 38 75 40 76 33 77 34 78
REMARK SMILES IDX 35 79 36 80 37 81 63 82 64 83 73 84 65 85 66 86 72 87 74 88
REMARK SMILES IDX 67 89 68 90 69 91 70 92 71 93 47 94 48 95 57 96 49 97 50 98
REMARK SMILES IDX 56 99 58 100 51 101 52 102 53 103 54 104 55 105
REMARK H PARENT 12 6 3 18 90 22 17 36 79 55 45 66
REMARK Flexibility Score: inf
ROOT
ATOM      1  C   UNL A   1      38.556  33.979  30.250  1.00  0.00     0.023 C 
ENDROOT
BRANCH   1   2
ATOM      2  C   UNL A   1      37.375  33.859  29.286  1.00  0.00     0.116 C 
BRANCH   2   3
ATOM      3  N   UNL A   1      36.123  34.099  29.983  1.00  0.00    -0.352 N 
ATOM      4  C   UNL A   1      34.901  33.486  29.834  1.00  0.00     0.251 C 
ATOM      5  O   UNL A   1      33.962  33.814  30.552  1.00  0.00    -0.269 OA
ATOM      6  H   UNL A   1      36.154  34.807  30.664  1.00  0.00     0.163 HD
BRANCH   4   7
ATOM      7  C   UNL A   1      34.749  32.341  28.907  1.00  0.00     0.039 A 
ATOM      8  C   UNL A   1      33.851  29.770  27.467  1.00  0.00    -0.005 A 
ATOM      9  C   UNL A   1      33.380  31.197  27.271  1.00  0.00     0.010 A 
ATOM     10  C   UNL A   1      35.137  30.046  28.205  1.00  0.00     0.010 A 
ATOM     11  C   UNL A   1      33.757  32.380  27.964  1.00  0.00     0.014 A 
ATOM     12  C   UNL A   1      35.542  31.223  28.894  1.00  0.00     0.014 A 
BRANCH   8  13
ATOM     13  C   UNL A   1      32.933  27.931  26.863  1.00  0.00     0.141 C 
ATOM     14  N   UNL A   1      31.672  27.499  26.501  1.00  0.00    -0.180 NA
BRANCH  14  15
ATOM     15  N   UNL A   1      31.438  26.207  26.827  1.00  0.00    -0.239 N 
ATOM     16  O   UNL A   1      30.649  24.142  26.305  1.00  0.00    -0.262 OA
ATOM     17  C   UNL A   1      30.858  25.301  25.947  1.00  0.00     0.329 C 
ATOM     18  H   UNL A   1      31.689  25.896  27.728  1.00  0.00     0.194 HD
BRANCH  17  19
ATOM     19  C   UNL A   1      30.555  25.685  24.470  1.00  0.00     0.315 C 
ATOM     20  O   UNL A   1      29.387  25.901  24.148  1.00  0.00    -0.263 OA
ATOM     21  N   UNL A   1      31.567  25.941  23.541  1.00  0.00    -0.318 N 
ATOM     22  H   UNL A   1      31.518  26.755  22.990  1.00  0.00     0.170 HD
BRANCH  21  23
ATOM     23  C   UNL A   1      32.651  25.065  23.376  1.00  0.00     0.045 A 
ATOM     24  C   UNL A   1      34.158  25.471  24.347  1.00  0.00     0.030 A 
ATOM     25  C   UNL A   1      32.221  23.318  23.012  1.00  0.00     0.076 A 
ATOM     26  C   UNL A   1      35.258  24.105  24.911  1.00  0.00     0.053 A 
ATOM     27  C   UNL A   1      33.254  22.007  23.756  1.00  0.00     0.167 A 
ATOM     28  C   UNL A   1      34.742  22.408  24.637  1.00  0.00     0.165 A 
ATOM     29  O   UNL A   1      33.038  20.679  23.930  1.00  0.00    -0.454 OA
ATOM     30  O   UNL A   1      35.176  21.252  25.197  1.00  0.00    -0.454 OA
ATOM     31  C   UNL A   1      34.008  20.368  24.997  1.00  0.00     0.468 C 
ENDBRANCH  21  23
ENDBRANCH  17  19
ENDBRANCH  14  15
ENDBRANCH   8  13
ENDBRANCH   4   7
ENDBRANCH   2   3
ENDBRANCH   1   2
BRANCH   1  32
ATOM     32  C   UNL A   1      38.159  33.979  31.722  1.00  0.00     0.023 C 
BRANCH  32  33
ATOM     33  C   UNL A   1      38.546  32.717  32.469  1.00  0.00     0.116 C 
BRANCH  33  34
ATOM     34  N   UNL A   1      37.445  31.774  32.610  1.00  0.00    -0.352 N 
ATOM     35  C   UNL A   1      37.341  30.527  32.037  1.00  0.00     0.251 C 
ATOM     36  H   UNL A   1      36.692  32.059  33.178  1.00  0.00     0.163 HD
ATOM     37  O   UNL A   1      36.316  29.865  32.136  1.00  0.00    -0.269 OA
BRANCH  35  38
ATOM     38  C   UNL A   1      38.498  30.037  31.266  1.00  0.00     0.039 A 
ATOM     39  C   UNL A   1      38.580  30.324  29.902  1.00  0.00     0.014 A 
ATOM     40  C   UNL A   1      39.559  29.430  31.941  1.00  0.00     0.014 A 
ATOM     41  C   UNL A   1      39.771  30.060  29.223  1.00  0.00     0.010 A 
ATOM     42  C   UNL A   1      40.768  29.255  31.285  1.00  0.00     0.010 A 
ATOM     43  C   UNL A   1      40.884  29.561  29.919  1.00  0.00    -0.014 A 
BRANCH  43  44
ATOM     44  C   UNL A   1      42.182  29.305  29.248  1.00  0.00     0.031 A 
ATOM     45  C   UNL A   1      42.448  27.938  28.680  1.00  0.00     0.074 A 
ATOM     46  C   UNL A   1      43.142  30.251  29.235  1.00  0.00     0.049 A 
ATOM     47  N   UNL A   1      43.559  27.441  28.205  1.00  0.00    -0.248 NA
ATOM     48  C   UNL A   1      41.319  26.990  28.688  1.00  0.00     0.031 C 
ATOM     49  C   UNL A   1      43.013  31.602  29.785  1.00  0.00     0.029 A 
ATOM     50  N   UNL A   1      44.429  30.210  28.758  1.00  0.00    -0.354 N 
ATOM     51  C   UNL A   1      43.271  26.119  27.887  1.00  0.00     0.074 A 
ATOM     52  C   UNL A   1      41.900  25.874  28.276  1.00  0.00     0.031 C 
ATOM     53  C   UNL A   1      44.167  32.264  29.602  1.00  0.00     0.029 A 
ATOM     54  C   UNL A   1      45.133  31.374  28.965  1.00  0.00     0.049 A 
ATOM     55  H   UNL A   1      44.811  29.423  28.309  1.00  0.00     0.167 HD
ATOM     56  C   UNL A   1      44.071  25.199  27.301  1.00  0.00     0.037 A 
ATOM     57  C   UNL A   1      46.417  31.678  28.690  1.00  0.00     0.037 A 
ATOM     58  C   UNL A   1      45.421  25.466  26.883  1.00  0.00     0.049 A 
ATOM     59  C   UNL A   1      47.290  30.639  28.036  1.00  0.00     0.074 A 
ATOM     60  C   UNL A   1      46.300  24.623  26.230  1.00  0.00     0.029 A 
ATOM     61  N   UNL A   1      46.083  26.671  27.072  1.00  0.00    -0.354 N 
ATOM     62  N   UNL A   1      46.990  29.407  27.698  1.00  0.00    -0.248 NA
ATOM     63  C   UNL A   1      48.673  31.027  27.723  1.00  0.00     0.031 C 
ATOM     64  C   UNL A   1      47.510  25.302  26.063  1.00  0.00     0.029 A 
ATOM     65  C   UNL A   1      47.366  26.588  26.560  1.00  0.00     0.049 A 
ATOM     66  H   UNL A   1      45.697  27.465  27.507  1.00  0.00     0.167 HD
ATOM     67  C   UNL A   1      48.131  28.888  27.095  1.00  0.00     0.074 A 
ATOM     68  C   UNL A   1      49.129  29.939  27.118  1.00  0.00     0.031 C 
ATOM     69  C   UNL A   1      48.332  27.658  26.565  1.00  0.00     0.037 A 
BRANCH  56  70
ATOM     70  C   UNL A   1      43.504  23.826  27.074  1.00  0.00     0.058 A 
ATOM     71  C   UNL A   1      43.028  23.421  25.817  1.00  0.00     0.135 A 
ATOM     72  C   UNL A   1      43.458  22.892  28.122  1.00  0.00     0.135 A 
ATOM     73  F   UNL A   1      43.030  24.280  24.784  1.00  0.00    -0.206 F 
ATOM     74  C   UNL A   1      42.494  22.154  25.615  1.00  0.00     0.059 A 
ATOM     75  C   UNL A   1      42.958  21.608  27.935  1.00  0.00     0.059 A 
ATOM     76  F   UNL A   1      43.898  23.226  29.346  1.00  0.00    -0.206 F 
ATOM     77  C   UNL A   1      42.463  21.253  26.681  1.00  0.00     0.060 A 
BRANCH  77  78
ATOM     78  S   UNL A   1      41.770  19.611  26.399  1.00  0.00     0.124 S 
ATOM     79  O   UNL A   1      42.458  19.212  25.176  1.00  0.00    -0.237 OA
ATOM     80  O   UNL A   1      42.162  18.896  27.609  1.00  0.00    -0.237 OA
ATOM     81  O   UNL A   1      40.339  19.865  26.260  1.00  0.00    -0.744 OA
ENDBRANCH  77  78
ENDBRANCH  56  70
BRANCH  57  82
ATOM     82  C   UNL A   1      46.949  33.032  29.009  1.00  0.00     0.058 A 
ATOM     83  C   UNL A   1      46.857  34.079  28.081  1.00  0.00     0.135 A 
ATOM     84  C   UNL A   1      47.548  33.309  30.248  1.00  0.00     0.135 A 
ATOM     85  F   UNL A   1      46.300  33.863  26.880  1.00  0.00    -0.206 F 
ATOM     86  C   UNL A   1      47.357  35.347  28.360  1.00  0.00     0.059 A 
ATOM     87  C   UNL A   1      48.031  34.577  30.561  1.00  0.00     0.059 A 
ATOM     88  F   UNL A   1      47.645  32.347  31.179  1.00  0.00    -0.206 F 
ATOM     89  C   UNL A   1      47.941  35.587  29.604  1.00  0.00     0.060 A 
BRANCH  89  90
ATOM     90  S   UNL A   1      48.545  37.250  29.972  1.00  0.00     0.124 S 
ATOM     91  O   UNL A   1      49.451  37.486  28.853  1.00  0.00    -0.237 OA
ATOM     92  O   UNL A   1      47.311  38.030  29.972  1.00  0.00    -0.237 OA
ATOM     93  O   UNL A   1      49.179  37.094  31.277  1.00  0.00    -0.744 OA
ENDBRANCH  89  90
ENDBRANCH  57  82
BRANCH  69  94
ATOM     94  C   UNL A   1      49.652  27.384  25.900  1.00  0.00     0.058 A 
ATOM     95  C   UNL A   1      50.784  26.990  26.631  1.00  0.00     0.135 A 
ATOM     96  C   UNL A   1      49.750  27.412  24.499  1.00  0.00     0.135 A 
ATOM     97  F   UNL A   1      50.743  26.954  27.972  1.00  0.00    -0.206 F 
ATOM     98  C   UNL A   1      51.968  26.636  25.995  1.00  0.00     0.059 A 
ATOM     99  C   UNL A   1      50.917  27.037  23.842  1.00  0.00     0.059 A 
ATOM    100  F   UNL A   1      48.693  27.773  23.755  1.00  0.00    -0.206 F 
ATOM    101  C   UNL A   1      52.022  26.653  24.598  1.00  0.00     0.060 A 
BRANCH 101 102
ATOM    102  S   UNL A   1      53.541  26.114  23.784  1.00  0.00     0.124 S 
ATOM    103  O   UNL A   1      53.788  24.835  24.440  1.00  0.00    -0.237 OA
ATOM    104  O   UNL A   1      53.136  26.043  22.384  1.00  0.00    -0.237 OA
ATOM    105  O   UNL A   1      54.492  27.176  24.102  1.00  0.00    -0.744 OA
ENDBRANCH 101 102
ENDBRANCH  69  94
ENDBRANCH  43  44
ENDBRANCH  35  38
ENDBRANCH  33  34
ENDBRANCH  32  33
ENDBRANCH   1  32
TORSDOF 18
ENDMDL
